data_PCOD8127038
_publ_section_title
;
Structure prediction by ZEFSAII (Michael W. Deem and Ramdas Pophale) SiO2 
 PCOD8127038
Probable space group: P 21/C
;
_chemical_formula_sum "Si O2"
_cell_formula_units_Z 32
_cell_length_a 11.557820
_cell_length_b 14.563318
_cell_length_c 9.230053
_cell_angle_alpha 90.000000
_cell_angle_beta 87.895609
_cell_angle_gamma 90.000000
_cell_volume 1552.556663
_symmetry_space_group_name_H-M "P 21/C"
_symmetry_group_IT_number 14
_symmetry_cell_setting 'monoclinic'
loop_
_space_group_symop_operation_xyz
x,y,z
-x,1/2+y,1/2-z
-x,-y,-z
x,1/2-y,1/2+z
loop_
_atom_site_type_symbol
_atom_site_label
_atom_site_fract_x
_atom_site_fract_y
_atom_site_fract_z
Si Si1 0.035200 0.990703 0.708782
Si Si2 0.428468 0.786021 0.204865
Si Si3 0.420362 0.120214 0.388498
Si Si4 0.570440 0.949044 0.297358
Si Si5 0.727273 0.217983 0.049367
Si Si6 0.216289 0.038574 0.240143
Si Si7 0.868515 0.394128 0.060349
Si Si8 0.226180 0.511913 0.410237
O O1 0.124589 0.935177 0.602541
O O2 0.099432 0.016308 0.855313
O O3 0.918857 0.929937 0.744083
O O4 0.992975 0.086170 0.632804
O O5 0.528184 0.721122 0.135087
O O6 0.478174 0.888486 0.213488
O O7 0.387932 0.751103 0.363167
O O8 0.311998 0.788653 0.114870
O O9 0.390676 0.102652 0.557913
O O10 0.515508 0.047713 0.330461
O O11 0.303074 0.115125 0.298330
O O12 0.681026 0.960885 0.192112
O O13 0.835850 0.287481 0.056726
O O14 0.768617 0.121211 0.107557
O O15 0.231362 0.947553 0.342184
O O16 0.246823 0.018095 0.073180
#
# Coordination Sequence:
#
# PCOD8127038 Si02
#       8
#     4   4   4   4   4   4   4   4
#     4   9  21  41  66  90 122 171 218 264 334 402
#     4  12  25  41  62  98 135 170 227 272 328 395
#     4  11  23  42  64  90 135 179 215 261 334 404
#     4  11  25  40  63  95 130 180 215 266 336 396
#     4  12  23  39  64 100 130 164 222 282 319 386
#     4  10  22  38  64  91 129 169 216 266 329 390
#     4   9  20  40  65  91 125 171 219 267 326 402
#     4  12  23  38  67  97 134 168 219 283 335 374
#
# _framework density 20.611163000000001
#
# number of rings (size 3 to 8) (size 9 to 14) (size 15 to 20)
#    0.750    0.500    2.500    4.125    3.500    1.000 
#    0.000    1.250    2.750    0.000    0.000    0.000 
#    0.000    0.000    0.000    0.000    0.000    0.000 
#
# Total GULP energy -396752.350912 kJ/mol
# GULP energy per Si atom -12398.510966 kJ/mol
# Density = 2.056425 g / cm^3
# Si number density = 20.611163 Si / 1000 Ang^3
#
#
#
# Elastic Constant Matrix: (Units=GPa)
#
#
# Indices 1 2 3 4 5 6 
#
# 1 91.4239 16.8113 42.4808 0.0000 7.7136 0.0000
# 2 16.8113 73.1753 23.4217 0.0000 5.3343 0.0000
# 3 42.4808 23.4217 97.5797 0.0000 -7.0258 0.0000
# 4 0.0000 0.0000 0.0000 20.6475 0.0000 -1.1913
# 5 7.7136 5.3343 -7.0258 0.0000 39.3265 0.0000
# 6 0.0000 0.0000 0.0000 -1.1913 0.0000 34.9098
#
#
#
# Elastic Compliance Matrix: (Units=1/GPa)
#
#
# Indices 1 2 3 4 5 6 
#
# 1 0.014365 -0.001011 -0.006285 0.000000 -0.003803 0.000000
# 2 -0.001011 0.015158 -0.003375 0.000000 -0.002461 0.000000
# 3 -0.006285 -0.003375 0.014097 0.000000 0.004209 0.000000
# 4 0.000000 0.000000 0.000000 0.048528 0.000000 0.001656
# 5 -0.003803 -0.002461 0.004209 0.000000 0.027260 0.000000
# 6 0.000000 0.000000 0.000000 0.001656 0.000000 0.028702
#
#
# Mechanical properties :
#
#
# Convention : Reuss Voigt Hill
#
# Bulk Modulus (GPa) = 44.88829 47.51185 46.20007
# Shear Modulus (GPa) = 28.26801 30.94111 29.60456
#
# Velocity S-wave (km/s) = 3.70738 3.87871 3.79401
# Velocity P-wave (km/s) = 6.33657 6.56969 6.45418
#
# Compressibility (1/GPa) = 0.02227753
#
# Stress axis : x y z
#
# Youngs Moduli (GPa) = 69.61239 65.97241 70.93542
#
# Poissons Ratio (x) = 0.06672 0.44582
# Poissons Ratio (y) = 0.07040 0.23942
# Poissons Ratio (z) = 0.43751 0.22267
#
# Static dielectric constant tensor:
#      x y z
#    x 3.590530 0.000000 0.037030 
#    y 0.000000 3.433460 0.000000 
#    z 0.037030 0.000000 3.885820 
# 
# 
# High freq. dielectric constant tensor:
#      x y z
#    x 1.801060 0.000000 0.001540 
#    y 0.000000 1.774370 0.000000 
#    z 0.001540 0.000000 1.825980 
# 
# From -- ./inp_files/13105.got.cif
#   From: 2010.03.12/outbox.cif.g09.slc.cpg/sg14_7_cif.got.tgz:13105.got - 2010.03.31 13:35:05.
