data_PCOD8127699
_publ_section_title
;
Structure prediction by ZEFSAII (Michael W. Deem and Ramdas Pophale) SiO2 
 PCOD8127699
Probable space group: P 21/C
;
_chemical_formula_sum "Si O2"
_cell_formula_units_Z 28
_cell_length_a 14.409700
_cell_length_b 15.771036
_cell_length_c 8.427582
_cell_angle_alpha 90.000000
_cell_angle_beta 136.876965
_cell_angle_gamma 90.000000
_cell_volume 1309.180143
_symmetry_space_group_name_H-M "P 21/C"
_symmetry_group_IT_number 14
_symmetry_cell_setting 'monoclinic'
loop_
_space_group_symop_operation_xyz
x,y,z
-x,1/2+y,1/2-z
-x,-y,-z
x,1/2-y,1/2+z
loop_
_atom_site_type_symbol
_atom_site_label
_atom_site_fract_x
_atom_site_fract_y
_atom_site_fract_z
Si Si1 0.396331 0.642865 0.391165
Si Si2 0.911031 0.982111 0.144397
Si Si3 0.745292 0.251526 0.036361
Si Si4 0.297324 0.160851 0.644628
Si Si5 0.189351 0.504424 0.138312
Si Si6 0.189803 0.174610 0.181150
Si Si7 0.912602 0.338741 0.494877
O O1 0.326382 0.674080 0.464824
O O2 0.369479 0.709277 0.218071
O O3 0.556336 0.634697 0.607275
O O4 0.326777 0.553152 0.260529
O O5 0.823836 0.008044 0.188476
O O6 0.834846 0.907225 0.958224
O O7 0.060073 0.951713 0.390119
O O8 0.923397 0.061248 0.040167
O O9 0.875227 0.214649 0.104723
O O10 0.795996 0.324374 0.218771
O O11 0.192177 0.092330 0.582570
O O12 0.300678 0.156769 0.457249
O O13 0.247316 0.252255 0.640441
O O14 0.053003 0.199761 0.104529
#
# Coordination Sequence:
#
# PCOD8127699 Si02
#       7
#     4   4   4   4   4   4   4
#     4  11  23  45  64  96 132 180 222 263 320 399
#     4  11  24  43  67  99 137 164 220 281 341 389
#     4  10  23  38  71  93 129 171 223 270 326 389
#     4  12  26  43  67  93 136 178 222 264 325 400
#     4  11  24  44  67  98 134 173 216 278 333 388
#     4  12  25  42  67  99 132 172 218 277 334 392
#     4  11  21  41  65 102 131 167 215 282 335 389
#
# _framework density 21.387430999999999
#
# number of rings (size 3 to 8) (size 9 to 14) (size 15 to 20)
#    0.000    0.857    2.857    4.286    2.000    2.286 
#    0.000    0.714    0.000    0.000    0.000    0.000 
#    0.000    0.000    0.000    0.000    0.000    0.000 
#
# Total GULP energy -347320.641634 kJ/mol
# GULP energy per Si atom -12404.308630 kJ/mol
# Density = 2.133875 g / cm^3
# Si number density = 21.387431 Si / 1000 Ang^3
#
#
#
# Elastic Constant Matrix: (Units=GPa)
#
#
# Indices 1 2 3 4 5 6 
#
# 1 65.4094 32.3849 27.8799 0.0000 -7.1889 0.0000
# 2 32.3849 117.5887 57.1366 0.0000 -3.6502 0.0000
# 3 27.8799 57.1366 111.2938 0.0000 -7.3416 0.0000
# 4 0.0000 0.0000 0.0000 32.4723 0.0000 -0.6777
# 5 -7.1889 -3.6502 -7.3416 0.0000 31.2770 0.0000
# 6 0.0000 0.0000 0.0000 -0.6777 0.0000 33.8633
#
#
#
# Elastic Compliance Matrix: (Units=1/GPa)
#
#
# Indices 1 2 3 4 5 6 
#
# 1 0.018592 -0.003811 -0.002487 0.000000 0.003245 0.000000
# 2 -0.003811 0.012112 -0.005310 0.000000 -0.000709 0.000000
# 3 -0.002487 -0.005310 0.012448 0.000000 0.001731 0.000000
# 4 0.000000 0.000000 0.000000 0.030808 0.000000 0.000617
# 5 0.003245 -0.000709 0.001731 0.000000 0.033042 0.000000
# 6 0.000000 0.000000 0.000000 0.000617 0.000000 0.029543
#
#
# Mechanical properties :
#
#
# Convention : Reuss Voigt Hill
#
# Bulk Modulus (GPa) = 50.16023 58.78831 54.47427
# Shear Modulus (GPa) = 30.04676 31.31520 30.68098
#
# Velocity S-wave (km/s) = 3.75224 3.83062 3.79163
# Velocity P-wave (km/s) = 6.50203 6.86381 6.68537
#
# Compressibility (1/GPa) = 0.01993611
#
# Stress axis : x y z
#
# Youngs Moduli (GPa) = 53.78682 82.56197 80.33101
#
# Poissons Ratio (x) = 0.31467 0.19976
# Poissons Ratio (y) = 0.20500 0.42657
# Poissons Ratio (z) = 0.13375 0.43842
#
# Static dielectric constant tensor:
#      x y z
#    x 3.826240 0.000000 -0.178700 
#    y 0.000000 3.714980 0.000000 
#    z -0.178700 0.000000 3.968690 
# 
# 
# High freq. dielectric constant tensor:
#      x y z
#    x 1.835610 0.000000 -0.014910 
#    y 0.000000 1.839900 0.000000 
#    z -0.014910 0.000000 1.848680 
# 
# From -- ./inp_files/13007.got.cif
#   From: 2010.03.12/outbox.cif.g09.slc.cpg/sg14_7_cif.got.tgz:13007.got - 2010.03.31 13:35:05.
