data_PCOD8127797
_publ_section_title
;
Structure prediction by ZEFSAII (Michael W. Deem and Ramdas Pophale) SiO2 
 PCOD8127797
Probable space group: P 21/C
;
_chemical_formula_sum "Si O2"
_cell_formula_units_Z 32
_cell_length_a 9.028390
_cell_length_b 5.976787
_cell_length_c 27.943314
_cell_angle_alpha 90.000000
_cell_angle_beta 80.670966
_cell_angle_gamma 90.000000
_cell_volume 1487.899392
_symmetry_space_group_name_H-M "P 21/C"
_symmetry_group_IT_number 14
_symmetry_cell_setting 'monoclinic'
loop_
_space_group_symop_operation_xyz
x,y,z
-x,1/2+y,1/2-z
-x,-y,-z
x,1/2-y,1/2+z
loop_
_atom_site_type_symbol
_atom_site_label
_atom_site_fract_x
_atom_site_fract_y
_atom_site_fract_z
Si Si1 0.021411 0.202493 0.462555
Si Si2 0.467882 0.047806 0.275990
Si Si3 0.252986 0.008473 0.998359
Si Si4 0.482814 0.196986 0.539518
Si Si5 0.905334 0.863791 0.817245
Si Si6 0.130943 0.987623 0.284875
Si Si7 0.651388 0.525841 0.859013
Si Si8 0.070012 0.726224 0.132783
O O1 0.882148 0.373009 0.470685
O O2 0.020351 0.121349 0.407524
O O3 0.179957 0.321692 0.463856
O O4 0.000000 0.000000 0.500000
O O5 0.507281 0.795317 0.251327
O O6 0.293688 0.031699 0.298123
O O7 0.557551 0.076070 0.320451
O O8 0.340434 0.149362 0.033874
O O9 0.365652 0.841578 0.965882
O O10 0.461963 0.109625 0.594244
O O11 0.500000 0.000000 0.500000
O O12 0.764133 0.706840 0.832192
O O13 0.068558 0.754996 0.801872
O O14 0.863106 0.003346 0.772572
O O15 0.925605 0.006031 0.864706
O O16 0.013155 0.160162 0.313795
O O17 0.755255 0.339963 0.878283
#
# Coordination Sequence:
#
# PCOD8127797 Si02
#       8
#     4   4   4   4   4   4   4   4
#     4  11  23  43  68  98 139 173 230 291 353 423
#     4  12  28  47  69 103 144 186 236 297 362 427
#     4  10  23  41  68  97 134 178 226 293 355 417
#     4  11  23  44  68 100 137 183 237 288 360 436
#     4  11  22  43  67  95 131 173 233 286 349 423
#     4  11  24  40  68  95 131 176 230 284 346 422
#     4  11  25  43  68  98 137 183 233 290 360 430
#     4  11  24  41  70  97 129 182 228 283 355 422
#
# _framework density 21.506829
#
# number of rings (size 3 to 8) (size 9 to 14) (size 15 to 20)
#    0.000    1.000    2.500    3.750    3.500    7.000 
#    0.000    0.000    0.000    0.000    0.000    0.000 
#    0.000    0.000    0.000    0.000    0.000    0.000 
#
# Total GULP energy -396484.489394 kJ/mol
# GULP energy per Si atom -12390.140294 kJ/mol
# Density = 2.145788 g / cm^3
# Si number density = 21.506829 Si / 1000 Ang^3
#
#
#
# Elastic Constant Matrix: (Units=GPa)
#
#
# Indices 1 2 3 4 5 6 
#
# 1 122.3248 27.3518 24.2386 0.0000 3.5744 0.0000
# 2 27.3518 101.1384 20.1295 0.0000 3.0117 0.0000
# 3 24.2386 20.1295 87.7277 0.0000 10.3156 0.0000
# 4 0.0000 0.0000 0.0000 23.6994 0.0000 7.4372
# 5 3.5744 3.0117 10.3156 0.0000 38.0846 0.0000
# 6 0.0000 0.0000 0.0000 7.4372 0.0000 32.1440
#
#
#
# Elastic Compliance Matrix: (Units=1/GPa)
#
#
# Indices 1 2 3 4 5 6 
#
# 1 0.009033 -0.002038 -0.002011 0.000000 -0.000142 0.000000
# 2 -0.002038 0.010822 -0.001902 0.000000 -0.000149 0.000000
# 3 -0.002011 -0.001902 0.012758 0.000000 -0.003116 0.000000
# 4 0.000000 0.000000 0.000000 0.045499 0.000000 -0.010527
# 5 -0.000142 -0.000149 -0.003116 0.000000 0.027127 0.000000
# 6 0.000000 0.000000 0.000000 -0.010527 0.000000 0.033546
#
#
# Mechanical properties :
#
#
# Convention : Reuss Voigt Hill
#
# Bulk Modulus (GPa) = 48.28983 50.51453 49.40218
# Shear Modulus (GPa) = 31.72765 34.75031 33.23898
#
# Velocity S-wave (km/s) = 3.84505 4.02404 3.93556
# Velocity P-wave (km/s) = 6.49727 6.71782 6.60847
#
# Compressibility (1/GPa) = 0.02070829
#
# Stress axis : x y z
#
# Youngs Moduli (GPa) = 110.69940 92.40619 78.38452
#
# Poissons Ratio (x) = 0.18836 0.15767
# Poissons Ratio (y) = 0.22565 0.14912
# Poissons Ratio (z) = 0.22267 0.17579
#
# Static dielectric constant tensor:
#      x y z
#    x 4.077170 0.000000 -0.017260 
#    y 0.000000 4.413630 0.000000 
#    z -0.017260 0.000000 3.798490 
# 
# 
# High freq. dielectric constant tensor:
#      x y z
#    x 1.855180 0.000000 -0.000800 
#    y 0.000000 1.855590 0.000000 
#    z -0.000800 0.000000 1.840070 
# 
# From -- ./inp_files/79222.got.cif
#   From: 2010.03.12/outbox.cif.g09.slc.cpg/sg14_40_cif.got.tgz:79222.got - 2010.03.31 13:35:05.
