data_PCOD8127876
_publ_section_title
;
Structure prediction by ZEFSAII (Michael W. Deem and Ramdas Pophale) SiO2 
 PCOD8127876
Probable space group: P 21/C
;
_chemical_formula_sum "Si O2"
_cell_formula_units_Z 28
_cell_length_a 12.602096
_cell_length_b 5.158397
_cell_length_c 20.043724
_cell_angle_alpha 90.000000
_cell_angle_beta 115.404317
_cell_angle_gamma 90.000000
_cell_volume 1176.980858
_symmetry_space_group_name_H-M "P 21/C"
_symmetry_group_IT_number 14
_symmetry_cell_setting 'monoclinic'
loop_
_space_group_symop_operation_xyz
x,y,z
-x,1/2+y,1/2-z
-x,-y,-z
x,1/2-y,1/2+z
loop_
_atom_site_type_symbol
_atom_site_label
_atom_site_fract_x
_atom_site_fract_y
_atom_site_fract_z
Si Si1 0.424834 0.942929 0.742612
Si Si2 0.371696 0.045391 0.877070
Si Si3 0.588716 0.203036 0.494713
Si Si4 0.986658 0.314036 0.662486
Si Si5 0.136498 0.311006 0.836266
Si Si6 0.113158 0.390483 0.564905
Si Si7 0.749480 0.406782 0.920065
O O1 0.477574 0.665575 0.736737
O O2 0.366867 0.930612 0.800821
O O3 0.324734 0.011229 0.662524
O O4 0.507923 0.110561 0.927481
O O5 0.276831 0.281008 0.859200
O O6 0.339638 0.835889 0.925377
O O7 0.680986 0.071967 0.470883
O O8 0.500000 0.000000 0.500000
O O9 0.906221 0.567335 0.631822
O O10 0.061937 0.306080 0.749153
O O11 0.085490 0.314795 0.633026
O O12 0.895350 0.073515 0.632984
O O13 0.211190 0.613899 0.585093
O O14 0.000000 0.500000 0.500000
O O15 0.149403 0.119507 0.540541
#
# Coordination Sequence:
#
# PCOD8127876 Si02
#       7
#     4   4   4   4   4   4   4
#     4  12  25  46  75 111 149 198 244 299 366 438
#     4  11  26  44  73 109 145 193 242 299 366 438
#     4  11  27  47  71 108 149 192 244 296 365 450
#     4  10  23  46  68 106 139 180 244 296 354 430
#     4  10  23  42  75 102 139 185 233 300 361 417
#     4  12  28  48  75 104 145 195 247 300 369 434
#     4  12  27  49  76 106 151 195 245 306 365 441
#
# _framework density 23.789681000000002
#
# number of rings (size 3 to 8) (size 9 to 14) (size 15 to 20)
#    0.000    0.857    1.429    3.857    8.000    2.286 
#    0.000    0.000    0.000    0.000    0.000    0.000 
#    0.000    0.000    0.000    0.000    0.000    0.000 
#
# Total GULP energy -347198.473581 kJ/mol
# GULP energy per Si atom -12399.945485 kJ/mol
# Density = 2.373553 g / cm^3
# Si number density = 23.789681 Si / 1000 Ang^3
#
#
#
# Elastic Constant Matrix: (Units=GPa)
#
#
# Indices 1 2 3 4 5 6 
#
# 1 137.4923 50.9945 40.4437 0.0000 -31.5458 0.0000
# 2 50.9945 137.1972 27.5419 0.0000 -20.4980 0.0000
# 3 40.4437 27.5419 88.3443 0.0000 -22.5552 0.0000
# 4 0.0000 0.0000 0.0000 26.3560 0.0000 1.2194
# 5 -31.5458 -20.4980 -22.5552 0.0000 46.0094 0.0000
# 6 0.0000 0.0000 0.0000 1.2194 0.0000 56.8095
#
#
#
# Elastic Compliance Matrix: (Units=1/GPa)
#
#
# Indices 1 2 3 4 5 6 
#
# 1 0.010010 -0.002523 -0.002664 0.000000 0.004433 0.000000
# 2 -0.002523 0.008694 -0.001152 0.000000 0.001578 0.000000
# 3 -0.002664 -0.001152 0.014061 0.000000 0.004553 0.000000
# 4 0.000000 0.000000 0.000000 0.037980 0.000000 -0.000815
# 5 0.004433 0.001578 0.004553 0.000000 0.027709 0.000000
# 6 0.000000 0.000000 0.000000 -0.000815 0.000000 0.017620
#
#
# Mechanical properties :
#
#
# Convention : Reuss Voigt Hill
#
# Bulk Modulus (GPa) = 49.78860 66.77713 58.28286
# Shear Modulus (GPa) = 36.91471 42.10523 39.50997
#
# Velocity S-wave (km/s) = 3.94345 4.21158 4.07972
# Velocity P-wave (km/s) = 6.45821 7.19587 6.83700
#
# Compressibility (1/GPa) = 0.02008492
#
# Stress axis : x y z
#
# Youngs Moduli (GPa) = 99.90297 115.02449 71.12099
#
# Poissons Ratio (x) = 0.29025 0.18946
# Poissons Ratio (y) = 0.25210 0.08195
# Poissons Ratio (z) = 0.26614 0.13253
#
# Static dielectric constant tensor:
#      x y z
#    x 4.083480 0.000000 0.181410 
#    y 0.000000 4.725750 0.000000 
#    z 0.181410 0.000000 4.546540 
# 
# 
# High freq. dielectric constant tensor:
#      x y z
#    x 1.951710 0.000000 -0.001030 
#    y 0.000000 1.948540 0.000000 
#    z -0.001030 0.000000 1.953050 
# 
# From -- ./inp_files/66330.got.cif
#   From: 2010.03.12/outbox.cif.g09.slc.cpg/sg14_34_cif.got.tgz:66330.got - 2010.03.31 13:35:05.
