data_PCOD8127639
_publ_section_title
;
Structure prediction by ZEFSAII (Michael W. Deem and Ramdas Pophale) SiO2 
 PCOD8127639
Probable space group: P 21/C
;
_chemical_formula_sum "Si O2"
_cell_formula_units_Z 28
_cell_length_a 15.001793
_cell_length_b 13.505081
_cell_length_c 9.594135
_cell_angle_alpha 90.000000
_cell_angle_beta 143.318688
_cell_angle_gamma 90.000000
_cell_volume 1161.140957
_symmetry_space_group_name_H-M "P 21/C"
_symmetry_group_IT_number 14
_symmetry_cell_setting 'monoclinic'
loop_
_space_group_symop_operation_xyz
x,y,z
-x,1/2+y,1/2-z
-x,-y,-z
x,1/2-y,1/2+z
loop_
_atom_site_type_symbol
_atom_site_label
_atom_site_fract_x
_atom_site_fract_y
_atom_site_fract_z
Si Si1 0.816201 0.421438 0.866889
Si Si2 0.573749 0.131712 0.478988
Si Si3 0.227494 0.245816 0.714972
Si Si4 0.974384 0.757940 0.292972
Si Si5 0.451372 0.682253 0.363716
Si Si6 0.280584 0.451042 0.723572
Si Si7 0.944740 0.440924 0.732257
O O1 0.891860 0.335494 0.057560
O O2 0.888820 0.526022 0.007503
O O3 0.638504 0.409308 0.675765
O O4 0.843729 0.407607 0.736854
O O5 0.588943 0.184988 0.349764
O O6 0.595492 0.214087 0.625418
O O7 0.418289 0.072106 0.293058
O O8 0.701093 0.049523 0.660561
O O9 0.169438 0.264522 0.486300
O O10 0.089473 0.211271 0.635080
O O11 0.269158 0.358065 0.815855
O O12 0.368465 0.170882 0.893260
O O13 0.042003 0.648429 0.360913
O O14 0.134324 0.466752 0.443771
#
# Coordination Sequence:
#
# PCOD8127639 Si02
#       7
#     4   4   4   4   4   4   4
#     4  11  26  44  71 107 146 182 239 296 358 415
#     4  10  24  43  71 100 141 185 234 293 356 415
#     4  11  24  45  73 100 139 188 229 283 357 427
#     4  12  24  46  73 102 141 187 231 290 355 425
#     4  11  25  44  71 103 139 182 239 290 352 416
#     4  10  22  45  70  98 143 183 234 290 348 429
#     4  11  25  45  71 105 144 185 235 294 356 418
#
# _framework density 24.114211000000001
#
# number of rings (size 3 to 8) (size 9 to 14) (size 15 to 20)
#    0.000    1.143    2.857    2.571    6.000    1.714 
#    2.571    1.429    0.000    0.000    0.000    0.000 
#    0.000    0.000    0.000    0.000    0.000    0.000 
#
# Total GULP energy -347086.863018 kJ/mol
# GULP energy per Si atom -12395.959393 kJ/mol
# Density = 2.405933 g / cm^3
# Si number density = 24.114211 Si / 1000 Ang^3
#
#
#
# Elastic Constant Matrix: (Units=GPa)
#
#
# Indices 1 2 3 4 5 6 
#
# 1 100.3350 20.0101 31.4670 0.0000 -0.6963 0.0000
# 2 20.0101 46.1803 9.8742 0.0000 -3.1354 0.0000
# 3 31.4670 9.8742 86.9489 0.0000 0.7147 0.0000
# 4 0.0000 0.0000 0.0000 38.5728 0.0000 7.1812
# 5 -0.6963 -3.1354 0.7147 0.0000 28.0406 0.0000
# 6 0.0000 0.0000 0.0000 7.1812 0.0000 38.8097
#
#
#
# Elastic Compliance Matrix: (Units=1/GPa)
#
#
# Indices 1 2 3 4 5 6 
#
# 1 0.012056 -0.004404 -0.003862 0.000000 -0.000095 0.000000
# 2 -0.004404 0.023986 -0.001151 0.000000 0.002602 0.000000
# 3 -0.003862 -0.001151 0.013034 0.000000 -0.000557 0.000000
# 4 0.000000 0.000000 0.000000 0.026850 0.000000 -0.004968
# 5 -0.000095 0.002602 -0.000557 0.000000 0.035965 0.000000
# 6 0.000000 0.000000 0.000000 -0.004968 0.000000 0.026686
#
#
# Mechanical properties :
#
#
# Convention : Reuss Voigt Hill
#
# Bulk Modulus (GPa) = 33.06905 39.57405 36.32155
# Shear Modulus (GPa) = 29.85222 32.55879 31.20550
#
# Velocity S-wave (km/s) = 3.52227 3.67848 3.60122
# Velocity P-wave (km/s) = 5.50319 5.87268 5.69093
#
# Compressibility (1/GPa) = 0.03023976
#
# Stress axis : x y z
#
# Youngs Moduli (GPa) = 82.94955 41.69183 76.72248
#
# Poissons Ratio (x) = 0.18363 0.29630
# Poissons Ratio (y) = 0.36534 0.08833
# Poissons Ratio (z) = 0.32035 0.04800
#
# Static dielectric constant tensor:
#      x y z
#    x 4.130540 0.000000 0.211750 
#    y 0.000000 4.338560 0.000000 
#    z 0.211750 0.000000 4.232060 
# 
# 
# High freq. dielectric constant tensor:
#      x y z
#    x 1.941680 0.000000 0.010280 
#    y 0.000000 1.963590 0.000000 
#    z 0.010280 0.000000 1.956570 
# 
# From -- ./inp_files/16443.got.cif
#   From: 2010.03.12/outbox.cif.g09.slc.cpg/sg14_9_cif.got.tgz:16443.got - 2010.03.31 13:35:05.
