data_PCOD8127158
_publ_section_title
;
Structure prediction by ZEFSAII (Michael W. Deem and Ramdas Pophale) SiO2 
 PCOD8127158
Probable space group: P 21/C
;
_chemical_formula_sum "Si O2"
_cell_formula_units_Z 24
_cell_length_a 9.076112
_cell_length_b 15.079368
_cell_length_c 16.892725
_cell_angle_alpha 90.000000
_cell_angle_beta 151.107976
_cell_angle_gamma 90.000000
_cell_volume 1117.053895
_symmetry_space_group_name_H-M "P 21/C"
_symmetry_group_IT_number 14
_symmetry_cell_setting 'monoclinic'
loop_
_space_group_symop_operation_xyz
x,y,z
-x,1/2+y,1/2-z
-x,-y,-z
x,1/2-y,1/2+z
loop_
_atom_site_type_symbol
_atom_site_label
_atom_site_fract_x
_atom_site_fract_y
_atom_site_fract_z
Si Si1 0.885766 0.159873 0.106187
Si Si2 0.196797 0.518178 0.755879
Si Si3 0.716863 0.687483 0.765324
Si Si4 0.125591 0.967783 0.402695
Si Si5 0.994459 0.663565 0.155076
Si Si6 0.401152 0.688470 0.784999
O O1 0.951255 0.056715 0.117073
O O2 0.106685 0.219836 0.156775
O O3 0.946649 0.185022 0.225716
O O4 0.534235 0.179122 0.921640
O O5 0.126441 0.554519 0.810300
O O6 0.175113 0.603496 0.688087
O O7 0.527747 0.472868 0.904591
O O8 0.561452 0.681851 0.776794
O O9 0.960150 0.608687 0.873366
O O10 0.947081 0.059893 0.334795
O O11 0.212587 0.720783 0.201355
O O12 0.643557 0.685990 0.970649
#
# Coordination Sequence:
#
# PCOD8127158 Si02
#       6
#     4   4   4   4   4   4
#     4  11  23  39  61  85 114 156 197 238 281 344
#     4   9  20  39  61  84 115 153 195 237 284 342
#     4  12  24  37  59  89 120 150 189 241 294 340
#     4   9  20  39  61  85 114 154 195 235 285 344
#     4  10  22  40  61  82 112 155 195 232 282 344
#     4  11  23  38  59  87 119 152 187 241 294 341
#
# _framework density 21.485088000000001
#
# number of rings (size 3 to 8) (size 9 to 14) (size 15 to 20)
#    0.000    1.667    0.000    5.000    0.000    8.667 
#    0.000    0.000    0.000    0.000    0.000    0.000 
#    0.000    0.000    0.000    0.000    0.000    0.000 
#
# Total GULP energy -297701.989963 kJ/mol
# GULP energy per Si atom -12404.249582 kJ/mol
# Density = 2.143619 g / cm^3
# Si number density = 21.485088 Si / 1000 Ang^3
#
#
#
# Elastic Constant Matrix: (Units=GPa)
#
#
# Indices 1 2 3 4 5 6 
#
# 1 98.2468 53.3538 -1.4951 0.0000 16.7350 0.0000
# 2 53.3538 81.5011 3.7307 0.0000 9.8810 0.0000
# 3 -1.4951 3.7307 59.1472 0.0000 2.8280 0.0000
# 4 0.0000 0.0000 0.0000 28.6693 0.0000 18.2012
# 5 16.7350 9.8810 2.8280 0.0000 25.6197 0.0000
# 6 0.0000 0.0000 0.0000 18.2012 0.0000 39.2436
#
#
#
# Elastic Compliance Matrix: (Units=1/GPa)
#
#
# Indices 1 2 3 4 5 6 
#
# 1 0.017068 -0.010352 0.001434 0.000000 -0.007315 0.000000
# 2 -0.010352 0.019170 -0.001448 0.000000 -0.000471 0.000000
# 3 0.001434 -0.001448 0.017143 0.000000 -0.002271 0.000000
# 4 0.000000 0.000000 0.000000 0.049438 0.000000 -0.022929
# 5 -0.007315 -0.000471 -0.002271 0.000000 0.044243 0.000000
# 6 0.000000 0.000000 0.000000 -0.022929 0.000000 0.036116
#
#
# Mechanical properties :
#
#
# Convention : Reuss Voigt Hill
#
# Bulk Modulus (GPa) = 30.62919 38.89712 34.76315
# Shear Modulus (GPa) = 23.27808 30.92688 27.10248
#
# Velocity S-wave (km/s) = 3.29516 3.79814 3.55555
# Velocity P-wave (km/s) = 5.36324 6.11375 5.75075
#
# Compressibility (1/GPa) = 0.03264860
#
# Stress axis : x y z
#
# Youngs Moduli (GPa) = 58.58862 52.16410 58.33239
#
# Poissons Ratio (x) = 0.54002 -0.08366
# Poissons Ratio (y) = 0.60653 0.08448
# Poissons Ratio (z) = -0.08403 0.07555
#
# Static dielectric constant tensor:
#      x y z
#    x 3.696870 0.000000 0.075300 
#    y 0.000000 4.020900 0.000000 
#    z 0.075300 0.000000 3.902920 
# 
# 
# High freq. dielectric constant tensor:
#      x y z
#    x 1.837420 0.000000 0.006180 
#    y 0.000000 1.855560 0.000000 
#    z 0.006180 0.000000 1.833670 
# 
# From -- ./inp_files/8456.got.cif
#   From: 2010.03.12/outbox.cif.g09.slc.cpg/sg14_5_cif.got.tgz:8456.got - 2010.03.31 13:35:05.
