data_PCOD8127381
_publ_section_title
;
Structure prediction by ZEFSAII (Michael W. Deem and Ramdas Pophale) SiO2 
 PCOD8127381
Probable space group: P 21/C
;
_chemical_formula_sum "Si O2"
_cell_formula_units_Z 20
_cell_length_a 11.469396
_cell_length_b 18.519788
_cell_length_c 4.943126
_cell_angle_alpha 90.000000
_cell_angle_beta 117.438179
_cell_angle_gamma 90.000000
_cell_volume 931.860230
_symmetry_space_group_name_H-M "P 21/C"
_symmetry_group_IT_number 14
_symmetry_cell_setting 'monoclinic'
loop_
_space_group_symop_operation_xyz
x,y,z
-x,1/2+y,1/2-z
-x,-y,-z
x,1/2-y,1/2+z
loop_
_atom_site_type_symbol
_atom_site_label
_atom_site_fract_x
_atom_site_fract_y
_atom_site_fract_z
Si Si1 0.027218 0.934682 0.820228
Si Si2 0.462119 0.797655 0.441997
Si Si3 0.837313 0.297372 0.337689
Si Si4 0.388195 0.056925 0.442547
Si Si5 0.215148 0.033421 0.754403
O O1 0.900715 0.917109 0.497137
O O2 0.149182 0.956077 0.754910
O O3 0.062483 0.862877 0.018325
O O4 0.000000 0.000000 0.000000
O O5 0.492305 0.731269 0.273437
O O6 0.311353 0.824227 0.268996
O O7 0.552481 0.864093 0.452717
O O8 0.864710 0.230580 0.566373
O O9 0.328285 0.025371 0.654087
O O10 0.500000 0.000000 0.500000
O O11 0.277115 0.065533 0.094046
#
# Coordination Sequence:
#
# PCOD8127381 Si02
#       5
#     4   4   4   4   4
#     4  11  24  45  70  94 139 170 223 277 325 379
#     4  10  22  42  64  92 128 171 212 270 329 385
#     4  10  24  41  67  96 127 170 223 267 326 387
#     4  12  24  42  66  98 131 168 221 268 324 392
#     4  11  25  40  67  98 126 172 221 260 335 377
#
# _framework density 21.462444999999999
#
# number of rings (size 3 to 8) (size 9 to 14) (size 15 to 20)
#    0.000    1.200    2.000    3.000    5.600    3.200 
#    0.000    6.000    0.000    0.000    0.000    0.000 
#    0.000    0.000    0.000    0.000    0.000    0.000 
#
# Total GULP energy -248014.677522 kJ/mol
# GULP energy per Si atom -12400.733876 kJ/mol
# Density = 2.141360 g / cm^3
# Si number density = 21.462445 Si / 1000 Ang^3
#
#
#
# Elastic Constant Matrix: (Units=GPa)
#
#
# Indices 1 2 3 4 5 6 
#
# 1 70.2091 25.0753 -3.3865 0.0000 -2.6122 0.0000
# 2 25.0753 81.0688 25.6974 0.0000 21.5833 0.0000
# 3 -3.3865 25.6974 107.3975 0.0000 10.5861 0.0000
# 4 0.0000 0.0000 0.0000 30.0307 0.0000 7.3359
# 5 -2.6122 21.5833 10.5861 0.0000 36.3948 0.0000
# 6 0.0000 0.0000 0.0000 7.3359 0.0000 27.0297
#
#
#
# Elastic Compliance Matrix: (Units=1/GPa)
#
#
# Indices 1 2 3 4 5 6 
#
# 1 0.017069 -0.007158 0.001762 0.000000 0.004958 0.000000
# 2 -0.007158 0.018469 -0.003618 0.000000 -0.010414 0.000000
# 3 0.001762 -0.003618 0.010304 0.000000 -0.000725 0.000000
# 4 0.000000 0.000000 0.000000 0.035664 0.000000 -0.009679
# 5 0.004958 -0.010414 -0.000725 0.000000 0.034219 0.000000
# 6 0.000000 0.000000 0.000000 -0.009679 0.000000 0.039623
#
#
# Mechanical properties :
#
#
# Convention : Reuss Voigt Hill
#
# Bulk Modulus (GPa) = 35.95356 39.27198 37.61277
# Shear Modulus (GPa) = 27.37519 32.77698 30.07608
#
# Velocity S-wave (km/s) = 3.57528 3.91215 3.74750
# Velocity P-wave (km/s) = 5.81650 6.22449 6.02395
#
# Compressibility (1/GPa) = 0.02781366
#
# Stress axis : x y z
#
# Youngs Moduli (GPa) = 58.58519 54.14556 97.04982
#
# Poissons Ratio (x) = 0.38758 -0.17103
# Poissons Ratio (y) = 0.41936 0.35116
# Poissons Ratio (z) = -0.10325 0.19592
#
# Static dielectric constant tensor:
#      x y z
#    x 4.680380 0.000000 -0.293670 
#    y 0.000000 3.698390 0.000000 
#    z -0.293670 0.000000 4.331190 
# 
# 
# High freq. dielectric constant tensor:
#      x y z
#    x 1.849510 0.000000 -0.007090 
#    y 0.000000 1.817660 0.000000 
#    z -0.007090 0.000000 1.863110 
# 
# From -- ./inp_files/2726.got.cif
#   From: 2010.03.12/outbox.cif.g09.slc.cpg/sg14_2_cif.got.tgz:2726.got - 2010.03.31 13:35:05.
