data_PCOD8127806
_publ_section_title
;
Structure prediction by ZEFSAII (Michael W. Deem and Ramdas Pophale) SiO2 
 PCOD8127806
Probable space group: P 21/C
;
_chemical_formula_sum "Si O2"
_cell_formula_units_Z 28
_cell_length_a 25.035628
_cell_length_b 8.161521
_cell_length_c 16.493000
_cell_angle_alpha 90.000000
_cell_angle_beta 22.911173
_cell_angle_gamma 90.000000
_cell_volume 1311.951099
_symmetry_space_group_name_H-M "P 21/C"
_symmetry_group_IT_number 14
_symmetry_cell_setting 'monoclinic'
loop_
_space_group_symop_operation_xyz
x,y,z
-x,1/2+y,1/2-z
-x,-y,-z
x,1/2-y,1/2+z
loop_
_atom_site_type_symbol
_atom_site_label
_atom_site_fract_x
_atom_site_fract_y
_atom_site_fract_z
Si Si1 0.110313 0.163379 0.322373
Si Si2 0.033357 0.263189 0.602360
Si Si3 0.146221 0.944146 0.039349
Si Si4 0.840710 0.258725 0.639388
Si Si5 0.342941 0.003208 0.903124
Si Si6 0.830079 0.480752 0.793746
Si Si7 0.411858 0.783615 0.408959
O O1 0.150012 0.328480 0.217289
O O2 0.121016 0.196095 0.403490
O O3 0.953185 0.119150 0.511475
O O4 0.215320 0.026950 0.143858
O O5 0.981413 0.104625 0.724892
O O6 0.900714 0.369819 0.763545
O O7 0.128407 0.376848 0.525465
O O8 0.158291 0.798394 0.956660
O O9 0.287543 0.957946 0.891919
O O10 0.889742 0.423817 0.621056
O O11 0.686006 0.210996 0.882031
O O12 0.441683 0.161445 0.760432
O O13 0.434279 0.854674 0.809746
O O14 0.667784 0.436602 0.021760
#
# Coordination Sequence:
#
# PCOD8127806 Si02
#       7
#     4   4   4   4   4   4   4
#     4  11  19  39  66  89 120 169 201 245 302 381
#     4  11  21  37  61  95 131 151 204 250 312 352
#     4  12  22  36  61 100 123 157 197 269 308 352
#     4   9  19  37  64  85 124 155 201 243 312 356
#     4  12  25  39  65  90 121 160 216 250 303 359
#     4   9  17  40  61  82 123 166 191 239 294 377
#     4  10  23  42  58  86 120 167 204 248 295 376
#
# _framework density 21.342258000000001
#
# number of rings (size 3 to 8) (size 9 to 14) (size 15 to 20)
#    0.857    0.571    4.286    2.571    0.000    4.000 
#    0.000    0.000    0.000    1.714    0.000    0.000 
#    0.000    0.000    0.000    0.000    0.000    0.000 
#
# Total GULP energy -347083.047647 kJ/mol
# GULP energy per Si atom -12395.823130 kJ/mol
# Density = 2.129368 g / cm^3
# Si number density = 21.342258 Si / 1000 Ang^3
#
#
#
# Elastic Constant Matrix: (Units=GPa)
#
#
# Indices 1 2 3 4 5 6 
#
# 1 127.2521 15.6663 43.1106 0.0000 7.7133 0.0000
# 2 15.6663 22.2290 5.2725 0.0000 7.6535 0.0000
# 3 43.1106 5.2725 86.1937 0.0000 -5.8024 0.0000
# 4 0.0000 0.0000 0.0000 27.5817 0.0000 -9.5419
# 5 7.7133 7.6535 -5.8024 0.0000 28.3188 0.0000
# 6 0.0000 0.0000 0.0000 -9.5419 0.0000 27.5104
#
#
#
# Elastic Compliance Matrix: (Units=1/GPa)
#
#
# Indices 1 2 3 4 5 6 
#
# 1 0.010355 -0.005273 -0.005020 0.000000 -0.002424 0.000000
# 2 -0.005273 0.053679 -0.001548 0.000000 -0.013388 0.000000
# 3 -0.005020 -0.001548 0.014528 0.000000 0.004762 0.000000
# 4 0.000000 0.000000 0.000000 0.041200 0.000000 0.014290
# 5 -0.002424 -0.013388 0.004762 0.000000 0.040567 0.000000
# 6 0.000000 0.000000 0.000000 0.014290 0.000000 0.041306
#
#
# Mechanical properties :
#
#
# Convention : Reuss Voigt Hill
#
# Bulk Modulus (GPa) = 18.22108 40.41927 29.32018
# Shear Modulus (GPa) = 20.52473 28.12387 24.32430
#
# Velocity S-wave (km/s) = 3.10448 3.63403 3.37964
# Velocity P-wave (km/s) = 4.62672 6.04880 5.38491
#
# Compressibility (1/GPa) = 0.05488149
#
# Stress axis : x y z
#
# Youngs Moduli (GPa) = 96.57066 18.62926 68.83375
#
# Poissons Ratio (x) = 0.09823 0.34554
# Poissons Ratio (y) = 0.50919 0.10653
# Poissons Ratio (z) = 0.48477 0.02883
#
# Static dielectric constant tensor:
#      x y z
#    x 3.744140 0.000000 -0.032840 
#    y 0.000000 3.700590 0.000000 
#    z -0.032840 0.000000 3.574020 
# 
# 
# High freq. dielectric constant tensor:
#      x y z
#    x 1.822510 0.000000 0.000170 
#    y 0.000000 1.839160 0.000000 
#    z 0.000170 0.000000 1.815150 
# 
# From -- ./inp_files/51123.got.cif
#   From: 2010.03.12/outbox.cif.g09.slc.cpg/sg14_26_cif.got.tgz:51123.got - 2010.03.31 13:35:05.
