data_PCOD8127957
_publ_section_title
;
Structure prediction by ZEFSAII (Michael W. Deem and Ramdas Pophale) SiO2 
 PCOD8127957
Probable space group: P 21/C
;
_chemical_formula_sum "Si O2"
_cell_formula_units_Z 20
_cell_length_a 12.038874
_cell_length_b 8.024983
_cell_length_c 18.226727
_cell_angle_alpha 90.000000
_cell_angle_beta 149.307212
_cell_angle_gamma 90.000000
_cell_volume 898.832679
_symmetry_space_group_name_H-M "P 21/C"
_symmetry_group_IT_number 14
_symmetry_cell_setting 'monoclinic'
loop_
_space_group_symop_operation_xyz
x,y,z
-x,1/2+y,1/2-z
-x,-y,-z
x,1/2-y,1/2+z
loop_
_atom_site_type_symbol
_atom_site_label
_atom_site_fract_x
_atom_site_fract_y
_atom_site_fract_z
Si Si1 0.238652 0.448281 0.156389
Si Si2 0.444215 0.839976 0.420517
Si Si3 0.382424 0.305968 0.622270
Si Si4 0.209498 0.168173 0.801334
Si Si5 0.997262 0.528867 0.678223
O O1 0.406552 0.593372 0.231795
O O2 0.294669 0.279865 0.145512
O O3 0.250572 0.425690 0.249816
O O4 0.000000 0.500000 0.000000
O O5 0.555931 0.835018 0.403365
O O6 0.550130 0.688027 0.526163
O O7 0.183755 0.833514 0.264565
O O8 0.500000 0.000000 0.500000
O O9 0.203052 0.435131 0.489673
O O10 0.064607 0.052031 0.771678
O O11 0.084927 0.342568 0.716402
#
# Coordination Sequence:
#
# PCOD8127957 Si02
#       5
#     4   4   4   4   4
#     4  12  30  46  70 102 149 184 238 282 353 418
#     4   9  21  42  71  99 132 172 232 284 347 406
#     4  11  27  45  69 102 140 187 233 290 347 424
#     4  10  25  41  72 102 133 182 225 293 344 420
#     4  10  23  43  73  98 139 176 240 284 354 404
#
# _framework density 22.251083000000001
#
# number of rings (size 3 to 8) (size 9 to 14) (size 15 to 20)
#    0.000    1.600    0.000    1.200   22.400    2.400 
#    0.000    0.000    0.000    0.000    0.000    0.000 
#    0.000    0.000    0.000    0.000    0.000    0.000 
#
# Total GULP energy -248002.700690 kJ/mol
# GULP energy per Si atom -12400.135034 kJ/mol
# Density = 2.220044 g / cm^3
# Si number density = 22.251083 Si / 1000 Ang^3
#
#
#
# Elastic Constant Matrix: (Units=GPa)
#
#
# Indices 1 2 3 4 5 6 
#
# 1 86.8194 9.6643 23.2424 0.0000 -0.1938 0.0000
# 2 9.6643 60.2437 16.8441 0.0000 11.7498 0.0000
# 3 23.2424 16.8441 128.2832 0.0000 21.6220 0.0000
# 4 0.0000 0.0000 0.0000 27.8163 0.0000 3.1110
# 5 -0.1938 11.7498 21.6220 0.0000 37.5003 0.0000
# 6 0.0000 0.0000 0.0000 3.1110 0.0000 50.1608
#
#
#
# Elastic Compliance Matrix: (Units=1/GPa)
#
#
# Indices 1 2 3 4 5 6 
#
# 1 0.012339 -0.001705 -0.002340 0.000000 0.001947 0.000000
# 2 -0.001705 0.018193 -0.001238 0.000000 -0.004995 0.000000
# 3 -0.002340 -0.001238 0.009214 0.000000 -0.004937 0.000000
# 4 0.000000 0.000000 0.000000 0.036201 0.000000 -0.002245
# 5 0.001947 -0.004995 -0.004937 0.000000 0.031088 0.000000
# 6 0.000000 0.000000 0.000000 -0.002245 0.000000 0.020075
#
#
# Mechanical properties :
#
#
# Convention : Reuss Voigt Hill
#
# Bulk Modulus (GPa) = 34.26976 41.64975 37.95975
# Shear Modulus (GPa) = 33.92076 38.13517 36.02796
#
# Velocity S-wave (km/s) = 3.90866 4.14437 4.02824
# Velocity P-wave (km/s) = 5.98373 6.45444 6.22353
#
# Compressibility (1/GPa) = 0.02918025
#
# Stress axis : x y z
#
# Youngs Moduli (GPa) = 81.04592 54.96566 108.53263
#
# Poissons Ratio (x) = 0.09371 0.25395
# Poissons Ratio (y) = 0.13817 0.13436
# Poissons Ratio (z) = 0.18963 0.06805
#
# Static dielectric constant tensor:
#      x y z
#    x 3.660610 0.000000 1.270160 
#    y 0.000000 3.802060 0.000000 
#    z 1.270160 0.000000 2.653860 
# 
# 
# High freq. dielectric constant tensor:
#      x y z
#    x 1.883300 0.000000 0.008610 
#    y 0.000000 1.868410 0.000000 
#    z 0.008610 0.000000 1.891790 
# 
# From -- ./inp_files/28231.got.cif
#   From: 2010.03.12/outbox.cif.g09.slc.cpg/sg14_15_cif.got.tgz:28231.got - 2010.03.31 13:35:05.
