data_PCOD8127007
_publ_section_title
;
Structure prediction by ZEFSAII (Michael W. Deem and Ramdas Pophale) SiO2 
 PCOD8127007
Probable space group: P 21/C
;
_chemical_formula_sum "Si O2"
_cell_formula_units_Z 24
_cell_length_a 16.877923
_cell_length_b 8.303346
_cell_length_c 13.705062
_cell_angle_alpha 90.000000
_cell_angle_beta 35.707076
_cell_angle_gamma 90.000000
_cell_volume 1120.983719
_symmetry_space_group_name_H-M "P 21/C"
_symmetry_group_IT_number 14
_symmetry_cell_setting 'monoclinic'
loop_
_space_group_symop_operation_xyz
x,y,z
-x,1/2+y,1/2-z
-x,-y,-z
x,1/2-y,1/2+z
loop_
_atom_site_type_symbol
_atom_site_label
_atom_site_fract_x
_atom_site_fract_y
_atom_site_fract_z
Si Si1 0.948475 0.068732 0.196074
Si Si2 0.205365 0.573491 0.339572
Si Si3 0.370722 0.361463 0.305288
Si Si4 0.448475 0.931269 0.906977
Si Si5 0.870722 0.638536 0.953267
Si Si6 0.294635 0.573492 0.750302
O O1 0.821180 0.060481 0.249641
O O2 0.996557 0.254456 0.157494
O O3 0.901605 0.003174 0.346896
O O4 0.068417 0.957752 0.036294
O O5 0.320727 0.444161 0.254281
O O6 0.250000 0.749999 0.325691
O O7 0.503443 0.254456 0.150608
O O8 0.401605 0.503174 0.349894
O O9 0.250000 0.250000 0.468956
O O10 0.568416 0.042249 0.826873
O O11 0.321179 0.939519 0.108000
O O12 0.820727 0.555837 0.104266
#
# Coordination Sequence:
#
# PCOD8127007 Si02
#       6
#     4   4   4   4   4   4
#     4  10  22  39  61  88 119 156 198 246 296 352
#     4  10  22  38  59  87 118 154 199 245 297 350
#     4  10  22  39  60  87 119 156 200 246 297 354
#     4  10  22  39  61  88 119 156 198 246 296 352
#     4  10  22  39  60  87 119 156 200 246 297 354
#     4  10  22  38  59  87 118 154 199 245 297 350
#
# _framework density 21.409768
#
# number of rings (size 3 to 8) (size 9 to 14) (size 15 to 20)
#    0.000    2.000    0.000    2.000    0.000   14.667 
#    0.000    0.000    0.000    0.000    0.000    0.000 
#    0.000    0.000    0.000    0.000    0.000    0.000 
#
# Total GULP energy -297673.426958 kJ/mol
# GULP energy per Si atom -12403.059457 kJ/mol
# Density = 2.136104 g / cm^3
# Si number density = 21.409768 Si / 1000 Ang^3
#
#
#
# Elastic Constant Matrix: (Units=GPa)
#
#
# Indices 1 2 3 4 5 6 
#
# 1 117.1996 63.7581 60.9045 0.0000 14.3197 0.0000
# 2 63.7581 151.3224 62.7692 0.0000 0.9886 0.0000
# 3 60.9045 62.7692 87.6384 0.0000 15.2061 0.0000
# 4 0.0000 0.0000 0.0000 40.6313 0.0000 -6.2076
# 5 14.3197 0.9886 15.2061 0.0000 20.0936 0.0000
# 6 0.0000 0.0000 0.0000 -6.2076 0.0000 34.4164
#
#
#
# Elastic Compliance Matrix: (Units=1/GPa)
#
#
# Indices 1 2 3 4 5 6 
#
# 1 0.014462 -0.003196 -0.006907 0.000000 -0.004922 0.000000
# 2 -0.003196 0.010632 -0.006560 0.000000 0.006719 0.000000
# 3 -0.006907 -0.006560 0.023022 0.000000 -0.012177 0.000000
# 4 0.000000 0.000000 0.000000 0.025309 0.000000 0.004565
# 5 -0.004922 0.006719 -0.012177 0.000000 0.062159 0.000000
# 6 0.000000 0.000000 0.000000 0.004565 0.000000 0.029879
#
#
# Mechanical properties :
#
#
# Convention : Reuss Voigt Hill
#
# Bulk Modulus (GPa) = 67.61398 81.22490 74.41944
# Shear Modulus (GPa) = 24.54357 30.27684 27.41020
#
# Velocity S-wave (km/s) = 3.38949 3.76461 3.58196
# Velocity P-wave (km/s) = 6.85329 7.54434 7.20710
#
# Compressibility (1/GPa) = 0.01478984
#
# Stress axis : x y z
#
# Youngs Moduli (GPa) = 69.14670 94.05436 43.43706
#
# Poissons Ratio (x) = 0.30061 0.30003
# Poissons Ratio (y) = 0.22100 0.28493
# Poissons Ratio (z) = 0.47762 0.61697
#
# Static dielectric constant tensor:
#      x y z
#    x 3.786390 0.000000 -0.053430 
#    y 0.000000 3.902290 0.000000 
#    z -0.053430 0.000000 3.839880 
# 
# 
# High freq. dielectric constant tensor:
#      x y z
#    x 1.831180 0.000000 -0.002110 
#    y 0.000000 1.851270 0.000000 
#    z -0.002110 0.000000 1.833290 
# 
# From -- ./inp_files/48484.got.cif
#   From: 2010.03.12/outbox.cif.g09.slc.cpg/sg14_25_cif.got.tgz:48484.got - 2010.03.31 13:35:05.
