data_PCOD8127197
_publ_section_title
;
Structure prediction by ZEFSAII (Michael W. Deem and Ramdas Pophale) SiO2 
 PCOD8127197
Probable space group: P 21/C
;
_chemical_formula_sum "Si O2"
_cell_formula_units_Z 32
_cell_length_a 20.099932
_cell_length_b 12.894137
_cell_length_c 12.996837
_cell_angle_alpha 90.000000
_cell_angle_beta 28.164913
_cell_angle_gamma 90.000000
_cell_volume 1589.925016
_symmetry_space_group_name_H-M "P 21/C"
_symmetry_group_IT_number 14
_symmetry_cell_setting 'monoclinic'
loop_
_space_group_symop_operation_xyz
x,y,z
-x,1/2+y,1/2-z
-x,-y,-z
x,1/2-y,1/2+z
loop_
_atom_site_type_symbol
_atom_site_label
_atom_site_fract_x
_atom_site_fract_y
_atom_site_fract_z
Si Si1 0.108630 0.103937 0.554865
Si Si2 0.053949 0.758537 0.856009
Si Si3 0.928438 0.575951 0.375485
Si Si4 0.652256 0.347398 0.546855
Si Si5 0.380040 0.485903 0.581157
Si Si6 0.376461 0.024359 0.746821
Si Si7 0.589459 0.817294 0.124399
Si Si8 0.885425 0.739427 0.276004
O O1 0.238251 0.040381 0.334452
O O2 0.158825 0.189524 0.567652
O O3 0.027467 0.156047 0.570546
O O4 0.004796 0.032872 0.761940
O O5 0.219674 0.734719 0.624167
O O6 0.011143 0.858466 0.848369
O O7 0.009753 0.782864 0.034033
O O8 0.763378 0.556189 0.627231
O O9 0.937662 0.630294 0.251274
O O10 0.651660 0.411025 0.441347
O O11 0.659617 0.425245 0.633241
O O12 0.511418 0.280714 0.744784
O O13 0.500000 0.500000 0.500000
O O14 0.439531 0.394144 0.429693
O O15 0.427660 0.121986 0.744664
O O16 0.500000 0.000000 0.500000
O O17 0.747571 0.775154 0.894367
#
# Coordination Sequence:
#
# PCOD8127197 Si02
#       8
#     4   4   4   4   4   4   4   4
#     4  11  22  41  66  91 126 161 214 260 308 387
#     4  11  23  41  64  94 125 169 205 267 315 376
#     4  10  23  40  63  96 124 162 214 256 320 377
#     4  11  24  41  65  94 128 166 216 260 321 377
#     4  11  24  41  67  94 122 169 211 263 317 376
#     4  10  23  42  65  90 130 172 209 260 322 379
#     4  10  23  42  61  92 125 165 211 260 312 377
#     4  10  22  40  64  89 122 166 206 253 324 369
#
# _framework density 20.126733999999999
#
# number of rings (size 3 to 8) (size 9 to 14) (size 15 to 20)
#    0.000    1.500    2.500    1.500    3.500    4.500 
#    0.000    0.000    0.000    0.000    0.000    0.000 
#    0.000    0.000    0.000    0.000    0.000    0.000 
#
# Total GULP energy -396887.353420 kJ/mol
# GULP energy per Si atom -12402.729794 kJ/mol
# Density = 2.008092 g / cm^3
# Si number density = 20.126734 Si / 1000 Ang^3
#
#
#
# Elastic Constant Matrix: (Units=GPa)
#
#
# Indices 1 2 3 4 5 6 
#
# 1 72.3384 17.7366 22.1587 0.0000 -1.7002 0.0000
# 2 17.7366 78.1905 17.8641 0.0000 -1.8574 0.0000
# 3 22.1587 17.8641 84.6470 0.0000 10.9221 0.0000
# 4 0.0000 0.0000 0.0000 41.3414 0.0000 -6.8866
# 5 -1.7002 -1.8574 10.9221 0.0000 25.4643 0.0000
# 6 0.0000 0.0000 0.0000 -6.8866 0.0000 30.2724
#
#
#
# Elastic Compliance Matrix: (Units=1/GPa)
#
#
# Indices 1 2 3 4 5 6 
#
# 1 0.015716 -0.002617 -0.003888 0.000000 0.002526 0.000000
# 2 -0.002617 0.014004 -0.002519 0.000000 0.001927 0.000000
# 3 -0.003888 -0.002519 0.014207 0.000000 -0.006537 0.000000
# 4 0.000000 0.000000 0.000000 0.025142 0.000000 0.005719
# 5 0.002526 0.001927 -0.006537 0.000000 0.042384 0.000000
# 6 0.000000 0.000000 0.000000 0.005719 0.000000 0.034334
#
#
# Mechanical properties :
#
#
# Convention : Reuss Voigt Hill
#
# Bulk Modulus (GPa) = 38.64087 38.96608 38.80347
# Shear Modulus (GPa) = 28.99224 31.24337 30.11781
#
# Velocity S-wave (km/s) = 3.79949 3.94424 3.87254
# Velocity P-wave (km/s) = 6.20392 6.33601 6.27031
#
# Compressibility (1/GPa) = 0.02587934
#
# Stress axis : x y z
#
# Youngs Moduli (GPa) = 63.63035 71.40729 70.38988
#
# Poissons Ratio (x) = 0.18685 0.27366
# Poissons Ratio (y) = 0.16650 0.17732
# Poissons Ratio (z) = 0.24738 0.17989
#
# Static dielectric constant tensor:
#      x y z
#    x 3.728290 0.000000 -0.120840 
#    y 0.000000 3.679080 0.000000 
#    z -0.120840 0.000000 3.594860 
# 
# 
# High freq. dielectric constant tensor:
#      x y z
#    x 1.788740 0.000000 -0.003030 
#    y 0.000000 1.790820 0.000000 
#    z -0.003030 0.000000 1.788030 
# 
# From -- ./inp_files/34170.got.cif
#   From: 2010.03.12/outbox.cif.g09.slc.cpg/sg14_18_cif.got.tgz:34170.got - 2010.03.31 13:35:05.
