data_PCOD8127065
_publ_section_title
;
Structure prediction by ZEFSAII (Michael W. Deem and Ramdas Pophale) SiO2 
 PCOD8127065
Probable space group: P 21/C
;
_chemical_formula_sum "Si O2"
_cell_formula_units_Z 16
_cell_length_a 7.694632
_cell_length_b 6.594127
_cell_length_c 15.267488
_cell_angle_alpha 90.000000
_cell_angle_beta 57.807053
_cell_angle_gamma 90.000000
_cell_volume 655.565249
_symmetry_space_group_name_H-M "P 21/C"
_symmetry_group_IT_number 14
_symmetry_cell_setting 'monoclinic'
loop_
_space_group_symop_operation_xyz
x,y,z
-x,1/2+y,1/2-z
-x,-y,-z
x,1/2-y,1/2+z
loop_
_atom_site_type_symbol
_atom_site_label
_atom_site_fract_x
_atom_site_fract_y
_atom_site_fract_z
Si Si1 0.938470 0.803835 0.092178
Si Si2 0.252133 0.430866 0.186778
Si Si3 0.054892 0.736804 0.351849
Si Si4 0.729820 0.463068 0.060324
O O1 0.800276 0.779086 0.217688
O O2 0.819458 0.696802 0.039741
O O3 0.983702 0.047041 0.070333
O O4 0.153181 0.678463 0.042598
O O5 0.154726 0.348482 0.122605
O O6 0.492199 0.448689 0.104281
O O7 0.163514 0.653592 0.234187
O O8 0.214350 0.887661 0.356092
#
# Coordination Sequence:
#
# PCOD8127065 Si02
#       4
#     4   4   4   4
#     4   9  23  38  62  93 118 157 209 249 295 375
#     4  10  22  39  62  88 123 163 196 251 309 350
#     4  10  22  39  59  90 124 155 205 255 290 375
#     4  11  20  43  62  87 123 161 202 252 305 355
#
# _framework density 24.406417999999999
#
# number of rings (size 3 to 8) (size 9 to 14) (size 15 to 20)
#    1.500    0.500    0.000    3.750    0.000    1.000 
#    0.000   13.750    0.000    0.000    0.000    0.000 
#    0.000    0.000    0.000    0.000    0.000    0.000 
#
# Total GULP energy -198245.073351 kJ/mol
# GULP energy per Si atom -12390.317084 kJ/mol
# Density = 2.435087 g / cm^3
# Si number density = 24.406418 Si / 1000 Ang^3
#
#
#
# Elastic Constant Matrix: (Units=GPa)
#
#
# Indices 1 2 3 4 5 6 
#
# 1 158.6025 61.0983 49.8663 0.0000 -27.4418 0.0000
# 2 61.0983 146.7713 46.9466 0.0000 -6.5348 0.0000
# 3 49.8663 46.9466 79.2751 0.0000 -25.7356 0.0000
# 4 0.0000 0.0000 0.0000 25.6095 0.0000 4.6102
# 5 -27.4418 -6.5348 -25.7356 0.0000 61.4916 0.0000
# 6 0.0000 0.0000 0.0000 4.6102 0.0000 38.0361
#
#
#
# Elastic Compliance Matrix: (Units=1/GPa)
#
#
# Indices 1 2 3 4 5 6 
#
# 1 0.008669 -0.002464 -0.003267 0.000000 0.002240 0.000000
# 2 -0.002464 0.009208 -0.004562 0.000000 -0.002030 0.000000
# 3 -0.003267 -0.004562 0.019372 0.000000 0.006165 0.000000
# 4 0.000000 0.000000 0.000000 0.039919 0.000000 -0.004838
# 5 0.002240 -0.002030 0.006165 0.000000 0.019626 0.000000
# 6 0.000000 0.000000 0.000000 -0.004838 0.000000 0.026877
#
#
# Mechanical properties :
#
#
# Convention : Reuss Voigt Hill
#
# Bulk Modulus (GPa) = 60.01222 77.83014 68.92118
# Shear Modulus (GPa) = 33.37523 40.14331 36.75927
#
# Velocity S-wave (km/s) = 3.70195 4.05999 3.88510
# Velocity P-wave (km/s) = 6.55093 7.34415 6.95885
#
# Compressibility (1/GPa) = 0.01666327
#
# Stress axis : x y z
#
# Youngs Moduli (GPa) = 115.35491 108.60217 51.62038
#
# Poissons Ratio (x) = 0.26761 0.16863
# Poissons Ratio (y) = 0.28425 0.23550
# Poissons Ratio (z) = 0.37683 0.49545
#
# Static dielectric constant tensor:
#      x y z
#    x 3.941000 0.000000 0.219160 
#    y 0.000000 4.529460 0.000000 
#    z 0.219160 0.000000 4.379050 
# 
# 
# High freq. dielectric constant tensor:
#      x y z
#    x 1.948620 0.000000 0.032760 
#    y 0.000000 1.986300 0.000000 
#    z 0.032760 0.000000 1.999270 
# 
# From -- ./inp_files/36694.got.cif
#   From: 2010.03.12/outbox.cif.g09.slc.cpg/sg14_19_cif.got.tgz:36694.got - 2010.03.31 13:35:05.
