data_PCOD8127643
_publ_section_title
;
Structure prediction by ZEFSAII (Michael W. Deem and Ramdas Pophale) SiO2 
 PCOD8127643
Probable space group: P 21/C
;
_chemical_formula_sum "Si O2"
_cell_formula_units_Z 24
_cell_length_a 20.328001
_cell_length_b 7.793237
_cell_length_c 20.314256
_cell_angle_alpha 90.000000
_cell_angle_beta 18.192128
_cell_angle_gamma 90.000000
_cell_volume 1004.737225
_symmetry_space_group_name_H-M "P 21/C"
_symmetry_group_IT_number 14
_symmetry_cell_setting 'monoclinic'
loop_
_space_group_symop_operation_xyz
x,y,z
-x,1/2+y,1/2-z
-x,-y,-z
x,1/2-y,1/2+z
loop_
_atom_site_type_symbol
_atom_site_label
_atom_site_fract_x
_atom_site_fract_y
_atom_site_fract_z
Si Si1 0.731265 0.622734 0.819528
Si Si2 0.667343 0.249193 0.361357
Si Si3 0.137781 0.849342 0.452559
Si Si4 0.771227 0.857878 0.991610
Si Si5 0.479097 0.623630 0.190347
Si Si6 0.090786 0.619357 0.751966
O O1 0.782490 0.435889 0.740124
O O2 0.935382 0.726864 0.644471
O O3 0.584696 0.733074 0.909048
O O4 0.596167 0.575887 0.012348
O O5 0.709515 0.324687 0.393616
O O6 0.766843 0.374157 0.211136
O O7 0.305456 0.768996 0.343071
O O8 0.079323 0.033946 0.537413
O O9 0.644304 0.693506 0.086522
O O10 0.631080 0.951702 0.179224
O O11 0.988101 0.788066 0.817048
O O12 0.826543 0.986940 0.880383
#
# Coordination Sequence:
#
# PCOD8127643 Si02
#       6
#     4   4   4   4   4   4
#     4  10  22  45  71 104 140 182 231 297 355 422
#     4  10  24  41  72 105 139 182 231 295 359 417
#     4  11  22  47  70 104 141 181 234 293 356 419
#     4  12  27  45  73 103 146 191 243 288 355 423
#     4  11  25  45  70 101 139 187 237 289 348 426
#     4  12  26  45  72 103 142 190 233 295 349 424
#
# _framework density 23.886841
#
# number of rings (size 3 to 8) (size 9 to 14) (size 15 to 20)
#    0.000    1.000    1.667    4.000    4.667    3.333 
#    3.000    0.000    0.000    0.000    0.000    0.000 
#    0.000    0.000    0.000    0.000    0.000    0.000 
#
# Total GULP energy -297752.087180 kJ/mol
# GULP energy per Si atom -12406.336966 kJ/mol
# Density = 2.383247 g / cm^3
# Si number density = 23.886841 Si / 1000 Ang^3
#
#
#
# Elastic Constant Matrix: (Units=GPa)
#
#
# Indices 1 2 3 4 5 6 
#
# 1 119.3086 22.7287 18.9466 0.0000 -2.6525 0.0000
# 2 22.7287 64.5268 12.9434 0.0000 12.3752 0.0000
# 3 18.9466 12.9434 40.0666 0.0000 -1.6146 0.0000
# 4 0.0000 0.0000 0.0000 44.2655 0.0000 3.3241
# 5 -2.6525 12.3752 -1.6146 0.0000 21.3882 0.0000
# 6 0.0000 0.0000 0.0000 3.3241 0.0000 46.3712
#
#
#
# Elastic Compliance Matrix: (Units=1/GPa)
#
#
# Indices 1 2 3 4 5 6 
#
# 1 0.009598 -0.003242 -0.003378 0.000000 0.002811 0.000000
# 2 -0.003242 0.020127 -0.005471 0.000000 -0.012460 0.000000
# 3 -0.003378 -0.005471 0.028521 0.000000 0.004899 0.000000
# 4 0.000000 0.000000 0.000000 0.022713 0.000000 -0.001628
# 5 0.002811 -0.012460 0.004899 0.000000 0.054683 0.000000
# 6 0.000000 0.000000 0.000000 -0.001628 0.000000 0.021682
#
#
# Mechanical properties :
#
#
# Convention : Reuss Voigt Hill
#
# Bulk Modulus (GPa) = 29.35728 37.01548 33.18638
# Shear Modulus (GPa) = 25.92556 33.69055 29.80805
#
# Velocity S-wave (km/s) = 3.29804 3.75963 3.53638
# Velocity P-wave (km/s) = 5.17876 5.86313 5.53154
#
# Compressibility (1/GPa) = 0.03406310
#
# Stress axis : x y z
#
# Youngs Moduli (GPa) = 104.18534 49.68548 35.06241
#
# Poissons Ratio (x) = 0.16110 0.11844
# Poissons Ratio (y) = 0.33782 0.19181
# Poissons Ratio (z) = 0.35194 0.27181
#
# Static dielectric constant tensor:
#      x y z
#    x 4.564960 0.000000 -0.093290 
#    y 0.000000 4.158960 0.000000 
#    z -0.093290 0.000000 4.236170 
# 
# 
# High freq. dielectric constant tensor:
#      x y z
#    x 1.964960 0.000000 -0.007550 
#    y 0.000000 1.946070 0.000000 
#    z -0.007550 0.000000 1.941920 
# 
# From -- ./inp_files/69732.got.cif
#   From: 2010.03.12/outbox.cif.g09.slc.cpg/sg14_35_cif.got.tgz:69732.got - 2010.03.31 13:35:05.
