data_PCOD8127252
_publ_section_title
;
Structure prediction by ZEFSAII (Michael W. Deem and Ramdas Pophale) SiO2 
 PCOD8127252
Probable space group: P 21/C
;
_chemical_formula_sum "Si O2"
_cell_formula_units_Z 20
_cell_length_a 5.065068
_cell_length_b 7.609861
_cell_length_c 18.871918
_cell_angle_alpha 90.000000
_cell_angle_beta 74.286235
_cell_angle_gamma 90.000000
_cell_volume 700.222324
_symmetry_space_group_name_H-M "P 21/C"
_symmetry_group_IT_number 14
_symmetry_cell_setting 'monoclinic'
loop_
_space_group_symop_operation_xyz
x,y,z
-x,1/2+y,1/2-z
-x,-y,-z
x,1/2-y,1/2+z
loop_
_atom_site_type_symbol
_atom_site_label
_atom_site_fract_x
_atom_site_fract_y
_atom_site_fract_z
Si Si1 0.510260 0.257452 0.867434
Si Si2 0.958360 0.347006 0.446997
Si Si3 0.738483 0.033148 0.231077
Si Si4 0.704533 0.811467 0.826345
Si Si5 0.348556 0.592157 0.948897
O O1 0.680121 0.165956 0.919543
O O2 0.704554 0.300537 0.787522
O O3 0.340719 0.442666 0.890083
O O4 0.228231 0.144306 0.875729
O O5 0.939266 0.173273 0.500725
O O6 0.000000 0.500000 0.500000
O O7 0.469500 0.033685 0.199894
O O8 0.016963 0.090342 0.168928
O O9 0.764253 0.848796 0.268897
O O10 0.539421 0.752846 0.907356
O O11 0.500000 0.500000 0.000000
#
# Coordination Sequence:
#
# PCOD8127252 Si02
#       5
#     4   4   4   4   4
#     4  10  22  41  61  83 125 166 202 252 315 389
#     4  11  22  37  62  94 122 158 207 264 313 364
#     4  11  24  42  63  93 124 168 213 260 323 381
#     4  11  24  42  67  94 130 169 215 268 322 387
#     4   9  22  42  64  90 124 169 214 256 317 389
#
# _framework density 28.562359000000001
#
# number of rings (size 3 to 8) (size 9 to 14) (size 15 to 20)
#    0.000    1.600    0.000    3.600    0.000   16.000 
#    0.000    0.000    0.000    0.000    0.000    0.000 
#    0.000    0.000    0.000    0.000    0.000    0.000 
#
# Total GULP energy -247773.362476 kJ/mol
# GULP energy per Si atom -12388.668124 kJ/mol
# Density = 2.849735 g / cm^3
# Si number density = 28.562359 Si / 1000 Ang^3
#
#
#
# Elastic Constant Matrix: (Units=GPa)
#
#
# Indices 1 2 3 4 5 6 
#
# 1 173.3076 47.4320 19.4989 0.0000 -3.5086 0.0000
# 2 47.4320 104.6293 -9.3665 0.0000 -7.6707 0.0000
# 3 19.4989 -9.3665 54.7677 0.0000 -20.7997 0.0000
# 4 0.0000 0.0000 0.0000 47.3240 0.0000 -6.2779
# 5 -3.5086 -7.6707 -20.7997 0.0000 57.4075 0.0000
# 6 0.0000 0.0000 0.0000 -6.2779 0.0000 55.7628
#
#
#
# Elastic Compliance Matrix: (Units=1/GPa)
#
#
# Indices 1 2 3 4 5 6 
#
# 1 0.007168 -0.003685 -0.003714 0.000000 -0.001400 0.000000
# 2 -0.003685 0.011846 0.004468 0.000000 0.002977 0.000000
# 3 -0.003714 0.004468 0.023755 0.000000 0.008977 0.000000
# 4 0.000000 0.000000 0.000000 0.021451 0.000000 0.002415
# 5 -0.001400 0.002977 0.008977 0.000000 0.020984 0.000000
# 6 0.000000 0.000000 0.000000 0.002415 0.000000 0.018205
#
#
# Mechanical properties :
#
#
# Convention : Reuss Voigt Hill
#
# Bulk Modulus (GPa) = 27.09413 49.75924 38.42669
# Shear Modulus (GPa) = 41.12794 50.44157 45.78475
#
# Velocity S-wave (km/s) = 3.79876 4.20696 4.00806
# Velocity P-wave (km/s) = 5.36166 6.40758 5.90781
#
# Compressibility (1/GPa) = 0.03690836
#
# Stress axis : x y z
#
# Youngs Moduli (GPa) = 139.50877 84.41581 42.09726
#
# Poissons Ratio (x) = 0.31104 0.15634
# Poissons Ratio (y) = 0.51403 -0.18810
# Poissons Ratio (z) = 0.51811 -0.37719
#
# Static dielectric constant tensor:
#      x y z
#    x 4.666640 0.000000 0.273810 
#    y 0.000000 2.758620 0.000000 
#    z 0.273810 0.000000 3.939530 
# 
# 
# High freq. dielectric constant tensor:
#      x y z
#    x 2.145820 0.000000 -0.022610 
#    y 0.000000 2.205150 0.000000 
#    z -0.022610 0.000000 2.178380 
# 
# From -- ./inp_files/62890.got.cif
#   From: 2010.03.12/outbox.cif.g09.slc.cpg/sg14_32_cif.got.tgz:62890.got - 2010.03.31 13:35:05.
