data_PCOD8127076
_publ_section_title
;
Structure prediction by ZEFSAII (Michael W. Deem and Ramdas Pophale) SiO2 
 PCOD8127076
Probable space group: P 21/C
;
_chemical_formula_sum "Si O2"
_cell_formula_units_Z 32
_cell_length_a 18.493754
_cell_length_b 15.452988
_cell_length_c 15.088011
_cell_angle_alpha 90.000000
_cell_angle_beta 21.862657
_cell_angle_gamma 90.000000
_cell_volume 1605.681328
_symmetry_space_group_name_H-M "P 21/C"
_symmetry_group_IT_number 14
_symmetry_cell_setting 'monoclinic'
loop_
_space_group_symop_operation_xyz
x,y,z
-x,1/2+y,1/2-z
-x,-y,-z
x,1/2-y,1/2+z
loop_
_atom_site_type_symbol
_atom_site_label
_atom_site_fract_x
_atom_site_fract_y
_atom_site_fract_z
Si Si1 0.582991 0.585089 0.857940
Si Si2 0.188927 0.052233 0.312600
Si Si3 0.475723 0.177442 0.412901
Si Si4 0.604363 0.468047 0.264986
Si Si5 0.182326 0.705052 0.001416
Si Si6 0.910770 0.765277 0.641868
Si Si7 0.354809 0.508886 0.980883
Si Si8 0.016675 0.630934 0.372925
O O1 0.509324 0.669843 0.996214
O O2 0.500000 0.500000 0.000000
O O3 0.504441 0.582600 0.846421
O O4 0.812365 0.586581 0.588403
O O5 0.119072 0.150340 0.384091
O O6 0.262245 0.031645 0.328072
O O7 0.373879 0.026825 0.042286
O O8 0.000000 0.000000 0.500000
O O9 0.303398 0.240757 0.580919
O O10 0.406621 0.083313 0.461443
O O11 0.680957 0.210072 0.140294
O O12 0.638103 0.504194 0.130375
O O13 0.676773 0.370178 0.194418
O O14 0.028229 0.721122 0.099004
O O15 0.084824 0.681780 0.206336
O O16 0.012915 0.694406 0.462257
O O17 0.147041 0.547131 0.246422
#
# Coordination Sequence:
#
# PCOD8127076 Si02
#       8
#     4   4   4   4   4   4   4   4
#     4   9  20  38  62  88 122 166 206 258 324 382
#     4  11  22  40  62  86 120 165 204 255 315 375
#     4  10  22  39  60  91 126 165 209 263 321 381
#     4  10  23  39  60  90 119 162 215 255 313 385
#     4  11  22  40  61  90 126 166 214 267 319 381
#     4  11  23  40  64  90 127 166 208 271 318 374
#     4  10  22  40  64  90 128 166 206 269 316 379
#     4  10  24  39  62  96 125 167 223 263 324 394
#
# _framework density 19.929234999999998
#
# number of rings (size 3 to 8) (size 9 to 14) (size 15 to 20)
#    0.000    1.750    2.500    0.750    1.750    8.500 
#    0.000    2.500    0.000    0.000    0.000    0.000 
#    0.000    0.000    0.000    0.000    0.000    0.000 
#
# Total GULP energy -396504.671281 kJ/mol
# GULP energy per Si atom -12390.770978 kJ/mol
# Density = 1.988388 g / cm^3
# Si number density = 19.929235 Si / 1000 Ang^3
#
#
#
# Elastic Constant Matrix: (Units=GPa)
#
#
# Indices 1 2 3 4 5 6 
#
# 1 68.3732 40.3819 40.8897 0.0000 -12.6983 0.0000
# 2 40.3819 83.0920 50.4724 0.0000 -5.9339 0.0000
# 3 40.8897 50.4724 121.7083 0.0000 -22.3124 0.0000
# 4 0.0000 0.0000 0.0000 35.8862 0.0000 -4.4539
# 5 -12.6983 -5.9339 -22.3124 0.0000 25.0496 0.0000
# 6 0.0000 0.0000 0.0000 -4.4539 0.0000 31.3563
#
#
#
# Elastic Compliance Matrix: (Units=1/GPa)
#
#
# Indices 1 2 3 4 5 6 
#
# 1 0.022829 -0.008981 -0.002646 0.000000 0.007088 0.000000
# 2 -0.008981 0.019758 -0.006158 0.000000 -0.005358 0.000000
# 3 -0.002646 -0.006158 0.013321 0.000000 0.009065 0.000000
# 4 0.000000 0.000000 0.000000 0.028366 0.000000 0.004029
# 5 0.007088 -0.005358 0.009065 0.000000 0.050320 0.000000
# 6 0.000000 0.000000 0.000000 0.004029 0.000000 0.032464
#
#
# Mechanical properties :
#
#
# Convention : Reuss Voigt Hill
#
# Bulk Modulus (GPa) = 49.17167 59.62907 54.40037
# Shear Modulus (GPa) = 23.87696 27.88705 25.88201
#
# Velocity S-wave (km/s) = 3.46509 3.74479 3.60765
# Velocity P-wave (km/s) = 6.38247 6.97734 6.68652
#
# Compressibility (1/GPa) = 0.02033691
#
# Stress axis : x y z
#
# Youngs Moduli (GPa) = 43.80450 50.61277 75.06923
#
# Poissons Ratio (x) = 0.45457 0.19860
# Poissons Ratio (y) = 0.39342 0.46231
# Poissons Ratio (z) = 0.11589 0.31170
#
# Static dielectric constant tensor:
#      x y z
#    x 2.968770 0.000000 0.023640 
#    y 0.000000 3.953840 0.000000 
#    z 0.023640 0.000000 3.749510 
# 
# 
# High freq. dielectric constant tensor:
#      x y z
#    x 1.788380 0.000000 -0.012660 
#    y 0.000000 1.775600 0.000000 
#    z -0.012660 0.000000 1.783950 
# 
# From -- ./inp_files/49263.got.cif
#   From: 2010.03.12/outbox.cif.g09.slc.cpg/sg14_25_cif.got.tgz:49263.got - 2010.03.31 13:35:05.
