data_PCOD8127636
_publ_section_title
;
Structure prediction by ZEFSAII (Michael W. Deem and Ramdas Pophale) SiO2 
 PCOD8127636
Probable space group: P 21/C
;
_chemical_formula_sum "Si O2"
_cell_formula_units_Z 32
_cell_length_a 15.997969
_cell_length_b 20.351603
_cell_length_c 9.575598
_cell_angle_alpha 90.000000
_cell_angle_beta 27.021600
_cell_angle_gamma 90.000000
_cell_volume 1416.437194
_symmetry_space_group_name_H-M "P 21/C"
_symmetry_group_IT_number 14
_symmetry_cell_setting 'monoclinic'
loop_
_space_group_symop_operation_xyz
x,y,z
-x,1/2+y,1/2-z
-x,-y,-z
x,1/2-y,1/2+z
loop_
_atom_site_type_symbol
_atom_site_label
_atom_site_fract_x
_atom_site_fract_y
_atom_site_fract_z
Si Si1 0.780789 0.001078 0.059028
Si Si2 0.055398 0.103453 0.665973
Si Si3 0.168075 0.672756 0.999616
Si Si4 0.444174 0.148140 0.162297
Si Si5 0.890882 0.612302 0.222804
Si Si6 0.529474 0.903896 0.574294
Si Si7 0.424889 0.198874 0.721144
Si Si8 0.169619 0.798385 0.809084
O O1 0.697212 0.955453 0.305793
O O2 0.653103 0.064141 0.218677
O O3 0.796907 0.958596 0.891872
O O4 0.975858 0.031028 0.821499
O O5 0.276338 0.106566 0.347374
O O6 0.001235 0.115023 0.583994
O O7 0.964001 0.155465 0.904561
O O8 0.374875 0.643966 0.704509
O O9 0.157611 0.726638 0.892736
O O10 0.104949 0.701244 0.243515
O O11 0.025557 0.618607 0.156927
O O12 0.500373 0.113755 0.222002
O O13 0.385723 0.223973 0.265608
O O14 0.737890 0.669497 0.442636
O O15 0.576795 0.835133 0.428236
O O16 0.617874 0.180252 0.505470
#
# Coordination Sequence:
#
# PCOD8127636 Si02
#       8
#     4   4   4   4   4   4   4   4
#     4  10  23  45  71  94 138 194 236 276 345 407
#     4  12  24  42  67 102 136 182 232 288 340 411
#     4  11  25  43  65 102 140 180 226 288 349 420
#     4  11  26  39  70 102 143 173 236 282 357 402
#     4  11  24  44  70  99 139 180 237 281 347 414
#     4  10  22  45  70 103 134 190 228 286 340 422
#     4  10  23  41  70  98 141 173 223 285 354 409
#     4  11  24  41  68  99 139 180 225 285 355 409
#
# _framework density 22.591894
#
# number of rings (size 3 to 8) (size 9 to 14) (size 15 to 20)
#    0.000    1.250    1.250    3.375   12.250    0.500 
#    0.000    1.250    0.000    0.000    0.000    0.000 
#    0.000    0.000    0.000    0.000    0.000    0.000 
#
# Total GULP energy -396788.129364 kJ/mol
# GULP energy per Si atom -12399.629043 kJ/mol
# Density = 2.254047 g / cm^3
# Si number density = 22.591894 Si / 1000 Ang^3
#
#
#
# Elastic Constant Matrix: (Units=GPa)
#
#
# Indices 1 2 3 4 5 6 
#
# 1 79.9029 17.2464 27.0527 0.0000 14.3655 0.0000
# 2 17.2464 83.6867 28.8526 0.0000 0.6374 0.0000
# 3 27.0527 28.8526 101.0206 0.0000 11.9145 0.0000
# 4 0.0000 0.0000 0.0000 35.3918 0.0000 -3.4659
# 5 14.3655 0.6374 11.9145 0.0000 39.7606 0.0000
# 6 0.0000 0.0000 0.0000 -3.4659 0.0000 19.2745
#
#
#
# Elastic Compliance Matrix: (Units=1/GPa)
#
#
# Indices 1 2 3 4 5 6 
#
# 1 0.014709 -0.002018 -0.002840 0.000000 -0.004431 0.000000
# 2 -0.002018 0.013567 -0.003519 0.000000 0.001566 0.000000
# 3 -0.002840 -0.003519 0.011960 0.000000 -0.002501 0.000000
# 4 0.000000 0.000000 0.000000 0.028762 0.000000 0.005172
# 5 -0.004431 0.001566 -0.002501 0.000000 0.027476 0.000000
# 6 0.000000 0.000000 0.000000 0.005172 0.000000 0.052812
#
#
# Mechanical properties :
#
#
# Convention : Reuss Voigt Hill
#
# Bulk Modulus (GPa) = 42.58844 45.65708 44.12276
# Shear Modulus (GPa) = 28.75779 31.64929 30.20354
#
# Velocity S-wave (km/s) = 3.57168 3.74694 3.66036
# Velocity P-wave (km/s) = 5.99177 6.24282 6.11858
#
# Compressibility (1/GPa) = 0.02348055
#
# Stress axis : x y z
#
# Youngs Moduli (GPa) = 67.98563 73.71047 83.61522
#
# Poissons Ratio (x) = 0.14878 0.23746
# Poissons Ratio (y) = 0.13722 0.29424
# Poissons Ratio (z) = 0.19307 0.25939
#
# Static dielectric constant tensor:
#      x y z
#    x 3.815250 0.000000 -0.119840 
#    y 0.000000 4.048310 0.000000 
#    z -0.119840 0.000000 4.325610 
# 
# 
# High freq. dielectric constant tensor:
#      x y z
#    x 1.871100 0.000000 -0.001910 
#    y 0.000000 1.885790 0.000000 
#    z -0.001910 0.000000 1.911000 
# 
# From -- ./inp_files/17003.got.cif
#   From: 2010.03.12/outbox.cif.g09.slc.cpg/sg14_9_cif.got.tgz:17003.got - 2010.03.31 13:35:05.
