data_PCOD8127898
_publ_section_title
;
Structure prediction by ZEFSAII (Michael W. Deem and Ramdas Pophale) SiO2 
 PCOD8127898
Probable space group: P 21/C
;
_chemical_formula_sum "Si O2"
_cell_formula_units_Z 20
_cell_length_a 7.939478
_cell_length_b 5.020794
_cell_length_c 18.928862
_cell_angle_alpha 90.000000
_cell_angle_beta 100.675617
_cell_angle_gamma 90.000000
_cell_volume 741.491462
_symmetry_space_group_name_H-M "P 21/C"
_symmetry_group_IT_number 14
_symmetry_cell_setting 'monoclinic'
loop_
_space_group_symop_operation_xyz
x,y,z
-x,1/2+y,1/2-z
-x,-y,-z
x,1/2-y,1/2+z
loop_
_atom_site_type_symbol
_atom_site_label
_atom_site_fract_x
_atom_site_fract_y
_atom_site_fract_z
Si Si1 0.790195 0.978805 0.157735
Si Si2 0.684707 0.125378 0.004720
Si Si3 0.831247 0.888290 0.450338
Si Si4 0.879279 0.336930 0.819155
Si Si5 0.461291 0.580060 0.704703
O O1 0.776757 0.168696 0.088315
O O2 0.599685 0.852285 0.153993
O O3 0.927973 0.752739 0.150429
O O4 0.855479 0.124397 0.233583
O O5 0.795423 0.914932 0.967479
O O6 0.500000 0.000000 0.000000
O O7 0.679583 0.410749 0.965050
O O8 0.848599 0.902846 0.365745
O O9 0.000000 0.000000 0.500000
O O10 0.735026 0.122969 0.833723
O O11 0.489947 0.271315 0.726057
#
# Coordination Sequence:
#
# PCOD8127898 Si02
#       5
#     4   4   4   4   4
#     4  11  25  44  75 111 142 191 255 300 370 441
#     4  12  28  50  77 109 152 200 250 307 374 454
#     4  12  27  49  72 108 153 196 245 305 381 445
#     4  11  25  43  76 105 148 191 247 309 370 436
#     4  10  23  43  65 103 144 182 234 306 370 430
#
# _framework density 26.972663000000001
#
# number of rings (size 3 to 8) (size 9 to 14) (size 15 to 20)
#    0.000    0.800    2.000    3.600    2.800   12.800 
#    0.000    0.000    0.000    0.000    0.000    0.000 
#    0.000    0.000    0.000    0.000    0.000    0.000 
#
# Total GULP energy -247881.730236 kJ/mol
# GULP energy per Si atom -12394.086512 kJ/mol
# Density = 2.691127 g / cm^3
# Si number density = 26.972663 Si / 1000 Ang^3
#
#
#
# Elastic Constant Matrix: (Units=GPa)
#
#
# Indices 1 2 3 4 5 6 
#
# 1 100.5717 10.1345 1.2591 0.0000 -30.3646 0.0000
# 2 10.1345 57.8554 14.2393 0.0000 -2.5644 0.0000
# 3 1.2591 14.2393 163.6097 0.0000 -4.9756 0.0000
# 4 0.0000 0.0000 0.0000 36.1840 0.0000 2.8928
# 5 -30.3646 -2.5644 -4.9756 0.0000 22.2306 0.0000
# 6 0.0000 0.0000 0.0000 2.8928 0.0000 30.6194
#
#
#
# Elastic Compliance Matrix: (Units=1/GPa)
#
#
# Indices 1 2 3 4 5 6 
#
# 1 0.017237 -0.002169 0.000770 0.000000 0.023466 0.000000
# 2 -0.002169 0.018000 -0.001588 0.000000 -0.001241 0.000000
# 3 0.000770 -0.001588 0.006314 0.000000 0.002281 0.000000
# 4 0.000000 0.000000 0.000000 0.027847 0.000000 -0.002631
# 5 0.023466 -0.001241 0.002281 0.000000 0.077403 0.000000
# 6 0.000000 0.000000 0.000000 -0.002631 0.000000 0.032908
#
#
# Mechanical properties :
#
#
# Convention : Reuss Voigt Hill
#
# Bulk Modulus (GPa) = 28.10765 41.47805 34.79285
# Shear Modulus (GPa) = 25.31132 37.56707 31.43919
#
# Velocity S-wave (km/s) = 3.06667 3.73605 3.41778
# Velocity P-wave (km/s) = 4.79402 5.83283 5.33876
#
# Compressibility (1/GPa) = 0.03557751
#
# Stress axis : x y z
#
# Youngs Moduli (GPa) = 58.01511 55.55527 158.38473
#
# Poissons Ratio (x) = 0.12048 -0.12191
# Poissons Ratio (y) = 0.12582 0.25146
# Poissons Ratio (z) = -0.04466 0.08820
#
# Static dielectric constant tensor:
#      x y z
#    x 4.311040 0.000000 0.047340 
#    y 0.000000 4.495180 0.000000 
#    z 0.047340 0.000000 5.073250 
# 
# 
# High freq. dielectric constant tensor:
#      x y z
#    x 2.108980 0.000000 -0.005430 
#    y 0.000000 2.054850 0.000000 
#    z -0.005430 0.000000 2.098260 
# 
# From -- ./inp_files/53997.got.cif
#   From: 2010.03.12/outbox.cif.g09.slc.cpg/sg14_27_cif.got.tgz:53997.got - 2010.03.31 13:35:05.
