data_PCOD8127989
_publ_section_title
;
Structure prediction by ZEFSAII (Michael W. Deem and Ramdas Pophale) SiO2 
 PCOD8127989
Probable space group: P 21/C
;
_chemical_formula_sum "Si O2"
_cell_formula_units_Z 28
_cell_length_a 5.372996
_cell_length_b 13.318242
_cell_length_c 18.500092
_cell_angle_alpha 90.000000
_cell_angle_beta 61.079423
_cell_angle_gamma 90.000000
_cell_volume 1158.749938
_symmetry_space_group_name_H-M "P 21/C"
_symmetry_group_IT_number 14
_symmetry_cell_setting 'monoclinic'
loop_
_space_group_symop_operation_xyz
x,y,z
-x,1/2+y,1/2-z
-x,-y,-z
x,1/2-y,1/2+z
loop_
_atom_site_type_symbol
_atom_site_label
_atom_site_fract_x
_atom_site_fract_y
_atom_site_fract_z
Si Si1 0.387861 0.372699 0.494061
Si Si2 0.420849 0.802352 0.792954
Si Si3 0.485629 0.127644 0.822655
Si Si4 0.843790 0.534108 0.225879
Si Si5 0.808713 0.047697 0.464726
Si Si6 0.184211 0.741030 0.468224
Si Si7 0.986039 0.494643 0.641955
O O1 0.577371 0.389866 0.394110
O O2 0.608142 0.338805 0.524020
O O3 0.139437 0.293705 0.504093
O O4 0.247723 0.472605 0.549623
O O5 0.429332 0.738760 0.716882
O O6 0.733150 0.852664 0.754350
O O7 0.347004 0.729523 0.870388
O O8 0.192564 0.890848 0.830272
O O9 0.590989 0.045898 0.748010
O O10 0.150981 0.097240 0.871036
O O11 0.064798 0.528194 0.131307
O O12 0.960488 0.484021 0.282058
O O13 0.809020 0.165250 0.479110
O O14 0.500000 0.000000 0.500000
O O15 0.000000 0.000000 0.500000
#
# Coordination Sequence:
#
# PCOD8127989 Si02
#       7
#     4   4   4   4   4   4   4
#     4  11  24  45  70 104 139 184 229 289 352 419
#     4  10  23  44  68  98 141 184 231 288 346 419
#     4  11  25  41  73  99 137 188 236 280 359 422
#     4  11  25  44  69 102 140 180 234 296 343 412
#     4  12  28  46  71 100 142 185 238 293 348 415
#     4  11  24  45  69 101 139 187 234 286 351 418
#     4  10  24  43  65 103 142 178 232 298 344 415
#
# _framework density 24.163969999999999
#
# number of rings (size 3 to 8) (size 9 to 14) (size 15 to 20)
#    0.000    1.143    1.429    3.000   10.000    2.857 
#    0.000    0.000    0.000    0.000    0.000    0.000 
#    0.000    0.000    0.000    0.000    0.000    0.000 
#
# Total GULP energy -346904.284591 kJ/mol
# GULP energy per Si atom -12389.438735 kJ/mol
# Density = 2.410897 g / cm^3
# Si number density = 24.163970 Si / 1000 Ang^3
#
#
#
# Elastic Constant Matrix: (Units=GPa)
#
#
# Indices 1 2 3 4 5 6 
#
# 1 81.7797 -9.2248 29.8849 0.0000 -2.9367 0.0000
# 2 -9.2248 46.2257 18.1042 0.0000 -0.7383 0.0000
# 3 29.8849 18.1042 191.2054 0.0000 -1.8124 0.0000
# 4 0.0000 0.0000 0.0000 42.5905 0.0000 7.0585
# 5 -2.9367 -0.7383 -1.8124 0.0000 36.4280 0.0000
# 6 0.0000 0.0000 0.0000 7.0585 0.0000 28.6369
#
#
#
# Elastic Compliance Matrix: (Units=1/GPa)
#
#
# Indices 1 2 3 4 5 6 
#
# 1 0.013582 0.003692 -0.002462 0.000000 0.001047 0.000000
# 2 0.003692 0.023474 -0.002794 0.000000 0.000634 0.000000
# 3 -0.002462 -0.002794 0.005880 0.000000 0.000037 0.000000
# 4 0.000000 0.000000 0.000000 0.024479 0.000000 -0.006034
# 5 0.001047 0.000634 0.000037 0.000000 0.027551 0.000000
# 6 0.000000 0.000000 0.000000 -0.006034 0.000000 0.036407
#
#
# Mechanical properties :
#
#
# Convention : Reuss Voigt Hill
#
# Bulk Modulus (GPa) = 25.12154 44.08216 34.60185
# Shear Modulus (GPa) = 33.83627 40.22750 37.03189
#
# Velocity S-wave (km/s) = 3.74609 4.08459 3.91899
# Velocity P-wave (km/s) = 5.39720 6.36614 5.90159
#
# Compressibility (1/GPa) = 0.03980648
#
# Stress axis : x y z
#
# Youngs Moduli (GPa) = 73.62780 42.60054 170.07644
#
# Poissons Ratio (x) = -0.15726 0.41880
# Poissons Ratio (y) = -0.27180 0.47512
# Poissons Ratio (z) = 0.18130 0.11901
#
# Static dielectric constant tensor:
#      x y z
#    x 4.531160 0.000000 -0.177340 
#    y 0.000000 4.350580 0.000000 
#    z -0.177340 0.000000 4.644050 
# 
# 
# High freq. dielectric constant tensor:
#      x y z
#    x 1.965270 0.000000 -0.006370 
#    y 0.000000 1.953790 0.000000 
#    z -0.006370 0.000000 1.983620 
# 
# From -- ./inp_files/53415.got.cif
#   From: 2010.03.12/outbox.cif.g09.slc.cpg/sg14_27_cif.got.tgz:53415.got - 2010.03.31 13:35:05.
