data_PCOD8127982
_publ_section_title
;
Structure prediction by ZEFSAII (Michael W. Deem and Ramdas Pophale) SiO2 
 PCOD8127982
Probable space group: P 21/C
;
_chemical_formula_sum "Si O2"
_cell_formula_units_Z 32
_cell_length_a 5.258438
_cell_length_b 14.860387
_cell_length_c 22.975781
_cell_angle_alpha 90.000000
_cell_angle_beta 54.184491
_cell_angle_gamma 90.000000
_cell_volume 1455.886035
_symmetry_space_group_name_H-M "P 21/C"
_symmetry_group_IT_number 14
_symmetry_cell_setting 'monoclinic'
loop_
_space_group_symop_operation_xyz
x,y,z
-x,1/2+y,1/2-z
-x,-y,-z
x,1/2-y,1/2+z
loop_
_atom_site_type_symbol
_atom_site_label
_atom_site_fract_x
_atom_site_fract_y
_atom_site_fract_z
Si Si1 0.747557 0.598182 0.704629
Si Si2 0.371349 0.493646 0.952351
Si Si3 0.166826 0.602191 0.329402
Si Si4 0.556898 0.347478 0.592123
Si Si5 0.497937 0.202941 0.396846
Si Si6 0.362121 0.161514 0.651315
Si Si7 0.875806 0.196754 0.935288
Si Si8 0.261531 0.765068 0.247691
O O1 0.723068 0.491537 0.713809
O O2 0.718951 0.643757 0.770984
O O3 0.466298 0.646233 0.708162
O O4 0.052085 0.625748 0.626174
O O5 0.470646 0.403560 0.906637
O O6 0.526198 0.574098 0.896183
O O7 0.500000 0.500000 0.000000
O O8 0.000000 0.500000 0.000000
O O9 0.249575 0.594544 0.386622
O O10 0.382138 0.680621 0.270993
O O11 0.799816 0.617787 0.364783
O O12 0.600659 0.243316 0.607028
O O13 0.728980 0.359976 0.507637
O O14 0.602494 0.239135 0.446127
O O15 0.775271 0.223496 0.312609
O O16 0.169325 0.243890 0.417989
O O17 0.030569 0.200564 0.674467
#
# Coordination Sequence:
#
# PCOD8127982 Si02
#       8
#     4   4   4   4   4   4   4   4
#     4  11  24  43  69  98 133 178 231 281 338 402
#     4  12  27  43  68 106 140 182 233 288 352 419
#     4  11  25  41  67  96 131 174 223 279 337 399
#     4  11  24  43  65  96 134 174 220 273 343 403
#     4  11  22  43  66  98 136 178 231 279 345 401
#     4  11  23  44  68  94 138 178 229 279 342 407
#     4  11  24  43  71  94 138 180 221 280 339 410
#     4  10  23  44  66  99 135 178 231 282 341 403
#
# _framework density 21.979744
#
# number of rings (size 3 to 8) (size 9 to 14) (size 15 to 20)
#    0.000    1.000    2.500    3.750    3.500    2.000 
#    4.500    0.000    0.000    0.000    0.000    0.000 
#    0.000    0.000    0.000    0.000    0.000    0.000 
#
# Total GULP energy -396514.419884 kJ/mol
# GULP energy per Si atom -12391.075621 kJ/mol
# Density = 2.192972 g / cm^3
# Si number density = 21.979744 Si / 1000 Ang^3
#
#
#
# Elastic Constant Matrix: (Units=GPa)
#
#
# Indices 1 2 3 4 5 6 
#
# 1 116.5002 32.4820 24.3403 0.0000 9.1792 0.0000
# 2 32.4820 132.2279 37.6710 0.0000 -11.3182 0.0000
# 3 24.3403 37.6710 117.2670 0.0000 6.8883 0.0000
# 4 0.0000 0.0000 0.0000 40.7128 0.0000 4.6211
# 5 9.1792 -11.3182 6.8883 0.0000 30.9382 0.0000
# 6 0.0000 0.0000 0.0000 4.6211 0.0000 25.3017
#
#
#
# Elastic Compliance Matrix: (Units=1/GPa)
#
#
# Indices 1 2 3 4 5 6 
#
# 1 0.009750 -0.002400 -0.001045 0.000000 -0.003538 0.000000
# 2 -0.002400 0.009353 -0.002786 0.000000 0.004754 0.000000
# 3 -0.001045 -0.002786 0.009809 0.000000 -0.002893 0.000000
# 4 0.000000 0.000000 0.000000 0.025082 0.000000 -0.004581
# 5 -0.003538 0.004754 -0.002893 0.000000 0.035756 0.000000
# 6 0.000000 0.000000 0.000000 -0.004581 0.000000 0.040360
#
#
# Mechanical properties :
#
#
# Convention : Reuss Voigt Hill
#
# Bulk Modulus (GPa) = 60.78779 61.66463 61.22621
# Shear Modulus (GPa) = 33.77135 37.49065 35.63100
#
# Velocity S-wave (km/s) = 3.92404 4.13448 4.03064
# Velocity P-wave (km/s) = 6.94602 7.13499 7.04114
#
# Compressibility (1/GPa) = 0.01645067
#
# Stress axis : x y z
#
# Youngs Moduli (GPa) = 102.56417 106.91934 101.94521
#
# Poissons Ratio (x) = 0.25664 0.10651
# Poissons Ratio (y) = 0.24618 0.28397
# Poissons Ratio (z) = 0.10716 0.29783
#
# Static dielectric constant tensor:
#      x y z
#    x 4.049160 0.000000 0.026560 
#    y 0.000000 3.940050 0.000000 
#    z 0.026560 0.000000 4.268250 
# 
# 
# High freq. dielectric constant tensor:
#      x y z
#    x 1.858240 0.000000 0.010670 
#    y 0.000000 1.870450 0.000000 
#    z 0.010670 0.000000 1.874700 
# 
# From -- ./inp_files/71394.got.cif
#   From: 2010.03.12/outbox.cif.g09.slc.cpg/sg14_36_cif.got.tgz:71394.got - 2010.03.31 13:35:05.
