data_PCOD8127711
_publ_section_title
;
Structure prediction by ZEFSAII (Michael W. Deem and Ramdas Pophale) SiO2 
 PCOD8127711
Probable space group: P 21/C
;
_chemical_formula_sum "Si O2"
_cell_formula_units_Z 28
_cell_length_a 11.389070
_cell_length_b 7.343022
_cell_length_c 16.016418
_cell_angle_alpha 90.000000
_cell_angle_beta 68.555510
_cell_angle_gamma 90.000000
_cell_volume 1246.728519
_symmetry_space_group_name_H-M "P 21/C"
_symmetry_group_IT_number 14
_symmetry_cell_setting 'monoclinic'
loop_
_space_group_symop_operation_xyz
x,y,z
-x,1/2+y,1/2-z
-x,-y,-z
x,1/2-y,1/2+z
loop_
_atom_site_type_symbol
_atom_site_label
_atom_site_fract_x
_atom_site_fract_y
_atom_site_fract_z
Si Si1 0.139930 0.052506 0.990753
Si Si2 0.397047 0.193168 0.209446
Si Si3 0.349533 0.629148 0.839776
Si Si4 0.939308 0.939703 0.295488
Si Si5 0.242428 0.546870 0.293672
Si Si6 0.819523 0.950724 0.837088
Si Si7 0.133055 0.024244 0.507664
O O1 0.168971 0.265809 0.989869
O O2 0.227942 0.971867 0.896877
O O3 0.177990 0.964816 0.070294
O O4 0.000000 0.000000 0.000000
O O5 0.538146 0.251913 0.146559
O O6 0.330419 0.385271 0.240369
O O7 0.324113 0.079961 0.156171
O O8 0.397602 0.065338 0.291748
O O9 0.301725 0.749974 0.772342
O O10 0.240639 0.597932 0.936797
O O11 0.886081 0.037468 0.225880
O O12 0.092868 0.930852 0.249034
O O13 0.895527 0.735923 0.315173
O O14 0.886472 0.042759 0.391602
O O15 0.000000 0.000000 0.500000
#
# Coordination Sequence:
#
# PCOD8127711 Si02
#       7
#     4   4   4   4   4   4   4
#     4  11  21  40  64 101 140 176 225 287 347 403
#     4  11  24  45  68  96 135 180 232 280 336 418
#     4  12  24  45  72  95 136 180 234 278 344 409
#     4  10  23  39  63  98 134 173 222 284 349 401
#     4  11  23  43  68  96 131 183 228 280 341 406
#     4  10  23  39  64 100 138 176 228 283 346 411
#     4  11  24  40  65 105 138 175 225 291 350 405
#
# _framework density 22.458777999999999
#
# number of rings (size 3 to 8) (size 9 to 14) (size 15 to 20)
#    0.000    1.143    4.286    1.714    6.000    1.143 
#    0.000    8.571    0.000    0.000    0.000    0.000 
#    0.000    0.000    0.000    0.000    0.000    0.000 
#
# Total GULP energy -346966.283652 kJ/mol
# GULP energy per Si atom -12391.652988 kJ/mol
# Density = 2.240766 g / cm^3
# Si number density = 22.458778 Si / 1000 Ang^3
#
#
#
# Elastic Constant Matrix: (Units=GPa)
#
#
# Indices 1 2 3 4 5 6 
#
# 1 137.2535 9.2568 51.6513 0.0000 -3.9113 0.0000
# 2 9.2568 57.6132 13.9698 0.0000 3.2918 0.0000
# 3 51.6513 13.9698 133.7472 0.0000 7.4748 0.0000
# 4 0.0000 0.0000 0.0000 24.2657 0.0000 -6.8100
# 5 -3.9113 3.2918 7.4748 0.0000 30.2714 0.0000
# 6 0.0000 0.0000 0.0000 -6.8100 0.0000 39.4269
#
#
#
# Elastic Compliance Matrix: (Units=1/GPa)
#
#
# Indices 1 2 3 4 5 6 
#
# 1 0.008665 -0.000687 -0.003388 0.000000 0.002031 0.000000
# 2 -0.000687 0.017930 -0.001515 0.000000 -0.001665 0.000000
# 3 -0.003388 -0.001515 0.009084 0.000000 -0.002516 0.000000
# 4 0.000000 0.000000 0.000000 0.043310 0.000000 0.007481
# 5 0.002031 -0.001665 -0.002516 0.000000 0.034099 0.000000
# 6 0.000000 0.000000 0.000000 0.007481 0.000000 0.026655
#
#
# Mechanical properties :
#
#
# Convention : Reuss Voigt Hill
#
# Bulk Modulus (GPa) = 40.81604 53.15220 46.98412
# Shear Modulus (GPa) = 31.42902 35.70855 33.56878
#
# Velocity S-wave (km/s) = 3.74493 3.99176 3.87031
# Velocity P-wave (km/s) = 6.07557 6.70548 6.39828
#
# Compressibility (1/GPa) = 0.02450017
#
# Stress axis : x y z
#
# Youngs Moduli (GPa) = 115.40714 55.77306 110.08324
#
# Poissons Ratio (x) = 0.03830 0.37297
# Poissons Ratio (y) = 0.07925 0.16672
# Poissons Ratio (z) = 0.39101 0.08447
#
# Static dielectric constant tensor:
#      x y z
#    x 3.558220 0.000000 1.225760 
#    y 0.000000 4.171880 0.000000 
#    z 1.225760 0.000000 2.214490 
# 
# 
# High freq. dielectric constant tensor:
#      x y z
#    x 1.879320 0.000000 0.002790 
#    y 0.000000 1.902390 0.000000 
#    z 0.002790 0.000000 1.868130 
# 
# From -- ./inp_files/43358.got.cif
#   From: 2010.03.12/outbox.cif.g09.slc.cpg/sg14_22_cif.got.tgz:43358.got - 2010.03.31 13:35:05.
