data_PCOD8127681
_publ_section_title
;
Structure prediction by ZEFSAII (Michael W. Deem and Ramdas Pophale) SiO2 
 PCOD8127681
Probable space group: P 21/C
;
_chemical_formula_sum "Si O2"
_cell_formula_units_Z 28
_cell_length_a 12.350238
_cell_length_b 15.426417
_cell_length_c 8.210519
_cell_angle_alpha 90.000000
_cell_angle_beta 118.017113
_cell_angle_gamma 90.000000
_cell_volume 1380.946762
_symmetry_space_group_name_H-M "P 21/C"
_symmetry_group_IT_number 14
_symmetry_cell_setting 'monoclinic'
loop_
_space_group_symop_operation_xyz
x,y,z
-x,1/2+y,1/2-z
-x,-y,-z
x,1/2-y,1/2+z
loop_
_atom_site_type_symbol
_atom_site_label
_atom_site_fract_x
_atom_site_fract_y
_atom_site_fract_z
Si Si1 0.357909 0.503679 0.864710
Si Si2 0.170738 0.990818 0.523207
Si Si3 0.779586 0.159042 0.856056
Si Si4 0.995038 0.067762 0.852868
Si Si5 0.793047 0.653875 0.343633
Si Si6 0.848064 0.329449 0.774328
Si Si7 0.869684 0.675999 0.029221
O O1 0.283298 0.515817 0.977461
O O2 0.331765 0.589536 0.735547
O O3 0.321784 0.412168 0.750286
O O4 0.500000 0.500000 0.000000
O O5 0.189586 0.921378 0.676863
O O6 0.036182 0.977997 0.341014
O O7 0.167814 0.088105 0.592480
O O8 0.752491 0.258134 0.780873
O O9 0.883413 0.132986 0.800801
O O10 0.831218 0.158806 0.072547
O O11 0.122414 0.118054 0.948842
O O12 0.000000 0.000000 0.000000
O O13 0.858993 0.659266 0.215240
O O14 0.772030 0.752055 0.393353
O O15 0.988762 0.301238 0.913612
#
# Coordination Sequence:
#
# PCOD8127681 Si02
#       7
#     4   4   4   4   4   4   4
#     4  10  23  45  63  78 112 163 210 254 289 337
#     4  10  23  36  57  89 124 154 200 236 293 364
#     4  11  21  34  59  88 120 156 193 237 296 355
#     4  11  16  34  54  82 121 152 185 236 296 355
#     4  11  22  34  58  87 120 153 195 232 300 359
#     4  12  21  35  57  96 125 154 185 238 303 367
#     4  11  21  34  53  90 129 153 176 238 301 372
#
# _framework density 20.275945
#
# number of rings (size 3 to 8) (size 9 to 14) (size 15 to 20)
#    0.000    1.143    7.143    2.143    2.000    1.143 
#    0.000    6.429    0.000    0.000    0.000    0.000 
#    0.000    0.000    0.000    0.000    0.000    0.000 
#
# Total GULP energy -346943.187589 kJ/mol
# GULP energy per Si atom -12390.828128 kJ/mol
# Density = 2.022980 g / cm^3
# Si number density = 20.275945 Si / 1000 Ang^3
#
#
#
# Elastic Constant Matrix: (Units=GPa)
#
#
# Indices 1 2 3 4 5 6 
#
# 1 48.7596 30.6012 28.5419 0.0000 21.7279 0.0000
# 2 30.6012 187.5975 57.1135 0.0000 12.8359 0.0000
# 3 28.5419 57.1135 62.8056 0.0000 18.8029 0.0000
# 4 0.0000 0.0000 0.0000 36.4550 0.0000 -6.6169
# 5 21.7279 12.8359 18.8029 0.0000 28.2805 0.0000
# 6 0.0000 0.0000 0.0000 -6.6169 0.0000 19.2100
#
#
#
# Elastic Compliance Matrix: (Units=1/GPa)
#
#
# Indices 1 2 3 4 5 6 
#
# 1 0.036049 -0.001905 -0.008261 0.000000 -0.021339 0.000000
# 2 -0.001905 0.007516 -0.006724 0.000000 0.002523 0.000000
# 3 -0.008261 -0.006724 0.028688 0.000000 -0.009674 0.000000
# 4 0.000000 0.000000 0.000000 0.029260 0.000000 0.010079
# 5 -0.021339 0.002523 -0.009674 0.000000 0.057042 0.000000
# 6 0.000000 0.000000 0.000000 0.010079 0.000000 0.055528
#
#
# Mechanical properties :
#
#
# Convention : Reuss Voigt Hill
#
# Bulk Modulus (GPa) = 25.99349 59.07511 42.53430
# Shear Modulus (GPa) = 19.17990 28.98283 24.08136
#
# Velocity S-wave (km/s) = 3.07896 3.78487 3.45001
# Velocity P-wave (km/s) = 5.04853 6.94976 6.07399
#
# Compressibility (1/GPa) = 0.03847118
#
# Stress axis : x y z
#
# Youngs Moduli (GPa) = 27.73966 133.05139 34.85796
#
# Poissons Ratio (x) = 0.25349 0.28798
# Poissons Ratio (y) = 0.05285 0.23440
# Poissons Ratio (z) = 0.22917 0.89468
#
# Static dielectric constant tensor:
#      x y z
#    x 3.161480 0.000000 -0.138680 
#    y 0.000000 4.483650 0.000000 
#    z -0.138680 0.000000 3.599750 
# 
# 
# High freq. dielectric constant tensor:
#      x y z
#    x 1.731460 0.000000 -0.026910 
#    y 0.000000 1.828030 0.000000 
#    z -0.026910 0.000000 1.776560 
# 
# From -- ./inp_files/13412.got.cif
#   From: 2010.03.12/outbox.cif.g09.slc.cpg/sg14_7_cif.got.tgz:13412.got - 2010.03.31 13:35:05.
