data_PCOD8127584
_publ_section_title
;
Structure prediction by ZEFSAII (Michael W. Deem and Ramdas Pophale) SiO2 
 PCOD8127584
Probable space group: P 21/C
;
_chemical_formula_sum "Si O2"
_cell_formula_units_Z 28
_cell_length_a 9.007953
_cell_length_b 9.133534
_cell_length_c 21.883679
_cell_angle_alpha 90.000000
_cell_angle_beta 135.228593
_cell_angle_gamma 90.000000
_cell_volume 1268.033312
_symmetry_space_group_name_H-M "P 21/C"
_symmetry_group_IT_number 14
_symmetry_cell_setting 'monoclinic'
loop_
_space_group_symop_operation_xyz
x,y,z
-x,1/2+y,1/2-z
-x,-y,-z
x,1/2-y,1/2+z
loop_
_atom_site_type_symbol
_atom_site_label
_atom_site_fract_x
_atom_site_fract_y
_atom_site_fract_z
Si Si1 0.304833 0.309170 0.581882
Si Si2 0.676674 0.657037 0.101532
Si Si3 0.755696 0.954952 0.351195
Si Si4 0.984408 0.265926 0.895250
Si Si5 0.707251 0.501870 0.307909
Si Si6 0.643552 0.316463 0.095936
Si Si7 0.127498 0.255013 0.220781
O O1 0.207455 0.172411 0.589882
O O2 0.314529 0.452392 0.627107
O O3 0.530753 0.270025 0.618355
O O4 0.137114 0.337826 0.479404
O O5 0.632052 0.489108 0.105929
O O6 0.716179 0.747785 0.175121
O O7 0.893162 0.673211 0.127522
O O8 0.476380 0.716998 0.003801
O O9 0.520314 0.014606 0.288568
O O10 0.797401 0.896015 0.294886
O O11 0.907877 0.091116 0.409911
O O12 0.784903 0.164507 0.820866
O O13 0.860818 0.609107 0.316418
O O14 0.882656 0.263964 0.166424
#
# Coordination Sequence:
#
# PCOD8127584 Si02
#       7
#     4   4   4   4   4   4   4
#     4  10  23  42  65  94 125 168 215 274 319 380
#     4  10  23  40  69 100 125 175 217 274 322 389
#     4  11  23  42  65  95 122 173 218 256 323 390
#     4  11  22  42  65  92 131 169 215 266 322 393
#     4  11  25  42  61  97 132 168 213 265 333 382
#     4  10  22  44  68  96 130 169 228 260 327 399
#     4  11  24  42  68  97 130 170 214 276 320 385
#
# _framework density 22.081437999999999
#
# number of rings (size 3 to 8) (size 9 to 14) (size 15 to 20)
#    0.000    1.429    1.429    3.429    6.000    0.000 
#   12.857    1.429    0.000    0.000    0.000    0.000 
#    0.000    0.000    0.000    0.000    0.000    0.000 
#
# Total GULP energy -347196.757017 kJ/mol
# GULP energy per Si atom -12399.884179 kJ/mol
# Density = 2.203118 g / cm^3
# Si number density = 22.081438 Si / 1000 Ang^3
#
#
#
# Elastic Constant Matrix: (Units=GPa)
#
#
# Indices 1 2 3 4 5 6 
#
# 1 50.9117 -3.4077 15.2855 0.0000 12.5043 0.0000
# 2 -3.4077 53.2394 -0.1457 0.0000 8.3409 0.0000
# 3 15.2855 -0.1457 89.4660 0.0000 1.3926 0.0000
# 4 0.0000 0.0000 0.0000 32.0017 0.0000 2.3451
# 5 12.5043 8.3409 1.3926 0.0000 26.4478 0.0000
# 6 0.0000 0.0000 0.0000 2.3451 0.0000 35.8323
#
#
#
# Elastic Compliance Matrix: (Units=1/GPa)
#
#
# Indices 1 2 3 4 5 6 
#
# 1 0.024058 0.003449 -0.003914 0.000000 -0.012256 0.000000
# 2 0.003449 0.020255 -0.000432 0.000000 -0.007996 0.000000
# 3 -0.003914 -0.000432 0.011824 0.000000 0.001364 0.000000
# 4 0.000000 0.000000 0.000000 0.031399 0.000000 -0.002055
# 5 -0.012256 -0.007996 0.001364 0.000000 0.046055 0.000000
# 6 0.000000 0.000000 0.000000 -0.002055 0.000000 0.028042
#
#
# Mechanical properties :
#
#
# Convention : Reuss Voigt Hill
#
# Bulk Modulus (GPa) = 18.40112 24.12015 21.26064
# Shear Modulus (GPa) = 27.54191 30.98205 29.26198
#
# Velocity S-wave (km/s) = 3.53553 3.74984 3.64426
# Velocity P-wave (km/s) = 5.00180 5.44934 5.23036
#
# Compressibility (1/GPa) = 0.05434452
#
# Stress axis : x y z
#
# Youngs Moduli (GPa) = 41.56610 49.36961 84.57225
#
# Poissons Ratio (x) = -0.17029 0.33102
# Poissons Ratio (y) = -0.14337 0.03652
# Poissons Ratio (z) = 0.16269 0.02132
#
# Static dielectric constant tensor:
#      x y z
#    x 4.041470 0.000000 -0.066950 
#    y 0.000000 3.761010 0.000000 
#    z -0.066950 0.000000 3.950270 
# 
# 
# High freq. dielectric constant tensor:
#      x y z
#    x 1.877050 0.000000 0.001760 
#    y 0.000000 1.855670 0.000000 
#    z 0.001760 0.000000 1.871860 
# 
# From -- ./inp_files/65039.got.cif
#   From: 2010.03.12/outbox.cif.g09.slc.cpg/sg14_33_cif.got.tgz:65039.got - 2010.03.31 13:35:05.
