data_PCOD8127582
_publ_section_title
;
Structure prediction by ZEFSAII (Michael W. Deem and Ramdas Pophale) SiO2 
 PCOD8127582
Probable space group: P 21/C
;
_chemical_formula_sum "Si O2"
_cell_formula_units_Z 32
_cell_length_a 32.651357
_cell_length_b 8.502306
_cell_length_c 12.732662
_cell_angle_alpha 90.000000
_cell_angle_beta 155.184018
_cell_angle_gamma 90.000000
_cell_volume 1483.548027
_symmetry_space_group_name_H-M "P 21/C"
_symmetry_group_IT_number 14
_symmetry_cell_setting 'monoclinic'
loop_
_space_group_symop_operation_xyz
x,y,z
-x,1/2+y,1/2-z
-x,-y,-z
x,1/2-y,1/2+z
loop_
_atom_site_type_symbol
_atom_site_label
_atom_site_fract_x
_atom_site_fract_y
_atom_site_fract_z
Si Si1 0.385184 0.991143 0.237932
Si Si2 0.931625 0.676975 0.457802
Si Si3 0.217704 0.579422 0.609562
Si Si4 0.594995 0.212055 0.531709
Si Si5 0.948128 0.337501 0.914389
Si Si6 0.737366 0.779033 0.908255
Si Si7 0.609282 0.544717 0.481462
Si Si8 0.061642 0.645804 0.413668
O O1 0.342668 0.138171 0.204051
O O2 0.345451 0.989467 0.025946
O O3 0.500000 0.000000 0.500000
O O4 0.363683 0.833249 0.255770
O O5 0.960027 0.508523 0.569384
O O6 0.985952 0.692652 0.472732
O O7 0.974636 0.820686 0.629071
O O8 0.816850 0.704502 0.172147
O O9 0.328073 0.643778 0.874412
O O10 0.159401 0.675550 0.384880
O O11 0.215572 0.397083 0.567955
O O12 0.164551 0.607913 0.596509
O O13 0.585347 0.397629 0.499517
O O14 0.489154 0.141494 0.263217
O O15 0.933513 0.304878 0.004180
O O16 0.000000 0.500000 0.000000
O O17 0.689728 0.642930 0.729219
#
# Coordination Sequence:
#
# PCOD8127582 Si02
#       8
#     4   4   4   4   4   4   4   4
#     4   9  21  43  67  97 135 180 229 277 341 409
#     4  11  25  42  68  97 135 173 232 280 340 418
#     4  10  23  41  65  96 137 170 223 279 339 405
#     4  10  22  44  67  99 136 181 231 287 333 417
#     4  11  22  45  67  93 136 172 217 291 333 405
#     4  11  24  42  68 100 139 178 231 287 342 416
#     4  11  23  44  70  96 139 186 226 288 356 400
#     4  11  25  43  69  98 132 181 224 274 358 406
#
# _framework density 21.569911999999999
#
# number of rings (size 3 to 8) (size 9 to 14) (size 15 to 20)
#    0.000    1.500    1.250    4.125    3.500    2.000 
#    2.250    3.125    0.000    0.000    0.000    0.000 
#    0.000    0.000    0.000    0.000    0.000    0.000 
#
# Total GULP energy -396604.749579 kJ/mol
# GULP energy per Si atom -12393.898424 kJ/mol
# Density = 2.152082 g / cm^3
# Si number density = 21.569912 Si / 1000 Ang^3
#
#
#
# Elastic Constant Matrix: (Units=GPa)
#
#
# Indices 1 2 3 4 5 6 
#
# 1 134.7196 63.3194 45.5183 0.0000 -8.5104 0.0000
# 2 63.3194 116.3897 47.5040 0.0000 -6.7563 0.0000
# 3 45.5183 47.5040 97.9915 0.0000 -1.6648 0.0000
# 4 0.0000 0.0000 0.0000 30.0278 0.0000 -7.3069
# 5 -8.5104 -6.7563 -1.6648 0.0000 27.1477 0.0000
# 6 0.0000 0.0000 0.0000 -7.3069 0.0000 34.7859
#
#
#
# Elastic Compliance Matrix: (Units=1/GPa)
#
#
# Indices 1 2 3 4 5 6 
#
# 1 0.010596 -0.004553 -0.002680 0.000000 0.002024 0.000000
# 2 -0.004553 0.012819 -0.004074 0.000000 0.001513 0.000000
# 3 -0.002680 -0.004074 0.013407 0.000000 -0.001032 0.000000
# 4 0.000000 0.000000 0.000000 0.035096 0.000000 0.007372
# 5 0.002024 0.001513 -0.001032 0.000000 0.037783 0.000000
# 6 0.000000 0.000000 0.000000 0.007372 0.000000 0.030296
#
#
# Mechanical properties :
#
#
# Convention : Reuss Voigt Hill
#
# Bulk Modulus (GPa) = 70.38165 73.53158 71.95661
# Shear Modulus (GPa) = 29.87748 31.24289 30.56018
#
# Velocity S-wave (km/s) = 3.72579 3.80998 3.76812
# Velocity P-wave (km/s) = 7.15605 7.31563 7.23628
#
# Compressibility (1/GPa) = 0.01420825
#
# Stress axis : x y z
#
# Youngs Moduli (GPa) = 94.37148 78.00625 74.58541
#
# Poissons Ratio (x) = 0.35518 0.19992
# Poissons Ratio (y) = 0.42970 0.30385
# Poissons Ratio (z) = 0.25296 0.31779
#
# Static dielectric constant tensor:
#      x y z
#    x 4.476230 0.000000 -0.039800 
#    y 0.000000 3.846100 0.000000 
#    z -0.039800 0.000000 3.925560 
# 
# 
# High freq. dielectric constant tensor:
#      x y z
#    x 1.854360 0.000000 0.002530 
#    y 0.000000 1.842550 0.000000 
#    z 0.002530 0.000000 1.846880 
# 
# From -- ./inp_files/36495.got.cif
#   From: 2010.03.12/outbox.cif.g09.slc.cpg/sg14_19_cif.got.tgz:36495.got - 2010.03.31 13:35:05.
