data_PCOD8127483
_publ_section_title
;
Structure prediction by ZEFSAII (Michael W. Deem and Ramdas Pophale) SiO2 
 PCOD8127483
Probable space group: P 21/C
;
_chemical_formula_sum "Si O2"
_cell_formula_units_Z 32
_cell_length_a 8.065921
_cell_length_b 25.083747
_cell_length_c 14.519586
_cell_angle_alpha 90.000000
_cell_angle_beta 148.502226
_cell_angle_gamma 90.000000
_cell_volume 1534.822566
_symmetry_space_group_name_H-M "P 21/C"
_symmetry_group_IT_number 14
_symmetry_cell_setting 'monoclinic'
loop_
_space_group_symop_operation_xyz
x,y,z
-x,1/2+y,1/2-z
-x,-y,-z
x,1/2-y,1/2+z
loop_
_atom_site_type_symbol
_atom_site_label
_atom_site_fract_x
_atom_site_fract_y
_atom_site_fract_z
Si Si1 0.806572 0.052290 0.429686
Si Si2 0.752932 0.396932 0.226300
Si Si3 0.874230 0.512742 0.339774
Si Si4 0.101741 0.822877 0.046523
Si Si5 0.971822 0.626969 0.108662
Si Si6 0.923491 0.631631 0.798981
Si Si7 0.208105 0.888364 0.920907
Si Si8 0.187670 0.212390 0.603451
O O1 0.466059 0.040961 0.312505
O O2 0.780070 0.086582 0.322849
O O3 0.018437 0.085245 0.600860
O O4 0.000000 0.000000 0.500000
O O5 0.857028 0.458510 0.273076
O O6 0.957786 0.365303 0.400148
O O7 0.815659 0.369061 0.157833
O O8 0.381329 0.396205 0.072593
O O9 0.000000 0.500000 0.500000
O O10 0.114013 0.550352 0.396457
O O11 0.440709 0.796926 0.222575
O O12 0.059438 0.852958 0.930757
O O13 0.848507 0.775508 0.924249
O O14 0.059269 0.632900 0.256098
O O15 0.985746 0.684399 0.065451
O O16 0.583679 0.619360 0.593124
O O17 0.943341 0.688511 0.861433
#
# Coordination Sequence:
#
# PCOD8127483 Si02
#       8
#     4   4   4   4   4   4   4   4
#     4  11  22  40  62  85 127 167 205 244 305 360
#     4  11  23  42  62  91 129 161 206 251 310 364
#     4  12  24  39  63  92 128 169 204 253 303 366
#     4  10  22  43  65  87 122 160 203 262 305 371
#     4  10  23  41  62  95 123 162 208 254 304 373
#     4  10  24  42  61  92 126 162 206 258 302 371
#     4  11  24  40  62  95 128 159 212 251 305 367
#     4   9  22  43  65  87 123 159 204 259 317 355
#
# _framework density 20.849314
#
# number of rings (size 3 to 8) (size 9 to 14) (size 15 to 20)
#    0.000    1.500    2.500    2.250    3.500    6.500 
#    0.000    5.000    0.000    0.000    0.000    0.000 
#    0.000    0.000    0.000    0.000    0.000    0.000 
#
# Total GULP energy -396890.583802 kJ/mol
# GULP energy per Si atom -12402.830744 kJ/mol
# Density = 2.080186 g / cm^3
# Si number density = 20.849314 Si / 1000 Ang^3
#
#
#
# Elastic Constant Matrix: (Units=GPa)
#
#
# Indices 1 2 3 4 5 6 
#
# 1 90.7084 28.5440 14.7541 0.0000 -19.6945 0.0000
# 2 28.5440 119.0699 30.8986 0.0000 -6.0827 0.0000
# 3 14.7541 30.8986 78.9399 0.0000 -22.6350 0.0000
# 4 0.0000 0.0000 0.0000 27.7944 0.0000 4.9622
# 5 -19.6945 -6.0827 -22.6350 0.0000 34.2999 0.0000
# 6 0.0000 0.0000 0.0000 4.9622 0.0000 26.0277
#
#
#
# Elastic Compliance Matrix: (Units=1/GPa)
#
#
# Indices 1 2 3 4 5 6 
#
# 1 0.013548 -0.003087 0.000925 0.000000 0.007842 0.000000
# 2 -0.003087 0.010076 -0.004148 0.000000 -0.002723 0.000000
# 3 0.000925 -0.004148 0.017341 0.000000 0.011239 0.000000
# 4 0.000000 0.000000 0.000000 0.037246 0.000000 -0.007101
# 5 0.007842 -0.002723 0.011239 0.000000 0.040591 0.000000
# 6 0.000000 0.000000 0.000000 -0.007101 0.000000 0.039774
#
#
# Mechanical properties :
#
#
# Convention : Reuss Voigt Hill
#
# Bulk Modulus (GPa) = 35.27974 48.56798 41.92386
# Shear Modulus (GPa) = 27.67860 31.92582 29.80221
#
# Velocity S-wave (km/s) = 3.64751 3.91738 3.78486
# Velocity P-wave (km/s) = 5.89043 6.61865 6.26513
#
# Compressibility (1/GPa) = 0.02834488
#
# Stress axis : x y z
#
# Youngs Moduli (GPa) = 73.81167 99.24876 57.66641
#
# Poissons Ratio (x) = 0.30640 -0.05333
# Poissons Ratio (y) = 0.22787 0.23917
# Poissons Ratio (z) = -0.06826 0.41164
#
# Static dielectric constant tensor:
#      x y z
#    x 3.825270 0.000000 -0.020350 
#    y 0.000000 3.910080 0.000000 
#    z -0.020350 0.000000 3.756170 
# 
# 
# High freq. dielectric constant tensor:
#      x y z
#    x 1.817400 0.000000 -0.004570 
#    y 0.000000 1.817750 0.000000 
#    z -0.004570 0.000000 1.818810 
# 
# From -- ./inp_files/11070.got.cif
#   From: 2010.03.12/outbox.cif.g09.slc.cpg/sg14_6_cif.got.tgz:11070.got - 2010.03.31 13:35:05.
