data_PCOD8127902
_publ_section_title
;
Structure prediction by ZEFSAII (Michael W. Deem and Ramdas Pophale) SiO2 
 PCOD8127902
Probable space group: P 21/C
;
_chemical_formula_sum "Si O2"
_cell_formula_units_Z 32
_cell_length_a 6.593333
_cell_length_b 9.063672
_cell_length_c 28.615896
_cell_angle_alpha 90.000000
_cell_angle_beta 115.414927
_cell_angle_gamma 90.000000
_cell_volume 1544.584866
_symmetry_space_group_name_H-M "P 21/C"
_symmetry_group_IT_number 14
_symmetry_cell_setting 'monoclinic'
loop_
_space_group_symop_operation_xyz
x,y,z
-x,1/2+y,1/2-z
-x,-y,-z
x,1/2-y,1/2+z
loop_
_atom_site_type_symbol
_atom_site_label
_atom_site_fract_x
_atom_site_fract_y
_atom_site_fract_z
Si Si1 0.856986 0.806801 0.432283
Si Si2 0.654504 0.535007 0.732396
Si Si3 0.256530 0.196343 0.978559
Si Si4 0.730748 0.374287 0.553774
Si Si5 0.496608 0.856462 0.694905
Si Si6 0.600102 0.174531 0.142976
Si Si7 0.866820 0.041102 0.682380
Si Si8 0.038222 0.911085 0.605660
O O1 0.857960 0.755397 0.485719
O O2 0.629159 0.765811 0.383394
O O3 0.057433 0.729998 0.424634
O O4 0.895059 0.982771 0.431227
O O5 0.583893 0.703848 0.723695
O O6 0.532222 0.468107 0.765137
O O7 0.572275 0.454049 0.677712
O O8 0.923098 0.521050 0.762306
O O9 0.150840 0.292081 0.926590
O O10 0.200603 0.024680 0.965427
O O11 0.527174 0.210392 0.006826
O O12 0.657129 0.405501 0.599731
O O13 0.261426 0.827397 0.645195
O O14 0.675646 0.925156 0.677200
O O15 0.788379 0.289683 0.178159
O O16 0.935278 0.011905 0.635959
#
# Coordination Sequence:
#
# PCOD8127902 Si02
#       8
#     4   4   4   4   4   4   4   4
#     4  11  22  42  67  92 130 177 206 270 320 372
#     4  11  26  42  69  95 128 174 210 267 321 381
#     4  10  24  42  64  98 128 166 223 262 320 386
#     4  10  23  43  65  94 132 168 216 265 320 386
#     4  11  25  44  65  97 130 164 217 265 317 386
#     4  11  23  42  67  94 129 171 214 261 325 377
#     4  11  23  44  64  94 133 168 217 264 317 383
#     4  11  24  41  66  98 129 170 217 262 321 380
#
# _framework density 20.71754
#
# number of rings (size 3 to 8) (size 9 to 14) (size 15 to 20)
#    0.000    1.250    2.500    2.250    5.250    3.500 
#    0.000    0.000    0.000    0.000    0.000    0.000 
#    0.000    0.000    0.000    0.000    0.000    0.000 
#
# Total GULP energy -396963.199142 kJ/mol
# GULP energy per Si atom -12405.099973 kJ/mol
# Density = 2.067039 g / cm^3
# Si number density = 20.717540 Si / 1000 Ang^3
#
#
#
# Elastic Constant Matrix: (Units=GPa)
#
#
# Indices 1 2 3 4 5 6 
#
# 1 92.1126 38.2414 29.7996 0.0000 5.1610 0.0000
# 2 38.2414 104.8974 40.7715 0.0000 1.0734 0.0000
# 3 29.7996 40.7715 83.4084 0.0000 -0.2631 0.0000
# 4 0.0000 0.0000 0.0000 39.8124 0.0000 0.4424
# 5 5.1610 1.0734 -0.2631 0.0000 15.6214 0.0000
# 6 0.0000 0.0000 0.0000 0.4424 0.0000 31.1497
#
#
#
# Elastic Compliance Matrix: (Units=1/GPa)
#
#
# Indices 1 2 3 4 5 6 
#
# 1 0.013639 -0.003740 -0.003059 0.000000 -0.004301 0.000000
# 2 -0.003740 0.012807 -0.004924 0.000000 0.000273 0.000000
# 3 -0.003059 -0.004924 0.015494 0.000000 0.001610 0.000000
# 4 0.000000 0.000000 0.000000 0.025122 0.000000 -0.000357
# 5 -0.004301 0.000273 0.001610 0.000000 0.065444 0.000000
# 6 0.000000 0.000000 0.000000 -0.000357 0.000000 0.032108
#
#
# Mechanical properties :
#
#
# Convention : Reuss Voigt Hill
#
# Bulk Modulus (GPa) = 54.06275 55.33815 54.70045
# Shear Modulus (GPa) = 25.74364 28.75712 27.25038
#
# Velocity S-wave (km/s) = 3.52888 3.72971 3.63068
# Velocity P-wave (km/s) = 6.53879 6.73174 6.63597
#
# Compressibility (1/GPa) = 0.01849703
#
# Stress axis : x y z
#
# Youngs Moduli (GPa) = 73.31801 78.08060 64.54229
#
# Poissons Ratio (x) = 0.29198 0.19741
# Poissons Ratio (y) = 0.27417 0.31778
# Poissons Ratio (z) = 0.22425 0.38443
#
# Static dielectric constant tensor:
#      x y z
#    x 3.829300 0.000000 0.106920 
#    y 0.000000 3.630680 0.000000 
#    z 0.106920 0.000000 3.749630 
# 
# 
# High freq. dielectric constant tensor:
#      x y z
#    x 1.819890 0.000000 0.005580 
#    y 0.000000 1.811420 0.000000 
#    z 0.005580 0.000000 1.816470 
# 
# From -- ./inp_files/78846.got.cif
#   From: 2010.03.12/outbox.cif.g09.slc.cpg/sg14_40_cif.got.tgz:78846.got - 2010.03.31 13:35:05.
