data_PCOD8127464
_publ_section_title
;
Structure prediction by ZEFSAII (Michael W. Deem and Ramdas Pophale) SiO2 
 PCOD8127464
Probable space group: P 21/C
;
_chemical_formula_sum "Si O2"
_cell_formula_units_Z 32
_cell_length_a 13.109631
_cell_length_b 12.290946
_cell_length_c 16.383208
_cell_angle_alpha 90.000000
_cell_angle_beta 147.275175
_cell_angle_gamma 90.000000
_cell_volume 1427.100911
_symmetry_space_group_name_H-M "P 21/C"
_symmetry_group_IT_number 14
_symmetry_cell_setting 'monoclinic'
loop_
_space_group_symop_operation_xyz
x,y,z
-x,1/2+y,1/2-z
-x,-y,-z
x,1/2-y,1/2+z
loop_
_atom_site_type_symbol
_atom_site_label
_atom_site_fract_x
_atom_site_fract_y
_atom_site_fract_z
Si Si1 0.215108 0.411838 0.018448
Si Si2 0.555369 0.687901 0.531187
Si Si3 0.844009 0.220393 0.301967
Si Si4 0.958976 0.041110 0.881302
Si Si5 0.523111 0.179360 0.842622
Si Si6 0.670397 0.572954 0.082893
Si Si7 0.327493 0.049654 0.031865
Si Si8 0.301036 0.636635 0.135695
O O1 0.384094 0.343439 0.173516
O O2 0.181982 0.527123 0.040083
O O3 0.275149 0.458833 0.971494
O O4 0.030294 0.336773 0.891032
O O5 0.331332 0.671759 0.366583
O O6 0.600675 0.691682 0.658267
O O7 0.621887 0.801449 0.540479
O O8 0.670964 0.592056 0.561654
O O9 0.833349 0.350725 0.291656
O O10 0.829991 0.198816 0.388782
O O11 0.848775 0.943913 0.762397
O O12 0.141820 0.081212 0.955601
O O13 0.000000 0.000000 0.000000
O O14 0.653608 0.284948 0.911383
O O15 0.662296 0.079922 0.955024
O O16 0.500000 0.500000 0.000000
O O17 0.498435 0.108167 0.191336
#
# Coordination Sequence:
#
# PCOD8127464 Si02
#       8
#     4   4   4   4   4   4   4   4
#     4  11  25  44  71 103 142 186 241 296 358 430
#     4  11  24  45  71  99 146 188 233 288 368 427
#     4  11  23  45  66 105 142 183 236 298 350 425
#     4  12  27  43  72 102 139 182 245 300 356 435
#     4  11  23  43  73 100 139 192 237 288 357 437
#     4  12  26  46  69 102 139 188 236 300 361 430
#     4  10  24  45  68 101 140 184 232 301 356 423
#     4  10  22  42  72  98 139 188 234 291 361 429
#
# _framework density 22.423081
#
# number of rings (size 3 to 8) (size 9 to 14) (size 15 to 20)
#    0.000    1.000    1.250    5.250    8.750    0.000 
#    2.250    0.000    0.000    0.000    0.000    0.000 
#    0.000    0.000    0.000    0.000    0.000    0.000 
#
# Total GULP energy -396758.018569 kJ/mol
# GULP energy per Si atom -12398.688080 kJ/mol
# Density = 2.237204 g / cm^3
# Si number density = 22.423081 Si / 1000 Ang^3
#
#
#
# Elastic Constant Matrix: (Units=GPa)
#
#
# Indices 1 2 3 4 5 6 
#
# 1 131.2336 13.2210 37.1412 0.0000 -8.5070 0.0000
# 2 13.2210 106.4655 16.0187 0.0000 4.4401 0.0000
# 3 37.1412 16.0187 81.1716 0.0000 -7.4556 0.0000
# 4 0.0000 0.0000 0.0000 28.8828 0.0000 -0.5077
# 5 -8.5070 4.4401 -7.4556 0.0000 34.5683 0.0000
# 6 0.0000 0.0000 0.0000 -0.5077 0.0000 42.4336
#
#
#
# Elastic Compliance Matrix: (Units=1/GPa)
#
#
# Indices 1 2 3 4 5 6 
#
# 1 0.008848 -0.000587 -0.003801 0.000000 0.001433 0.000000
# 2 -0.000587 0.009817 -0.001834 0.000000 -0.001801 0.000000
# 3 -0.003801 -0.001834 0.014647 0.000000 0.002459 0.000000
# 4 0.000000 0.000000 0.000000 0.034630 0.000000 0.000414
# 5 0.001433 -0.001801 0.002459 0.000000 0.030043 0.000000
# 6 0.000000 0.000000 0.000000 0.000414 0.000000 0.023571
#
#
# Mechanical properties :
#
#
# Convention : Reuss Voigt Hill
#
# Bulk Modulus (GPa) = 47.92193 50.18138 49.05165
# Shear Modulus (GPa) = 35.47252 38.00960 36.74106
#
# Velocity S-wave (km/s) = 3.98171 4.12164 4.05228
# Velocity P-wave (km/s) = 6.52355 6.71405 6.61949
#
# Compressibility (1/GPa) = 0.02086727
#
# Stress axis : x y z
#
# Youngs Moduli (GPa) = 113.02332 101.86783 68.27498
#
# Poissons Ratio (x) = 0.05975 0.25952
# Poissons Ratio (y) = 0.06630 0.12523
# Poissons Ratio (z) = 0.42961 0.18685
#
# Static dielectric constant tensor:
#      x y z
#    x 4.154570 0.000000 -0.095100 
#    y 0.000000 4.177630 0.000000 
#    z -0.095100 0.000000 3.901630 
# 
# 
# High freq. dielectric constant tensor:
#      x y z
#    x 1.895290 0.000000 -0.005310 
#    y 0.000000 1.900700 0.000000 
#    z -0.005310 0.000000 1.866060 
# 
# From -- ./inp_files/59491.got.cif
#   From: 2010.03.12/outbox.cif.g09.slc.cpg/sg14_30_cif.got.tgz:59491.got - 2010.03.31 13:35:05.
