data_PCOD8127254
_publ_section_title
;
Structure prediction by ZEFSAII (Michael W. Deem and Ramdas Pophale) SiO2 
 PCOD8127254
Probable space group: P 21/C
;
_chemical_formula_sum "Si O2"
_cell_formula_units_Z 16
_cell_length_a 13.956989
_cell_length_b 8.112553
_cell_length_c 11.313595
_cell_angle_alpha 90.000000
_cell_angle_beta 147.719216
_cell_angle_gamma 90.000000
_cell_volume 684.143407
_symmetry_space_group_name_H-M "P 21/C"
_symmetry_group_IT_number 14
_symmetry_cell_setting 'monoclinic'
loop_
_space_group_symop_operation_xyz
x,y,z
-x,1/2+y,1/2-z
-x,-y,-z
x,1/2-y,1/2+z
loop_
_atom_site_type_symbol
_atom_site_label
_atom_site_fract_x
_atom_site_fract_y
_atom_site_fract_z
Si Si1 0.154670 0.283505 0.093475
Si Si2 0.650436 0.586085 0.385413
Si Si3 0.770312 0.122962 0.226524
Si Si4 0.484343 0.310058 0.071089
O O1 0.198518 0.208344 0.010430
O O2 0.202623 0.478373 0.148165
O O3 0.275017 0.187865 0.316249
O O4 0.945110 0.259489 0.905152
O O5 0.743741 0.454789 0.569133
O O6 0.552646 0.492825 0.174050
O O7 0.500736 0.693582 0.297384
O O8 0.599805 0.231701 0.085029
#
# Coordination Sequence:
#
# PCOD8127254 Si02
#       4
#     4   4   4   4
#     4  10  22  41  61  88 124 163 206 255 307 364
#     4  11  22  39  68  93 123 170 207 252 314 368
#     4  10  23  41  61  90 128 162 204 258 305 366
#     4  11  22  41  63  92 127 161 206 257 308 367
#
# _framework density 23.386908999999999
#
# number of rings (size 3 to 8) (size 9 to 14) (size 15 to 20)
#    0.000    1.500    0.000    6.750    0.000    7.000 
#    0.000    7.500    0.000    0.000    0.000    0.000 
#    0.000    0.000    0.000    0.000    0.000    0.000 
#
# Total GULP energy -198436.243499 kJ/mol
# GULP energy per Si atom -12402.265219 kJ/mol
# Density = 2.333368 g / cm^3
# Si number density = 23.386909 Si / 1000 Ang^3
#
#
#
# Elastic Constant Matrix: (Units=GPa)
#
#
# Indices 1 2 3 4 5 6 
#
# 1 132.2627 55.9737 43.9129 0.0000 6.9329 0.0000
# 2 55.9737 90.0933 34.1275 0.0000 11.8640 0.0000
# 3 43.9129 34.1275 92.5458 0.0000 21.3248 0.0000
# 4 0.0000 0.0000 0.0000 35.8416 0.0000 -2.5395
# 5 6.9329 11.8640 21.3248 0.0000 31.2614 0.0000
# 6 0.0000 0.0000 0.0000 -2.5395 0.0000 62.6784
#
#
#
# Elastic Compliance Matrix: (Units=1/GPa)
#
#
# Indices 1 2 3 4 5 6 
#
# 1 0.011116 -0.005820 -0.003642 0.000000 0.002228 0.000000
# 2 -0.005820 0.016051 -0.002434 0.000000 -0.003141 0.000000
# 3 -0.003642 -0.002434 0.015462 0.000000 -0.008816 0.000000
# 4 0.000000 0.000000 0.000000 0.027981 0.000000 0.001134
# 5 0.002228 -0.003141 -0.008816 0.000000 0.038700 0.000000
# 6 0.000000 0.000000 0.000000 0.001134 0.000000 0.016000
#
#
# Mechanical properties :
#
#
# Convention : Reuss Voigt Hill
#
# Bulk Modulus (GPa) = 53.08268 64.76999 58.92633
# Shear Modulus (GPa) = 32.17888 38.01547 35.09717
#
# Velocity S-wave (km/s) = 3.71338 4.03613 3.87811
# Velocity P-wave (km/s) = 6.41346 7.03388 6.73083
#
# Compressibility (1/GPa) = 0.01883854
#
# Stress axis : x y z
#
# Youngs Moduli (GPa) = 89.95956 62.30119 64.67325
#
# Poissons Ratio (x) = 0.36260 0.23552
# Poissons Ratio (y) = 0.52358 0.15739
# Poissons Ratio (z) = 0.32760 0.15162
#
# Static dielectric constant tensor:
#      x y z
#    x 4.252660 0.000000 -0.019940 
#    y 0.000000 4.193970 0.000000 
#    z -0.019940 0.000000 4.087370 
# 
# 
# High freq. dielectric constant tensor:
#      x y z
#    x 1.927130 0.000000 -0.007710 
#    y 0.000000 1.924690 0.000000 
#    z -0.007710 0.000000 1.916820 
# 
# From -- ./inp_files/22509.got.cif
#   From: 2010.03.12/outbox.cif.g09.slc.cpg/sg14_12_cif.got.tgz:22509.got - 2010.03.31 13:35:05.
