data_PCOD8127411
_publ_section_title
;
Structure prediction by ZEFSAII (Michael W. Deem and Ramdas Pophale) SiO2 
 PCOD8127411
Probable space group: P 21/C
;
_chemical_formula_sum "Si O2"
_cell_formula_units_Z 28
_cell_length_a 5.376650
_cell_length_b 8.612289
_cell_length_c 27.296682
_cell_angle_alpha 90.000000
_cell_angle_beta 83.605929
_cell_angle_gamma 90.000000
_cell_volume 1256.117404
_symmetry_space_group_name_H-M "P 21/C"
_symmetry_group_IT_number 14
_symmetry_cell_setting 'monoclinic'
loop_
_space_group_symop_operation_xyz
x,y,z
-x,1/2+y,1/2-z
-x,-y,-z
x,1/2-y,1/2+z
loop_
_atom_site_type_symbol
_atom_site_label
_atom_site_fract_x
_atom_site_fract_y
_atom_site_fract_z
Si Si1 0.767196 0.438095 0.213779
Si Si2 0.877408 0.209711 0.918360
Si Si3 0.416852 0.799206 0.384001
Si Si4 0.384964 0.435524 0.380730
Si Si5 0.748354 0.096294 0.509433
Si Si6 0.805869 0.477570 0.853918
Si Si7 0.499398 0.265948 0.795327
O O1 0.686437 0.383640 0.161753
O O2 0.660217 0.608103 0.231908
O O3 0.709190 0.310413 0.255881
O O4 0.061780 0.463993 0.199331
O O5 0.645987 0.119976 0.898665
O O6 0.960450 0.370675 0.888759
O O7 0.131986 0.107472 0.916320
O O8 0.777132 0.252912 0.974359
O O9 0.415854 0.618062 0.375722
O O10 0.259873 0.842963 0.435017
O O11 0.695800 0.871810 0.384429
O O12 0.344014 0.371059 0.325772
O O13 0.500000 0.000000 0.500000
O O14 0.000000 0.000000 0.500000
O O15 0.599789 0.358457 0.839621
#
# Coordination Sequence:
#
# PCOD8127411 Si02
#       7
#     4   4   4   4   4   4   4
#     4  11  22  43  66  94 138 175 236 276 351 406
#     4  11  23  45  69  97 139 182 223 287 342 409
#     4  11  26  42  67 103 132 180 234 288 341 420
#     4  11  25  44  67 101 143 177 225 286 354 400
#     4  12  25  42  75 102 134 182 238 281 348 412
#     4  10  22  42  66  93 133 181 228 283 341 414
#     4  10  23  39  64  95 130 179 223 282 338 416
#
# _framework density 22.290911000000001
#
# number of rings (size 3 to 8) (size 9 to 14) (size 15 to 20)
#    0.000    1.143    2.857    2.571    4.000    4.571 
#    2.571    0.000    0.000    0.000    0.000    0.000 
#    0.000    0.000    0.000    0.000    0.000    0.000 
#
# Total GULP energy -346869.938341 kJ/mol
# GULP energy per Si atom -12388.212084 kJ/mol
# Density = 2.224018 g / cm^3
# Si number density = 22.290911 Si / 1000 Ang^3
#
#
#
# Elastic Constant Matrix: (Units=GPa)
#
#
# Indices 1 2 3 4 5 6 
#
# 1 99.4523 43.7494 11.0233 0.0000 -22.3081 0.0000
# 2 43.7494 161.4598 50.5383 0.0000 -19.4183 0.0000
# 3 11.0233 50.5383 103.5171 0.0000 -24.4429 0.0000
# 4 0.0000 0.0000 0.0000 37.7993 0.0000 -13.6334
# 5 -22.3081 -19.4183 -24.4429 0.0000 35.3243 0.0000
# 6 0.0000 0.0000 0.0000 -13.6334 0.0000 25.4483
#
#
#
# Elastic Compliance Matrix: (Units=1/GPa)
#
#
# Indices 1 2 3 4 5 6 
#
# 1 0.013007 -0.003218 0.002042 0.000000 0.007858 0.000000
# 2 -0.003218 0.008210 -0.003681 0.000000 -0.000067 0.000000
# 3 0.002042 -0.003681 0.013228 0.000000 0.008419 0.000000
# 4 0.000000 0.000000 0.000000 0.032792 0.000000 0.017567
# 5 0.007858 -0.000067 0.008419 0.000000 0.039060 0.000000
# 6 0.000000 0.000000 0.000000 0.017567 0.000000 0.048707
#
#
# Mechanical properties :
#
#
# Convention : Reuss Voigt Hill
#
# Bulk Modulus (GPa) = 40.43856 63.89457 52.16657
# Shear Modulus (GPa) = 28.90801 36.98894 32.94847
#
# Velocity S-wave (km/s) = 3.60509 4.07796 3.84879
# Velocity P-wave (km/s) = 5.95899 7.13437 6.57300
#
# Compressibility (1/GPa) = 0.02472887
#
# Stress axis : x y z
#
# Youngs Moduli (GPa) = 76.88077 121.80605 75.59777
#
# Poissons Ratio (x) = 0.39203 -0.15434
# Poissons Ratio (y) = 0.24744 0.27829
# Poissons Ratio (z) = -0.15696 0.44838
#
# Static dielectric constant tensor:
#      x y z
#    x 4.277920 0.000000 -0.217500 
#    y 0.000000 4.225260 0.000000 
#    z -0.217500 0.000000 4.121320 
# 
# 
# High freq. dielectric constant tensor:
#      x y z
#    x 1.871100 0.000000 -0.017050 
#    y 0.000000 1.886100 0.000000 
#    z -0.017050 0.000000 1.877730 
# 
# From -- ./inp_files/75647.got.cif
#   From: 2010.03.12/outbox.cif.g09.slc.cpg/sg14_38_cif.got.tgz:75647.got - 2010.03.31 13:35:05.
