data_PCOD8127949
_publ_section_title
;
Structure prediction by ZEFSAII (Michael W. Deem and Ramdas Pophale) SiO2 
 PCOD8127949
Probable space group: P 21/C
;
_chemical_formula_sum "Si O2"
_cell_formula_units_Z 32
_cell_length_a 20.440016
_cell_length_b 14.475388
_cell_length_c 14.442916
_cell_angle_alpha 90.000000
_cell_angle_beta 160.480235
_cell_angle_gamma 90.000000
_cell_volume 1427.856039
_symmetry_space_group_name_H-M "P 21/C"
_symmetry_group_IT_number 14
_symmetry_cell_setting 'monoclinic'
loop_
_space_group_symop_operation_xyz
x,y,z
-x,1/2+y,1/2-z
-x,-y,-z
x,1/2-y,1/2+z
loop_
_atom_site_type_symbol
_atom_site_label
_atom_site_fract_x
_atom_site_fract_y
_atom_site_fract_z
Si Si1 0.141098 0.658091 0.432067
Si Si2 0.198838 0.492911 0.208546
Si Si3 0.492084 0.136522 0.843414
Si Si4 0.884756 0.789820 0.421159
Si Si5 0.795182 0.036369 0.691502
Si Si6 0.841215 0.514608 0.046930
Si Si7 0.804732 0.272330 0.301724
Si Si8 0.420298 0.357357 0.045444
O O1 0.097426 0.707769 0.470006
O O2 0.372757 0.652380 0.727973
O O3 0.062574 0.553080 0.337344
O O4 0.023333 0.713866 0.196512
O O5 0.371953 0.545077 0.493139
O O6 0.243244 0.383562 0.255970
O O7 0.192067 0.538883 0.095076
O O8 0.000000 0.500000 0.000000
O O9 0.299112 0.105857 0.640796
O O10 0.435583 0.182012 0.669796
O O11 0.606276 0.214423 0.052899
O O12 0.036477 0.789964 0.538567
O O13 0.743277 0.700552 0.229211
O O14 0.750126 0.136624 0.670800
O O15 0.797730 0.043675 0.581915
O O16 0.635643 0.965271 0.518872
O O17 0.000000 0.000000 0.000000
#
# Coordination Sequence:
#
# PCOD8127949 Si02
#       8
#     4   4   4   4   4   4   4   4
#     4  11  24  43  69 102 140 179 237 291 347 418
#     4  11  22  43  69 101 137 180 233 292 345 414
#     4  11  23  44  67 101 139 181 231 284 351 412
#     4  11  24  46  70 100 141 185 228 290 357 416
#     4  11  22  44  68  98 138 183 232 284 357 414
#     4  10  23  43  71  97 141 185 231 294 347 419
#     4  12  23  43  70 101 138 183 230 289 346 420
#     4  11  24  45  72  98 144 181 230 296 342 420
#
# _framework density 22.411224000000001
#
# number of rings (size 3 to 8) (size 9 to 14) (size 15 to 20)
#    0.000    1.000    5.000    1.875    3.500    3.500 
#    0.000    0.000    0.000    0.000    0.000    0.000 
#    0.000    0.000    0.000    0.000    0.000    0.000 
#
# Total GULP energy -396699.141522 kJ/mol
# GULP energy per Si atom -12396.848173 kJ/mol
# Density = 2.236022 g / cm^3
# Si number density = 22.411224 Si / 1000 Ang^3
#
#
#
# Elastic Constant Matrix: (Units=GPa)
#
#
# Indices 1 2 3 4 5 6 
#
# 1 135.6171 22.1988 37.8197 0.0000 -14.9927 0.0000
# 2 22.1988 77.8120 19.3496 0.0000 -11.9998 0.0000
# 3 37.8197 19.3496 96.4169 0.0000 -3.9875 0.0000
# 4 0.0000 0.0000 0.0000 38.0933 0.0000 0.2998
# 5 -14.9927 -11.9998 -3.9875 0.0000 34.5408 0.0000
# 6 0.0000 0.0000 0.0000 0.2998 0.0000 24.9274
#
#
#
# Elastic Compliance Matrix: (Units=1/GPa)
#
#
# Indices 1 2 3 4 5 6 
#
# 1 0.008768 -0.001277 -0.003059 0.000000 0.003009 0.000000
# 2 -0.001277 0.014415 -0.002218 0.000000 0.004197 0.000000
# 3 -0.003059 -0.002218 0.011987 0.000000 -0.000715 0.000000
# 4 0.000000 0.000000 0.000000 0.026254 0.000000 -0.000316
# 5 0.003009 0.004197 -0.000715 0.000000 0.031633 0.000000
# 6 0.000000 0.000000 0.000000 -0.000316 0.000000 0.040120
#
#
# Mechanical properties :
#
#
# Convention : Reuss Voigt Hill
#
# Bulk Modulus (GPa) = 45.32626 52.06468 48.69547
# Shear Modulus (GPa) = 32.54374 34.87751 33.71062
#
# Velocity S-wave (km/s) = 3.81480 3.94922 3.88259
# Velocity P-wave (km/s) = 6.29860 6.63905 6.47106
#
# Compressibility (1/GPa) = 0.02206226
#
# Stress axis : x y z
#
# Youngs Moduli (GPa) = 114.04635 69.37354 83.42326
#
# Poissons Ratio (x) = 0.08858 0.25517
# Poissons Ratio (y) = 0.14562 0.18507
# Poissons Ratio (z) = 0.34883 0.15390
#
# Static dielectric constant tensor:
#      x y z
#    x 4.204350 0.000000 -0.084720 
#    y 0.000000 4.134110 0.000000 
#    z -0.084720 0.000000 4.213410 
# 
# 
# High freq. dielectric constant tensor:
#      x y z
#    x 1.894930 0.000000 -0.001510 
#    y 0.000000 1.865080 0.000000 
#    z -0.001510 0.000000 1.887920 
# 
# From -- ./inp_files/50636.got.cif
#   From: 2010.03.12/outbox.cif.g09.slc.cpg/sg14_26_cif.got.tgz:50636.got - 2010.03.31 13:35:05.
