data_PCOD8127444
_publ_section_title
;
Structure prediction by ZEFSAII (Michael W. Deem and Ramdas Pophale) SiO2 
 PCOD8127444
Probable space group: P 21/C
;
_chemical_formula_sum "Si O2"
_cell_formula_units_Z 32
_cell_length_a 12.455174
_cell_length_b 9.860032
_cell_length_c 13.613308
_cell_angle_alpha 90.000000
_cell_angle_beta 115.514391
_cell_angle_gamma 90.000000
_cell_volume 1508.787218
_symmetry_space_group_name_H-M "P 21/C"
_symmetry_group_IT_number 14
_symmetry_cell_setting 'monoclinic'
loop_
_space_group_symop_operation_xyz
x,y,z
-x,1/2+y,1/2-z
-x,-y,-z
x,1/2-y,1/2+z
loop_
_atom_site_type_symbol
_atom_site_label
_atom_site_fract_x
_atom_site_fract_y
_atom_site_fract_z
Si Si1 0.486668 0.010465 0.822016
Si Si2 0.853483 0.878202 0.677569
Si Si3 0.752669 0.626955 0.733279
Si Si4 0.235084 0.276546 0.047963
Si Si5 0.503515 0.794695 0.353276
Si Si6 0.250052 0.965385 0.066449
Si Si7 0.123066 0.893360 0.824218
Si Si8 0.747508 0.143160 0.712054
O O1 0.377801 0.066218 0.845808
O O2 0.483013 0.087758 0.719415
O O3 0.614725 0.038434 0.922445
O O4 0.471465 0.850997 0.792601
O O5 0.762764 0.779432 0.698331
O O6 0.860636 0.835650 0.565974
O O7 0.982947 0.869311 0.776271
O O8 0.802311 0.028684 0.664868
O O9 0.772012 0.630231 0.858019
O O10 0.852139 0.537876 0.717559
O O11 0.365894 0.284941 0.045934
O O12 0.205935 0.120381 0.062322
O O13 0.390912 0.836717 0.376159
O O14 0.240152 0.890851 0.167354
O O15 0.169908 0.888961 0.954601
O O16 0.182092 0.780503 0.779429
#
# Coordination Sequence:
#
# PCOD8127444 Si02
#       8
#     4   4   4   4   4   4   4   4
#     4   9  19  37  66  97 124 161 209 257 320 388
#     4  12  26  42  63  93 128 171 223 258 307 382
#     4  11  22  43  68  92 130 168 208 267 319 372
#     4  10  22  42  69  95 125 169 210 257 327 385
#     4   9  19  38  64  96 128 160 206 259 322 383
#     4  10  22  43  69  94 127 168 208 259 327 385
#     4  12  26  42  65  95 127 169 224 265 306 378
#     4  11  24  43  64  97 133 162 211 272 320 368
#
# _framework density 21.209087
#
# number of rings (size 3 to 8) (size 9 to 14) (size 15 to 20)
#    0.000    1.500    3.750    0.750    1.750    5.000 
#    2.250    0.000    0.000    0.000    0.000    0.000 
#    0.000    0.000    0.000    0.000    0.000    0.000 
#
# Total GULP energy -396692.531767 kJ/mol
# GULP energy per Si atom -12396.641618 kJ/mol
# Density = 2.116081 g / cm^3
# Si number density = 21.209087 Si / 1000 Ang^3
#
#
#
# Elastic Constant Matrix: (Units=GPa)
#
#
# Indices 1 2 3 4 5 6 
#
# 1 47.6114 14.1448 -1.5426 0.0000 -0.9990 0.0000
# 2 14.1448 69.8768 19.8909 0.0000 1.9936 0.0000
# 3 -1.5426 19.8909 83.1845 0.0000 -3.9622 0.0000
# 4 0.0000 0.0000 0.0000 30.0357 0.0000 -10.1599
# 5 -0.9990 1.9936 -3.9622 0.0000 24.2074 0.0000
# 6 0.0000 0.0000 0.0000 -10.1599 0.0000 39.7774
#
#
#
# Elastic Compliance Matrix: (Units=1/GPa)
#
#
# Indices 1 2 3 4 5 6 
#
# 1 0.022613 -0.005114 0.001720 0.000000 0.001636 0.000000
# 2 -0.005114 0.016598 -0.004171 0.000000 -0.002261 0.000000
# 3 0.001720 -0.004171 0.013173 0.000000 0.002571 0.000000
# 4 0.000000 0.000000 0.000000 0.036442 0.000000 0.009308
# 5 0.001636 -0.002261 0.002571 0.000000 0.041984 0.000000
# 6 0.000000 0.000000 0.000000 0.009308 0.000000 0.027517
#
#
# Mechanical properties :
#
#
# Convention : Reuss Voigt Hill
#
# Bulk Modulus (GPa) = 26.84287 29.51765 28.18026
# Shear Modulus (GPa) = 26.89971 30.01607 28.45789
#
# Velocity S-wave (km/s) = 3.56520 3.76606 3.66700
# Velocity P-wave (km/s) = 5.44346 5.73224 5.58972
#
# Compressibility (1/GPa) = 0.03725385
#
# Stress axis : x y z
#
# Youngs Moduli (GPa) = 44.22303 60.24843 75.91132
#
# Poissons Ratio (x) = 0.30809 -0.13057
# Poissons Ratio (y) = 0.22614 0.31665
# Poissons Ratio (z) = -0.07606 0.25132
#
# Static dielectric constant tensor:
#      x y z
#    x 4.119810 0.000000 0.223810 
#    y 0.000000 3.943220 0.000000 
#    z 0.223810 0.000000 3.588780 
# 
# 
# High freq. dielectric constant tensor:
#      x y z
#    x 1.833620 0.000000 0.007800 
#    y 0.000000 1.843510 0.000000 
#    z 0.007800 0.000000 1.809500 
# 
# From -- ./inp_files/43788.got.cif
#   From: 2010.03.12/outbox.cif.g09.slc.cpg/sg14_22_cif.got.tgz:43788.got - 2010.03.31 13:35:05.
