data_PCOD8127417
_publ_section_title
;
Structure prediction by ZEFSAII (Michael W. Deem and Ramdas Pophale) SiO2 
 PCOD8127417
Probable space group: P 21/C
;
_chemical_formula_sum "Si O2"
_cell_formula_units_Z 24
_cell_length_a 8.709912
_cell_length_b 8.005778
_cell_length_c 30.421173
_cell_angle_alpha 90.000000
_cell_angle_beta 32.068011
_cell_angle_gamma 90.000000
_cell_volume 1126.229454
_symmetry_space_group_name_H-M "P 21/C"
_symmetry_group_IT_number 14
_symmetry_cell_setting 'monoclinic'
loop_
_space_group_symop_operation_xyz
x,y,z
-x,1/2+y,1/2-z
-x,-y,-z
x,1/2-y,1/2+z
loop_
_atom_site_type_symbol
_atom_site_label
_atom_site_fract_x
_atom_site_fract_y
_atom_site_fract_z
Si Si1 0.043290 0.838870 0.520475
Si Si2 0.568666 0.873320 0.172664
Si Si3 0.018296 0.459016 0.779574
Si Si4 0.307827 0.737285 0.320567
Si Si5 0.841424 0.997881 0.418136
Si Si6 0.411441 0.324269 0.161387
O O1 0.337696 0.753167 0.431701
O O2 0.780696 0.706928 0.584442
O O3 0.063851 0.882631 0.566169
O O4 0.000000 0.000000 0.500000
O O5 0.274525 0.904109 0.217036
O O6 0.502417 0.749310 0.229518
O O7 0.702694 0.047373 0.159271
O O8 0.138191 0.297090 0.726432
O O9 0.953039 0.418965 0.846271
O O10 0.723249 0.506174 0.825744
O O11 0.459823 0.852438 0.321253
O O12 0.985806 0.812954 0.389805
O O13 0.500000 0.000000 0.500000
#
# Coordination Sequence:
#
# PCOD8127417 Si02
#       6
#     4   4   4   4   4   4
#     4  12  24  41  67  93 129 169 216 265 327 386
#     4  10  23  43  66  94 125 172 215 266 325 390
#     4  10  24  40  65  92 131 164 214 265 320 388
#     4  10  22  42  67  89 127 169 215 263 324 395
#     4  11  22  43  63  93 128 168 211 266 330 383
#     4  11  23  40  62  96 122 169 210 264 315 385
#
# _framework density 21.310043
#
# number of rings (size 3 to 8) (size 9 to 14) (size 15 to 20)
#    0.000    1.333    3.333    3.000    2.333    4.000 
#    3.000    0.833    0.000    0.000    0.000    0.000 
#    0.000    0.000    0.000    0.000    0.000    0.000 
#
# Total GULP energy -297432.099475 kJ/mol
# GULP energy per Si atom -12393.004145 kJ/mol
# Density = 2.126154 g / cm^3
# Si number density = 21.310043 Si / 1000 Ang^3
#
#
#
# Elastic Constant Matrix: (Units=GPa)
#
#
# Indices 1 2 3 4 5 6 
#
# 1 76.5491 26.1335 31.0647 0.0000 -6.5642 0.0000
# 2 26.1335 52.1947 30.4056 0.0000 3.4483 0.0000
# 3 31.0647 30.4056 144.1139 0.0000 -10.9137 0.0000
# 4 0.0000 0.0000 0.0000 42.2734 0.0000 -0.0953
# 5 -6.5642 3.4483 -10.9137 0.0000 33.0953 0.0000
# 6 0.0000 0.0000 0.0000 -0.0953 0.0000 31.7677
#
#
#
# Elastic Compliance Matrix: (Units=1/GPa)
#
#
# Indices 1 2 3 4 5 6 
#
# 1 0.016648 -0.007562 -0.001726 0.000000 0.003521 0.000000
# 2 -0.007562 0.025779 -0.004232 0.000000 -0.005581 0.000000
# 3 -0.001726 -0.004232 0.008422 0.000000 0.002876 0.000000
# 4 0.000000 0.000000 0.000000 0.023656 0.000000 0.000071
# 5 0.003521 -0.005581 0.002876 0.000000 0.032444 0.000000
# 6 0.000000 0.000000 0.000000 0.000071 0.000000 0.031479
#
#
# Mechanical properties :
#
#
# Convention : Reuss Voigt Hill
#
# Bulk Modulus (GPa) = 42.00248 49.78503 45.89375
# Shear Modulus (GPa) = 28.83451 33.77754 31.30603
#
# Velocity S-wave (km/s) = 3.68243 3.98559 3.83701
# Velocity P-wave (km/s) = 6.15089 6.67779 6.41975
#
# Compressibility (1/GPa) = 0.02380812
#
# Stress axis : x y z
#
# Youngs Moduli (GPa) = 60.06829 38.79098 118.74159
#
# Poissons Ratio (x) = 0.29335 0.20500
# Poissons Ratio (y) = 0.45425 0.50246
# Poissons Ratio (z) = 0.10370 0.16415
#
# Static dielectric constant tensor:
#      x y z
#    x 3.978490 0.000000 -0.058020 
#    y 0.000000 3.496460 0.000000 
#    z -0.058020 0.000000 4.396020 
# 
# 
# High freq. dielectric constant tensor:
#      x y z
#    x 1.841370 0.000000 -0.000550 
#    y 0.000000 1.809200 0.000000 
#    z -0.000550 0.000000 1.854700 
# 
# From -- ./inp_files/54500.got.cif
#   From: 2010.03.12/outbox.cif.g09.slc.cpg/sg14_28_cif.got.tgz:54500.got - 2010.03.31 13:35:05.
