data_PCOD8127316
_publ_section_title
;
Structure prediction by ZEFSAII (Michael W. Deem and Ramdas Pophale) SiO2 
 PCOD8127316
Probable space group: P 21/C
;
_chemical_formula_sum "Si O2"
_cell_formula_units_Z 28
_cell_length_a 5.372217
_cell_length_b 21.646491
_cell_length_c 11.640534
_cell_angle_alpha 90.000000
_cell_angle_beta 105.683849
_cell_angle_gamma 90.000000
_cell_volume 1303.273597
_symmetry_space_group_name_H-M "P 21/C"
_symmetry_group_IT_number 14
_symmetry_cell_setting 'monoclinic'
loop_
_space_group_symop_operation_xyz
x,y,z
-x,1/2+y,1/2-z
-x,-y,-z
x,1/2-y,1/2+z
loop_
_atom_site_type_symbol
_atom_site_label
_atom_site_fract_x
_atom_site_fract_y
_atom_site_fract_z
Si Si1 0.505024 0.227547 0.483037
Si Si2 0.394960 0.885287 0.346538
Si Si3 0.850906 0.080690 0.907060
Si Si4 0.054859 0.681198 0.129990
Si Si5 0.329612 0.852275 0.889114
Si Si6 0.660368 0.956672 0.939479
Si Si7 0.958138 0.931047 0.456688
O O1 0.560143 0.181845 0.595412
O O2 0.715277 0.217244 0.407988
O O3 0.519389 0.295631 0.535631
O O4 0.211788 0.219597 0.402237
O O5 0.287464 0.876470 0.204135
O O6 0.663745 0.922966 0.376222
O O7 0.167571 0.920505 0.383993
O O8 0.794368 0.007175 0.873313
O O9 0.785849 0.105606 0.025251
O O10 0.160363 0.081854 0.947890
O O11 0.123196 0.672600 0.272165
O O12 0.009865 0.614407 0.069195
O O13 0.516937 0.902449 0.848667
O O14 0.500000 0.000000 0.000000
O O15 0.000000 0.000000 0.500000
#
# Coordination Sequence:
#
# PCOD8127316 Si02
#       7
#     4   4   4   4   4   4   4
#     4  10  25  45  63  98 131 173 225 270 329 393
#     4  10  23  41  65  94 135 170 215 274 324 398
#     4  10  23  41  65  99 133 173 220 273 344 392
#     4  10  25  45  64  97 135 168 227 272 325 404
#     4  11  25  40  72  92 132 179 219 279 335 395
#     4   9  22  41  59  99 132 167 221 269 329 398
#     4  10  22  41  67  96 127 175 217 268 331 386
#
# _framework density 21.484361
#
# number of rings (size 3 to 8) (size 9 to 14) (size 15 to 20)
#    0.000    2.000    0.000    0.429   12.000    2.286 
#    2.571    0.000    0.000    0.000    0.000    0.000 
#    0.000    0.000    0.000    0.000    0.000    0.000 
#
# Total GULP energy -346897.461432 kJ/mol
# GULP energy per Si atom -12389.195051 kJ/mol
# Density = 2.143546 g / cm^3
# Si number density = 21.484361 Si / 1000 Ang^3
#
#
#
# Elastic Constant Matrix: (Units=GPa)
#
#
# Indices 1 2 3 4 5 6 
#
# 1 143.1051 41.6771 43.9541 0.0000 20.6755 0.0000
# 2 41.6771 110.7929 43.1604 0.0000 11.0455 0.0000
# 3 43.9541 43.1604 131.8297 0.0000 19.8963 0.0000
# 4 0.0000 0.0000 0.0000 19.0112 0.0000 6.8598
# 5 20.6755 11.0455 19.8963 0.0000 30.7214 0.0000
# 6 0.0000 0.0000 0.0000 6.8598 0.0000 20.3027
#
#
#
# Elastic Compliance Matrix: (Units=1/GPa)
#
#
# Indices 1 2 3 4 5 6 
#
# 1 0.008709 -0.002269 -0.001551 0.000000 -0.004041 0.000000
# 2 -0.002269 0.011016 -0.002752 0.000000 -0.000652 0.000000
# 3 -0.001551 -0.002752 0.009639 0.000000 -0.004209 0.000000
# 4 0.000000 0.000000 0.000000 0.059904 0.000000 -0.020240
# 5 -0.004041 -0.000652 -0.004209 0.000000 0.038230 0.000000
# 6 0.000000 0.000000 0.000000 -0.020240 0.000000 0.056093
#
#
# Mechanical properties :
#
#
# Convention : Reuss Voigt Hill
#
# Bulk Modulus (GPa) = 61.65034 71.47899 66.56467
# Shear Modulus (GPa) = 24.73511 31.13613 27.93562
#
# Velocity S-wave (km/s) = 3.39677 3.81103 3.60985
# Velocity P-wave (km/s) = 6.64393 7.26001 6.95879
#
# Compressibility (1/GPa) = 0.01622051
#
# Stress axis : x y z
#
# Youngs Moduli (GPa) = 114.82568 90.77422 103.74644
#
# Poissons Ratio (x) = 0.20597 0.16091
# Poissons Ratio (y) = 0.26054 0.28549
# Poissons Ratio (z) = 0.17809 0.24980
#
# Static dielectric constant tensor:
#      x y z
#    x 2.845110 0.000000 0.613780 
#    y 0.000000 4.665710 0.000000 
#    z 0.613780 0.000000 3.565020 
# 
# 
# High freq. dielectric constant tensor:
#      x y z
#    x 1.856700 0.000000 0.015180 
#    y 0.000000 1.854460 0.000000 
#    z 0.015180 0.000000 1.827360 
# 
# From -- ./inp_files/21614.got.cif
#   From: 2010.03.12/outbox.cif.g09.slc.cpg/sg14_11_cif.got.tgz:21614.got - 2010.03.31 13:35:05.
