data_PCOD8127660
_publ_section_title
;
Structure prediction by ZEFSAII (Michael W. Deem and Ramdas Pophale) SiO2 
 PCOD8127660
Probable space group: P 21/C
;
_chemical_formula_sum "Si O2"
_cell_formula_units_Z 28
_cell_length_a 5.731018
_cell_length_b 8.787111
_cell_length_c 21.739103
_cell_angle_alpha 90.000000
_cell_angle_beta 84.854148
_cell_angle_gamma 90.000000
_cell_volume 1090.349154
_symmetry_space_group_name_H-M "P 21/C"
_symmetry_group_IT_number 14
_symmetry_cell_setting 'monoclinic'
loop_
_space_group_symop_operation_xyz
x,y,z
-x,1/2+y,1/2-z
-x,-y,-z
x,1/2-y,1/2+z
loop_
_atom_site_type_symbol
_atom_site_label
_atom_site_fract_x
_atom_site_fract_y
_atom_site_fract_z
Si Si1 0.574321 0.651057 0.680481
Si Si2 0.976501 0.514408 0.103885
Si Si3 0.688853 0.812900 0.343933
Si Si4 0.289875 0.759526 0.440263
Si Si5 0.714328 0.291131 0.423326
Si Si6 0.005039 0.055148 0.132039
Si Si7 0.367434 0.473120 0.778453
O O1 0.500171 0.741535 0.619375
O O2 0.810710 0.551784 0.669226
O O3 0.354913 0.543846 0.709264
O O4 0.599605 0.791418 0.728740
O O5 0.804344 0.436314 0.057677
O O6 0.855029 0.495947 0.173959
O O7 0.213494 0.419228 0.103442
O O8 0.050973 0.686548 0.087581
O O9 0.475171 0.727878 0.381993
O O10 0.603095 0.931966 0.293611
O O11 0.885682 0.682374 0.322396
O O12 0.387523 0.721684 0.505605
O O13 0.087645 0.643296 0.425980
O O14 0.788796 0.459810 0.404264
#
# Coordination Sequence:
#
# PCOD8127660 Si02
#       7
#     4   4   4   4   4   4   4
#     4  12  28  45  73 102 147 185 242 304 353 428
#     4  10  22  46  71 102 140 184 239 287 357 428
#     4  10  23  47  71 100 140 189 234 284 362 421
#     4  10  24  43  74 103 146 185 232 297 353 434
#     4  12  24  45  70 110 139 188 238 290 365 426
#     4  11  25  45  70 107 142 184 232 295 360 429
#     4  11  26  49  68 102 144 185 243 305 350 429
#
# _framework density 25.679848
#
# number of rings (size 3 to 8) (size 9 to 14) (size 15 to 20)
#    0.000    1.143    2.857    1.714    8.000    6.286 
#    0.000    0.000    0.000    0.000    0.000    0.000 
#    0.000    0.000    0.000    0.000    0.000    0.000 
#
# Total GULP energy -346945.118904 kJ/mol
# GULP energy per Si atom -12390.897104 kJ/mol
# Density = 2.562140 g / cm^3
# Si number density = 25.679848 Si / 1000 Ang^3
#
#
#
# Elastic Constant Matrix: (Units=GPa)
#
#
# Indices 1 2 3 4 5 6 
#
# 1 53.7682 28.4784 -6.5614 0.0000 -3.8491 0.0000
# 2 28.4784 149.0578 28.1516 0.0000 2.1204 0.0000
# 3 -6.5614 28.1516 55.6820 0.0000 -7.8528 0.0000
# 4 0.0000 0.0000 0.0000 36.6857 0.0000 -6.1596
# 5 -3.8491 2.1204 -7.8528 0.0000 23.2635 0.0000
# 6 0.0000 0.0000 0.0000 -6.1596 0.0000 52.9411
#
#
#
# Elastic Compliance Matrix: (Units=1/GPa)
#
#
# Indices 1 2 3 4 5 6 
#
# 1 0.022866 -0.005686 0.006484 0.000000 0.006490 0.000000
# 2 -0.005686 0.008924 -0.005701 0.000000 -0.003678 0.000000
# 3 0.006484 -0.005701 0.022921 0.000000 0.009330 0.000000
# 4 0.000000 0.000000 0.000000 0.027802 0.000000 0.003235
# 5 0.006490 -0.003678 0.009330 0.000000 0.047544 0.000000
# 6 0.000000 0.000000 0.000000 0.003235 0.000000 0.019265
#
#
# Mechanical properties :
#
#
# Convention : Reuss Voigt Hill
#
# Bulk Modulus (GPa) = 22.26829 39.84949 31.05889
# Shear Modulus (GPa) = 28.72001 36.47401 32.59701
#
# Velocity S-wave (km/s) = 3.34786 3.77282 3.56668
# Velocity P-wave (km/s) = 4.86154 5.87626 5.39282
#
# Compressibility (1/GPa) = 0.04490690
#
# Stress axis : x y z
#
# Youngs Moduli (GPa) = 43.73381 112.05716 43.62807
#
# Poissons Ratio (x) = 0.63711 -0.28289
# Poissons Ratio (y) = 0.24865 0.24870
# Poissons Ratio (z) = -0.28358 0.63878
#
# Static dielectric constant tensor:
#      x y z
#    x 4.449780 0.000000 0.221620 
#    y 0.000000 4.869950 0.000000 
#    z 0.221620 0.000000 4.279220 
# 
# 
# High freq. dielectric constant tensor:
#      x y z
#    x 2.018480 0.000000 0.010730 
#    y 0.000000 2.053010 0.000000 
#    z 0.010730 0.000000 2.009100 
# 
# From -- ./inp_files/75654.got.cif
#   From: 2010.03.12/outbox.cif.g09.slc.cpg/sg14_38_cif.got.tgz:75654.got - 2010.03.31 13:35:05.
