data_PCOD8127933
_publ_section_title
;
Structure prediction by ZEFSAII (Michael W. Deem and Ramdas Pophale) SiO2 
 PCOD8127933
Probable space group: P 21/C
;
_chemical_formula_sum "Si O2"
_cell_formula_units_Z 20
_cell_length_a 8.179191
_cell_length_b 10.496616
_cell_length_c 11.568026
_cell_angle_alpha 90.000000
_cell_angle_beta 121.681777
_cell_angle_gamma 90.000000
_cell_volume 845.156910
_symmetry_space_group_name_H-M "P 21/C"
_symmetry_group_IT_number 14
_symmetry_cell_setting 'monoclinic'
loop_
_space_group_symop_operation_xyz
x,y,z
-x,1/2+y,1/2-z
-x,-y,-z
x,1/2-y,1/2+z
loop_
_atom_site_type_symbol
_atom_site_label
_atom_site_fract_x
_atom_site_fract_y
_atom_site_fract_z
Si Si1 0.789554 0.946354 0.902877
Si Si2 0.051815 0.303840 0.053491
Si Si3 0.781029 0.451989 0.802605
Si Si4 0.476225 0.096428 0.388131
Si Si5 0.311054 0.839434 0.977656
O O1 0.796462 0.798040 0.944332
O O2 0.731663 0.935309 0.745381
O O3 0.647189 0.038956 0.922182
O O4 0.000000 0.000000 0.000000
O O5 0.161795 0.398978 0.182557
O O6 0.885483 0.232803 0.063942
O O7 0.972769 0.376730 0.911949
O O8 0.624136 0.430961 0.841621
O O9 0.701118 0.396157 0.654461
O O10 0.509605 0.241615 0.444669
O O11 0.500000 0.000000 0.500000
#
# Coordination Sequence:
#
# PCOD8127933 Si02
#       5
#     4   4   4   4   4
#     4  10  24  45  71 102 138 191 239 291 364 427
#     4   9  22  42  69 103 147 187 231 304 363 430
#     4  10  23  43  69 110 140 189 249 288 367 440
#     4  11  27  45  72  97 151 188 235 308 363 424
#     4  10  24  43  73 104 144 184 247 300 361 448
#
# _framework density 23.664245999999999
#
# number of rings (size 3 to 8) (size 9 to 14) (size 15 to 20)
#    0.000    2.000    0.000    0.000   14.000    8.800 
#    0.000    0.000    0.000    0.000    0.000    0.000 
#    0.000    0.000    0.000    0.000    0.000    0.000 
#
# Total GULP energy -247829.241296 kJ/mol
# GULP energy per Si atom -12391.462065 kJ/mol
# Density = 2.361038 g / cm^3
# Si number density = 23.664246 Si / 1000 Ang^3
#
#
#
# Elastic Constant Matrix: (Units=GPa)
#
#
# Indices 1 2 3 4 5 6 
#
# 1 29.2209 43.7701 35.9582 0.0000 -7.9804 0.0000
# 2 43.7701 217.8173 106.1328 0.0000 -6.4224 0.0000
# 3 35.9582 106.1328 203.0065 0.0000 -1.0921 0.0000
# 4 0.0000 0.0000 0.0000 51.3008 0.0000 2.9714
# 5 -7.9804 -6.4224 -1.0921 0.0000 37.5751 0.0000
# 6 0.0000 0.0000 0.0000 2.9714 0.0000 47.0144
#
#
#
# Elastic Compliance Matrix: (Units=1/GPa)
#
#
# Indices 1 2 3 4 5 6 
#
# 1 0.056367 -0.008296 -0.005591 0.000000 0.010391 0.000000
# 2 -0.008296 0.007416 -0.002411 0.000000 -0.000565 0.000000
# 3 -0.005591 -0.002411 0.007169 0.000000 -0.001391 0.000000
# 4 0.000000 0.000000 0.000000 0.019564 0.000000 -0.001237
# 5 0.010391 -0.000565 -0.001391 0.000000 0.028683 0.000000
# 6 0.000000 0.000000 0.000000 -0.001237 0.000000 0.021348
#
#
# Mechanical properties :
#
#
# Convention : Reuss Voigt Hill
#
# Bulk Modulus (GPa) = 26.07128 91.30741 58.68935
# Shear Modulus (GPa) = 26.89188 44.79030 35.84109
#
# Velocity S-wave (km/s) = 3.37470 4.35528 3.89597
# Velocity P-wave (km/s) = 5.12112 7.99748 6.71511
#
# Compressibility (1/GPa) = 0.03835639
#
# Stress axis : x y z
#
# Youngs Moduli (GPa) = 17.74086 134.84134 139.48716
#
# Poissons Ratio (x) = 1.11868 0.77987
# Poissons Ratio (y) = 0.14718 0.33626
# Poissons Ratio (z) = 0.09919 0.32506
#
# Static dielectric constant tensor:
#      x y z
#    x 4.218440 0.000000 0.220850 
#    y 0.000000 5.081810 0.000000 
#    z 0.220850 0.000000 4.804250 
# 
# 
# High freq. dielectric constant tensor:
#      x y z
#    x 1.910840 0.000000 0.018790 
#    y 0.000000 1.964580 0.000000 
#    z 0.018790 0.000000 1.944850 
# 
# From -- ./inp_files/23936.got.cif
#   From: 2010.03.12/outbox.cif.g09.slc.cpg/sg14_12_cif.got.tgz:23936.got - 2010.03.31 13:35:05.
