data_PCOD8127297
_publ_section_title
;
Structure prediction by ZEFSAII (Michael W. Deem and Ramdas Pophale) SiO2 
 PCOD8127297
Probable space group: P 21/C
;
_chemical_formula_sum "Si O2"
_cell_formula_units_Z 16
_cell_length_a 7.856788
_cell_length_b 17.884469
_cell_length_c 8.639248
_cell_angle_alpha 90.000000
_cell_angle_beta 144.972508
_cell_angle_gamma 90.000000
_cell_volume 696.764124
_symmetry_space_group_name_H-M "P 21/C"
_symmetry_group_IT_number 14
_symmetry_cell_setting 'monoclinic'
loop_
_space_group_symop_operation_xyz
x,y,z
-x,1/2+y,1/2-z
-x,-y,-z
x,1/2-y,1/2+z
loop_
_atom_site_type_symbol
_atom_site_label
_atom_site_fract_x
_atom_site_fract_y
_atom_site_fract_z
Si Si1 0.601978 0.437349 0.278910
Si Si2 0.566422 0.294451 0.456977
Si Si3 0.932338 0.467970 0.217853
Si Si4 0.087691 0.679398 0.976455
O O1 0.581210 0.355064 0.332205
O O2 0.794747 0.429766 0.267416
O O3 0.749575 0.496537 0.506294
O O4 0.273023 0.465413 0.997247
O O5 0.709879 0.218221 0.502327
O O6 0.224350 0.276926 0.242981
O O7 0.741438 0.323823 0.735254
O O8 0.981028 0.405559 0.124011
#
# Coordination Sequence:
#
# PCOD8127297 Si02
#       4
#     4   4   4   4
#     4  10  22  41  65  93 127 165 206 257 317 376
#     4  12  26  43  66  94 129 169 213 263 314 375
#     4  10  22  41  65  93 127 165 206 257 317 376
#     4  12  26  43  66  94 129 169 213 263 314 375
#
# _framework density 22.963293
#
# number of rings (size 3 to 8) (size 9 to 14) (size 15 to 20)
#    0.000    1.000    0.000    6.000    0.000   12.000 
#    0.000    0.000    0.000    0.000    0.000    0.000 
#    0.000    0.000    0.000    0.000    0.000    0.000 
#
# Total GULP energy -198560.987914 kJ/mol
# GULP energy per Si atom -12410.061745 kJ/mol
# Density = 2.291103 g / cm^3
# Si number density = 22.963293 Si / 1000 Ang^3
#
#
#
# Elastic Constant Matrix: (Units=GPa)
#
#
# Indices 1 2 3 4 5 6 
#
# 1 52.0217 1.8480 22.3921 0.0000 11.7603 0.0000
# 2 1.8480 54.7820 -0.6318 0.0000 -6.9829 0.0000
# 3 22.3921 -0.6318 126.2826 0.0000 -3.8704 0.0000
# 4 0.0000 0.0000 0.0000 15.1425 0.0000 7.7215
# 5 11.7603 -6.9829 -3.8704 0.0000 44.7168 0.0000
# 6 0.0000 0.0000 0.0000 7.7215 0.0000 13.3376
#
#
#
# Elastic Compliance Matrix: (Units=1/GPa)
#
#
# Indices 1 2 3 4 5 6 
#
# 1 0.022577 -0.001646 -0.004213 0.000000 -0.006559 0.000000
# 2 -0.001646 0.018749 0.000490 0.000000 0.003403 0.000000
# 3 -0.004213 0.000490 0.008728 0.000000 0.001940 0.000000
# 4 0.000000 0.000000 0.000000 0.093700 0.000000 -0.054245
# 5 -0.006559 0.003403 0.001940 0.000000 0.024787 0.000000
# 6 0.000000 0.000000 0.000000 -0.054245 0.000000 0.106380
#
#
# Mechanical properties :
#
#
# Convention : Reuss Voigt Hill
#
# Bulk Modulus (GPa) = 25.43474 31.14477 28.28976
# Shear Modulus (GPa) = 16.73556 28.60459 22.67007
#
# Velocity S-wave (km/s) = 2.70255 3.53323 3.14543
# Velocity P-wave (km/s) = 4.56494 5.49884 5.05351
#
# Compressibility (1/GPa) = 0.03931630
#
# Stress axis : x y z
#
# Youngs Moduli (GPa) = 44.29217 53.33576 114.57863
#
# Poissons Ratio (x) = 0.08781 0.48268
# Poissons Ratio (y) = 0.07292 -0.05615
# Poissons Ratio (z) = 0.18659 -0.02614
#
# Static dielectric constant tensor:
#      x y z
#    x 4.206450 0.000000 -0.010970 
#    y 0.000000 3.838440 0.000000 
#    z -0.010970 0.000000 4.376580 
# 
# 
# High freq. dielectric constant tensor:
#      x y z
#    x 1.911410 0.000000 -0.004390 
#    y 0.000000 1.901730 0.000000 
#    z -0.004390 0.000000 1.927900 
# 
# From -- ./inp_files/881.got.cif
#   From: 2010.03.12/outbox.cif.g09.slc.cpg/sg14_1_cif.got.tgz:881.got - 2010.03.31 13:35:05.
