data_PCOD8127881
_publ_section_title
;
Structure prediction by ZEFSAII (Michael W. Deem and Ramdas Pophale) SiO2 
 PCOD8127881
Probable space group: P 21/C
;
_chemical_formula_sum "Si O2"
_cell_formula_units_Z 28
_cell_length_a 5.227062
_cell_length_b 8.998609
_cell_length_c 22.150858
_cell_angle_alpha 90.000000
_cell_angle_beta 86.746655
_cell_angle_gamma 90.000000
_cell_volume 1040.214958
_symmetry_space_group_name_H-M "P 21/C"
_symmetry_group_IT_number 14
_symmetry_cell_setting 'monoclinic'
loop_
_space_group_symop_operation_xyz
x,y,z
-x,1/2+y,1/2-z
-x,-y,-z
x,1/2-y,1/2+z
loop_
_atom_site_type_symbol
_atom_site_label
_atom_site_fract_x
_atom_site_fract_y
_atom_site_fract_z
Si Si1 0.896431 0.268491 0.584938
Si Si2 0.605537 0.236705 0.475101
Si Si3 0.052205 0.585993 0.211839
Si Si4 0.129155 0.110401 0.927948
Si Si5 0.692699 0.537313 0.900664
Si Si6 0.665911 0.347027 0.198177
Si Si7 0.254667 0.145697 0.789394
O O1 0.650994 0.214678 0.547023
O O2 0.948636 0.437666 0.563586
O O3 0.858033 0.263863 0.658722
O O4 0.134475 0.159306 0.565622
O O5 0.360334 0.344122 0.469537
O O6 0.870119 0.300422 0.443617
O O7 0.546536 0.073682 0.448392
O O8 0.786042 0.498441 0.220942
O O9 0.995561 0.758587 0.229616
O O10 0.130032 0.574118 0.141198
O O11 0.246440 0.516686 0.258572
O O12 0.257120 0.141254 0.860891
O O13 0.520732 0.619215 0.854664
O O14 0.511734 0.276201 0.257919
#
# Coordination Sequence:
#
# PCOD8127881 Si02
#       7
#     4   4   4   4   4   4   4
#     4  11  27  46  74 108 146 194 251 303 370 443
#     4  12  27  50  76 107 149 195 248 308 368 443
#     4  10  23  43  62 104 136 185 240 298 364 440
#     4  12  29  47  75 108 150 196 244 307 377 439
#     4  10  23  46  71 102 144 189 251 300 372 439
#     4  10  25  41  71 101 142 186 242 300 367 439
#     4  11  25  41  71  97 146 185 242 297 368 434
#
# _framework density 26.917511999999999
#
# number of rings (size 3 to 8) (size 9 to 14) (size 15 to 20)
#    0.000    1.143    1.429    2.143   16.000    1.714 
#    0.000    0.000    0.000    0.000    0.000    0.000 
#    0.000    0.000    0.000    0.000    0.000    0.000 
#
# Total GULP energy -347007.868104 kJ/mol
# GULP energy per Si atom -12393.138147 kJ/mol
# Density = 2.685625 g / cm^3
# Si number density = 26.917512 Si / 1000 Ang^3
#
#
#
# Elastic Constant Matrix: (Units=GPa)
#
#
# Indices 1 2 3 4 5 6 
#
# 1 69.6208 12.1858 -13.4530 0.0000 8.1016 0.0000
# 2 12.1858 106.1691 19.2919 0.0000 -0.7226 0.0000
# 3 -13.4530 19.2919 94.9873 0.0000 -3.5342 0.0000
# 4 0.0000 0.0000 0.0000 41.1799 0.0000 6.5230
# 5 8.1016 -0.7226 -3.5342 0.0000 39.3657 0.0000
# 6 0.0000 0.0000 0.0000 6.5230 0.0000 32.7653
#
#
#
# Elastic Compliance Matrix: (Units=1/GPa)
#
#
# Indices 1 2 3 4 5 6 
#
# 1 0.015609 -0.002277 0.002561 0.000000 -0.003024 0.000000
# 2 -0.002277 0.010112 -0.002360 0.000000 0.000442 0.000000
# 3 0.002561 -0.002360 0.011387 0.000000 0.000452 0.000000
# 4 0.000000 0.000000 0.000000 0.025074 0.000000 -0.004992
# 5 -0.003024 0.000442 0.000452 0.000000 0.026074 0.000000
# 6 0.000000 0.000000 0.000000 -0.004992 0.000000 0.031514
#
#
# Mechanical properties :
#
#
# Convention : Reuss Voigt Hill
#
# Bulk Modulus (GPa) = 30.34502 34.09184 32.21843
# Shear Modulus (GPa) = 37.06237 39.51235 38.28736
#
# Velocity S-wave (km/s) = 3.71467 3.83548 3.77556
# Velocity P-wave (km/s) = 5.44942 5.68396 5.56792
#
# Compressibility (1/GPa) = 0.03295434
#
# Stress axis : x y z
#
# Youngs Moduli (GPa) = 64.06611 98.89092 87.82330
#
# Poissons Ratio (x) = 0.22522 -0.22489
# Poissons Ratio (y) = 0.14591 0.20725
# Poissons Ratio (z) = -0.16405 0.23337
#
# Static dielectric constant tensor:
#      x y z
#    x 4.958700 0.000000 -0.312800 
#    y 0.000000 4.877490 0.000000 
#    z -0.312800 0.000000 5.404610 
# 
# 
# High freq. dielectric constant tensor:
#      x y z
#    x 2.088340 0.000000 -0.008490 
#    y 0.000000 2.084070 0.000000 
#    z -0.008490 0.000000 2.105050 
# 
# From -- ./inp_files/75678.got.cif
#   From: 2010.03.12/outbox.cif.g09.slc.cpg/sg14_38_cif.got.tgz:75678.got - 2010.03.31 13:35:05.
