data_PCOD8127374
_publ_section_title
;
Structure prediction by ZEFSAII (Michael W. Deem and Ramdas Pophale) SiO2 
 PCOD8127374
Probable space group: P 21/C
;
_chemical_formula_sum "Si O2"
_cell_formula_units_Z 28
_cell_length_a 20.624024
_cell_length_b 8.607619
_cell_length_c 9.396322
_cell_angle_alpha 90.000000
_cell_angle_beta 132.217858
_cell_angle_gamma 90.000000
_cell_volume 1235.364803
_symmetry_space_group_name_H-M "P 21/C"
_symmetry_group_IT_number 14
_symmetry_cell_setting 'monoclinic'
loop_
_space_group_symop_operation_xyz
x,y,z
-x,1/2+y,1/2-z
-x,-y,-z
x,1/2-y,1/2+z
loop_
_atom_site_type_symbol
_atom_site_label
_atom_site_fract_x
_atom_site_fract_y
_atom_site_fract_z
Si Si1 0.540889 0.972199 0.713929
Si Si2 0.822507 0.691289 0.308555
Si Si3 0.896316 0.357198 0.462663
Si Si4 0.000612 0.649038 0.099856
Si Si5 0.615227 0.296785 0.918619
Si Si6 0.278411 0.136467 0.077700
Si Si7 0.729691 0.293368 0.356492
O O1 0.467746 0.910903 0.716614
O O2 0.619466 0.845440 0.813340
O O3 0.500000 0.000000 0.500000
O O4 0.581898 0.123476 0.844557
O O5 0.853936 0.513775 0.338327
O O6 0.739064 0.700146 0.289906
O O7 0.902974 0.792781 0.484585
O O8 0.787816 0.762548 0.112423
O O9 0.943447 0.280464 0.398131
O O10 0.961755 0.392539 0.689390
O O11 0.819129 0.242341 0.409312
O O12 0.000000 0.500000 0.000000
O O13 0.692507 0.332374 0.916547
O O14 0.651905 0.319558 0.130225
O O15 0.250394 0.954531 0.030780
#
# Coordination Sequence:
#
# PCOD8127374 Si02
#       7
#     4   4   4   4   4   4   4
#     4  11  24  45  69 101 139 177 224 288 343 415
#     4  11  24  44  69  99 134 181 229 280 343 408
#     4  11  24  43  69  97 137 180 236 275 340 403
#     4  12  24  43  69 101 142 182 224 287 338 405
#     4  11  22  42  70  94 141 171 225 277 347 404
#     4  10  23  42  66  95 137 171 227 283 341 406
#     4  10  22  42  63  99 132 176 219 288 329 408
#
# _framework density 22.665371
#
# number of rings (size 3 to 8) (size 9 to 14) (size 15 to 20)
#    0.000    1.143    2.857    4.714    2.000    2.857 
#    0.000    7.143    0.000    0.000    0.000    0.000 
#    0.000    0.000    0.000    0.000    0.000    0.000 
#
# Total GULP energy -347107.188438 kJ/mol
# GULP energy per Si atom -12396.685301 kJ/mol
# Density = 2.261378 g / cm^3
# Si number density = 22.665371 Si / 1000 Ang^3
#
#
#
# Elastic Constant Matrix: (Units=GPa)
#
#
# Indices 1 2 3 4 5 6 
#
# 1 91.9133 26.0812 12.4788 0.0000 15.9205 0.0000
# 2 26.0812 73.3035 42.8488 0.0000 3.6354 0.0000
# 3 12.4788 42.8488 101.8680 0.0000 1.4835 0.0000
# 4 0.0000 0.0000 0.0000 36.7047 0.0000 7.0380
# 5 15.9205 3.6354 1.4835 0.0000 33.6510 0.0000
# 6 0.0000 0.0000 0.0000 7.0380 0.0000 36.6037
#
#
#
# Elastic Compliance Matrix: (Units=1/GPa)
#
#
# Indices 1 2 3 4 5 6 
#
# 1 0.013130 -0.004636 0.000425 0.000000 -0.005730 0.000000
# 2 -0.004636 0.019815 -0.007773 0.000000 0.000395 0.000000
# 3 0.000425 -0.007773 0.013033 0.000000 0.000064 0.000000
# 4 0.000000 0.000000 0.000000 0.028287 0.000000 -0.005439
# 5 -0.005730 0.000395 0.000064 0.000000 0.032382 0.000000
# 6 0.000000 0.000000 0.000000 -0.005439 0.000000 0.028365
#
#
# Mechanical properties :
#
#
# Convention : Reuss Voigt Hill
#
# Bulk Modulus (GPa) = 45.43165 47.76695 46.59930
# Shear Modulus (GPa) = 30.06295 33.77028 31.91662
#
# Velocity S-wave (km/s) = 3.64590 3.86418 3.75663
# Velocity P-wave (km/s) = 6.14911 6.40545 6.27859
#
# Compressibility (1/GPa) = 0.02201109
#
# Stress axis : x y z
#
# Youngs Moduli (GPa) = 76.16094 50.46617 76.72779
#
# Poissons Ratio (x) = 0.23396 -0.03261
# Poissons Ratio (y) = 0.35308 0.59639
# Poissons Ratio (z) = -0.03237 0.39226
#
# Static dielectric constant tensor:
#      x y z
#    x 4.866570 0.000000 0.177350 
#    y 0.000000 4.018380 0.000000 
#    z 0.177350 0.000000 4.052190 
# 
# 
# High freq. dielectric constant tensor:
#      x y z
#    x 1.919640 0.000000 0.010240 
#    y 0.000000 1.868620 0.000000 
#    z 0.010240 0.000000 1.895740 
# 
# From -- ./inp_files/18693.got.cif
#   From: 2010.03.12/outbox.cif.g09.slc.cpg/sg14_10_cif.got.tgz:18693.got - 2010.03.31 13:35:05.
