data_PCOD8127022
_publ_section_title
;
Structure prediction by ZEFSAII (Michael W. Deem and Ramdas Pophale) SiO2 
 PCOD8127022
Probable space group: P 21/C
;
_chemical_formula_sum "Si O2"
_cell_formula_units_Z 28
_cell_length_a 17.298270
_cell_length_b 8.478991
_cell_length_c 10.638467
_cell_angle_alpha 90.000000
_cell_angle_beta 121.996854
_cell_angle_gamma 90.000000
_cell_volume 1323.309042
_symmetry_space_group_name_H-M "P 21/C"
_symmetry_group_IT_number 14
_symmetry_cell_setting 'monoclinic'
loop_
_space_group_symop_operation_xyz
x,y,z
-x,1/2+y,1/2-z
-x,-y,-z
x,1/2-y,1/2+z
loop_
_atom_site_type_symbol
_atom_site_label
_atom_site_fract_x
_atom_site_fract_y
_atom_site_fract_z
Si Si1 0.664337 0.908639 0.867471
Si Si2 0.962776 0.786724 0.367862
Si Si3 0.254511 0.893034 0.838057
Si Si4 0.948461 0.349788 0.802509
Si Si5 0.399248 0.632670 0.906670
Si Si6 0.411980 0.323222 0.027417
Si Si7 0.235559 0.215800 0.725841
O O1 0.753059 0.809423 0.895558
O O2 0.615511 0.012827 0.721201
O O3 0.589397 0.775393 0.844006
O O4 0.696870 0.025961 0.002824
O O5 0.857813 0.731042 0.287972
O O6 0.010379 0.751548 0.544063
O O7 0.008938 0.692406 0.294934
O O8 0.971354 0.968873 0.342398
O O9 0.159391 0.815530 0.797534
O O10 0.318015 0.755483 0.841188
O O11 0.235935 0.024078 0.712746
O O12 0.404497 0.515393 0.033284
O O13 0.495164 0.721406 0.967495
O O14 0.322275 0.260442 0.882319
#
# Coordination Sequence:
#
# PCOD8127022 Si02
#       7
#     4   4   4   4   4   4   4
#     4  10  22  38  62  86 125 171 207 250 332 384
#     4  10  23  42  66  93 131 166 218 260 330 383
#     4  10  23  40  60  93 126 158 215 270 317 374
#     4  10  24  42  63  97 127 170 212 270 319 388
#     4  10  22  39  62  93 125 159 210 266 314 375
#     4   9  21  40  60  88 123 162 208 252 319 388
#     4   9  21  40  62  87 123 164 209 262 318 393
#
# _framework density 21.159078000000001
#
# number of rings (size 3 to 8) (size 9 to 14) (size 15 to 20)
#    0.000    2.286    0.000    0.000    8.000   10.857 
#    2.571    0.000    0.000    0.000    0.000    0.000 
#    0.000    0.000    0.000    0.000    0.000    0.000 
#
# Total GULP energy -346946.351245 kJ/mol
# GULP energy per Si atom -12390.941116 kJ/mol
# Density = 2.111092 g / cm^3
# Si number density = 21.159078 Si / 1000 Ang^3
#
#
#
# Elastic Constant Matrix: (Units=GPa)
#
#
# Indices 1 2 3 4 5 6 
#
# 1 160.3231 59.4013 26.9120 0.0000 14.1498 0.0000
# 2 59.4013 71.0853 9.9053 0.0000 -3.8815 0.0000
# 3 26.9120 9.9053 43.3430 0.0000 -4.8180 0.0000
# 4 0.0000 0.0000 0.0000 34.1174 0.0000 -7.4426
# 5 14.1498 -3.8815 -4.8180 0.0000 38.9910 0.0000
# 6 0.0000 0.0000 0.0000 -7.4426 0.0000 48.1083
#
#
#
# Elastic Compliance Matrix: (Units=1/GPa)
#
#
# Indices 1 2 3 4 5 6 
#
# 1 0.010787 -0.008566 -0.005344 0.000000 -0.005428 0.000000
# 2 -0.008566 0.021375 0.001030 0.000000 0.005364 0.000000
# 3 -0.005344 0.001030 0.026749 0.000000 0.005347 0.000000
# 4 0.000000 0.000000 0.000000 0.030334 0.000000 0.004693
# 5 -0.005428 0.005364 0.005347 0.000000 0.028811 0.000000
# 6 0.000000 0.000000 0.000000 0.004693 0.000000 0.021512
#
#
# Mechanical properties :
#
#
# Convention : Reuss Voigt Hill
#
# Bulk Modulus (GPa) = 30.16433 51.90984 41.03708
# Shear Modulus (GPa) = 28.34817 36.14554 32.24685
#
# Velocity S-wave (km/s) = 3.66425 4.13761 3.90810
# Velocity P-wave (km/s) = 5.67355 6.88570 6.30881
#
# Compressibility (1/GPa) = 0.03315174
#
# Stress axis : x y z
#
# Youngs Moduli (GPa) = 92.70278 46.78379 37.38510
#
# Poissons Ratio (x) = 0.40075 0.19977
# Poissons Ratio (y) = 0.79408 -0.03851
# Poissons Ratio (z) = 0.49536 -0.04819
#
# Static dielectric constant tensor:
#      x y z
#    x 4.335330 0.000000 -0.225750 
#    y 0.000000 4.085260 0.000000 
#    z -0.225750 0.000000 4.033670 
# 
# 
# High freq. dielectric constant tensor:
#      x y z
#    x 1.837130 0.000000 0.011230 
#    y 0.000000 1.826040 0.000000 
#    z 0.011230 0.000000 1.823230 
# 
# From -- ./inp_files/31449.got.cif
#   From: 2010.03.12/outbox.cif.g09.slc.cpg/sg14_16_cif.got.tgz:31449.got - 2010.03.31 13:35:05.
