data_PCOD8127962
_publ_section_title
;
Structure prediction by ZEFSAII (Michael W. Deem and Ramdas Pophale) SiO2 
 PCOD8127962
Probable space group: P 21/C
;
_chemical_formula_sum "Si O2"
_cell_formula_units_Z 20
_cell_length_a 12.344310
_cell_length_b 6.892123
_cell_length_c 20.035312
_cell_angle_alpha 90.000000
_cell_angle_beta 148.239665
_cell_angle_gamma 90.000000
_cell_volume 897.232200
_symmetry_space_group_name_H-M "P 21/C"
_symmetry_group_IT_number 14
_symmetry_cell_setting 'monoclinic'
loop_
_space_group_symop_operation_xyz
x,y,z
-x,1/2+y,1/2-z
-x,-y,-z
x,1/2-y,1/2+z
loop_
_atom_site_type_symbol
_atom_site_label
_atom_site_fract_x
_atom_site_fract_y
_atom_site_fract_z
Si Si1 0.111644 0.096797 0.356860
Si Si2 0.249843 0.141450 0.813734
Si Si3 0.752822 0.641129 0.312160
Si Si4 0.878316 0.602499 0.521167
Si Si5 0.358924 0.747094 0.541360
O O1 0.198731 0.173287 0.333220
O O2 0.155153 0.250564 0.436680
O O3 0.209873 0.887368 0.422437
O O4 0.865099 0.052779 0.220553
O O5 0.160427 0.191006 0.692297
O O6 0.498707 0.123455 0.937256
O O7 0.780960 0.700204 0.404073
O O8 0.509752 0.619081 0.166929
O O9 0.879744 0.441769 0.364895
O O10 0.763453 0.401098 0.476326
#
# Coordination Sequence:
#
# PCOD8127962 Si02
#       5
#     4   4   4   4   4
#     4  12  24  44  70  92 136 176 219 275 333 385
#     4  10  24  43  65  95 133 170 222 269 329 386
#     4   9  23  44  63  98 135 166 224 269 325 397
#     4  11  23  44  68  96 135 175 217 275 330 390
#     4  10  23  44  63 101 126 172 223 270 318 405
#
# _framework density 22.290773000000002
#
# number of rings (size 3 to 8) (size 9 to 14) (size 15 to 20)
#    1.200    0.400    2.000    1.800    2.800    3.200 
#    3.600    0.000    0.000    0.000    0.000    0.000 
#    0.000    0.000    0.000    0.000    0.000    0.000 
#
# Total GULP energy -247821.531239 kJ/mol
# GULP energy per Si atom -12391.076562 kJ/mol
# Density = 2.224004 g / cm^3
# Si number density = 22.290773 Si / 1000 Ang^3
#
#
#
# Elastic Constant Matrix: (Units=GPa)
#
#
# Indices 1 2 3 4 5 6 
#
# 1 114.4871 41.2617 35.5670 0.0000 -7.6662 0.0000
# 2 41.2617 54.2486 16.7737 0.0000 -0.5485 0.0000
# 3 35.5670 16.7737 56.9022 0.0000 12.4624 0.0000
# 4 0.0000 0.0000 0.0000 25.6175 0.0000 -4.3048
# 5 -7.6662 -0.5485 12.4624 0.0000 29.9707 0.0000
# 6 0.0000 0.0000 0.0000 -4.3048 0.0000 32.2488
#
#
#
# Elastic Compliance Matrix: (Units=1/GPa)
#
#
# Indices 1 2 3 4 5 6 
#
# 1 0.014941 -0.008717 -0.008330 0.000000 0.007126 0.000000
# 2 -0.008717 0.025640 -0.001897 0.000000 -0.000972 0.000000
# 3 -0.008330 -0.001897 0.026201 0.000000 -0.013060 0.000000
# 4 0.000000 0.000000 0.000000 0.039932 0.000000 0.005330
# 5 0.007126 -0.000972 -0.013060 0.000000 0.040602 0.000000
# 6 0.000000 0.000000 0.000000 0.005330 0.000000 0.031720
#
#
# Mechanical properties :
#
#
# Convention : Reuss Voigt Hill
#
# Bulk Modulus (GPa) = 34.60934 45.87141 40.24037
# Shear Modulus (GPa) = 22.06967 26.36977 24.21972
#
# Velocity S-wave (km/s) = 3.14997 3.44319 3.29984
# Velocity P-wave (km/s) = 5.36561 6.03579 5.71054
#
# Compressibility (1/GPa) = 0.02889393
#
# Stress axis : x y z
#
# Youngs Moduli (GPa) = 66.92886 39.00113 38.16710
#
# Poissons Ratio (x) = 0.33996 0.31795
# Poissons Ratio (y) = 0.58339 0.07241
# Poissons Ratio (z) = 0.55754 0.07399
#
# Static dielectric constant tensor:
#      x y z
#    x 4.091210 0.000000 0.070110 
#    y 0.000000 3.576730 0.000000 
#    z 0.070110 0.000000 4.051590 
# 
# 
# High freq. dielectric constant tensor:
#      x y z
#    x 1.893310 0.000000 0.002840 
#    y 0.000000 1.844530 0.000000 
#    z 0.002840 0.000000 1.882070 
# 
# From -- ./inp_files/73440.got.cif
#   From: 2010.03.12/outbox.cif.g09.slc.cpg/sg14_37_cif.got.tgz:73440.got - 2010.03.31 13:35:05.
