data_PCOD8127452
_publ_section_title
;
Structure prediction by ZEFSAII (Michael W. Deem and Ramdas Pophale) SiO2 
 PCOD8127452
Probable space group: P 21/C
;
_chemical_formula_sum "Si O2"
_cell_formula_units_Z 28
_cell_length_a 17.029209
_cell_length_b 8.602919
_cell_length_c 24.546394
_cell_angle_alpha 90.000000
_cell_angle_beta 22.105317
_cell_angle_gamma 90.000000
_cell_volume 1353.237580
_symmetry_space_group_name_H-M "P 21/C"
_symmetry_group_IT_number 14
_symmetry_cell_setting 'monoclinic'
loop_
_space_group_symop_operation_xyz
x,y,z
-x,1/2+y,1/2-z
-x,-y,-z
x,1/2-y,1/2+z
loop_
_atom_site_type_symbol
_atom_site_label
_atom_site_fract_x
_atom_site_fract_y
_atom_site_fract_z
Si Si1 0.495253 0.149518 0.352513
Si Si2 0.039158 0.679816 0.462805
Si Si3 0.237533 0.664389 0.648994
Si Si4 0.190821 0.152617 0.294221
Si Si5 0.478329 0.094723 0.569421
Si Si6 0.914939 0.871592 0.438217
Si Si7 0.464861 0.079653 0.945351
O O1 0.714419 0.205902 0.186313
O O2 0.334613 0.106674 0.407256
O O3 0.387499 0.292934 0.452705
O O4 0.535962 0.007989 0.367339
O O5 0.000000 0.500000 0.500000
O O6 0.901618 0.782981 0.590848
O O7 0.974214 0.740856 0.444671
O O8 0.308535 0.804227 0.563793
O O9 0.400659 0.664403 0.594553
O O10 0.259620 0.500830 0.602876
O O11 0.006383 0.688498 0.821250
O O12 0.271025 0.293185 0.203095
O O13 0.392438 0.047333 0.177689
O O14 0.012741 0.042935 0.383200
O O15 0.500000 0.000000 0.500000
#
# Coordination Sequence:
#
# PCOD8127452 Si02
#       7
#     4   4   4   4   4   4   4
#     4  12  24  40  67  99 130 173 230 271 324 400
#     4  12  24  46  66  90 130 175 222 281 334 383
#     4   9  18  37  61  89 129 168 204 260 332 388
#     4  10  22  42  70  88 128 179 213 267 343 393
#     4  11  20  38  67  96 132 174 212 267 331 399
#     4  11  25  42  65  99 130 173 227 276 329 396
#     4   9  18  37  65  91 121 169 213 259 335 394
#
# _framework density 20.691120000000002
#
# number of rings (size 3 to 8) (size 9 to 14) (size 15 to 20)
#    0.000    1.429    5.714    1.286    0.000    2.286 
#    0.000    1.429    0.000    0.000    0.000    0.000 
#    0.000    0.000    0.000    0.000    0.000    0.000 
#
# Total GULP energy -346951.183916 kJ/mol
# GULP energy per Si atom -12391.113711 kJ/mol
# Density = 2.064403 g / cm^3
# Si number density = 20.691120 Si / 1000 Ang^3
#
#
#
# Elastic Constant Matrix: (Units=GPa)
#
#
# Indices 1 2 3 4 5 6 
#
# 1 62.0099 40.6875 45.0426 0.0000 -13.0474 0.0000
# 2 40.6875 117.3476 39.6720 0.0000 4.4386 0.0000
# 3 45.0426 39.6720 110.3319 0.0000 7.8694 0.0000
# 4 0.0000 0.0000 0.0000 39.3151 0.0000 9.2770
# 5 -13.0474 4.4386 7.8694 0.0000 30.7652 0.0000
# 6 0.0000 0.0000 0.0000 9.2770 0.0000 24.0858
#
#
#
# Elastic Compliance Matrix: (Units=1/GPa)
#
#
# Indices 1 2 3 4 5 6 
#
# 1 0.034935 -0.008601 -0.012543 0.000000 0.019265 0.000000
# 2 -0.008601 0.011827 -0.000366 0.000000 -0.005260 0.000000
# 3 -0.012543 -0.000366 0.014965 0.000000 -0.009095 0.000000
# 4 0.000000 0.000000 0.000000 0.027978 0.000000 -0.010776
# 5 0.019265 -0.005260 -0.009095 0.000000 0.043760 0.000000
# 6 0.000000 0.000000 0.000000 -0.010776 0.000000 0.045669
#
#
# Mechanical properties :
#
#
# Convention : Reuss Voigt Hill
#
# Bulk Modulus (GPa) = 53.46088 60.05484 56.75786
# Shear Modulus (GPa) = 21.89255 29.78570 25.83912
#
# Velocity S-wave (km/s) = 3.25632 3.79824 3.53767
# Velocity P-wave (km/s) = 6.32707 6.95147 6.64661
#
# Compressibility (1/GPa) = 0.01870527
#
# Stress axis : x y z
#
# Youngs Moduli (GPa) = 28.62493 84.55564 66.82423
#
# Poissons Ratio (x) = 0.72725 0.83820
# Poissons Ratio (y) = 0.24620 0.02446
# Poissons Ratio (z) = 0.35905 0.03095
#
# Static dielectric constant tensor:
#      x y z
#    x 3.244650 0.000000 0.220960 
#    y 0.000000 4.103810 0.000000 
#    z 0.220960 0.000000 4.172210 
# 
# 
# High freq. dielectric constant tensor:
#      x y z
#    x 1.754610 0.000000 0.018800 
#    y 0.000000 1.826930 0.000000 
#    z 0.018800 0.000000 1.826470 
# 
# From -- ./inp_files/68309.got.cif
#   From: 2010.03.12/outbox.cif.g09.slc.cpg/sg14_35_cif.got.tgz:68309.got - 2010.03.31 13:35:05.
