data_PCOD8127864
_publ_section_title
;
Structure prediction by ZEFSAII (Michael W. Deem and Ramdas Pophale) SiO2 
 PCOD8127864
Probable space group: P 21/C
;
_chemical_formula_sum "Si O2"
_cell_formula_units_Z 20
_cell_length_a 15.023923
_cell_length_b 5.077257
_cell_length_c 13.869467
_cell_angle_alpha 90.000000
_cell_angle_beta 47.987260
_cell_angle_gamma 90.000000
_cell_volume 786.065538
_symmetry_space_group_name_H-M "P 21/C"
_symmetry_group_IT_number 14
_symmetry_cell_setting 'monoclinic'
loop_
_space_group_symop_operation_xyz
x,y,z
-x,1/2+y,1/2-z
-x,-y,-z
x,1/2-y,1/2+z
loop_
_atom_site_type_symbol
_atom_site_label
_atom_site_fract_x
_atom_site_fract_y
_atom_site_fract_z
Si Si1 0.003890 0.856141 0.809342
Si Si2 0.552650 0.019451 0.762076
Si Si3 0.363532 0.028785 0.041877
Si Si4 0.755503 0.844732 0.073179
Si Si5 0.745365 0.031150 0.283338
O O1 0.041675 0.589635 0.727355
O O2 0.896081 0.781309 0.959576
O O3 0.116859 0.966822 0.785094
O O4 0.468242 0.801922 0.770813
O O5 0.690466 0.930306 0.650987
O O6 0.507170 0.031301 0.908475
O O7 0.330430 0.759745 0.115922
O O8 0.319582 0.265014 0.139220
O O9 0.298449 0.043616 0.985463
O O10 0.738276 0.054378 0.172557
#
# Coordination Sequence:
#
# PCOD8127864 Si02
#       5
#     4   4   4   4   4
#     4  12  24  45  70  98 139 184 225 289 346 401
#     4  10  23  42  70 102 137 186 226 279 347 407
#     4  11  24  45  67 100 145 173 230 284 339 410
#     4  11  25  45  72  98 143 180 231 285 339 413
#     4  12  25  43  71 104 133 186 229 279 349 410
#
# _framework density 25.443169999999999
#
# number of rings (size 3 to 8) (size 9 to 14) (size 15 to 20)
#    0.000    0.800    4.000    3.000    0.000    8.000 
#    0.000    4.000    0.000    0.000    0.000    0.000 
#    0.000    0.000    0.000    0.000    0.000    0.000 
#
# Total GULP energy -248057.799954 kJ/mol
# GULP energy per Si atom -12402.889998 kJ/mol
# Density = 2.538526 g / cm^3
# Si number density = 25.443170 Si / 1000 Ang^3
#
#
#
# Elastic Constant Matrix: (Units=GPa)
#
#
# Indices 1 2 3 4 5 6 
#
# 1 98.0710 54.8672 67.1719 0.0000 -25.2189 0.0000
# 2 54.8672 181.7416 92.0998 0.0000 -15.7309 0.0000
# 3 67.1719 92.0998 209.0106 0.0000 -26.0308 0.0000
# 4 0.0000 0.0000 0.0000 49.2680 0.0000 2.3619
# 5 -25.2189 -15.7309 -26.0308 0.0000 64.7618 0.0000
# 6 0.0000 0.0000 0.0000 2.3619 0.0000 17.7621
#
#
#
# Elastic Compliance Matrix: (Units=1/GPa)
#
#
# Indices 1 2 3 4 5 6 
#
# 1 0.014762 -0.002526 -0.003149 0.000000 0.003869 0.000000
# 2 -0.002526 0.007531 -0.002528 0.000000 -0.000170 0.000000
# 3 -0.003149 -0.002528 0.007033 0.000000 0.000987 0.000000
# 4 0.000000 0.000000 0.000000 0.020427 0.000000 -0.002716
# 5 0.003869 -0.000170 0.000987 0.000000 0.017303 0.000000
# 6 0.000000 0.000000 0.000000 -0.002716 0.000000 0.056661
#
#
# Mechanical properties :
#
#
# Convention : Reuss Voigt Hill
#
# Bulk Modulus (GPa) = 77.39850 101.90009 89.64929
# Shear Modulus (GPa) = 34.61868 44.67067 39.64468
#
# Velocity S-wave (km/s) = 3.69267 4.19466 3.95164
# Velocity P-wave (km/s) = 6.97619 7.97479 7.49215
#
# Compressibility (1/GPa) = 0.01292015
#
# Stress axis : x y z
#
# Youngs Moduli (GPa) = 67.74285 132.78061 142.17746
#
# Poissons Ratio (x) = 0.33536 0.44777
# Poissons Ratio (y) = 0.17110 0.35944
# Poissons Ratio (z) = 0.21335 0.33569
#
# Static dielectric constant tensor:
#      x y z
#    x 4.835260 0.000000 -0.001270 
#    y 0.000000 4.245660 0.000000 
#    z -0.001270 0.000000 5.385630 
# 
# 
# High freq. dielectric constant tensor:
#      x y z
#    x 2.036190 0.000000 -0.001190 
#    y 0.000000 2.017550 0.000000 
#    z -0.001190 0.000000 2.042400 
# 
# From -- ./inp_files/49452.got.cif
#   From: 2010.03.12/outbox.cif.g09.slc.cpg/sg14_25_cif.got.tgz:49452.got - 2010.03.31 13:35:05.
