data_PCOD8127680
_publ_section_title
;
Structure prediction by ZEFSAII (Michael W. Deem and Ramdas Pophale) SiO2 
 PCOD8127680
Probable space group: P 21/C
;
_chemical_formula_sum "Si O2"
_cell_formula_units_Z 32
_cell_length_a 16.650212
_cell_length_b 16.951783
_cell_length_c 13.794586
_cell_angle_alpha 90.000000
_cell_angle_beta 154.060137
_cell_angle_gamma 90.000000
_cell_volume 1703.138423
_symmetry_space_group_name_H-M "P 21/C"
_symmetry_group_IT_number 14
_symmetry_cell_setting 'monoclinic'
loop_
_space_group_symop_operation_xyz
x,y,z
-x,1/2+y,1/2-z
-x,-y,-z
x,1/2-y,1/2+z
loop_
_atom_site_type_symbol
_atom_site_label
_atom_site_fract_x
_atom_site_fract_y
_atom_site_fract_z
Si Si1 0.308128 0.172357 0.204183
Si Si2 0.513565 0.986105 0.627635
Si Si3 0.795741 0.671839 0.186983
Si Si4 0.602111 0.347132 0.300253
Si Si5 0.102580 0.496665 0.713197
Si Si6 0.852429 0.232931 0.456618
Si Si7 0.326766 0.738362 0.434070
Si Si8 0.069113 0.847802 0.270054
O O1 0.373000 0.091639 0.223761
O O2 0.259021 0.153373 0.262040
O O3 0.464239 0.238539 0.364590
O O4 0.122402 0.201132 0.948431
O O5 0.308746 0.972035 0.439301
O O6 0.500000 0.000000 0.500000
O O7 0.606789 0.059961 0.783672
O O8 0.896490 0.594233 0.250833
O O9 0.935058 0.743922 0.329128
O O10 0.604111 0.689248 0.924948
O O11 0.729625 0.306526 0.357874
O O12 0.680347 0.329622 0.492172
O O13 0.013477 0.560374 0.690150
O O14 0.000000 0.500000 0.500000
O O15 0.848451 0.163820 0.532815
O O16 0.768002 0.201663 0.264488
O O17 0.212552 0.814706 0.346002
#
# Coordination Sequence:
#
# PCOD8127680 Si02
#       8
#     4   4   4   4   4   4   4   4
#     4  12  20  33  59  84 115 147 178 233 285 327
#     4  11  19  32  54  85 115 141 178 231 287 328
#     4  11  21  33  56  86 115 143 179 233 284 325
#     4  10  23  36  54  87 113 151 182 228 285 325
#     4  11  19  31  54  83 116 139 178 229 283 325
#     4  11  22  37  57  80 116 151 189 222 275 338
#     4  11  21  39  57  79 118 150 188 226 273 339
#     4  11  23  35  54  88 112 152 183 228 284 326
#
# _framework density 18.788843
#
# number of rings (size 3 to 8) (size 9 to 14) (size 15 to 20)
#    0.000    1.000    7.500    0.750    3.500    0.000 
#    0.000    0.000    0.000    3.750    0.000    0.000 
#    0.000    0.000    0.000    0.000    0.000    0.000 
#
# Total GULP energy -396669.327785 kJ/mol
# GULP energy per Si atom -12395.916493 kJ/mol
# Density = 1.874608 g / cm^3
# Si number density = 18.788843 Si / 1000 Ang^3
#
#
#
# Elastic Constant Matrix: (Units=GPa)
#
#
# Indices 1 2 3 4 5 6 
#
# 1 59.6680 20.4078 29.7563 0.0000 -14.8356 0.0000
# 2 20.4078 58.7382 15.5391 0.0000 -14.6142 0.0000
# 3 29.7563 15.5391 88.8019 0.0000 -13.4921 0.0000
# 4 0.0000 0.0000 0.0000 24.1757 0.0000 -2.7276
# 5 -14.8356 -14.6142 -13.4921 0.0000 40.4121 0.0000
# 6 0.0000 0.0000 0.0000 -2.7276 0.0000 18.3260
#
#
#
# Elastic Compliance Matrix: (Units=1/GPa)
#
#
# Indices 1 2 3 4 5 6 
#
# 1 0.022623 -0.005169 -0.006003 0.000000 0.004432 0.000000
# 2 -0.005169 0.020373 -0.001055 0.000000 0.005117 0.000000
# 3 -0.006003 -0.001055 0.013762 0.000000 0.002010 0.000000
# 4 0.000000 0.000000 0.000000 0.042070 0.000000 0.006262
# 5 0.004432 0.005117 0.002010 0.000000 0.028893 0.000000
# 6 0.000000 0.000000 0.000000 0.006262 0.000000 0.055499
#
#
# Mechanical properties :
#
#
# Convention : Reuss Voigt Hill
#
# Bulk Modulus (GPa) = 30.95632 37.62381 34.29007
# Shear Modulus (GPa) = 22.88915 26.01642 24.45278
#
# Velocity S-wave (km/s) = 3.49410 3.72516 3.61148
# Velocity P-wave (km/s) = 5.72626 6.21051 5.97329
#
# Compressibility (1/GPa) = 0.03230358
#
# Stress axis : x y z
#
# Youngs Moduli (GPa) = 44.20310 49.08414 72.66164
#
# Poissons Ratio (x) = 0.25374 0.43617
# Poissons Ratio (y) = 0.22851 0.07668
# Poissons Ratio (z) = 0.26534 0.05180
#
# Static dielectric constant tensor:
#      x y z
#    x 3.436190 0.000000 0.262290 
#    y 0.000000 3.190730 0.000000 
#    z 0.262290 0.000000 3.689250 
# 
# 
# High freq. dielectric constant tensor:
#      x y z
#    x 1.717040 0.000000 0.022850 
#    y 0.000000 1.697390 0.000000 
#    z 0.022850 0.000000 1.746350 
# 
# From -- ./inp_files/33058.got.cif
#   From: 2010.03.12/outbox.cif.g09.slc.cpg/sg14_17_cif.got.tgz:33058.got - 2010.03.31 13:35:05.
