data_PCOD8127340
_publ_section_title
;
Structure prediction by ZEFSAII (Michael W. Deem and Ramdas Pophale) SiO2 
 PCOD8127340
Probable space group: P 21/C
;
_chemical_formula_sum "Si O2"
_cell_formula_units_Z 28
_cell_length_a 9.525972
_cell_length_b 14.661731
_cell_length_c 14.380253
_cell_angle_alpha 90.000000
_cell_angle_beta 139.466648
_cell_angle_gamma 90.000000
_cell_volume 1305.272871
_symmetry_space_group_name_H-M "P 21/C"
_symmetry_group_IT_number 14
_symmetry_cell_setting 'monoclinic'
loop_
_space_group_symop_operation_xyz
x,y,z
-x,1/2+y,1/2-z
-x,-y,-z
x,1/2-y,1/2+z
loop_
_atom_site_type_symbol
_atom_site_label
_atom_site_fract_x
_atom_site_fract_y
_atom_site_fract_z
Si Si1 0.233866 0.595615 0.702781
Si Si2 0.458096 0.526665 0.642112
Si Si3 0.091258 0.249544 0.519821
Si Si4 0.274808 0.186274 0.798126
Si Si5 0.094762 0.472597 0.321684
Si Si6 0.814384 0.391049 0.783061
Si Si7 0.527723 0.741284 0.927298
O O1 0.318828 0.528487 0.665592
O O2 0.437103 0.641494 0.857018
O O3 0.081550 0.670793 0.578963
O O4 0.106996 0.532343 0.711118
O O5 0.532086 0.628715 0.652283
O O6 0.321314 0.482306 0.489984
O O7 0.668797 0.464258 0.765199
O O8 0.150509 0.244208 0.657894
O O9 0.299977 0.273448 0.563228
O O10 0.993698 0.151431 0.441300
O O11 0.109181 0.119674 0.768497
O O12 0.366620 0.260132 0.917339
O O13 0.060402 0.559789 0.238457
O O14 0.669445 0.311236 0.668074
#
# Coordination Sequence:
#
# PCOD8127340 Si02
#       7
#     4   4   4   4   4   4   4
#     4  11  24  39  68  95 133 162 225 268 310 378
#     4  11  20  39  67  99 126 174 214 260 322 387
#     4  11  24  41  66  99 126 167 219 271 314 380
#     4  11  21  40  69  90 130 168 215 259 328 378
#     4  11  21  40  67  97 125 176 214 258 322 392
#     4  10  22  41  70  87 128 170 212 258 325 385
#     4  11  21  44  64  96 125 168 215 270 310 386
#
# _framework density 21.451453000000001
#
# number of rings (size 3 to 8) (size 9 to 14) (size 15 to 20)
#    0.000    1.143    5.714    1.286    0.000    4.571 
#    0.000    0.714    3.143    0.000    0.000    0.000 
#    0.000    0.000    0.000    0.000    0.000    0.000 
#
# Total GULP energy -347362.371563 kJ/mol
# GULP energy per Si atom -12405.798984 kJ/mol
# Density = 2.140263 g / cm^3
# Si number density = 21.451453 Si / 1000 Ang^3
#
#
#
# Elastic Constant Matrix: (Units=GPa)
#
#
# Indices 1 2 3 4 5 6 
#
# 1 140.9272 25.1921 27.9087 0.0000 -12.7240 0.0000
# 2 25.1921 54.3947 24.7116 0.0000 -11.4854 0.0000
# 3 27.9087 24.7116 99.2589 0.0000 -30.3674 0.0000
# 4 0.0000 0.0000 0.0000 21.2035 0.0000 -2.1091
# 5 -12.7240 -11.4854 -30.3674 0.0000 31.6659 0.0000
# 6 0.0000 0.0000 0.0000 -2.1091 0.0000 37.1952
#
#
#
# Elastic Compliance Matrix: (Units=1/GPa)
#
#
# Indices 1 2 3 4 5 6 
#
# 1 0.007946 -0.002926 -0.001208 0.000000 0.000973 0.000000
# 2 -0.002926 0.022106 -0.003662 0.000000 0.003331 0.000000
# 3 -0.001208 -0.003662 0.015244 0.000000 0.012805 0.000000
# 4 0.000000 0.000000 0.000000 0.047430 0.000000 0.002689
# 5 0.000973 0.003331 0.012805 0.000000 0.045458 0.000000
# 6 0.000000 0.000000 0.000000 0.002689 0.000000 0.027038
#
#
# Mechanical properties :
#
#
# Convention : Reuss Voigt Hill
#
# Bulk Modulus (GPa) = 33.66545 50.02284 41.84415
# Shear Modulus (GPa) = 26.21726 32.46416 29.34071
#
# Velocity S-wave (km/s) = 3.49974 3.89444 3.70235
# Velocity P-wave (km/s) = 5.66205 6.60242 6.15023
#
# Compressibility (1/GPa) = 0.02970405
#
# Stress axis : x y z
#
# Youngs Moduli (GPa) = 125.84994 45.23653 65.60160
#
# Poissons Ratio (x) = 0.13235 0.07925
# Poissons Ratio (y) = 0.36821 0.24023
# Poissons Ratio (z) = 0.15203 0.16565
#
# Static dielectric constant tensor:
#      x y z
#    x 3.884220 0.000000 -0.008020 
#    y 0.000000 3.770830 0.000000 
#    z -0.008020 0.000000 3.874200 
# 
# 
# High freq. dielectric constant tensor:
#      x y z
#    x 1.848030 0.000000 0.000100 
#    y 0.000000 1.831740 0.000000 
#    z 0.000100 0.000000 1.833560 
# 
# From -- ./inp_files/41413.got.cif
#   From: 2010.03.12/outbox.cif.g09.slc.cpg/sg14_21_cif.got.tgz:41413.got - 2010.03.31 13:35:05.
