data_PCOD8127744
_publ_section_title
;
Structure prediction by ZEFSAII (Michael W. Deem and Ramdas Pophale) SiO2 
 PCOD8127744
Probable space group: P 21/C
;
_chemical_formula_sum "Si O2"
_cell_formula_units_Z 24
_cell_length_a 9.497463
_cell_length_b 17.212634
_cell_length_c 8.738880
_cell_angle_alpha 90.000000
_cell_angle_beta 44.641565
_cell_angle_gamma 90.000000
_cell_volume 1003.833684
_symmetry_space_group_name_H-M "P 21/C"
_symmetry_group_IT_number 14
_symmetry_cell_setting 'monoclinic'
loop_
_space_group_symop_operation_xyz
x,y,z
-x,1/2+y,1/2-z
-x,-y,-z
x,1/2-y,1/2+z
loop_
_atom_site_type_symbol
_atom_site_label
_atom_site_fract_x
_atom_site_fract_y
_atom_site_fract_z
Si Si1 0.170874 0.901730 0.398538
Si Si2 0.080120 0.335703 0.372108
Si Si3 0.500600 0.117910 0.075052
Si Si4 0.688863 0.265975 0.632454
Si Si5 0.183819 0.059340 0.531738
Si Si6 0.272443 0.211408 0.034123
O O1 0.348270 0.932971 0.146540
O O2 0.224970 0.821920 0.443828
O O3 0.969627 0.892169 0.455791
O O4 0.142639 0.967325 0.550906
O O5 0.220867 0.323020 0.408430
O O6 0.844274 0.325871 0.596989
O O7 0.145172 0.416144 0.238711
O O8 0.100560 0.267441 0.229065
O O9 0.637691 0.194605 0.007504
O O10 0.307134 0.139873 0.121827
O O11 0.411674 0.077538 0.296755
O O12 0.473463 0.263548 0.880682
#
# Coordination Sequence:
#
# PCOD8127744 Si02
#       6
#     4   4   4   4   4   4
#     4  10  23  40  66  98 126 171 213 263 318 388
#     4  12  22  38  64  93 127 169 212 264 312 382
#     4  11  21  41  65  94 125 168 211 265 312 386
#     4  11  22  38  64  95 124 163 220 258 312 374
#     4  11  22  42  65  95 130 167 213 262 330 372
#     4  11  23  37  61  95 125 161 220 263 314 368
#
# _framework density 23.908342999999999
#
# number of rings (size 3 to 8) (size 9 to 14) (size 15 to 20)
#    0.000    1.000    5.000    2.500    2.333    0.000 
#    0.000    3.333    0.000    9.000    0.000    0.000 
#    0.000    0.000    0.000    0.000    0.000    0.000 
#
# Total GULP energy -297378.770925 kJ/mol
# GULP energy per Si atom -12390.782122 kJ/mol
# Density = 2.385393 g / cm^3
# Si number density = 23.908343 Si / 1000 Ang^3
#
#
#
# Elastic Constant Matrix: (Units=GPa)
#
#
# Indices 1 2 3 4 5 6 
#
# 1 94.6323 23.1239 14.5209 0.0000 -1.5361 0.0000
# 2 23.1239 42.0466 5.0566 0.0000 3.5078 0.0000
# 3 14.5209 5.0566 66.2748 0.0000 -14.0269 0.0000
# 4 0.0000 0.0000 0.0000 29.7090 0.0000 4.3844
# 5 -1.5361 3.5078 -14.0269 0.0000 29.2025 0.0000
# 6 0.0000 0.0000 0.0000 4.3844 0.0000 29.6185
#
#
#
# Elastic Compliance Matrix: (Units=1/GPa)
#
#
# Indices 1 2 3 4 5 6 
#
# 1 0.012534 -0.006671 -0.002146 0.000000 0.000430 0.000000
# 2 -0.006671 0.028023 -0.001629 0.000000 -0.004499 0.000000
# 3 -0.002146 -0.001629 0.017478 0.000000 0.008478 0.000000
# 4 0.000000 0.000000 0.000000 0.034412 0.000000 -0.005094
# 5 0.000430 -0.004499 0.008478 0.000000 0.038879 0.000000
# 6 0.000000 0.000000 0.000000 -0.005094 0.000000 0.034517
#
#
# Mechanical properties :
#
#
# Convention : Reuss Voigt Hill
#
# Bulk Modulus (GPa) = 26.92323 32.03960 29.48141
# Shear Modulus (GPa) = 25.11131 28.38949 26.75040
#
# Velocity S-wave (km/s) = 3.24437 3.44965 3.34858
# Velocity P-wave (km/s) = 5.03191 5.41266 5.22575
#
# Compressibility (1/GPa) = 0.03714264
#
# Stress axis : x y z
#
# Youngs Moduli (GPa) = 79.78598 35.68500 57.21640
#
# Poissons Ratio (x) = 0.23804 0.12280
# Poissons Ratio (y) = 0.53222 0.09319
# Poissons Ratio (z) = 0.17124 0.05812
#
# Static dielectric constant tensor:
#      x y z
#    x 4.318120 0.000000 -0.259080 
#    y 0.000000 4.023680 0.000000 
#    z -0.259080 0.000000 4.390150 
# 
# 
# High freq. dielectric constant tensor:
#      x y z
#    x 1.939530 0.000000 -0.022430 
#    y 0.000000 1.921180 0.000000 
#    z -0.022430 0.000000 1.956110 
# 
# From -- ./inp_files/10137.got.cif
#   From: 2010.03.12/outbox.cif.g09.slc.cpg/sg14_6_cif.got.tgz:10137.got - 2010.03.31 13:35:05.
