data_PCOD8127762
_publ_section_title
;
Structure prediction by ZEFSAII (Michael W. Deem and Ramdas Pophale) SiO2 
 PCOD8127762
Probable space group: P 21/C
;
_chemical_formula_sum "Si O2"
_cell_formula_units_Z 32
_cell_length_a 18.368232
_cell_length_b 11.683183
_cell_length_c 17.914119
_cell_angle_alpha 90.000000
_cell_angle_beta 157.777110
_cell_angle_gamma 90.000000
_cell_volume 1453.977685
_symmetry_space_group_name_H-M "P 21/C"
_symmetry_group_IT_number 14
_symmetry_cell_setting 'monoclinic'
loop_
_space_group_symop_operation_xyz
x,y,z
-x,1/2+y,1/2-z
-x,-y,-z
x,1/2-y,1/2+z
loop_
_atom_site_type_symbol
_atom_site_label
_atom_site_fract_x
_atom_site_fract_y
_atom_site_fract_z
Si Si1 0.746369 0.203927 0.673621
Si Si2 0.282201 0.479971 0.771802
Si Si3 0.606862 0.360534 0.876388
Si Si4 0.381854 0.936763 0.216584
Si Si5 0.073638 0.255982 0.073112
Si Si6 0.912252 0.246550 0.577550
Si Si7 0.560905 0.870951 0.043765
Si Si8 0.350153 0.246386 0.018655
O O1 0.674016 0.179450 0.522216
O O2 0.584721 0.276955 0.561903
O O3 0.819276 0.087585 0.785101
O O4 0.953275 0.267280 0.881113
O O5 0.270957 0.485186 0.671343
O O6 0.186931 0.360556 0.704139
O O7 0.500000 0.500000 0.000000
O O8 0.500535 0.483077 0.772308
O O9 0.445633 0.274699 0.690346
O O10 0.798463 0.361187 0.006380
O O11 0.549216 0.862118 0.416423
O O12 0.217484 0.857522 0.022705
O O13 0.232960 0.354804 0.220145
O O14 0.923248 0.274101 0.999116
O O15 0.122361 0.260168 0.812982
O O16 0.594191 0.853700 0.986716
O O17 0.500000 0.000000 0.000000
#
# Coordination Sequence:
#
# PCOD8127762 Si02
#       8
#     4   4   4   4   4   4   4   4
#     4  12  23  40  66 105 136 166 226 286 342 403
#     4  12  19  38  70 107 133 162 214 292 351 391
#     4  11  25  39  63  97 141 175 216 276 348 409
#     4  11  21  39  68  95 128 173 219 285 343 396
#     4  11  23  41  71 101 133 174 227 278 344 403
#     4  10  23  41  61  92 133 176 218 265 330 412
#     4  11  24  44  71  94 133 186 234 282 333 402
#     4  10  23  46  63  92 133 180 229 275 341 405
#
# _framework density 22.008590999999999
#
# number of rings (size 3 to 8) (size 9 to 14) (size 15 to 20)
#    0.000    1.000    5.000    1.875    0.000    5.500 
#    0.000    1.250    0.000    0.000    0.000    0.000 
#    0.000    0.000    0.000    0.000    0.000    0.000 
#
# Total GULP energy -396440.763676 kJ/mol
# GULP energy per Si atom -12388.773865 kJ/mol
# Density = 2.195850 g / cm^3
# Si number density = 22.008591 Si / 1000 Ang^3
#
#
#
# Elastic Constant Matrix: (Units=GPa)
#
#
# Indices 1 2 3 4 5 6 
#
# 1 83.9671 56.3383 51.5823 0.0000 11.0968 0.0000
# 2 56.3383 97.5594 40.1289 0.0000 18.1551 0.0000
# 3 51.5823 40.1289 176.1777 0.0000 7.9837 0.0000
# 4 0.0000 0.0000 0.0000 30.9551 0.0000 7.7222
# 5 11.0968 18.1551 7.9837 0.0000 39.2101 0.0000
# 6 0.0000 0.0000 0.0000 7.7222 0.0000 31.7916
#
#
#
# Elastic Compliance Matrix: (Units=1/GPa)
#
#
# Indices 1 2 3 4 5 6 
#
# 1 0.021565 -0.010817 -0.003836 0.000000 -0.000314 0.000000
# 2 -0.010817 0.017689 -0.000635 0.000000 -0.004999 0.000000
# 3 -0.003836 -0.000635 0.006945 0.000000 -0.000034 0.000000
# 4 0.000000 0.000000 0.000000 0.034389 0.000000 -0.008353
# 5 -0.000314 -0.004999 -0.000034 0.000000 0.027914 0.000000
# 6 0.000000 0.000000 0.000000 -0.008353 0.000000 0.033484
#
#
# Mechanical properties :
#
#
# Convention : Reuss Voigt Hill
#
# Bulk Modulus (GPa) = 64.01104 72.64480 68.32792
# Shear Modulus (GPa) = 28.12617 34.36832 31.24725
#
# Velocity S-wave (km/s) = 3.57874 3.95598 3.77208
# Velocity P-wave (km/s) = 6.79884 7.34476 7.07706
#
# Compressibility (1/GPa) = 0.01562230
#
# Stress axis : x y z
#
# Youngs Moduli (GPa) = 46.37094 56.53365 143.97926
#
# Poissons Ratio (x) = 0.61154 0.55229
# Poissons Ratio (y) = 0.50161 0.09147
# Poissons Ratio (z) = 0.17787 0.03592
#
# Static dielectric constant tensor:
#      x y z
#    x 3.817300 0.000000 0.047100 
#    y 0.000000 3.972640 0.000000 
#    z 0.047100 0.000000 4.179590 
# 
# 
# High freq. dielectric constant tensor:
#      x y z
#    x 1.846910 0.000000 0.008160 
#    y 0.000000 1.845420 0.000000 
#    z 0.008160 0.000000 1.892690 
# 
# From -- ./inp_files/69938.got.cif
#   From: 2010.03.12/outbox.cif.g09.slc.cpg/sg14_35_cif.got.tgz:69938.got - 2010.03.31 13:35:05.
