data_PCOD8127641
_publ_section_title
;
Structure prediction by ZEFSAII (Michael W. Deem and Ramdas Pophale) SiO2 
 PCOD8127641
Probable space group: P 21/C
;
_chemical_formula_sum "Si O2"
_cell_formula_units_Z 24
_cell_length_a 21.174763
_cell_length_b 5.096216
_cell_length_c 9.114818
_cell_angle_alpha 90.000000
_cell_angle_beta 102.602146
_cell_angle_gamma 90.000000
_cell_volume 959.894554
_symmetry_space_group_name_H-M "P 21/C"
_symmetry_group_IT_number 14
_symmetry_cell_setting 'monoclinic'
loop_
_space_group_symop_operation_xyz
x,y,z
-x,1/2+y,1/2-z
-x,-y,-z
x,1/2-y,1/2+z
loop_
_atom_site_type_symbol
_atom_site_label
_atom_site_fract_x
_atom_site_fract_y
_atom_site_fract_z
Si Si1 0.808321 0.784220 0.173817
Si Si2 0.717608 0.656268 0.370422
Si Si3 0.893441 0.949401 0.463877
Si Si4 0.542524 0.251348 0.986529
Si Si5 0.995880 0.221864 0.148147
Si Si6 0.632822 0.175900 0.281793
O O1 0.769228 0.598694 0.266991
O O2 0.844361 0.993933 0.301290
O O3 0.754484 0.907228 0.041231
O O4 0.859254 0.630228 0.098659
O O5 0.661478 0.452848 0.337678
O O6 0.684021 0.943793 0.341655
O O7 0.945205 0.725303 0.439744
O O8 0.930413 0.219280 0.522049
O O9 0.564485 0.323970 0.833069
O O10 0.500000 0.500000 0.000000
O O11 0.611203 0.199453 0.102380
O O12 0.500000 0.000000 0.000000
O O13 0.009501 0.444667 0.276266
#
# Coordination Sequence:
#
# PCOD8127641 Si02
#       6
#     4   4   4   4   4   4
#     4  10  22  47  66 102 133 176 240 282 342 398
#     4  11  24  44  67  95 132 187 225 280 334 406
#     4  10  22  45  71 101 136 179 221 300 338 428
#     4  12  24  41  68 104 135 174 222 276 334 398
#     4  11  24  47  70 103 136 181 226 275 376 419
#     4  12  24  45  68  96 140 178 224 274 338 398
#
# _framework density 25.002746999999999
#
# number of rings (size 3 to 8) (size 9 to 14) (size 15 to 20)
#    0.000    1.000    1.667    5.000    0.000    2.667 
#   12.000    0.000    0.000    0.000    0.000    0.000 
#    0.000    0.000    0.000    0.000    0.000    0.000 
#
# Total GULP energy -297347.935386 kJ/mol
# GULP energy per Si atom -12389.497308 kJ/mol
# Density = 2.494584 g / cm^3
# Si number density = 25.002747 Si / 1000 Ang^3
#
#
#
# Elastic Constant Matrix: (Units=GPa)
#
#
# Indices 1 2 3 4 5 6 
#
# 1 121.6732 25.6666 43.0875 0.0000 -6.1702 0.0000
# 2 25.6666 86.1570 35.9087 0.0000 0.0647 0.0000
# 3 43.0875 35.9087 167.7140 0.0000 16.4367 0.0000
# 4 0.0000 0.0000 0.0000 30.0584 0.0000 -4.7614
# 5 -6.1702 0.0647 16.4367 0.0000 58.1514 0.0000
# 6 0.0000 0.0000 0.0000 -4.7614 0.0000 17.8973
#
#
#
# Elastic Compliance Matrix: (Units=1/GPa)
#
#
# Indices 1 2 3 4 5 6 
#
# 1 0.009479 -0.001914 -0.002185 0.000000 0.001625 0.000000
# 2 -0.001914 0.013165 -0.002371 0.000000 0.000452 0.000000
# 3 -0.002185 -0.002371 0.007255 0.000000 -0.002280 0.000000
# 4 0.000000 0.000000 0.000000 0.034732 0.000000 0.009240
# 5 0.001625 0.000452 -0.002280 0.000000 0.018013 0.000000
# 6 0.000000 0.000000 0.000000 0.009240 0.000000 0.058333
#
#
# Mechanical properties :
#
#
# Convention : Reuss Voigt Hill
#
# Bulk Modulus (GPa) = 58.96908 64.98555 61.97732
# Shear Modulus (GPa) = 31.33432 39.28017 35.30724
#
# Velocity S-wave (km/s) = 3.54395 3.96793 3.76191
# Velocity P-wave (km/s) = 6.35471 6.85860 6.61146
#
# Compressibility (1/GPa) = 0.01695804
#
# Stress axis : x y z
#
# Youngs Moduli (GPa) = 105.50068 75.95909 137.83812
#
# Poissons Ratio (x) = 0.14542 0.30111
# Poissons Ratio (y) = 0.20198 0.32684
# Poissons Ratio (z) = 0.23047 0.18012
#
# Static dielectric constant tensor:
#      x y z
#    x 4.665080 0.000000 -0.260280 
#    y 0.000000 4.000170 0.000000 
#    z -0.260280 0.000000 4.774720 
# 
# 
# High freq. dielectric constant tensor:
#      x y z
#    x 2.020990 0.000000 -0.004480 
#    y 0.000000 1.966000 0.000000 
#    z -0.004480 0.000000 2.027700 
# 
# From -- ./inp_files/19274.got.cif
#   From: 2010.03.12/outbox.cif.g09.slc.cpg/sg14_10_cif.got.tgz:19274.got - 2010.03.31 13:35:05.
