data_PCOD8127603
_publ_section_title
;
Structure prediction by ZEFSAII (Michael W. Deem and Ramdas Pophale) SiO2 
 PCOD8127603
Probable space group: P 21/C
;
_chemical_formula_sum "Si O2"
_cell_formula_units_Z 28
_cell_length_a 8.510352
_cell_length_b 20.287001
_cell_length_c 9.382579
_cell_angle_alpha 90.000000
_cell_angle_beta 51.098309
_cell_angle_gamma 90.000000
_cell_volume 1260.644307
_symmetry_space_group_name_H-M "P 21/C"
_symmetry_group_IT_number 14
_symmetry_cell_setting 'monoclinic'
loop_
_space_group_symop_operation_xyz
x,y,z
-x,1/2+y,1/2-z
-x,-y,-z
x,1/2-y,1/2+z
loop_
_atom_site_type_symbol
_atom_site_label
_atom_site_fract_x
_atom_site_fract_y
_atom_site_fract_z
Si Si1 0.995797 0.664297 0.869389
Si Si2 0.360770 0.750953 0.582048
Si Si3 0.797100 0.111422 0.254938
Si Si4 0.844872 0.447342 0.029164
Si Si5 0.370378 0.248253 0.317502
Si Si6 0.852119 0.627515 0.653642
Si Si7 0.428524 0.494596 0.201103
O O1 0.138136 0.723567 0.737523
O O2 0.125097 0.620673 0.904160
O O3 0.934216 0.620875 0.767762
O O4 0.798726 0.692438 0.062526
O O5 0.344175 0.830560 0.602728
O O6 0.436829 0.723632 0.385658
O O7 0.535907 0.726255 0.588643
O O8 0.874990 0.067172 0.343744
O O9 0.671668 0.066074 0.212766
O O10 0.980838 0.140950 0.061394
O O11 0.622263 0.477460 0.188135
O O12 0.000000 0.500000 0.000000
O O13 0.288785 0.308738 0.270932
O O14 0.737347 0.561166 0.679244
O O15 0.500000 0.500000 0.000000
#
# Coordination Sequence:
#
# PCOD8127603 Si02
#       7
#     4   4   4   4   4   4   4
#     4  12  26  45  69 105 144 180 241 294 350 429
#     4  12  25  44  68 106 141 187 232 289 356 423
#     4  11  24  44  74 100 141 185 240 291 360 422
#     4  11  26  46  72 100 145 185 240 295 350 415
#     4  12  26  41  70  99 143 184 229 287 362 418
#     4  12  24  46  69 104 138 185 234 294 355 425
#     4  10  22  44  70  98 135 185 231 285 351 418
#
# _framework density 22.210864000000001
#
# number of rings (size 3 to 8) (size 9 to 14) (size 15 to 20)
#    0.000    0.571    2.857    6.429    6.000    0.000 
#    0.000    1.429    0.000    0.000    0.000    0.000 
#    0.000    0.000    0.000    0.000    0.000    0.000 
#
# Total GULP energy -347241.581637 kJ/mol
# GULP energy per Si atom -12401.485058 kJ/mol
# Density = 2.216031 g / cm^3
# Si number density = 22.210864 Si / 1000 Ang^3
#
#
#
# Elastic Constant Matrix: (Units=GPa)
#
#
# Indices 1 2 3 4 5 6 
#
# 1 114.3776 40.7674 30.0763 0.0000 -12.4787 0.0000
# 2 40.7674 98.6179 35.9716 0.0000 -13.0596 0.0000
# 3 30.0763 35.9716 122.3812 0.0000 -12.4311 0.0000
# 4 0.0000 0.0000 0.0000 29.0820 0.0000 3.0831
# 5 -12.4787 -13.0596 -12.4311 0.0000 30.9765 0.0000
# 6 0.0000 0.0000 0.0000 3.0831 0.0000 39.3599
#
#
#
# Elastic Compliance Matrix: (Units=1/GPa)
#
#
# Indices 1 2 3 4 5 6 
#
# 1 0.010621 -0.003614 -0.001322 0.000000 0.002225 0.000000
# 2 -0.003614 0.012985 -0.002627 0.000000 0.002964 0.000000
# 3 -0.001322 -0.002627 0.009489 0.000000 0.002167 0.000000
# 4 0.000000 0.000000 0.000000 0.034673 0.000000 -0.002716
# 5 0.002225 0.002964 0.002167 0.000000 0.035298 0.000000
# 6 0.000000 0.000000 0.000000 -0.002716 0.000000 0.025619
#
#
# Mechanical properties :
#
#
# Convention : Reuss Voigt Hill
#
# Bulk Modulus (GPa) = 55.65432 61.00081 58.32756
# Shear Modulus (GPa) = 33.37734 35.12112 34.24923
#
# Velocity S-wave (km/s) = 3.88074 3.98082 3.93110
# Velocity P-wave (km/s) = 6.72248 6.97519 6.85000
#
# Compressibility (1/GPa) = 0.01796806
#
# Stress axis : x y z
#
# Youngs Moduli (GPa) = 94.14918 77.01189 105.38998
#
# Poissons Ratio (x) = 0.27832 0.13934
# Poissons Ratio (y) = 0.34025 0.27691
# Poissons Ratio (z) = 0.12448 0.20234
#
# Static dielectric constant tensor:
#      x y z
#    x 4.497900 0.000000 -0.328770 
#    y 0.000000 5.194280 0.000000 
#    z -0.328770 0.000000 4.044360 
# 
# 
# High freq. dielectric constant tensor:
#      x y z
#    x 1.883640 0.000000 -0.011480 
#    y 0.000000 1.875100 0.000000 
#    z -0.011480 0.000000 1.873440 
# 
# From -- ./inp_files/10376.got.cif
#   From: 2010.03.12/outbox.cif.g09.slc.cpg/sg14_6_cif.got.tgz:10376.got - 2010.03.31 13:35:05.
