data_PCOD8127496
_publ_section_title
;
Structure prediction by ZEFSAII (Michael W. Deem and Ramdas Pophale) SiO2 
 PCOD8127496
Probable space group: P 21/C
;
_chemical_formula_sum "Si O2"
_cell_formula_units_Z 20
_cell_length_a 6.470861
_cell_length_b 11.187876
_cell_length_c 13.882433
_cell_angle_alpha 90.000000
_cell_angle_beta 65.889193
_cell_angle_gamma 90.000000
_cell_volume 917.340444
_symmetry_space_group_name_H-M "P 21/C"
_symmetry_group_IT_number 14
_symmetry_cell_setting 'monoclinic'
loop_
_space_group_symop_operation_xyz
x,y,z
-x,1/2+y,1/2-z
-x,-y,-z
x,1/2-y,1/2+z
loop_
_atom_site_type_symbol
_atom_site_label
_atom_site_fract_x
_atom_site_fract_y
_atom_site_fract_z
Si Si1 0.069669 0.403542 0.563204
Si Si2 0.556507 0.990190 0.600746
Si Si3 0.101281 0.423967 0.266370
Si Si4 0.203348 0.683621 0.828974
Si Si5 0.350237 0.226460 0.871087
O O1 0.087132 0.480348 0.658909
O O2 0.866156 0.307911 0.609564
O O3 0.000000 0.500000 0.500000
O O4 0.302342 0.340481 0.483175
O O5 0.326988 0.999933 0.705230
O O6 0.725425 0.096676 0.598018
O O7 0.500000 0.000000 0.500000
O O8 0.679861 0.866912 0.604695
O O9 0.161052 0.317027 0.330087
O O10 0.016184 0.367075 0.183829
O O11 0.398619 0.697555 0.712060
#
# Coordination Sequence:
#
# PCOD8127496 Si02
#       5
#     4   4   4   4   4
#     4  10  22  43  66  98 132 174 224 272 335 400
#     4  11  24  42  66  99 136 177 225 275 337 400
#     4  10  23  42  67  98 137 174 229 273 331 404
#     4  11  24  43  69  96 136 178 220 286 330 397
#     4  10  23  42  67  98 134 175 221 272 336 402
#
# _framework density 21.802159
#
# number of rings (size 3 to 8) (size 9 to 14) (size 15 to 20)
#    0.000    1.600    2.000    1.200    2.800    7.200 
#    0.000    0.000    0.000    0.000    0.000    0.000 
#    0.000    0.000    0.000    0.000    0.000    0.000 
#
# Total GULP energy -247938.973706 kJ/mol
# GULP energy per Si atom -12396.948685 kJ/mol
# Density = 2.175254 g / cm^3
# Si number density = 21.802159 Si / 1000 Ang^3
#
#
#
# Elastic Constant Matrix: (Units=GPa)
#
#
# Indices 1 2 3 4 5 6 
#
# 1 75.9475 49.8265 38.4182 0.0000 6.9962 0.0000
# 2 49.8265 171.0223 74.3695 0.0000 1.5799 0.0000
# 3 38.4182 74.3695 114.6739 0.0000 -1.1361 0.0000
# 4 0.0000 0.0000 0.0000 47.8742 0.0000 -5.5318
# 5 6.9962 1.5799 -1.1361 0.0000 41.8022 0.0000
# 6 0.0000 0.0000 0.0000 -5.5318 0.0000 25.1290
#
#
#
# Elastic Compliance Matrix: (Units=1/GPa)
#
#
# Indices 1 2 3 4 5 6 
#
# 1 0.017581 -0.003512 -0.003641 0.000000 -0.002909 0.000000
# 2 -0.003512 0.008854 -0.004564 0.000000 0.000129 0.000000
# 3 -0.003641 -0.004564 0.012912 0.000000 0.001133 0.000000
# 4 0.000000 0.000000 0.000000 0.021433 0.000000 0.004718
# 5 -0.002909 0.000129 0.001133 0.000000 0.024435 0.000000
# 6 0.000000 0.000000 0.000000 0.004718 0.000000 0.040833
#
#
# Mechanical properties :
#
#
# Convention : Reuss Voigt Hill
#
# Bulk Modulus (GPa) = 62.84679 76.31914 69.58296
# Shear Modulus (GPa) = 32.30262 36.22972 34.26617
#
# Velocity S-wave (km/s) = 3.85336 4.08088 3.96875
# Velocity P-wave (km/s) = 6.97756 7.56876 7.27916
#
# Compressibility (1/GPa) = 0.01591171
#
# Stress axis : x y z
#
# Youngs Moduli (GPa) = 56.88013 112.94444 77.45017
#
# Poissons Ratio (x) = 0.39664 0.28202
# Poissons Ratio (y) = 0.19975 0.35350
# Poissons Ratio (z) = 0.20711 0.51550
#
# Static dielectric constant tensor:
#      x y z
#    x 3.573460 0.000000 -0.309670 
#    y 0.000000 4.536170 0.000000 
#    z -0.309670 0.000000 4.571140 
# 
# 
# High freq. dielectric constant tensor:
#      x y z
#    x 1.822890 0.000000 -0.016700 
#    y 0.000000 1.876330 0.000000 
#    z -0.016700 0.000000 1.874300 
# 
# From -- ./inp_files/36834.got.cif
#   From: 2010.03.12/outbox.cif.g09.slc.cpg/sg14_19_cif.got.tgz:36834.got - 2010.03.31 13:35:05.
