data_PCOD8127555
_publ_section_title
;
Structure prediction by ZEFSAII (Michael W. Deem and Ramdas Pophale) SiO2 
 PCOD8127555
Probable space group: P 21/C
;
_chemical_formula_sum "Si O2"
_cell_formula_units_Z 24
_cell_length_a 10.352671
_cell_length_b 11.561235
_cell_length_c 20.998690
_cell_angle_alpha 90.000000
_cell_angle_beta 152.373600
_cell_angle_gamma 90.000000
_cell_volume 1165.440175
_symmetry_space_group_name_H-M "P 21/C"
_symmetry_group_IT_number 14
_symmetry_cell_setting 'monoclinic'
loop_
_space_group_symop_operation_xyz
x,y,z
-x,1/2+y,1/2-z
-x,-y,-z
x,1/2-y,1/2+z
loop_
_atom_site_type_symbol
_atom_site_label
_atom_site_fract_x
_atom_site_fract_y
_atom_site_fract_z
Si Si1 0.294533 0.741865 0.336132
Si Si2 0.681492 0.672571 0.254987
Si Si3 0.217321 0.836617 0.070495
Si Si4 0.680936 0.778480 0.115888
Si Si5 0.839389 0.076988 0.818186
Si Si6 0.561016 0.997810 0.934038
O O1 0.481472 0.781868 0.477153
O O2 0.343348 0.827927 0.298221
O O3 0.356111 0.611801 0.338809
O O4 0.983002 0.761203 0.220933
O O5 0.420443 0.730100 0.177031
O O6 0.667185 0.716266 0.176871
O O7 0.643534 0.535025 0.238024
O O8 0.973655 0.705910 0.416300
O O9 0.081077 0.881593 0.076022
O O10 0.400533 0.937847 0.117129
O O11 0.574201 0.912127 0.074418
O O12 0.131207 0.046745 0.909629
#
# Coordination Sequence:
#
# PCOD8127555 Si02
#       6
#     4   4   4   4   4   4
#     4  12  24  39  65  97 125 169 211 260 312 378
#     4  10  22  44  63  95 122 171 212 256 324 369
#     4  10  23  42  72  88 127 170 212 261 311 383
#     4  11  24  42  68  89 132 169 210 261 313 383
#     4  11  24  40  69  94 128 170 207 261 319 378
#     4  10  22  45  64  90 125 178 207 249 323 376
#
# _framework density 20.593077000000001
#
# number of rings (size 3 to 8) (size 9 to 14) (size 15 to 20)
#    0.000    1.333    1.667    5.500    7.000    0.667 
#    6.000    0.833    0.000    0.000    0.000    0.000 
#    0.000    0.000    0.000    0.000    0.000    0.000 
#
# Total GULP energy -297554.533055 kJ/mol
# GULP energy per Si atom -12398.105544 kJ/mol
# Density = 2.054621 g / cm^3
# Si number density = 20.593077 Si / 1000 Ang^3
#
#
#
# Elastic Constant Matrix: (Units=GPa)
#
#
# Indices 1 2 3 4 5 6 
#
# 1 79.5265 37.6199 60.0199 0.0000 -5.9862 0.0000
# 2 37.6199 129.4343 70.7082 0.0000 -3.4864 0.0000
# 3 60.0199 70.7082 141.5398 0.0000 -9.6850 0.0000
# 4 0.0000 0.0000 0.0000 42.2210 0.0000 2.2020
# 5 -5.9862 -3.4864 -9.6850 0.0000 35.1083 0.0000
# 6 0.0000 0.0000 0.0000 2.2020 0.0000 23.3533
#
#
#
# Elastic Compliance Matrix: (Units=1/GPa)
#
#
# Indices 1 2 3 4 5 6 
#
# 1 0.018747 -0.001537 -0.007108 0.000000 0.001083 0.000000
# 2 -0.001537 0.010758 -0.004757 0.000000 -0.000506 0.000000
# 3 -0.007108 -0.004757 0.012578 0.000000 0.001785 0.000000
# 4 0.000000 0.000000 0.000000 0.023802 0.000000 -0.002244
# 5 0.001083 -0.000506 0.001785 0.000000 0.029110 0.000000
# 6 0.000000 0.000000 0.000000 -0.002244 0.000000 0.043032
#
#
# Mechanical properties :
#
#
# Convention : Reuss Voigt Hill
#
# Bulk Modulus (GPa) = 65.44794 76.35520 70.90157
# Shear Modulus (GPa) = 29.42484 32.28002 30.85243
#
# Velocity S-wave (km/s) = 3.78414 3.96348 3.87485
# Velocity P-wave (km/s) = 7.13747 7.62261 7.38403
#
# Compressibility (1/GPa) = 0.01527932
#
# Stress axis : x y z
#
# Youngs Moduli (GPa) = 53.34062 92.95660 79.50400
#
# Poissons Ratio (x) = 0.14285 0.56512
# Poissons Ratio (y) = 0.08197 0.37821
# Poissons Ratio (z) = 0.37915 0.44221
#
# Static dielectric constant tensor:
#      x y z
#    x 3.887810 0.000000 0.070570 
#    y 0.000000 4.002310 0.000000 
#    z 0.070570 0.000000 3.616590 
# 
# 
# High freq. dielectric constant tensor:
#      x y z
#    x 1.820740 0.000000 -0.002990 
#    y 0.000000 1.806780 0.000000 
#    z -0.002990 0.000000 1.796080 
# 
# From -- ./inp_files/12496.got.cif
#   From: 2010.03.12/outbox.cif.g09.slc.cpg/sg14_7_cif.got.tgz:12496.got - 2010.03.31 13:35:05.
