data_PCOD8127255
_publ_section_title
;
Structure prediction by ZEFSAII (Michael W. Deem and Ramdas Pophale) SiO2 
 PCOD8127255
Probable space group: P 21/C
;
_chemical_formula_sum "Si O2"
_cell_formula_units_Z 28
_cell_length_a 5.070576
_cell_length_b 7.497468
_cell_length_c 30.366769
_cell_angle_alpha 90.000000
_cell_angle_beta 87.362383
_cell_angle_gamma 90.000000
_cell_volume 1153.214662
_symmetry_space_group_name_H-M "P 21/C"
_symmetry_group_IT_number 14
_symmetry_cell_setting 'monoclinic'
loop_
_space_group_symop_operation_xyz
x,y,z
-x,1/2+y,1/2-z
-x,-y,-z
x,1/2-y,1/2+z
loop_
_atom_site_type_symbol
_atom_site_label
_atom_site_fract_x
_atom_site_fract_y
_atom_site_fract_z
Si Si1 0.928516 0.820350 0.697877
Si Si2 0.178685 0.666962 0.035290
Si Si3 0.271711 0.155040 0.177427
Si Si4 0.753776 0.455677 0.728199
Si Si5 0.324123 0.556117 0.947511
Si Si6 0.562409 0.018287 0.646069
Si Si7 0.732709 0.173259 0.878369
O O1 0.774585 0.670930 0.727724
O O2 0.009686 0.731774 0.651022
O O3 0.186020 0.887415 0.722763
O O4 0.747346 0.992221 0.687686
O O5 0.372770 0.505613 0.048675
O O6 0.211881 0.830969 0.069381
O O7 0.876157 0.604977 0.039830
O O8 0.256338 0.714296 0.983634
O O9 0.316298 0.358229 0.161911
O O10 0.968933 0.131078 0.193492
O O11 0.352542 0.023513 0.136514
O O12 0.460319 0.103521 0.217150
O O13 0.288002 0.614469 0.896567
O O14 0.487953 0.820421 0.630628
#
# Coordination Sequence:
#
# PCOD8127255 Si02
#       7
#     4   4   4   4   4   4   4
#     4  11  23  40  64  86 121 160 209 248 316 364
#     4   9  17  33  59  85 124 151 200 247 298 361
#     4  11  26  41  60  91 124 157 206 256 304 364
#     4  11  26  42  60  90 121 158 207 260 303 367
#     4   9  18  32  57  93 113 158 200 244 297 365
#     4  11  22  39  65  87 123 162 204 248 309 366
#     4  10  22  41  61  90 121 164 200 250 311 364
#
# _framework density 24.279955000000001
#
# number of rings (size 3 to 8) (size 9 to 14) (size 15 to 20)
#    0.000    1.714    2.857    0.857    6.000    0.000 
#    0.000    0.714    0.000    0.000    0.000   13.000 
#    0.000    0.000    0.000    0.000    0.000    0.000 
#
# Total GULP energy -347029.488882 kJ/mol
# GULP energy per Si atom -12393.910317 kJ/mol
# Density = 2.422469 g / cm^3
# Si number density = 24.279955 Si / 1000 Ang^3
#
#
#
# Elastic Constant Matrix: (Units=GPa)
#
#
# Indices 1 2 3 4 5 6 
#
# 1 55.3068 0.0117 -11.6611 0.0000 4.1848 0.0000
# 2 0.0117 54.6282 14.0094 0.0000 -4.8123 0.0000
# 3 -11.6611 14.0094 69.9544 0.0000 0.0759 0.0000
# 4 0.0000 0.0000 0.0000 20.4699 0.0000 -2.6575
# 5 4.1848 -4.8123 0.0759 0.0000 29.1628 0.0000
# 6 0.0000 0.0000 0.0000 -2.6575 0.0000 28.4271
#
#
#
# Elastic Compliance Matrix: (Units=1/GPa)
#
#
# Indices 1 2 3 4 5 6 
#
# 1 0.019020 -0.001134 0.003401 0.000000 -0.002925 0.000000
# 2 -0.001134 0.019666 -0.004131 0.000000 0.003419 0.000000
# 3 0.003401 -0.004131 0.015691 0.000000 -0.001211 0.000000
# 4 0.000000 0.000000 0.000000 0.049452 0.000000 0.004623
# 5 -0.002925 0.003419 -0.001211 0.000000 0.035277 0.000000
# 6 0.000000 0.000000 0.000000 0.004623 0.000000 0.035610
#
#
# Mechanical properties :
#
#
# Convention : Reuss Voigt Hill
#
# Bulk Modulus (GPa) = 19.74418 20.51214 20.12816
# Shear Modulus (GPa) = 25.59803 27.44725 26.52264
#
# Velocity S-wave (km/s) = 3.25050 3.36586 3.30868
# Velocity P-wave (km/s) = 4.71563 4.85509 4.78587
#
# Compressibility (1/GPa) = 0.05064785
#
# Stress axis : x y z
#
# Youngs Moduli (GPa) = 52.57746 50.84815 63.73252
#
# Poissons Ratio (x) = 0.05766 -0.21674
# Poissons Ratio (y) = 0.05962 0.26329
# Poissons Ratio (z) = -0.17880 0.21006
#
# Static dielectric constant tensor:
#      x y z
#    x 4.104500 0.000000 0.030100 
#    y 0.000000 3.970730 0.000000 
#    z 0.030100 0.000000 5.040510 
# 
# 
# High freq. dielectric constant tensor:
#      x y z
#    x 1.965560 0.000000 -0.004840 
#    y 0.000000 1.914550 0.000000 
#    z -0.004840 0.000000 1.979730 
# 
# From -- ./inp_files/78616.got.cif
#   From: 2010.03.12/outbox.cif.g09.slc.cpg/sg14_40_cif.got.tgz:78616.got - 2010.03.31 13:35:05.
