data_PCOD8127817
_publ_section_title
;
Structure prediction by ZEFSAII (Michael W. Deem and Ramdas Pophale) SiO2 
 PCOD8127817
Probable space group: P 21/C
;
_chemical_formula_sum "Si O2"
_cell_formula_units_Z 28
_cell_length_a 9.013695
_cell_length_b 19.505706
_cell_length_c 14.367428
_cell_angle_alpha 90.000000
_cell_angle_beta 152.095903
_cell_angle_gamma 90.000000
_cell_volume 1182.178145
_symmetry_space_group_name_H-M "P 21/C"
_symmetry_group_IT_number 14
_symmetry_cell_setting 'monoclinic'
loop_
_space_group_symop_operation_xyz
x,y,z
-x,1/2+y,1/2-z
-x,-y,-z
x,1/2-y,1/2+z
loop_
_atom_site_type_symbol
_atom_site_label
_atom_site_fract_x
_atom_site_fract_y
_atom_site_fract_z
Si Si1 0.920803 0.136805 0.509901
Si Si2 0.789317 0.287607 0.659935
Si Si3 0.209786 0.788772 0.054375
Si Si4 0.863988 0.456394 0.299598
Si Si5 0.245943 0.091847 0.185754
Si Si6 0.301901 0.369630 0.050903
Si Si7 0.860218 0.654098 0.670018
O O1 0.847625 0.213931 0.434924
O O2 0.618393 0.094517 0.375384
O O3 0.079390 0.098271 0.509464
O O4 0.151168 0.145184 0.725603
O O5 0.685732 0.289878 0.494763
O O6 0.486897 0.315906 0.550926
O O7 0.875765 0.207131 0.725163
O O8 0.096550 0.332649 0.856660
O O9 0.882355 0.831710 0.871598
O O10 0.471645 0.817985 0.268165
O O11 0.827086 0.539294 0.268194
O O12 0.507159 0.427965 0.114841
O O13 0.082574 0.441674 0.507703
O O14 0.052163 0.421169 0.319276
#
# Coordination Sequence:
#
# PCOD8127817 Si02
#       7
#     4   4   4   4   4   4   4
#     4  11  23  39  68  98 131 172 217 285 326 395
#     4  11  24  40  66  99 135 166 221 288 321 395
#     4  10  23  42  64 101 129 168 224 275 331 390
#     4  10  24  44  65  96 132 181 224 267 326 410
#     4  10  23  43  69  91 138 176 224 269 332 393
#     4  11  23  40  67  97 130 175 220 271 338 388
#     4  11  24  42  63  98 136 170 225 271 339 388
#
# _framework density 23.685092999999998
#
# number of rings (size 3 to 8) (size 9 to 14) (size 15 to 20)
#    0.000    1.429    1.429    2.571   16.000    1.143 
#    0.000    2.143    0.000    0.000    0.000    0.000 
#    0.000    0.000    0.000    0.000    0.000    0.000 
#
# Total GULP energy -347013.316945 kJ/mol
# GULP energy per Si atom -12393.332748 kJ/mol
# Density = 2.363119 g / cm^3
# Si number density = 23.685093 Si / 1000 Ang^3
#
#
#
# Elastic Constant Matrix: (Units=GPa)
#
#
# Indices 1 2 3 4 5 6 
#
# 1 44.1375 -3.9467 1.9332 0.0000 15.0880 0.0000
# 2 -3.9467 54.8023 14.9369 0.0000 -1.5498 0.0000
# 3 1.9332 14.9369 128.8138 0.0000 -1.2508 0.0000
# 4 0.0000 0.0000 0.0000 -43.8988 0.0000 16.1284
# 5 15.0880 -1.5498 -1.2508 0.0000 36.3211 0.0000
# 6 0.0000 0.0000 0.0000 16.1284 0.0000 18.5929
#
#
#
# Elastic Compliance Matrix: (Units=1/GPa)
#
#
# Indices 1 2 3 4 5 6 
#
# 1 0.026610 0.001800 -0.000715 0.000000 -0.011002 0.000000
# 2 0.001800 0.018984 -0.002228 0.000000 -0.000014 0.000000
# 3 -0.000715 -0.002228 0.008037 0.000000 0.000479 0.000000
# 4 0.000000 0.000000 0.000000 -0.017274 0.000000 0.014985
# 5 -0.011002 -0.000014 0.000479 0.000000 0.032118 0.000000
# 6 0.000000 0.000000 0.000000 0.014985 0.000000 0.040785
#
#
# Mechanical properties :
#
#
# Convention : Reuss Voigt Hill
#
# Bulk Modulus (GPa) = 19.47652 28.17781 23.82716
# Shear Modulus (GPa) = 38.86176 16.52507 27.69342
#
# Velocity S-wave (km/s) = 4.05503 2.64427 3.42312
# Velocity P-wave (km/s) = 5.49230 4.60929 5.07005
#
# Compressibility (1/GPa) = 0.05134388
#
# Stress axis : x y z
#
# Youngs Moduli (GPa) = 37.58047 52.67590 124.42565
#
# Poissons Ratio (x) = -0.09482 0.08895
# Poissons Ratio (y) = -0.06765 0.27728
# Poissons Ratio (z) = 0.02687 0.11739
#
# Static dielectric constant tensor:
#      x y z
#    x 4.195500 0.000000 0.044780 
#    y 0.000000 4.755930 0.000000 
#    z 0.044780 0.000000 4.365930 
# 
# 
# High freq. dielectric constant tensor:
#      x y z
#    x 1.929420 0.000000 -0.000950 
#    y 0.000000 1.917230 0.000000 
#    z -0.000950 0.000000 1.954920 
# 
# From -- ./inp_files/42081.got.cif
#   From: 2010.03.12/outbox.cif.g09.slc.cpg/sg14_22_cif.got.tgz:42081.got - 2010.03.31 13:35:05.
