data_PCOD8127787
_publ_section_title
;
Structure prediction by ZEFSAII (Michael W. Deem and Ramdas Pophale) SiO2 
 PCOD8127787
Probable space group: P 21/C
;
_chemical_formula_sum "Si O2"
_cell_formula_units_Z 20
_cell_length_a 18.844833
_cell_length_b 4.979681
_cell_length_c 22.602960
_cell_angle_alpha 90.000000
_cell_angle_beta 153.495723
_cell_angle_gamma 90.000000
_cell_volume 946.567494
_symmetry_space_group_name_H-M "P 21/C"
_symmetry_group_IT_number 14
_symmetry_cell_setting 'monoclinic'
loop_
_space_group_symop_operation_xyz
x,y,z
-x,1/2+y,1/2-z
-x,-y,-z
x,1/2-y,1/2+z
loop_
_atom_site_type_symbol
_atom_site_label
_atom_site_fract_x
_atom_site_fract_y
_atom_site_fract_z
Si Si1 0.956975 0.044859 0.900673
Si Si2 0.556631 0.209295 0.491750
Si Si3 0.244062 0.036661 0.776987
Si Si4 0.407396 0.888653 0.610932
Si Si5 0.290006 0.387201 0.588283
O O1 0.860105 0.320061 0.834651
O O2 0.854730 0.813211 0.791917
O O3 0.111836 0.075906 0.976675
O O4 0.000000 0.000000 0.000000
O O5 0.702703 0.401562 0.620831
O O6 0.407175 0.400534 0.363443
O O7 0.607098 0.055019 0.469943
O O8 0.500000 0.000000 0.500000
O O9 0.337851 0.597028 0.573406
O O10 0.591487 0.915988 0.767590
O O11 0.299143 0.095974 0.565832
#
# Coordination Sequence:
#
# PCOD8127787 Si02
#       5
#     4   4   4   4   4
#     4  12  24  43  67 100 138 171 218 278 334 393
#     4  11  24  44  71  95 132 174 228 273 318 395
#     4  11  25  40  67 101 128 172 227 266 336 384
#     4  10  23  42  67  95 129 171 222 269 327 392
#     4  10  23  41  66  97 130 171 215 273 336 389
#
# _framework density 21.128973999999999
#
# number of rings (size 3 to 8) (size 9 to 14) (size 15 to 20)
#    0.000    1.200    2.000    3.000    5.600    3.200 
#    0.000    4.000    0.000    0.000    0.000    0.000 
#    0.000    0.000    0.000    0.000    0.000    0.000 
#
# Total GULP energy -247966.381924 kJ/mol
# GULP energy per Si atom -12398.319096 kJ/mol
# Density = 2.108088 g / cm^3
# Si number density = 21.128974 Si / 1000 Ang^3
#
#
#
# Elastic Constant Matrix: (Units=GPa)
#
#
# Indices 1 2 3 4 5 6 
#
# 1 110.9915 10.5669 39.9238 0.0000 -15.5393 0.0000
# 2 10.5669 81.3649 22.1045 0.0000 4.6672 0.0000
# 3 39.9238 22.1045 107.4446 0.0000 15.9022 0.0000
# 4 0.0000 0.0000 0.0000 50.3654 0.0000 -1.6616
# 5 -15.5393 4.6672 15.9022 0.0000 20.9372 0.0000
# 6 0.0000 0.0000 0.0000 -1.6616 0.0000 21.2318
#
#
#
# Elastic Compliance Matrix: (Units=1/GPa)
#
#
# Indices 1 2 3 4 5 6 
#
# 1 0.014045 -0.000726 -0.007477 0.000000 0.016265 0.000000
# 2 -0.000726 0.013073 -0.002151 0.000000 -0.001819 0.000000
# 3 -0.007477 -0.002151 0.014960 0.000000 -0.016432 0.000000
# 4 0.000000 0.000000 0.000000 0.019906 0.000000 0.001558
# 5 0.016265 -0.001819 -0.016432 0.000000 0.072720 0.000000
# 6 0.000000 0.000000 0.000000 0.001558 0.000000 0.047221
#
#
# Mechanical properties :
#
#
# Convention : Reuss Voigt Hill
#
# Bulk Modulus (GPa) = 46.79041 49.44348 48.11694
# Shear Modulus (GPa) = 23.83722 33.65393 28.74558
#
# Velocity S-wave (km/s) = 3.36248 3.99530 3.69247
# Velocity P-wave (km/s) = 6.10477 6.68841 6.40324
#
# Compressibility (1/GPa) = 0.02137190
#
# Stress axis : x y z
#
# Youngs Moduli (GPa) = 71.19766 76.49251 66.84572
#
# Poissons Ratio (x) = 0.05552 0.49980
# Poissons Ratio (y) = 0.05168 0.14376
# Poissons Ratio (z) = 0.53234 0.16450
#
# Static dielectric constant tensor:
#      x y z
#    x 3.465130 0.000000 -0.032360 
#    y 0.000000 4.099170 0.000000 
#    z -0.032360 0.000000 4.022830 
# 
# 
# High freq. dielectric constant tensor:
#      x y z
#    x 1.806230 0.000000 -0.001690 
#    y 0.000000 1.849420 0.000000 
#    z -0.001690 0.000000 1.836370 
# 
# From -- ./inp_files/64113.got.cif
#   From: 2010.03.12/outbox.cif.g09.slc.cpg/sg14_33_cif.got.tgz:64113.got - 2010.03.31 13:35:05.
