data_PCOD8127601
_publ_section_title
;
Structure prediction by ZEFSAII (Michael W. Deem and Ramdas Pophale) SiO2 
 PCOD8127601
Probable space group: P 21/C
;
_chemical_formula_sum "Si O2"
_cell_formula_units_Z 28
_cell_length_a 9.128139
_cell_length_b 9.331342
_cell_length_c 14.299013
_cell_angle_alpha 90.000000
_cell_angle_beta 89.600404
_cell_angle_gamma 90.000000
_cell_volume 1217.928660
_symmetry_space_group_name_H-M "P 21/C"
_symmetry_group_IT_number 14
_symmetry_cell_setting 'monoclinic'
loop_
_space_group_symop_operation_xyz
x,y,z
-x,1/2+y,1/2-z
-x,-y,-z
x,1/2-y,1/2+z
loop_
_atom_site_type_symbol
_atom_site_label
_atom_site_fract_x
_atom_site_fract_y
_atom_site_fract_z
Si Si1 0.338646 0.379554 0.202909
Si Si2 0.202023 0.075934 0.212486
Si Si3 0.948728 0.022874 0.346283
Si Si4 0.733422 0.445402 0.474555
Si Si5 0.615196 0.999435 0.617924
Si Si6 0.866968 0.168236 0.532150
Si Si7 0.574466 0.669017 0.590973
O O1 0.274890 0.224311 0.180487
O O2 0.208130 0.494684 0.199101
O O3 0.458659 0.421140 0.124007
O O4 0.414898 0.386313 0.303168
O O5 0.312712 0.992677 0.280157
O O6 0.177485 0.982768 0.119783
O O7 0.048465 0.097730 0.266767
O O8 0.021278 0.874667 0.385017
O O9 0.938343 0.133919 0.431595
O O10 0.833330 0.337862 0.535808
O O11 0.702174 0.589020 0.532842
O O12 0.583198 0.366412 0.449369
O O13 0.600868 0.837439 0.582901
O O14 0.715821 0.079919 0.542314
#
# Coordination Sequence:
#
# PCOD8127601 Si02
#       7
#     4   4   4   4   4   4   4
#     4  11  23  42  69  98 130 181 225 273 337 401
#     4  10  24  43  65  97 138 170 225 279 327 409
#     4  10  24  45  66  96 133 184 226 268 334 415
#     4  11  23  42  65 102 135 170 219 287 333 389
#     4  10  22  44  70  97 130 178 225 273 337 404
#     4  10  24  44  71  94 134 178 224 276 334 401
#     4  10  24  40  65 103 137 164 221 285 338 388
#
# _framework density 22.989851999999999
#
# number of rings (size 3 to 8) (size 9 to 14) (size 15 to 20)
#    0.000    1.714    1.429    0.857    8.000    2.286 
#    2.571    1.429    0.000    0.000    0.000    0.000 
#    0.000    0.000    0.000    0.000    0.000    0.000 
#
# Total GULP energy -347291.843042 kJ/mol
# GULP energy per Si atom -12403.280109 kJ/mol
# Density = 2.293753 g / cm^3
# Si number density = 22.989852 Si / 1000 Ang^3
#
#
#
# Elastic Constant Matrix: (Units=GPa)
#
#
# Indices 1 2 3 4 5 6 
#
# 1 96.9422 26.3092 17.7335 0.0000 -30.3219 0.0000
# 2 26.3092 92.8687 48.0628 0.0000 -23.5720 0.0000
# 3 17.7335 48.0628 76.9268 0.0000 -30.8624 0.0000
# 4 0.0000 0.0000 0.0000 32.7357 0.0000 -2.8370
# 5 -30.3219 -23.5720 -30.8624 0.0000 45.6690 0.0000
# 6 0.0000 0.0000 0.0000 -2.8370 0.0000 37.4398
#
#
#
# Elastic Compliance Matrix: (Units=1/GPa)
#
#
# Indices 1 2 3 4 5 6 
#
# 1 0.013464 -0.002646 0.002178 0.000000 0.009046 0.000000
# 2 -0.002646 0.016575 -0.009629 0.000000 0.000291 0.000000
# 3 0.002178 -0.009629 0.023460 0.000000 0.012330 0.000000
# 4 0.000000 0.000000 0.000000 0.030750 0.000000 0.002330
# 5 0.009046 0.000291 0.012330 0.000000 0.036386 0.000000
# 6 0.000000 0.000000 0.000000 0.002330 0.000000 0.026886
#
#
# Mechanical properties :
#
#
# Convention : Reuss Voigt Hill
#
# Bulk Modulus (GPa) = 30.02380 50.10541 40.06461
# Shear Modulus (GPa) = 27.96183 34.81105 31.38644
#
# Velocity S-wave (km/s) = 3.49129 3.89548 3.69891
# Velocity P-wave (km/s) = 5.41665 6.48652 5.97558
#
# Compressibility (1/GPa) = 0.03330691
#
# Stress axis : x y z
#
# Youngs Moduli (GPa) = 74.26948 60.33329 42.62583
#
# Poissons Ratio (x) = 0.15962 -0.09286
# Poissons Ratio (y) = 0.19649 0.41044
# Poissons Ratio (z) = -0.16179 0.58094
#
# Static dielectric constant tensor:
#      x y z
#    x 4.158830 0.000000 -0.049500 
#    y 0.000000 3.971420 0.000000 
#    z -0.049500 0.000000 4.083630 
# 
# 
# High freq. dielectric constant tensor:
#      x y z
#    x 1.910490 0.000000 -0.006160 
#    y 0.000000 1.898040 0.000000 
#    z -0.006160 0.000000 1.913270 
# 
# From -- ./inp_files/54789.got.cif
#   From: 2010.03.12/outbox.cif.g09.slc.cpg/sg14_28_cif.got.tgz:54789.got - 2010.03.31 13:35:05.
