data_PCOD8127289
_publ_section_title
;
Structure prediction by ZEFSAII (Michael W. Deem and Ramdas Pophale) SiO2 
 PCOD8127289
Probable space group: P 21/C
;
_chemical_formula_sum "Si O2"
_cell_formula_units_Z 20
_cell_length_a 8.329439
_cell_length_b 7.966416
_cell_length_c 13.571194
_cell_angle_alpha 90.000000
_cell_angle_beta 113.165624
_cell_angle_gamma 90.000000
_cell_volume 827.918987
_symmetry_space_group_name_H-M "P 21/C"
_symmetry_group_IT_number 14
_symmetry_cell_setting 'monoclinic'
loop_
_space_group_symop_operation_xyz
x,y,z
-x,1/2+y,1/2-z
-x,-y,-z
x,1/2-y,1/2+z
loop_
_atom_site_type_symbol
_atom_site_label
_atom_site_fract_x
_atom_site_fract_y
_atom_site_fract_z
Si Si1 0.772184 0.607084 0.675182
Si Si2 0.206131 0.260964 0.520243
Si Si3 0.107172 0.687348 0.177516
Si Si4 0.581524 0.507295 0.808407
Si Si5 0.819891 0.936849 0.786341
O O1 0.717829 0.614971 0.547291
O O2 0.896094 0.445306 0.730252
O O3 0.604578 0.601593 0.707503
O O4 0.874355 0.786805 0.722554
O O5 0.357694 0.134658 0.591152
O O6 0.140268 0.376321 0.593784
O O7 0.043700 0.152438 0.439662
O O8 0.292514 0.657335 0.165786
O O9 0.087635 0.882557 0.207239
O O10 0.385894 0.458572 0.781983
#
# Coordination Sequence:
#
# PCOD8127289 Si02
#       5
#     4   4   4   4   4
#     4   9  24  39  64  96 127 157 223 254 308 384
#     4  11  22  42  66  93 128 172 210 256 324 369
#     4  10  22  41  64  93 129 166 207 265 306 375
#     4   9  22  43  62  91 135 158 209 267 303 376
#     4  11  22  43  66  91 130 169 207 261 319 374
#
# _framework density 24.156953999999999
#
# number of rings (size 3 to 8) (size 9 to 14) (size 15 to 20)
#    1.200    0.800    0.000    3.600    2.800    1.600 
#    3.600    0.000    0.000    0.000    0.000    0.000 
#    0.000    0.000    0.000    0.000    0.000    0.000 
#
# Total GULP energy -247876.581085 kJ/mol
# GULP energy per Si atom -12393.829054 kJ/mol
# Density = 2.410197 g / cm^3
# Si number density = 24.156954 Si / 1000 Ang^3
#
#
#
# Elastic Constant Matrix: (Units=GPa)
#
#
# Indices 1 2 3 4 5 6 
#
# 1 63.5240 45.2157 40.6265 0.0000 -7.3087 0.0000
# 2 45.2157 157.7607 50.2616 0.0000 -22.1317 0.0000
# 3 40.6265 50.2616 142.9953 0.0000 -28.9451 0.0000
# 4 0.0000 0.0000 0.0000 48.6928 0.0000 -7.9455
# 5 -7.3087 -22.1317 -28.9451 0.0000 27.3856 0.0000
# 6 0.0000 0.0000 0.0000 -7.9455 0.0000 25.7719
#
#
#
# Elastic Compliance Matrix: (Units=1/GPa)
#
#
# Indices 1 2 3 4 5 6 
#
# 1 0.022455 -0.005291 -0.005308 0.000000 -0.003893 0.000000
# 2 -0.005291 0.008740 -0.000541 0.000000 0.005080 0.000000
# 3 -0.005308 -0.000541 0.010580 0.000000 0.009329 0.000000
# 4 0.000000 0.000000 0.000000 0.021625 0.000000 0.006667
# 5 -0.003893 0.005080 0.009329 0.000000 0.049442 0.000000
# 6 0.000000 0.000000 0.000000 0.006667 0.000000 0.040857
#
#
# Mechanical properties :
#
#
# Convention : Reuss Voigt Hill
#
# Bulk Modulus (GPa) = 51.29404 70.72085 61.00745
# Shear Modulus (GPa) = 27.40091 35.58181 31.49136
#
# Velocity S-wave (km/s) = 3.37157 3.84206 3.61448
# Velocity P-wave (km/s) = 6.03626 7.00150 6.53672
#
# Compressibility (1/GPa) = 0.01949544
#
# Stress axis : x y z
#
# Youngs Moduli (GPa) = 44.53378 114.41681 94.52131
#
# Poissons Ratio (x) = 0.60536 0.50173
# Poissons Ratio (y) = 0.23562 0.05110
# Poissons Ratio (z) = 0.23639 0.06185
#
# Static dielectric constant tensor:
#      x y z
#    x 4.269960 0.000000 -0.129520 
#    y 0.000000 4.537710 0.000000 
#    z -0.129520 0.000000 4.103600 
# 
# 
# High freq. dielectric constant tensor:
#      x y z
#    x 1.991770 0.000000 -0.006950 
#    y 0.000000 1.977710 0.000000 
#    z -0.006950 0.000000 1.938910 
# 
# From -- ./inp_files/42728.got.cif
#   From: 2010.03.12/outbox.cif.g09.slc.cpg/sg14_22_cif.got.tgz:42728.got - 2010.03.31 13:35:05.
