data_PCOD8127182
_publ_section_title
;
Structure prediction by ZEFSAII (Michael W. Deem and Ramdas Pophale) SiO2 
 PCOD8127182
Probable space group: P 21/C
;
_chemical_formula_sum "Si O2"
_cell_formula_units_Z 32
_cell_length_a 18.527395
_cell_length_b 9.431704
_cell_length_c 22.066404
_cell_angle_alpha 90.000000
_cell_angle_beta 21.031073
_cell_angle_gamma 90.000000
_cell_volume 1383.815938
_symmetry_space_group_name_H-M "P 21/C"
_symmetry_group_IT_number 14
_symmetry_cell_setting 'monoclinic'
loop_
_space_group_symop_operation_xyz
x,y,z
-x,1/2+y,1/2-z
-x,-y,-z
x,1/2-y,1/2+z
loop_
_atom_site_type_symbol
_atom_site_label
_atom_site_fract_x
_atom_site_fract_y
_atom_site_fract_z
Si Si1 0.313349 0.996156 0.371754
Si Si2 0.061933 0.347907 0.274745
Si Si3 0.275753 0.961740 0.881932
Si Si4 0.981635 0.057267 0.286279
Si Si5 0.712732 0.224396 0.714521
Si Si6 0.747563 0.389171 0.356549
Si Si7 0.606503 0.819170 0.929799
Si Si8 0.935780 0.745100 0.972651
O O1 0.532204 0.997513 0.229355
O O2 0.154509 0.966178 0.548835
O O3 0.256826 0.142245 0.382049
O O4 0.305724 0.875893 0.328196
O O5 0.117057 0.498621 0.198539
O O6 0.241196 0.311843 0.181691
O O7 0.858379 0.356640 0.472067
O O8 0.046577 0.222329 0.235206
O O9 0.336199 0.882173 0.772424
O O10 0.143499 0.096327 0.967940
O O11 0.180506 0.952469 0.135105
O O12 0.940284 0.219399 0.562403
O O13 0.550781 0.180415 0.891322
O O14 0.529320 0.309475 0.525690
O O15 0.729060 0.533173 0.329862
O O16 0.913462 0.281373 0.201402
#
# Coordination Sequence:
#
# PCOD8127182 Si02
#       8
#     4   4   4   4   4   4   4   4
#     4  11  23  42  66  96 126 170 223 264 316 394
#     4  11  24  39  63  94 126 168 210 259 327 379
#     4  12  25  41  63  99 137 171 212 272 333 390
#     4  10  22  40  63  91 127 163 211 266 313 386
#     4  11  22  43  67  94 132 170 223 267 336 386
#     4   8  18  38  65  91 119 162 219 255 321 374
#     4   9  19  40  67  91 124 168 210 272 311 385
#     4  10  23  41  68  94 131 176 212 277 324 389
#
# _framework density 23.124461
#
# number of rings (size 3 to 8) (size 9 to 14) (size 15 to 20)
#    0.000    1.750    1.250    2.250    7.000    0.000 
#    2.250    2.500    2.750    0.000    0.000    0.000 
#    0.000    0.000    0.000    0.000    0.000    0.000 
#
# Total GULP energy -396519.485483 kJ/mol
# GULP energy per Si atom -12391.233921 kJ/mol
# Density = 2.307183 g / cm^3
# Si number density = 23.124461 Si / 1000 Ang^3
#
#
#
# Elastic Constant Matrix: (Units=GPa)
#
#
# Indices 1 2 3 4 5 6 
#
# 1 63.0595 19.7542 32.4031 0.0000 -18.9156 0.0000
# 2 19.7542 95.5336 29.1992 0.0000 -8.1980 0.0000
# 3 32.4031 29.1992 75.6785 0.0000 -26.2609 0.0000
# 4 0.0000 0.0000 0.0000 21.8816 0.0000 -6.2092
# 5 -18.9156 -8.1980 -26.2609 0.0000 40.0434 0.0000
# 6 0.0000 0.0000 0.0000 -6.2092 0.0000 43.1991
#
#
#
# Elastic Compliance Matrix: (Units=1/GPa)
#
#
# Indices 1 2 3 4 5 6 
#
# 1 0.021472 -0.001973 -0.006542 0.000000 0.005449 0.000000
# 2 -0.001973 0.012065 -0.004242 0.000000 -0.001244 0.000000
# 3 -0.006542 -0.004242 0.021073 0.000000 0.009862 0.000000
# 4 0.000000 0.000000 0.000000 0.047644 0.000000 0.006848
# 5 0.005449 -0.001244 0.009862 0.000000 0.033760 0.000000
# 6 0.000000 0.000000 0.000000 0.006848 0.000000 0.024133
#
#
# Mechanical properties :
#
#
# Convention : Reuss Voigt Hill
#
# Bulk Modulus (GPa) = 34.36713 44.10939 39.23826
# Shear Modulus (GPa) = 25.59389 31.21917 28.40653
#
# Velocity S-wave (km/s) = 3.33045 3.67829 3.50868
# Velocity P-wave (km/s) = 5.44824 6.09557 5.78097
#
# Compressibility (1/GPa) = 0.02909757
#
# Stress axis : x y z
#
# Youngs Moduli (GPa) = 46.57237 82.88228 47.45315
#
# Poissons Ratio (x) = 0.16352 0.31042
# Poissons Ratio (y) = 0.09188 0.20130
# Poissons Ratio (z) = 0.30465 0.35159
#
# Static dielectric constant tensor:
#      x y z
#    x 4.340350 0.000000 -0.505450 
#    y 0.000000 4.167580 0.000000 
#    z -0.505450 0.000000 4.244030 
# 
# 
# High freq. dielectric constant tensor:
#      x y z
#    x 1.906630 0.000000 -0.027760 
#    y 0.000000 1.915980 0.000000 
#    z -0.027760 0.000000 1.905390 
# 
# From -- ./inp_files/77992.got.cif
#   From: 2010.03.12/outbox.cif.g09.slc.cpg/sg14_39_cif.got.tgz:77992.got - 2010.03.31 13:35:05.
