data_PCOD8127384
_publ_section_title
;
Structure prediction by ZEFSAII (Michael W. Deem and Ramdas Pophale) SiO2 
 PCOD8127384
Probable space group: P 21/C
;
_chemical_formula_sum "Si O2"
_cell_formula_units_Z 32
_cell_length_a 14.667999
_cell_length_b 17.002822
_cell_length_c 12.472567
_cell_angle_alpha 90.000000
_cell_angle_beta 150.581251
_cell_angle_gamma 90.000000
_cell_volume 1527.904449
_symmetry_space_group_name_H-M "P 21/C"
_symmetry_group_IT_number 14
_symmetry_cell_setting 'monoclinic'
loop_
_space_group_symop_operation_xyz
x,y,z
-x,1/2+y,1/2-z
-x,-y,-z
x,1/2-y,1/2+z
loop_
_atom_site_type_symbol
_atom_site_label
_atom_site_fract_x
_atom_site_fract_y
_atom_site_fract_z
Si Si1 0.708165 0.951537 0.925132
Si Si2 0.719343 0.294117 0.207895
Si Si3 0.616460 0.719387 0.287031
Si Si4 0.003068 0.791478 0.658640
Si Si5 0.205687 0.530354 0.704368
Si Si6 0.994709 0.529620 0.116732
Si Si7 0.306785 0.537690 0.051791
Si Si8 0.278996 0.717347 0.079219
O O1 0.725372 0.857521 0.938735
O O2 0.522350 0.974374 0.798622
O O3 0.696581 0.982205 0.790814
O O4 0.874215 0.982676 0.167510
O O5 0.886302 0.270289 0.301236
O O6 0.776445 0.378789 0.312614
O O7 0.700444 0.223775 0.273214
O O8 0.514175 0.301544 0.947267
O O9 0.471493 0.752367 0.227131
O O10 0.779770 0.781264 0.428119
O O11 0.048463 0.879467 0.668860
O O12 0.098862 0.772706 0.870899
O O13 0.000000 0.500000 0.500000
O O14 0.284269 0.514746 0.903882
O O15 0.794127 0.518447 0.966173
O O16 0.000000 0.500000 0.000000
O O17 0.245574 0.628323 0.005591
#
# Coordination Sequence:
#
# PCOD8127384 Si02
#       8
#     4   4   4   4   4   4   4   4
#     4  11  23  43  69  96 135 169 213 285 333 392
#     4  11  23  41  66  96 129 171 216 277 325 391
#     4  10  23  43  67  96 129 167 221 267 333 391
#     4  11  23  42  60  90 128 169 217 262 318 393
#     4  12  21  40  68 100 135 170 216 277 340 392
#     4  12  27  43  64  94 130 180 229 268 329 401
#     4  11  23  43  66  97 133 173 217 272 337 390
#     4  10  22  42  64  94 133 165 210 268 331 389
#
# _framework density 20.943718000000001
#
# number of rings (size 3 to 8) (size 9 to 14) (size 15 to 20)
#    0.000    1.000    5.000    3.375    0.000    6.500 
#    0.000    0.000    0.000    0.000    0.000    0.000 
#    0.000    0.000    0.000    0.000    0.000    0.000 
#
# Total GULP energy -396592.360500 kJ/mol
# GULP energy per Si atom -12393.511266 kJ/mol
# Density = 2.089605 g / cm^3
# Si number density = 20.943718 Si / 1000 Ang^3
#
#
#
# Elastic Constant Matrix: (Units=GPa)
#
#
# Indices 1 2 3 4 5 6 
#
# 1 90.2725 19.4583 39.2694 0.0000 -4.1315 0.0000
# 2 19.4583 69.0883 30.2892 0.0000 5.3575 0.0000
# 3 39.2694 30.2892 81.5160 0.0000 10.6403 0.0000
# 4 0.0000 0.0000 0.0000 24.5131 0.0000 3.4962
# 5 -4.1315 5.3575 10.6403 0.0000 39.6872 0.0000
# 6 0.0000 0.0000 0.0000 3.4962 0.0000 29.4371
#
#
#
# Elastic Compliance Matrix: (Units=1/GPa)
#
#
# Indices 1 2 3 4 5 6 
#
# 1 0.014567 -0.001312 -0.006996 0.000000 0.003569 0.000000
# 2 -0.001312 0.017425 -0.005717 0.000000 -0.000956 0.000000
# 3 -0.006996 -0.005717 0.018400 0.000000 -0.004890 0.000000
# 4 0.000000 0.000000 0.000000 0.041497 0.000000 -0.004929
# 5 0.003569 -0.000956 -0.004890 0.000000 0.027009 0.000000
# 6 0.000000 0.000000 0.000000 -0.004929 0.000000 0.034556
#
#
# Mechanical properties :
#
#
# Convention : Reuss Voigt Hill
#
# Bulk Modulus (GPa) = 44.76141 46.54562 45.65352
# Shear Modulus (GPa) = 26.46171 28.85147 27.65659
#
# Velocity S-wave (km/s) = 3.55839 3.71559 3.63784
# Velocity P-wave (km/s) = 6.18882 6.37808 6.28416
#
# Compressibility (1/GPa) = 0.02234067
#
# Stress axis : x y z
#
# Youngs Moduli (GPa) = 68.64827 57.39000 54.34690
#
# Poissons Ratio (x) = 0.07532 0.38019
# Poissons Ratio (y) = 0.09010 0.31073
# Poissons Ratio (z) = 0.48024 0.32813
#
# Static dielectric constant tensor:
#      x y z
#    x 4.827070 0.000000 -0.072110 
#    y 0.000000 3.759230 0.000000 
#    z -0.072110 0.000000 4.032190 
# 
# 
# High freq. dielectric constant tensor:
#      x y z
#    x 1.826530 0.000000 0.008820 
#    y 0.000000 1.815960 0.000000 
#    z 0.008820 0.000000 1.823200 
# 
# From -- ./inp_files/33066.got.cif
#   From: 2010.03.12/outbox.cif.g09.slc.cpg/sg14_17_cif.got.tgz:33066.got - 2010.03.31 13:35:05.
