data_PCOD8127093
_publ_section_title
;
Structure prediction by ZEFSAII (Michael W. Deem and Ramdas Pophale) SiO2 
 PCOD8127093
Probable space group: P 21/C
;
_chemical_formula_sum "Si O2"
_cell_formula_units_Z 24
_cell_length_a 7.376627
_cell_length_b 18.682336
_cell_length_c 11.547360
_cell_angle_alpha 90.000000
_cell_angle_beta 50.296765
_cell_angle_gamma 90.000000
_cell_volume 1224.343500
_symmetry_space_group_name_H-M "P 21/C"
_symmetry_group_IT_number 14
_symmetry_cell_setting 'monoclinic'
loop_
_space_group_symop_operation_xyz
x,y,z
-x,1/2+y,1/2-z
-x,-y,-z
x,1/2-y,1/2+z
loop_
_atom_site_type_symbol
_atom_site_label
_atom_site_fract_x
_atom_site_fract_y
_atom_site_fract_z
Si Si1 0.692762 0.318305 0.574399
Si Si2 0.431031 0.838587 0.427329
Si Si3 0.980051 0.574012 0.073568
Si Si4 0.214315 0.338585 0.427328
Si Si5 0.658436 0.681694 0.074403
Si Si6 0.627184 0.925988 0.926433
O O1 0.696469 0.238261 0.522348
O O2 0.565975 0.321413 0.749998
O O3 0.563397 0.367463 0.533807
O O4 0.956103 0.346930 0.479167
O O5 0.598195 0.849007 0.250001
O O6 0.585557 0.846935 0.479174
O O7 0.238092 0.900734 0.506185
O O8 0.868990 0.632538 0.033811
O O9 0.826425 0.563152 0.250000
O O10 0.000000 0.500000 0.000000
O O11 0.241178 0.261739 0.477652
O O12 0.249539 0.400734 0.506184
O O13 0.500000 0.000000 0.000000
#
# Coordination Sequence:
#
# PCOD8127093 Si02
#       6
#     4   4   4   4   4   4
#     4  10  22  39  62  91 123 159 204 252 302 363
#     4  11  22  38  64  94 122 160 205 253 307 363
#     4  11  24  43  63  91 127 164 204 255 309 365
#     4  11  22  38  64  94 122 160 205 253 307 363
#     4  10  22  39  62  91 123 159 204 252 302 363
#     4  11  24  43  63  91 127 164 204 255 309 365
#
# _framework density 19.602340999999999
#
# number of rings (size 3 to 8) (size 9 to 14) (size 15 to 20)
#    0.000    1.333    3.333    2.000    0.000    5.333 
#    0.000    0.000    0.000    0.000    0.000    0.000 
#    0.000    0.000    0.000    0.000    0.000    0.000 
#
# Total GULP energy -297784.182704 kJ/mol
# GULP energy per Si atom -12407.674279 kJ/mol
# Density = 1.955772 g / cm^3
# Si number density = 19.602341 Si / 1000 Ang^3
#
#
#
# Elastic Constant Matrix: (Units=GPa)
#
#
# Indices 1 2 3 4 5 6 
#
# 1 77.8181 -11.7953 38.4605 0.0000 -0.0017 0.0000
# 2 -11.7953 57.1114 25.3157 0.0000 -0.0009 0.0000
# 3 38.4605 25.3157 78.8571 0.0000 -0.0019 0.0000
# 4 0.0000 0.0000 0.0000 35.5586 0.0000 0.0000
# 5 -0.0017 -0.0009 -0.0019 0.0000 39.9797 0.0000
# 6 0.0000 0.0000 0.0000 0.0000 0.0000 28.0087
#
#
#
# Elastic Compliance Matrix: (Units=1/GPa)
#
#
# Indices 1 2 3 4 5 6 
#
# 1 0.021204 0.010451 -0.013697 0.000000 0.000000 0.000000
# 2 0.010451 0.025565 -0.013304 0.000000 0.000000 0.000000
# 3 -0.013697 -0.013304 0.023632 0.000000 0.000000 0.000000
# 4 0.000000 0.000000 0.000000 0.028123 0.000000 0.000000
# 5 0.000000 0.000000 0.000000 0.000000 0.025013 0.000000
# 6 0.000000 0.000000 0.000000 0.000000 0.000000 0.035703
#
#
# Mechanical properties :
#
#
# Convention : Reuss Voigt Hill
#
# Bulk Modulus (GPa) = 26.80895 35.30536 31.05715
# Shear Modulus (GPa) = 24.41710 31.49644 27.95677
#
# Velocity S-wave (km/s) = 3.53317 4.01280 3.78060
# Velocity P-wave (km/s) = 5.50912 6.28649 5.91060
#
# Compressibility (1/GPa) = 0.03730098
#
# Stress axis : x y z
#
# Youngs Moduli (GPa) = 47.16124 39.11541 42.31476
#
# Poissons Ratio (x) = -0.40878 0.57957
# Poissons Ratio (y) = -0.49286 0.56297
# Poissons Ratio (z) = 0.64595 0.52040
#
# Static dielectric constant tensor:
#      x y z
#    x 3.626780 0.000000 -0.000020 
#    y 0.000000 3.549180 0.000000 
#    z -0.000020 0.000000 3.576030 
# 
# 
# High freq. dielectric constant tensor:
#      x y z
#    x 1.775810 0.000000 0.000000 
#    y 0.000000 1.764300 0.000000 
#    z 0.000000 0.000000 1.771020 
# 
# From -- ./inp_files/21453.got.cif
#   From: 2010.03.12/outbox.cif.g09.slc.cpg/sg14_11_cif.got.tgz:21453.got - 2010.03.31 13:35:05.
