data_PCOD8127626
_publ_section_title
;
Structure prediction by ZEFSAII (Michael W. Deem and Ramdas Pophale) SiO2 
 PCOD8127626
Probable space group: P 21/C
;
_chemical_formula_sum "Si O2"
_cell_formula_units_Z 32
_cell_length_a 26.688537
_cell_length_b 9.020557
_cell_length_c 16.040874
_cell_angle_alpha 90.000000
_cell_angle_beta 21.452090
_cell_angle_gamma 90.000000
_cell_volume 1412.337651
_symmetry_space_group_name_H-M "P 21/C"
_symmetry_group_IT_number 14
_symmetry_cell_setting 'monoclinic'
loop_
_space_group_symop_operation_xyz
x,y,z
-x,1/2+y,1/2-z
-x,-y,-z
x,1/2-y,1/2+z
loop_
_atom_site_type_symbol
_atom_site_label
_atom_site_fract_x
_atom_site_fract_y
_atom_site_fract_z
Si Si1 0.936484 0.626009 0.657658
Si Si2 0.382767 0.640689 0.020978
Si Si3 0.406294 0.573244 0.575871
Si Si4 0.885879 0.487042 0.915849
Si Si5 0.034422 0.709807 0.787344
Si Si6 0.822773 0.178893 0.763967
Si Si7 0.625233 0.567775 0.535083
Si Si8 0.237461 0.344547 0.219646
O O1 0.900910 0.571538 0.804695
O O2 0.793094 0.658411 0.833327
O O3 0.000000 0.500000 0.500000
O O4 0.041942 0.767501 0.497299
O O5 0.395581 0.745259 0.084659
O O6 0.308729 0.724066 0.058499
O O7 0.289203 0.496021 0.182719
O O8 0.533643 0.586579 0.759451
O O9 0.500000 0.500000 0.500000
O O10 0.459308 0.530116 0.401209
O O11 0.261837 0.492099 0.814417
O O12 0.997696 0.549821 0.807287
O O13 0.900268 0.310594 0.885812
O O14 0.145943 0.694198 0.687053
O O15 0.901012 0.801806 0.019572
O O16 0.775366 0.008254 0.821431
O O17 0.645252 0.722037 0.455093
#
# Coordination Sequence:
#
# PCOD8127626 Si02
#       8
#     4   4   4   4   4   4   4   4
#     4  11  21  39  72  96 132 184 229 277 352 436
#     4  11  23  45  74  94 136 192 240 282 344 432
#     4  11  28  47  68 102 142 188 238 297 358 417
#     4  12  25  42  68 102 141 180 226 297 360 418
#     4  11  25  41  67 101 141 177 221 296 357 424
#     4  10  22  45  68 103 132 179 240 282 350 433
#     4  11  25  43  71 102 135 182 238 289 339 431
#     4  11  21  43  66 101 132 173 237 278 347 422
#
# _framework density 22.657471999999999
#
# number of rings (size 3 to 8) (size 9 to 14) (size 15 to 20)
#    0.000    1.000    5.000    1.500   10.500    3.000 
#    0.000    0.625    0.000    0.000    0.000    0.000 
#    0.000    0.000    0.000    0.000    0.000    0.000 
#
# Total GULP energy -396480.122394 kJ/mol
# GULP energy per Si atom -12390.003825 kJ/mol
# Density = 2.260590 g / cm^3
# Si number density = 22.657472 Si / 1000 Ang^3
#
#
#
# Elastic Constant Matrix: (Units=GPa)
#
#
# Indices 1 2 3 4 5 6 
#
# 1 96.4686 58.4181 32.2546 0.0000 -8.1413 0.0000
# 2 58.4181 124.8447 26.8568 0.0000 -11.3110 0.0000
# 3 32.2546 26.8568 69.3572 0.0000 -1.5674 0.0000
# 4 0.0000 0.0000 0.0000 34.6383 0.0000 4.7111
# 5 -8.1413 -11.3110 -1.5674 0.0000 31.2153 0.0000
# 6 0.0000 0.0000 0.0000 4.7111 0.0000 33.9166
#
#
#
# Elastic Compliance Matrix: (Units=1/GPa)
#
#
# Indices 1 2 3 4 5 6 
#
# 1 0.015945 -0.006245 -0.004960 0.000000 0.001647 0.000000
# 2 -0.006245 0.011474 -0.001483 0.000000 0.002454 0.000000
# 3 -0.004960 -0.001483 0.017277 0.000000 -0.000963 0.000000
# 4 0.000000 0.000000 0.000000 0.029426 0.000000 -0.004087
# 5 0.001647 0.002454 -0.000963 0.000000 0.033306 0.000000
# 6 0.000000 0.000000 0.000000 -0.004087 0.000000 0.030052
#
#
# Mechanical properties :
#
#
# Convention : Reuss Voigt Hill
#
# Bulk Modulus (GPa) = 51.75999 58.41439 55.08719
# Shear Modulus (GPa) = 29.53416 31.49675 30.51546
#
# Velocity S-wave (km/s) = 3.61433 3.73248 3.67388
# Velocity P-wave (km/s) = 6.34917 6.66429 6.50864
#
# Compressibility (1/GPa) = 0.01931994
#
# Stress axis : x y z
#
# Youngs Moduli (GPa) = 62.71502 87.15695 57.87957
#
# Poissons Ratio (x) = 0.54429 0.28708
# Poissons Ratio (y) = 0.39165 0.08584
# Poissons Ratio (z) = 0.31106 0.12927
#
# Static dielectric constant tensor:
#      x y z
#    x 4.411960 0.000000 -0.097170 
#    y 0.000000 4.474670 0.000000 
#    z -0.097170 0.000000 3.969060 
# 
# 
# High freq. dielectric constant tensor:
#      x y z
#    x 1.876530 0.000000 -0.003160 
#    y 0.000000 1.906010 0.000000 
#    z -0.003160 0.000000 1.882790 
# 
# From -- ./inp_files/62664.got.cif
#   From: 2010.03.12/outbox.cif.g09.slc.cpg/sg14_32_cif.got.tgz:62664.got - 2010.03.31 13:35:05.
