data_PCOD8127178
_publ_section_title
;
Structure prediction by ZEFSAII (Michael W. Deem and Ramdas Pophale) SiO2 
 PCOD8127178
Probable space group: P 21/C
;
_chemical_formula_sum "Si O2"
_cell_formula_units_Z 24
_cell_length_a 5.032880
_cell_length_b 22.979985
_cell_length_c 9.057262
_cell_angle_alpha 90.000000
_cell_angle_beta 106.209753
_cell_angle_gamma 90.000000
_cell_volume 1005.879219
_symmetry_space_group_name_H-M "P 21/C"
_symmetry_group_IT_number 14
_symmetry_cell_setting 'monoclinic'
loop_
_space_group_symop_operation_xyz
x,y,z
-x,1/2+y,1/2-z
-x,-y,-z
x,1/2-y,1/2+z
loop_
_atom_site_type_symbol
_atom_site_label
_atom_site_fract_x
_atom_site_fract_y
_atom_site_fract_z
Si Si1 0.869651 0.591354 0.236777
Si Si2 0.303977 0.522891 0.145600
Si Si3 0.366554 0.209059 0.830876
Si Si4 0.921328 0.358770 0.428771
Si Si5 0.366370 0.321089 0.004359
Si Si6 0.302844 0.925871 0.347697
O O1 0.084655 0.538912 0.237978
O O2 0.948002 0.623059 0.398125
O O3 0.564743 0.565657 0.205198
O O4 0.876557 0.638857 0.104891
O O5 0.414860 0.456615 0.170475
O O6 0.173215 0.534090 0.959530
O O7 0.609896 0.163734 0.903759
O O8 0.277734 0.209292 0.644592
O O9 0.099348 0.192340 0.884485
O O10 0.456726 0.273324 0.897063
O O11 0.913095 0.415686 0.319157
O O12 0.629289 0.361947 0.078785
#
# Coordination Sequence:
#
# PCOD8127178 Si02
#       6
#     4   4   4   4   4   4
#     4  11  23  39  63  92 124 159 203 252 303 363
#     4  10  22  40  63  90 121 164 207 249 305 364
#     4  11  24  41  63  89 121 160 203 248 305 363
#     4  11  24  41  62  93 126 160 203 253 305 362
#     4  10  23  42  64  89 122 160 202 251 303 363
#     4   9  22  41  63  89 124 163 206 253 305 363
#
# _framework density 23.859722000000001
#
# number of rings (size 3 to 8) (size 9 to 14) (size 15 to 20)
#    0.000    1.667    0.000    3.000    0.000   19.333 
#    0.000    0.000    0.000    0.000    0.000    0.000 
#    0.000    0.000    0.000    0.000    0.000    0.000 
#
# Total GULP energy -297617.580735 kJ/mol
# GULP energy per Si atom -12400.732531 kJ/mol
# Density = 2.380542 g / cm^3
# Si number density = 23.859722 Si / 1000 Ang^3
#
#
#
# Elastic Constant Matrix: (Units=GPa)
#
#
# Indices 1 2 3 4 5 6 
#
# 1 52.3158 -1.9914 17.7571 0.0000 -3.1518 0.0000
# 2 -1.9914 101.8391 52.0969 0.0000 -0.9754 0.0000
# 3 17.7571 52.0969 161.3385 0.0000 4.7651 0.0000
# 4 0.0000 0.0000 0.0000 37.9730 0.0000 -7.8163
# 5 -3.1518 -0.9754 4.7651 0.0000 25.7413 0.0000
# 6 0.0000 0.0000 0.0000 -7.8163 0.0000 31.9535
#
#
#
# Elastic Compliance Matrix: (Units=1/GPa)
#
#
# Indices 1 2 3 4 5 6 
#
# 1 0.020382 0.001944 -0.002963 0.000000 0.003118 0.000000
# 2 0.001944 0.011982 -0.004126 0.000000 0.001456 0.000000
# 3 -0.002963 -0.004126 0.007915 0.000000 -0.001984 0.000000
# 4 0.000000 0.000000 0.000000 0.027731 0.000000 0.006783
# 5 0.003118 0.001456 -0.001984 0.000000 0.039652 0.000000
# 6 0.000000 0.000000 0.000000 0.006783 0.000000 0.032955
#
#
# Mechanical properties :
#
#
# Convention : Reuss Voigt Hill
#
# Bulk Modulus (GPa) = 33.34484 50.13540 41.74012
# Shear Modulus (GPa) = 31.07443 35.64228 33.35836
#
# Velocity S-wave (km/s) = 3.61277 3.86920 3.74318
# Velocity P-wave (km/s) = 5.60433 6.40462 6.01779
#
# Compressibility (1/GPa) = 0.02998965
#
# Stress axis : x y z
#
# Youngs Moduli (GPa) = 49.06220 83.45783 126.33904
#
# Poissons Ratio (x) = -0.16227 0.37437
# Poissons Ratio (y) = -0.09539 0.52128
# Poissons Ratio (z) = 0.14538 0.34435
#
# Static dielectric constant tensor:
#      x y z
#    x 3.949360 0.000000 0.093300 
#    y 0.000000 4.429090 0.000000 
#    z 0.093300 0.000000 4.555810 
# 
# 
# High freq. dielectric constant tensor:
#      x y z
#    x 1.930720 0.000000 0.008040 
#    y 0.000000 1.955120 0.000000 
#    z 0.008040 0.000000 1.952220 
# 
# From -- ./inp_files/6315.got.cif
#   From: 2010.03.12/outbox.cif.g09.slc.cpg/sg14_4_cif.got.tgz:6315.got - 2010.03.31 13:35:05.
