data_PCOD8127167
_publ_section_title
;
Structure prediction by ZEFSAII (Michael W. Deem and Ramdas Pophale) SiO2 
 PCOD8127167
Probable space group: P 21/C
;
_chemical_formula_sum "Si O2"
_cell_formula_units_Z 28
_cell_length_a 8.369294
_cell_length_b 15.182136
_cell_length_c 18.586050
_cell_angle_alpha 90.000000
_cell_angle_beta 146.546216
_cell_angle_gamma 90.000000
_cell_volume 1301.872860
_symmetry_space_group_name_H-M "P 21/C"
_symmetry_group_IT_number 14
_symmetry_cell_setting 'monoclinic'
loop_
_space_group_symop_operation_xyz
x,y,z
-x,1/2+y,1/2-z
-x,-y,-z
x,1/2-y,1/2+z
loop_
_atom_site_type_symbol
_atom_site_label
_atom_site_fract_x
_atom_site_fract_y
_atom_site_fract_z
Si Si1 0.471371 0.118003 0.704214
Si Si2 0.641100 0.433816 0.654638
Si Si3 0.887412 0.322357 0.944435
Si Si4 0.370966 0.436817 0.706065
Si Si5 0.716544 0.895317 0.109718
Si Si6 0.868558 0.251364 0.784798
Si Si7 0.237029 0.651731 0.536281
O O1 0.576760 0.195774 0.690697
O O2 0.552770 0.139775 0.816653
O O3 0.126392 0.107622 0.561409
O O4 0.620044 0.024347 0.740833
O O5 0.528495 0.460921 0.690482
O O6 0.353924 0.423617 0.498196
O O7 0.831759 0.517091 0.695993
O O8 0.814880 0.341401 0.720167
O O9 0.564439 0.361729 0.816121
O O10 0.998912 0.278160 0.911464
O O11 0.881175 0.250890 0.005763
O O12 0.040890 0.411696 0.568250
O O13 0.414765 0.863557 0.030838
O O14 0.931928 0.812303 0.188796
#
# Coordination Sequence:
#
# PCOD8127167 Si02
#       7
#     4   4   4   4   4   4   4
#     4  11  21  38  64  92 121 163 209 260 312 376
#     4  10  22  40  62  87 126 164 210 253 307 374
#     4  10  22  41  63  90 128 165 204 258 323 371
#     4  11  22  40  64  93 122 165 209 262 314 372
#     4  11  23  38  63  94 124 165 210 259 305 369
#     4  10  22  40  63  88 126 171 205 250 318 379
#     4  11  22  37  63  95 123 155 214 262 304 369
#
# _framework density 21.507477999999999
#
# number of rings (size 3 to 8) (size 9 to 14) (size 15 to 20)
#    0.000    1.429    1.429    6.000    4.000    2.286 
#    0.000    0.000    0.000    2.571    0.000    0.000 
#    0.000    0.000    0.000    0.000    0.000    0.000 
#
# Total GULP energy -347029.628269 kJ/mol
# GULP energy per Si atom -12393.915295 kJ/mol
# Density = 2.145853 g / cm^3
# Si number density = 21.507478 Si / 1000 Ang^3
#
#
#
# Elastic Constant Matrix: (Units=GPa)
#
#
# Indices 1 2 3 4 5 6 
#
# 1 33.1137 36.8109 27.0322 0.0000 7.1336 0.0000
# 2 36.8109 156.3084 35.6911 0.0000 -2.3045 0.0000
# 3 27.0322 35.6911 90.7882 0.0000 4.0029 0.0000
# 4 0.0000 0.0000 0.0000 38.2766 0.0000 0.9921
# 5 7.1336 -2.3045 4.0029 0.0000 15.2615 0.0000
# 6 0.0000 0.0000 0.0000 0.9921 0.0000 32.3388
#
#
#
# Elastic Compliance Matrix: (Units=1/GPa)
#
#
# Indices 1 2 3 4 5 6 
#
# 1 0.057840 -0.011345 -0.011629 0.000000 -0.025699 0.000000
# 2 -0.011345 0.009303 -0.000582 0.000000 0.006860 0.000000
# 3 -0.011629 -0.000582 0.014639 0.000000 0.001508 0.000000
# 4 0.000000 0.000000 0.000000 0.026146 0.000000 -0.000802
# 5 -0.025699 0.006860 0.001508 0.000000 0.078177 0.000000
# 6 0.000000 0.000000 0.000000 -0.000802 0.000000 0.030947
#
#
# Mechanical properties :
#
#
# Convention : Reuss Voigt Hill
#
# Bulk Modulus (GPa) = 28.84217 53.25319 41.04768
# Shear Modulus (GPa) = 18.13418 29.22044 23.67731
#
# Velocity S-wave (km/s) = 2.90687 3.68994 3.32156
# Velocity P-wave (km/s) = 4.97050 6.55502 5.81697
#
# Compressibility (1/GPa) = 0.03467145
#
# Stress axis : x y z
#
# Youngs Moduli (GPa) = 17.28901 107.48756 68.30876
#
# Poissons Ratio (x) = 1.21945 0.79435
# Poissons Ratio (y) = 0.19614 0.03975
# Poissons Ratio (z) = 0.20105 0.06255
#
# Static dielectric constant tensor:
#      x y z
#    x 3.738850 0.000000 -0.006940 
#    y 0.000000 4.325710 0.000000 
#    z -0.006940 0.000000 3.667240 
# 
# 
# High freq. dielectric constant tensor:
#      x y z
#    x 1.818190 0.000000 -0.004190 
#    y 0.000000 1.870500 0.000000 
#    z -0.004190 0.000000 1.827800 
# 
# From -- ./inp_files/65904.got.cif
#   From: 2010.03.12/outbox.cif.g09.slc.cpg/sg14_33_cif.got.tgz:65904.got - 2010.03.31 13:35:05.
