data_PCOD8127800
_publ_section_title
;
Structure prediction by ZEFSAII (Michael W. Deem and Ramdas Pophale) SiO2 
 PCOD8127800
Probable space group: P 21/C
;
_chemical_formula_sum "Si O2"
_cell_formula_units_Z 20
_cell_length_a 7.020824
_cell_length_b 8.754141
_cell_length_c 15.398209
_cell_angle_alpha 90.000000
_cell_angle_beta 76.287140
_cell_angle_gamma 90.000000
_cell_volume 919.417620
_symmetry_space_group_name_H-M "P 21/C"
_symmetry_group_IT_number 14
_symmetry_cell_setting 'monoclinic'
loop_
_space_group_symop_operation_xyz
x,y,z
-x,1/2+y,1/2-z
-x,-y,-z
x,1/2-y,1/2+z
loop_
_atom_site_type_symbol
_atom_site_label
_atom_site_fract_x
_atom_site_fract_y
_atom_site_fract_z
Si Si1 0.788721 0.008318 0.211805
Si Si2 0.802225 0.443365 0.980169
Si Si3 0.434522 0.354003 0.117048
Si Si4 0.513762 0.514939 0.395701
Si Si5 0.844459 0.214206 0.819979
O O1 0.848436 0.180111 0.233532
O O2 0.612768 0.952202 0.292905
O O3 0.703835 0.006285 0.123172
O O4 0.972530 0.898276 0.201527
O O5 0.695782 0.589273 0.949566
O O6 0.855101 0.315714 0.904519
O O7 0.664163 0.372792 0.069689
O O8 0.000000 0.500000 0.000000
O O9 0.387151 0.176605 0.138882
O O10 0.500000 0.500000 0.500000
O O11 0.644292 0.381043 0.341402
#
# Coordination Sequence:
#
# PCOD8127800 Si02
#       5
#     4   4   4   4   4
#     4  11  26  44  73  98 144 178 232 283 338 411
#     4  10  23  41  70  95 139 176 225 278 346 401
#     4  10  23  44  64 101 132 180 228 277 335 407
#     4  12  25  43  70 100 140 176 228 284 342 402
#     4  11  25  45  66 106 131 188 228 279 346 405
#
# _framework density 21.752898999999999
#
# number of rings (size 3 to 8) (size 9 to 14) (size 15 to 20)
#    0.000    1.200    2.000    2.400    2.800   10.400 
#    0.000    0.000    0.000    0.000    0.000    0.000 
#    0.000    0.000    0.000    0.000    0.000    0.000 
#
# Total GULP energy -248101.205801 kJ/mol
# GULP energy per Si atom -12405.060290 kJ/mol
# Density = 2.170339 g / cm^3
# Si number density = 21.752899 Si / 1000 Ang^3
#
#
#
# Elastic Constant Matrix: (Units=GPa)
#
#
# Indices 1 2 3 4 5 6 
#
# 1 159.0148 69.0980 59.1046 0.0000 15.5630 0.0000
# 2 69.0980 152.7978 25.2805 0.0000 10.4653 0.0000
# 3 59.1046 25.2805 82.4994 0.0000 10.1750 0.0000
# 4 0.0000 0.0000 0.0000 33.2888 0.0000 -9.2736
# 5 15.5630 10.4653 10.1750 0.0000 35.2337 0.0000
# 6 0.0000 0.0000 0.0000 -9.2736 0.0000 41.8047
#
#
#
# Elastic Compliance Matrix: (Units=1/GPa)
#
#
# Indices 1 2 3 4 5 6 
#
# 1 0.010227 -0.003507 -0.006038 0.000000 -0.001732 0.000000
# 2 -0.003507 0.008173 0.000121 0.000000 -0.000913 0.000000
# 3 -0.006038 0.000121 0.016680 0.000000 -0.002186 0.000000
# 4 0.000000 0.000000 0.000000 0.032019 0.000000 0.007103
# 5 -0.001732 -0.000913 -0.002186 0.000000 0.030049 0.000000
# 6 0.000000 0.000000 0.000000 0.007103 0.000000 0.025496
#
#
# Mechanical properties :
#
#
# Convention : Reuss Voigt Hill
#
# Bulk Modulus (GPa) = 61.61348 77.91980 69.76664
# Shear Modulus (GPa) = 34.03599 38.12070 36.07835
#
# Velocity S-wave (km/s) = 3.95988 4.19076 4.07695
# Velocity P-wave (km/s) = 7.02091 7.70161 7.36913
#
# Compressibility (1/GPa) = 0.01623022
#
# Stress axis : x y z
#
# Youngs Moduli (GPa) = 97.78514 122.35230 59.95255
#
# Poissons Ratio (x) = 0.42909 0.36201
# Poissons Ratio (y) = 0.34293 -0.00723
# Poissons Ratio (z) = 0.59045 -0.01476
#
# Static dielectric constant tensor:
#      x y z
#    x 3.957280 0.000000 -0.155700 
#    y 0.000000 4.098760 0.000000 
#    z -0.155700 0.000000 4.099900 
# 
# 
# High freq. dielectric constant tensor:
#      x y z
#    x 1.855260 0.000000 0.003630 
#    y 0.000000 1.873580 0.000000 
#    z 0.003630 0.000000 1.852950 
# 
# From -- ./inp_files/52658.got.cif
#   From: 2010.03.12/outbox.cif.g09.slc.cpg/sg14_27_cif.got.tgz:52658.got - 2010.03.31 13:35:05.
