data_PCOD8127990
_publ_section_title
;
Structure prediction by ZEFSAII (Michael W. Deem and Ramdas Pophale) SiO2 
 PCOD8127990
Probable space group: P 21/C
;
_chemical_formula_sum "Si O2"
_cell_formula_units_Z 28
_cell_length_a 8.474328
_cell_length_b 11.337320
_cell_length_c 19.212988
_cell_angle_alpha 90.000000
_cell_angle_beta 41.923895
_cell_angle_gamma 90.000000
_cell_volume 1233.331858
_symmetry_space_group_name_H-M "P 21/C"
_symmetry_group_IT_number 14
_symmetry_cell_setting 'monoclinic'
loop_
_space_group_symop_operation_xyz
x,y,z
-x,1/2+y,1/2-z
-x,-y,-z
x,1/2-y,1/2+z
loop_
_atom_site_type_symbol
_atom_site_label
_atom_site_fract_x
_atom_site_fract_y
_atom_site_fract_z
Si Si1 0.309529 0.426608 0.713031
Si Si2 0.125023 0.243959 0.876673
Si Si3 0.903122 0.639682 0.359885
Si Si4 0.771422 0.565469 0.548049
Si Si5 0.112765 0.095922 0.629235
Si Si6 0.210650 0.940438 0.473255
Si Si7 0.269428 0.446145 0.225482
O O1 0.290314 0.339561 0.785001
O O2 0.256241 0.361212 0.657447
O O3 0.567692 0.477021 0.635988
O O4 0.135461 0.535688 0.775407
O O5 0.242874 0.193444 0.908823
O O6 0.104793 0.133963 0.829731
O O7 0.871991 0.307749 0.976448
O O8 0.759619 0.577858 0.469013
O O9 0.949637 0.771304 0.371929
O O10 0.157966 0.577294 0.264550
O O11 0.000000 0.500000 0.500000
O O12 0.266838 0.102176 0.648187
O O13 0.260718 0.024189 0.523095
O O14 0.449864 0.939576 0.347719
O O15 0.000000 0.000000 0.500000
#
# Coordination Sequence:
#
# PCOD8127990 Si02
#       7
#     4   4   4   4   4   4   4
#     4  10  25  46  70 100 143 184 233 284 346 421
#     4  11  25  45  71  98 138 183 224 293 345 406
#     4  11  23  45  71 103 139 183 236 285 350 416
#     4  12  26  42  66 105 139 180 235 284 352 413
#     4  10  23  44  69 103 134 182 236 281 348 415
#     4  11  26  46  69 104 139 178 237 287 353 413
#     4  11  24  45  71  98 140 188 227 287 350 415
#
# _framework density 22.702731
#
# number of rings (size 3 to 8) (size 9 to 14) (size 15 to 20)
#    0.000    1.143    2.857    1.714    6.000    3.429 
#    5.143    0.000    0.000    0.000    0.000    0.000 
#    0.000    0.000    0.000    0.000    0.000    0.000 
#
# Total GULP energy -347126.281294 kJ/mol
# GULP energy per Si atom -12397.367189 kJ/mol
# Density = 2.265106 g / cm^3
# Si number density = 22.702731 Si / 1000 Ang^3
#
#
#
# Elastic Constant Matrix: (Units=GPa)
#
#
# Indices 1 2 3 4 5 6 
#
# 1 79.3386 25.9955 42.5429 0.0000 -5.9099 0.0000
# 2 25.9955 129.7874 42.2336 0.0000 -9.9216 0.0000
# 3 42.5429 42.2336 102.5324 0.0000 0.2252 0.0000
# 4 0.0000 0.0000 0.0000 32.0201 0.0000 12.4910
# 5 -5.9099 -9.9216 0.2252 0.0000 39.9960 0.0000
# 6 0.0000 0.0000 0.0000 12.4910 0.0000 28.7327
#
#
#
# Elastic Compliance Matrix: (Units=1/GPa)
#
#
# Indices 1 2 3 4 5 6 
#
# 1 0.016572 -0.001051 -0.006448 0.000000 0.002224 0.000000
# 2 -0.001051 0.009167 -0.003345 0.000000 0.002138 0.000000
# 3 -0.006448 -0.003345 0.013810 0.000000 -0.001860 0.000000
# 4 0.000000 0.000000 0.000000 0.037608 0.000000 -0.016350
# 5 0.002224 0.002138 -0.001860 0.000000 0.025872 0.000000
# 6 0.000000 0.000000 0.000000 -0.016350 0.000000 0.041911
#
#
# Mechanical properties :
#
#
# Convention : Reuss Voigt Hill
#
# Bulk Modulus (GPa) = 55.98483 59.24471 57.61477
# Shear Modulus (GPa) = 28.97179 33.54219 31.25699
#
# Velocity S-wave (km/s) = 3.57618 3.84793 3.71454
# Velocity P-wave (km/s) = 6.46263 6.77456 6.62043
#
# Compressibility (1/GPa) = 0.01786198
#
# Stress axis : x y z
#
# Youngs Moduli (GPa) = 60.34353 109.08475 72.41037
#
# Poissons Ratio (x) = 0.11464 0.46690
# Poissons Ratio (y) = 0.06342 0.24219
# Poissons Ratio (z) = 0.38909 0.36485
#
# Static dielectric constant tensor:
#      x y z
#    x 4.064770 0.000000 0.355290 
#    y 0.000000 4.486440 0.000000 
#    z 0.355290 0.000000 4.266340 
# 
# 
# High freq. dielectric constant tensor:
#      x y z
#    x 1.884660 0.000000 0.021250 
#    y 0.000000 1.907720 0.000000 
#    z 0.021250 0.000000 1.899010 
# 
# From -- ./inp_files/65530.got.cif
#   From: 2010.03.12/outbox.cif.g09.slc.cpg/sg14_33_cif.got.tgz:65530.got - 2010.03.31 13:35:05.
