data_PCOD8127060
_publ_section_title
;
Structure prediction by ZEFSAII (Michael W. Deem and Ramdas Pophale) SiO2 
 PCOD8127060
Probable space group: P 21/C
;
_chemical_formula_sum "Si O2"
_cell_formula_units_Z 20
_cell_length_a 14.595519
_cell_length_b 5.002661
_cell_length_c 12.748917
_cell_angle_alpha 90.000000
_cell_angle_beta 89.495109
_cell_angle_gamma 90.000000
_cell_volume 930.844311
_symmetry_space_group_name_H-M "P 21/C"
_symmetry_group_IT_number 14
_symmetry_cell_setting 'monoclinic'
loop_
_space_group_symop_operation_xyz
x,y,z
-x,1/2+y,1/2-z
-x,-y,-z
x,1/2-y,1/2+z
loop_
_atom_site_type_symbol
_atom_site_label
_atom_site_fract_x
_atom_site_fract_y
_atom_site_fract_z
Si Si1 0.000199 0.972814 0.177128
Si Si2 0.266714 0.953218 0.516213
Si Si3 0.853330 0.953164 0.001301
Si Si4 0.591205 0.446104 0.161859
Si Si5 0.387815 0.054103 0.704519
O O1 0.089942 0.009458 0.105742
O O2 0.002332 0.679865 0.227339
O O3 0.911794 0.009008 0.104783
O O4 0.232274 0.653059 0.499283
O O5 0.353307 0.015067 0.442512
O O6 0.183043 0.151374 0.492742
O O7 0.300363 0.992661 0.634242
O O8 0.622047 0.644660 0.254376
O O9 0.483068 0.483399 0.139919
O O10 0.613517 0.145420 0.196877
#
# Coordination Sequence:
#
# PCOD8127060 Si02
#       5
#     4   4   4   4   4
#     4  11  24  45  66  84 120 159 188 241 304 354
#     4  12  23  39  62  90 124 152 194 253 293 336
#     4  11  26  40  61  96 116 148 205 240 290 369
#     4  10  22  39  59  86 121 162 202 238 288 348
#     4  10  22  39  59  86 121 162 202 238 288 348
#
# _framework density 21.485869999999998
#
# number of rings (size 3 to 8) (size 9 to 14) (size 15 to 20)
#    0.000    1.200    0.000    5.400    0.000   12.800 
#    0.000    8.000    0.000    0.000    0.000    0.000 
#    0.000    0.000    0.000    0.000    0.000    0.000 
#
# Total GULP energy -248152.513936 kJ/mol
# GULP energy per Si atom -12407.625697 kJ/mol
# Density = 2.143697 g / cm^3
# Si number density = 21.485870 Si / 1000 Ang^3
#
#
#
# Elastic Constant Matrix: (Units=GPa)
#
#
# Indices 1 2 3 4 5 6 
#
# 1 72.3709 14.5570 28.4045 0.0000 -0.0621 0.0000
# 2 14.5570 77.7566 5.5644 0.0000 -2.9888 0.0000
# 3 28.4045 5.5644 72.9641 0.0000 -4.8072 0.0000
# 4 0.0000 0.0000 0.0000 27.3845 0.0000 1.1955
# 5 -0.0621 -2.9888 -4.8072 0.0000 21.2720 0.0000
# 6 0.0000 0.0000 0.0000 1.1955 0.0000 39.3315
#
#
#
# Elastic Compliance Matrix: (Units=1/GPa)
#
#
# Indices 1 2 3 4 5 6 
#
# 1 0.016923 -0.002773 -0.006496 0.000000 -0.001808 0.000000
# 2 -0.002773 0.013441 0.000181 0.000000 0.001921 0.000000
# 3 -0.006496 0.000181 0.016466 0.000000 0.003728 0.000000
# 4 0.000000 0.000000 0.000000 0.036565 0.000000 -0.001111
# 5 -0.001808 0.001921 0.003728 0.000000 0.048117 0.000000
# 6 0.000000 0.000000 0.000000 -0.001111 0.000000 0.025459
#
#
# Mechanical properties :
#
#
# Convention : Reuss Voigt Hill
#
# Bulk Modulus (GPa) = 34.89841 35.57148 35.23494
# Shear Modulus (GPa) = 27.07116 29.23532 28.15324
#
# Velocity S-wave (km/s) = 3.55343 3.69274 3.62375
# Velocity P-wave (km/s) = 5.75444 5.89690 5.82611
#
# Compressibility (1/GPa) = 0.02865460
#
# Stress axis : x y z
#
# Youngs Moduli (GPa) = 59.08963 74.40108 60.73135
#
# Poissons Ratio (x) = 0.20631 0.39450
# Poissons Ratio (y) = 0.16385 -0.01100
# Poissons Ratio (z) = 0.38384 -0.01347
#
# Static dielectric constant tensor:
#      x y z
#    x 3.854800 0.000000 -0.057070 
#    y 0.000000 3.876930 0.000000 
#    z -0.057070 0.000000 3.687470 
# 
# 
# High freq. dielectric constant tensor:
#      x y z
#    x 1.849450 0.000000 -0.001540 
#    y 0.000000 1.855850 0.000000 
#    z -0.001540 0.000000 1.841330 
# 
# From -- ./inp_files/2459.got.cif
#   From: 2010.03.12/outbox.cif.g09.slc.cpg/sg14_2_cif.got.tgz:2459.got - 2010.03.31 13:35:05.
