data_PCOD8127190
_publ_section_title
;
Structure prediction by ZEFSAII (Michael W. Deem and Ramdas Pophale) SiO2 
 PCOD8127190
Probable space group: P 21/C
;
_chemical_formula_sum "Si O2"
_cell_formula_units_Z 20
_cell_length_a 7.415778
_cell_length_b 5.233679
_cell_length_c 21.510663
_cell_angle_alpha 90.000000
_cell_angle_beta 70.468973
_cell_angle_gamma 90.000000
_cell_volume 786.829795
_symmetry_space_group_name_H-M "P 21/C"
_symmetry_group_IT_number 14
_symmetry_cell_setting 'monoclinic'
loop_
_space_group_symop_operation_xyz
x,y,z
-x,1/2+y,1/2-z
-x,-y,-z
x,1/2-y,1/2+z
loop_
_atom_site_type_symbol
_atom_site_label
_atom_site_fract_x
_atom_site_fract_y
_atom_site_fract_z
Si Si1 0.751263 0.822310 0.728248
Si Si2 0.420711 0.740965 0.046204
Si Si3 0.829750 0.672074 0.497103
Si Si4 0.364871 0.677343 0.195848
Si Si5 0.012643 0.619691 0.086221
O O1 0.748119 0.064219 0.774316
O O2 0.570244 0.825858 0.704151
O O3 0.759914 0.563314 0.766854
O O4 0.941670 0.836009 0.664112
O O5 0.606209 0.939025 0.020610
O O6 0.392120 0.654996 0.119748
O O7 0.197757 0.822965 0.052178
O O8 0.500000 0.500000 0.000000
O O9 0.000000 0.500000 0.500000
O O10 0.838818 0.866127 0.556652
O O11 0.885344 0.841114 0.430024
#
# Coordination Sequence:
#
# PCOD8127190 Si02
#       5
#     4   4   4   4   4
#     4  10  22  40  69  93 133 180 226 276 341 405
#     4  10  22  44  63  98 134 171 226 281 338 405
#     4  10  22  40  65  93 133 177 225 276 337 410
#     4  10  22  42  65  98 131 179 227 277 335 412
#     4  10  22  40  63  95 129 177 223 279 342 401
#
# _framework density 25.418457
#
# number of rings (size 3 to 8) (size 9 to 14) (size 15 to 20)
#    0.000    2.000    2.000    0.000    2.800    4.000 
#    7.200    0.000    0.000    0.000    0.000    0.000 
#    0.000    0.000    0.000    0.000    0.000    0.000 
#
# Total GULP energy -247836.883434 kJ/mol
# GULP energy per Si atom -12391.844172 kJ/mol
# Density = 2.536060 g / cm^3
# Si number density = 25.418457 Si / 1000 Ang^3
#
#
#
# Elastic Constant Matrix: (Units=GPa)
#
#
# Indices 1 2 3 4 5 6 
#
# 1 174.4459 61.2657 77.6465 0.0000 -21.1059 0.0000
# 2 61.2657 135.8591 66.3461 0.0000 -19.6734 0.0000
# 3 77.6465 66.3461 177.5428 0.0000 -23.9622 0.0000
# 4 0.0000 0.0000 0.0000 32.0378 0.0000 -7.3251
# 5 -21.1059 -19.6734 -23.9622 0.0000 49.8354 0.0000
# 6 0.0000 0.0000 0.0000 -7.3251 0.0000 34.1512
#
#
#
# Elastic Compliance Matrix: (Units=1/GPa)
#
#
# Indices 1 2 3 4 5 6 
#
# 1 0.007699 -0.002113 -0.002406 0.000000 0.001270 0.000000
# 2 -0.002113 0.009788 -0.002495 0.000000 0.001770 0.000000
# 3 -0.002406 -0.002495 0.007856 0.000000 0.001774 0.000000
# 4 0.000000 0.000000 0.000000 0.032823 0.000000 0.007040
# 5 0.001270 0.001770 0.001774 0.000000 0.022155 0.000000
# 6 0.000000 0.000000 0.000000 0.007040 0.000000 0.030792
#
#
# Mechanical properties :
#
#
# Convention : Reuss Voigt Hill
#
# Bulk Modulus (GPa) = 88.37332 99.81826 94.09579
# Shear Modulus (GPa) = 38.78590 42.04416 40.41503
#
# Velocity S-wave (km/s) = 3.91051 4.07145 3.99179
# Velocity P-wave (km/s) = 7.43184 7.83948 7.63838
#
# Compressibility (1/GPa) = 0.01131563
#
# Stress axis : x y z
#
# Youngs Moduli (GPa) = 129.88462 102.16614 127.28474
#
# Poissons Ratio (x) = 0.21588 0.30627
# Poissons Ratio (y) = 0.27445 0.31754
# Poissons Ratio (z) = 0.31252 0.25488
#
# Static dielectric constant tensor:
#      x y z
#    x 2.988000 0.000000 -0.456460 
#    y 0.000000 4.919810 0.000000 
#    z -0.456460 0.000000 4.587420 
# 
# 
# High freq. dielectric constant tensor:
#      x y z
#    x 2.057230 0.000000 -0.002190 
#    y 0.000000 2.024950 0.000000 
#    z -0.002190 0.000000 2.021100 
# 
# From -- ./inp_files/64097.got.cif
#   From: 2010.03.12/outbox.cif.g09.slc.cpg/sg14_33_cif.got.tgz:64097.got - 2010.03.31 13:35:05.
