data_PCOD8127461
_publ_section_title
;
Structure prediction by ZEFSAII (Michael W. Deem and Ramdas Pophale) SiO2 
 PCOD8127461
Probable space group: P 21/C
;
_chemical_formula_sum "Si O2"
_cell_formula_units_Z 28
_cell_length_a 26.335507
_cell_length_b 8.077525
_cell_length_c 8.579565
_cell_angle_alpha 90.000000
_cell_angle_beta 143.408496
_cell_angle_gamma 90.000000
_cell_volume 1087.949228
_symmetry_space_group_name_H-M "P 21/C"
_symmetry_group_IT_number 14
_symmetry_cell_setting 'monoclinic'
loop_
_space_group_symop_operation_xyz
x,y,z
-x,1/2+y,1/2-z
-x,-y,-z
x,1/2-y,1/2+z
loop_
_atom_site_type_symbol
_atom_site_label
_atom_site_fract_x
_atom_site_fract_y
_atom_site_fract_z
Si Si1 0.874246 0.976396 0.169821
Si Si2 0.433512 0.540514 0.059282
Si Si3 0.072947 0.649931 0.637102
Si Si4 0.400725 0.869141 0.134164
Si Si5 0.748128 0.532173 0.892168
Si Si6 0.041692 0.262764 0.392148
Si Si7 0.711648 0.635154 0.148649
O O1 0.909762 0.874367 0.110943
O O2 0.893547 0.868979 0.372102
O O3 0.911164 0.158165 0.276731
O O4 0.773091 0.992117 0.892883
O O5 0.389806 0.599388 0.790750
O O6 0.382286 0.386507 0.008658
O O7 0.432103 0.683042 0.185827
O O8 0.531178 0.495053 0.271196
O O9 0.037465 0.659262 0.374511
O O10 0.996875 0.605701 0.574469
O O11 0.155420 0.533579 0.851624
O O12 0.310938 0.888541 0.823878
O O13 0.745605 0.679515 0.760320
O O14 0.711323 0.596325 0.964841
#
# Coordination Sequence:
#
# PCOD8127461 Si02
#       7
#     4   4   4   4   4   4   4
#     4  11  24  44  69 102 141 184 237 292 355 425
#     4  11  25  46  74 108 146 187 236 288 352 424
#     4  11  25  45  70 101 136 183 237 294 354 425
#     4  11  25  46  74 108 144 187 234 289 351 426
#     4  12  27  46  72 103 141 186 238 298 364 429
#     4  10  22  42  71 102 137 182 232 290 352 421
#     4  12  26  45  70 104 142 185 236 295 362 432
#
# _framework density 25.736494
#
# number of rings (size 3 to 8) (size 9 to 14) (size 15 to 20)
#    0.000    0.857    0.000    6.857    0.000   11.429 
#    0.000    7.857    0.000    0.000    0.000    0.000 
#    0.000    0.000    0.000    0.000    0.000    0.000 
#
# Total GULP energy -347329.008036 kJ/mol
# GULP energy per Si atom -12404.607430 kJ/mol
# Density = 2.567792 g / cm^3
# Si number density = 25.736494 Si / 1000 Ang^3
#
#
#
# Elastic Constant Matrix: (Units=GPa)
#
#
# Indices 1 2 3 4 5 6 
#
# 1 110.1062 28.7663 15.2321 0.0000 -3.9158 0.0000
# 2 28.7663 101.6866 6.0978 0.0000 -13.0523 0.0000
# 3 15.2321 6.0978 90.1036 0.0000 -4.2272 0.0000
# 4 0.0000 0.0000 0.0000 38.4149 0.0000 3.3676
# 5 -3.9158 -13.0523 -4.2272 0.0000 34.3582 0.0000
# 6 0.0000 0.0000 0.0000 3.3676 0.0000 37.1477
#
#
#
# Elastic Compliance Matrix: (Units=1/GPa)
#
#
# Indices 1 2 3 4 5 6 
#
# 1 0.010007 -0.002752 -0.001510 0.000000 -0.000091 0.000000
# 2 -0.002752 0.011119 -0.000104 0.000000 0.003898 0.000000
# 3 -0.001510 -0.000104 0.011417 0.000000 0.001193 0.000000
# 4 0.000000 0.000000 0.000000 0.026240 0.000000 -0.002379
# 5 -0.000091 0.003898 0.001193 0.000000 0.030722 0.000000
# 6 0.000000 0.000000 0.000000 -0.002379 0.000000 0.027135
#
#
# Mechanical properties :
#
#
# Convention : Reuss Voigt Hill
#
# Bulk Modulus (GPa) = 41.99838 44.67654 43.33746
# Shear Modulus (GPa) = 37.50687 38.77084 38.13885
#
# Velocity S-wave (km/s) = 3.82166 3.88552 3.85372
# Velocity P-wave (km/s) = 5.98560 6.12589 6.05615
#
# Compressibility (1/GPa) = 0.02381044
#
# Stress axis : x y z
#
# Youngs Moduli (GPa) = 99.93277 89.93468 87.59198
#
# Poissons Ratio (x) = 0.24749 0.13223
# Poissons Ratio (y) = 0.27501 0.00915
# Poissons Ratio (z) = 0.15087 0.00939
#
# Static dielectric constant tensor:
#      x y z
#    x 4.768650 0.000000 -0.026140 
#    y 0.000000 4.855330 0.000000 
#    z -0.026140 0.000000 5.114910 
# 
# 
# High freq. dielectric constant tensor:
#      x y z
#    x 2.040950 0.000000 -0.008600 
#    y 0.000000 2.047620 0.000000 
#    z -0.008600 0.000000 2.038950 
# 
# From -- ./inp_files/19758.got.cif
#   From: 2010.03.12/outbox.cif.g09.slc.cpg/sg14_10_cif.got.tgz:19758.got - 2010.03.31 13:35:05.
