data_PCOD8127725
_publ_section_title
;
Structure prediction by ZEFSAII (Michael W. Deem and Ramdas Pophale) SiO2 
 PCOD8127725
Probable space group: P 21/C
;
_chemical_formula_sum "Si O2"
_cell_formula_units_Z 28
_cell_length_a 6.642352
_cell_length_b 28.595384
_cell_length_c 9.229524
_cell_angle_alpha 90.000000
_cell_angle_beta 130.953042
_cell_angle_gamma 90.000000
_cell_volume 1323.994375
_symmetry_space_group_name_H-M "P 21/C"
_symmetry_group_IT_number 14
_symmetry_cell_setting 'monoclinic'
loop_
_space_group_symop_operation_xyz
x,y,z
-x,1/2+y,1/2-z
-x,-y,-z
x,1/2-y,1/2+z
loop_
_atom_site_type_symbol
_atom_site_label
_atom_site_fract_x
_atom_site_fract_y
_atom_site_fract_z
Si Si1 0.019541 0.149961 0.066232
Si Si2 0.859841 0.047848 0.982367
Si Si3 0.442604 0.306378 0.266238
Si Si4 0.182164 0.944343 0.709327
Si Si5 0.603971 0.983759 0.396419
Si Si6 0.449651 0.289071 0.605719
Si Si7 0.967465 0.157536 0.372190
O O1 0.041256 0.094028 0.047536
O O2 0.725222 0.167902 0.883317
O O3 0.085600 0.159782 0.265418
O O4 0.238764 0.175291 0.074062
O O5 0.599340 0.054586 0.761102
O O6 0.753383 0.043398 0.095228
O O7 0.000000 0.000000 0.000000
O O8 0.401224 0.289866 0.410940
O O9 0.408169 0.262988 0.142053
O O10 0.202084 0.340358 0.102149
O O11 0.204718 0.889527 0.688271
O O12 0.883624 0.959190 0.534606
O O13 0.390550 0.970942 0.705497
O O14 0.500000 0.000000 0.500000
O O15 0.752071 0.301479 0.792569
#
# Coordination Sequence:
#
# PCOD8127725 Si02
#       7
#     4   4   4   4   4   4   4
#     4  10  24  42  63  95 128 164 214 259 314 381
#     4  11  22  40  63  89 127 170 207 260 313 367
#     4  11  23  43  64  93 126 160 205 259 322 378
#     4  10  23  40  60  88 125 164 208 262 309 370
#     4  11  22  38  59  88 120 165 213 254 310 368
#     4  11  24  40  66  93 122 162 206 255 317 383
#     4  10  23  41  64  91 125 163 206 260 315 372
#
# _framework density 21.148125
#
# number of rings (size 3 to 8) (size 9 to 14) (size 15 to 20)
#    0.000    1.429    1.429    3.000    2.000    5.714 
#    2.571    0.000    0.000    0.000    0.000    0.000 
#    0.000    0.000    0.000    0.000    0.000    0.000 
#
# Total GULP energy -347242.302797 kJ/mol
# GULP energy per Si atom -12401.510814 kJ/mol
# Density = 2.109999 g / cm^3
# Si number density = 21.148125 Si / 1000 Ang^3
#
#
#
# Elastic Constant Matrix: (Units=GPa)
#
#
# Indices 1 2 3 4 5 6 
#
# 1 75.5606 32.9287 25.4619 0.0000 -12.3552 0.0000
# 2 32.9287 94.1976 14.2472 0.0000 -16.4897 0.0000
# 3 25.4619 14.2472 123.3895 0.0000 -5.4714 0.0000
# 4 0.0000 0.0000 0.0000 30.7326 0.0000 -1.3753
# 5 -12.3552 -16.4897 -5.4714 0.0000 31.4285 0.0000
# 6 0.0000 0.0000 0.0000 -1.3753 0.0000 33.9192
#
#
#
# Elastic Compliance Matrix: (Units=1/GPa)
#
#
# Indices 1 2 3 4 5 6 
#
# 1 0.016867 -0.004847 -0.002761 0.000000 0.003607 0.000000
# 2 -0.004847 0.013229 -0.000306 0.000000 0.004982 0.000000
# 3 -0.002761 -0.000306 0.008722 0.000000 0.000272 0.000000
# 4 0.000000 0.000000 0.000000 0.032598 0.000000 0.001322
# 5 0.003607 0.004982 0.000272 0.000000 0.035898 0.000000
# 6 0.000000 0.000000 0.000000 0.001322 0.000000 0.029535
#
#
# Mechanical properties :
#
#
# Convention : Reuss Voigt Hill
#
# Bulk Modulus (GPa) = 43.50002 48.71369 46.10686
# Shear Modulus (GPa) = 31.18375 33.91672 32.55023
#
# Velocity S-wave (km/s) = 3.84414 4.00905 3.92746
# Velocity P-wave (km/s) = 6.34957 6.67192 6.51274
#
# Compressibility (1/GPa) = 0.02298849
#
# Stress axis : x y z
#
# Youngs Moduli (GPa) = 59.28765 75.59225 114.65807
#
# Poissons Ratio (x) = 0.36641 0.31656
# Poissons Ratio (y) = 0.28738 0.03512
# Poissons Ratio (z) = 0.16369 0.02316
#
# Static dielectric constant tensor:
#      x y z
#    x 3.737440 0.000000 -0.042870 
#    y 0.000000 3.938010 0.000000 
#    z -0.042870 0.000000 4.028280 
# 
# 
# High freq. dielectric constant tensor:
#      x y z
#    x 1.825770 0.000000 0.001510 
#    y 0.000000 1.837540 0.000000 
#    z 0.001510 0.000000 1.843510 
# 
# From -- ./inp_files/6732.got.cif
#   From: 2010.03.12/outbox.cif.g09.slc.cpg/sg14_4_cif.got.tgz:6732.got - 2010.03.31 13:35:05.
