data_PCOD8127439
_publ_section_title
;
Structure prediction by ZEFSAII (Michael W. Deem and Ramdas Pophale) SiO2 
 PCOD8127439
Probable space group: P 21/C
;
_chemical_formula_sum "Si O2"
_cell_formula_units_Z 28
_cell_length_a 21.429439
_cell_length_b 8.493720
_cell_length_c 8.937620
_cell_angle_alpha 90.000000
_cell_angle_beta 49.454767
_cell_angle_gamma 90.000000
_cell_volume 1236.183888
_symmetry_space_group_name_H-M "P 21/C"
_symmetry_group_IT_number 14
_symmetry_cell_setting 'monoclinic'
loop_
_space_group_symop_operation_xyz
x,y,z
-x,1/2+y,1/2-z
-x,-y,-z
x,1/2-y,1/2+z
loop_
_atom_site_type_symbol
_atom_site_label
_atom_site_fract_x
_atom_site_fract_y
_atom_site_fract_z
Si Si1 0.241352 0.535060 0.452735
Si Si2 0.778994 0.333229 0.189818
Si Si3 0.085620 0.341411 0.742175
Si Si4 0.381507 0.520433 0.674512
Si Si5 0.404423 0.342163 0.154410
Si Si6 0.491359 0.990453 0.266333
Si Si7 0.934258 0.538156 0.901013
O O1 0.221243 0.646786 0.342733
O O2 0.234296 0.637681 0.614427
O O3 0.177143 0.392085 0.552844
O O4 0.332034 0.465709 0.297182
O O5 0.707866 0.407978 0.199434
O O6 0.864522 0.405723 0.001587
O O7 0.073576 0.157842 0.724764
O O8 0.021316 0.451170 0.754232
O O9 0.072459 0.357713 0.939216
O O10 0.370573 0.333158 0.707693
O O11 0.435267 0.566166 0.445769
O O12 0.426565 0.590036 0.751967
O O13 0.473966 0.360377 0.173227
O O14 0.445301 0.372195 0.929495
#
# Coordination Sequence:
#
# PCOD8127439 Si02
#       7
#     4   4   4   4   4   4   4
#     4  11  25  42  62  94 129 166 210 261 314 374
#     4  11  25  42  62  94 129 166 210 261 314 374
#     4  10  22  42  68  98 132 169 211 257 310 372
#     4  11  23  43  65  90 123 164 210 264 312 381
#     4  11  23  43  65  90 123 164 210 264 312 381
#     4  10  24  40  62  94 120 162 208 262 322 372
#     4  10  22  42  68  98 132 169 211 257 310 372
#
# _framework density 22.650352000000002
#
# number of rings (size 3 to 8) (size 9 to 14) (size 15 to 20)
#    0.000    1.429    1.429    2.571    2.000    8.571 
#    0.000    0.000    0.000    0.000    0.000    0.000 
#    0.000    0.000    0.000    0.000    0.000    0.000 
#
# Total GULP energy -347337.092573 kJ/mol
# GULP energy per Si atom -12404.896163 kJ/mol
# Density = 2.259880 g / cm^3
# Si number density = 22.650352 Si / 1000 Ang^3
#
#
#
# Elastic Constant Matrix: (Units=GPa)
#
#
# Indices 1 2 3 4 5 6 
#
# 1 91.4456 0.6452 29.6992 0.0000 -9.5593 0.0000
# 2 0.6452 63.0813 18.6732 0.0000 -3.8599 0.0000
# 3 29.6992 18.6732 81.4452 0.0000 2.9845 0.0000
# 4 0.0000 0.0000 0.0000 23.9554 0.0000 3.4402
# 5 -9.5593 -3.8599 2.9845 0.0000 24.2969 0.0000
# 6 0.0000 0.0000 0.0000 3.4402 0.0000 34.7049
#
#
#
# Elastic Compliance Matrix: (Units=1/GPa)
#
#
# Indices 1 2 3 4 5 6 
#
# 1 0.013373 0.001884 -0.005537 0.000000 0.006241 0.000000
# 2 0.001884 0.017523 -0.004856 0.000000 0.004122 0.000000
# 3 -0.005537 -0.004856 0.015589 0.000000 -0.004865 0.000000
# 4 0.000000 0.000000 0.000000 0.042347 0.000000 -0.004198
# 5 0.006241 0.004122 -0.004865 0.000000 0.044865 0.000000
# 6 0.000000 0.000000 0.000000 -0.004198 0.000000 0.029230
#
#
# Mechanical properties :
#
#
# Convention : Reuss Voigt Hill
#
# Bulk Modulus (GPa) = 33.93574 37.11190 35.52382
# Shear Modulus (GPa) = 26.34811 29.05508 27.70160
#
# Velocity S-wave (km/s) = 3.41435 3.58546 3.50095
# Velocity P-wave (km/s) = 5.52799 5.79318 5.66214
#
# Compressibility (1/GPa) = 0.02946745
#
# Stress axis : x y z
#
# Youngs Moduli (GPa) = 74.77815 57.06837 64.14842
#
# Poissons Ratio (x) = -0.10753 0.35520
# Poissons Ratio (y) = -0.14090 0.31148
# Poissons Ratio (z) = 0.41406 0.27710
#
# Static dielectric constant tensor:
#      x y z
#    x 4.303290 0.000000 0.020900 
#    y 0.000000 3.828770 0.000000 
#    z 0.020900 0.000000 4.065860 
# 
# 
# High freq. dielectric constant tensor:
#      x y z
#    x 1.904680 0.000000 -0.001100 
#    y 0.000000 1.886130 0.000000 
#    z -0.001100 0.000000 1.894940 
# 
# From -- ./inp_files/18697.got.cif
#   From: 2010.03.12/outbox.cif.g09.slc.cpg/sg14_10_cif.got.tgz:18697.got - 2010.03.31 13:35:05.
