data_PCOD8127408
_publ_section_title
;
Structure prediction by ZEFSAII (Michael W. Deem and Ramdas Pophale) SiO2 
 PCOD8127408
Probable space group: P 21/C
;
_chemical_formula_sum "Si O2"
_cell_formula_units_Z 32
_cell_length_a 18.034495
_cell_length_b 6.471910
_cell_length_c 12.995772
_cell_angle_alpha 90.000000
_cell_angle_beta 91.618596
_cell_angle_gamma 90.000000
_cell_volume 1516.230472
_symmetry_space_group_name_H-M "P 21/C"
_symmetry_group_IT_number 14
_symmetry_cell_setting 'monoclinic'
loop_
_space_group_symop_operation_xyz
x,y,z
-x,1/2+y,1/2-z
-x,-y,-z
x,1/2-y,1/2+z
loop_
_atom_site_type_symbol
_atom_site_label
_atom_site_fract_x
_atom_site_fract_y
_atom_site_fract_z
Si Si1 0.541243 0.970983 0.896146
Si Si2 0.206178 0.020089 0.623997
Si Si3 0.668973 0.228726 0.838413
Si Si4 0.147975 0.402330 0.901952
Si Si5 0.579424 0.889351 0.261857
Si Si6 0.278312 0.156924 0.266913
Si Si7 0.984845 0.580206 0.612381
Si Si8 0.099677 0.728287 0.257840
O O1 0.555506 0.731487 0.865794
O O2 0.621127 0.081912 0.911063
O O3 0.494256 0.088927 0.807697
O O4 0.500000 0.000000 0.000000
O O5 0.270150 0.856487 0.594757
O O6 0.160157 0.931665 0.718373
O O7 0.154656 0.055463 0.523554
O O8 0.243011 0.233092 0.664406
O O9 0.613021 0.386094 0.781561
O O10 0.711491 0.086401 0.756253
O O11 0.224968 0.306169 0.862905
O O12 0.079230 0.250522 0.885592
O O13 0.135907 0.609210 0.836649
O O14 0.641236 0.753526 0.203916
O O15 0.964034 0.387895 0.682329
O O16 0.000000 0.500000 0.500000
O O17 0.062475 0.666014 0.657358
#
# Coordination Sequence:
#
# PCOD8127408 Si02
#       8
#     4   4   4   4   4   4   4   4
#     4  11  23  41  68  97 134 179 223 273 340 399
#     4  11  25  43  68  98 133 174 231 272 335 405
#     4  10  22  44  66  96 140 171 220 286 333 398
#     4  12  26  44  73  99 133 184 220 280 344 401
#     4  10  22  42  65  98 138 175 224 279 329 402
#     4  10  23  43  67  96 137 175 223 281 334 401
#     4  12  28  44  71 102 136 178 226 276 343 408
#     4  12  25  47  68 100 137 176 223 283 334 409
#
# _framework density 21.104970999999999
#
# number of rings (size 3 to 8) (size 9 to 14) (size 15 to 20)
#    0.000    1.000    5.000    0.750    3.500    6.500 
#    0.000    0.000    0.000    0.000    0.000    0.000 
#    0.000    0.000    0.000    0.000    0.000    0.000 
#
# Total GULP energy -396835.891844 kJ/mol
# GULP energy per Si atom -12401.121620 kJ/mol
# Density = 2.105694 g / cm^3
# Si number density = 21.104971 Si / 1000 Ang^3
#
#
#
# Elastic Constant Matrix: (Units=GPa)
#
#
# Indices 1 2 3 4 5 6 
#
# 1 80.5244 27.2538 20.9831 0.0000 -7.8420 0.0000
# 2 27.2538 107.3034 37.5836 0.0000 -3.5902 0.0000
# 3 20.9831 37.5836 91.9910 0.0000 -8.7421 0.0000
# 4 0.0000 0.0000 0.0000 31.6144 0.0000 -0.8382
# 5 -7.8420 -3.5902 -8.7421 0.0000 35.1068 0.0000
# 6 0.0000 0.0000 0.0000 -0.8382 0.0000 44.7119
#
#
#
# Elastic Compliance Matrix: (Units=1/GPa)
#
#
# Indices 1 2 3 4 5 6 
#
# 1 0.014095 -0.002863 -0.001817 0.000000 0.002403 0.000000
# 2 -0.002863 0.011457 -0.004074 0.000000 -0.000482 0.000000
# 3 -0.001817 -0.004074 0.013183 0.000000 0.002460 0.000000
# 4 0.000000 0.000000 0.000000 0.031647 0.000000 0.000593
# 5 0.002403 -0.000482 0.002460 0.000000 0.029585 0.000000
# 6 0.000000 0.000000 0.000000 0.000593 0.000000 0.022377
#
#
# Mechanical properties :
#
#
# Convention : Reuss Voigt Hill
#
# Bulk Modulus (GPa) = 47.10758 50.16221 48.63490
# Shear Modulus (GPa) = 34.03039 35.21982 34.62511
#
# Velocity S-wave (km/s) = 4.01987 4.08952 4.05484
# Velocity P-wave (km/s) = 6.62683 6.79106 6.70944
#
# Compressibility (1/GPa) = 0.02122801
#
# Stress axis : x y z
#
# Youngs Moduli (GPa) = 70.94628 87.28064 75.85401
#
# Poissons Ratio (x) = 0.24990 0.13782
# Poissons Ratio (y) = 0.20313 0.30901
# Poissons Ratio (z) = 0.12890 0.35556
#
# Static dielectric constant tensor:
#      x y z
#    x 4.163760 0.000000 -0.156750 
#    y 0.000000 4.070300 0.000000 
#    z -0.156750 0.000000 3.602200 
# 
# 
# High freq. dielectric constant tensor:
#      x y z
#    x 1.851280 0.000000 -0.006430 
#    y 0.000000 1.841440 0.000000 
#    z -0.006430 0.000000 1.798670 
# 
# From -- ./inp_files/34718.got.cif
#   From: 2010.03.12/outbox.cif.g09.slc.cpg/sg14_18_cif.got.tgz:34718.got - 2010.03.31 13:35:05.
