data_PCOD8127742
_publ_section_title
;
Structure prediction by ZEFSAII (Michael W. Deem and Ramdas Pophale) SiO2 
 PCOD8127742
Probable space group: P 21/C
;
_chemical_formula_sum "Si O2"
_cell_formula_units_Z 28
_cell_length_a 29.291649
_cell_length_b 8.610142
_cell_length_c 29.250557
_cell_angle_alpha 90.000000
_cell_angle_beta 169.913430
_cell_angle_gamma 90.000000
_cell_volume 1292.003211
_symmetry_space_group_name_H-M "P 21/C"
_symmetry_group_IT_number 14
_symmetry_cell_setting 'monoclinic'
loop_
_space_group_symop_operation_xyz
x,y,z
-x,1/2+y,1/2-z
-x,-y,-z
x,1/2-y,1/2+z
loop_
_atom_site_type_symbol
_atom_site_label
_atom_site_fract_x
_atom_site_fract_y
_atom_site_fract_z
Si Si1 0.728031 0.571965 0.300844
Si Si2 0.993248 0.317520 0.185241
Si Si3 0.241346 0.767678 0.791727
Si Si4 0.232964 0.721198 0.181295
Si Si5 0.198116 0.022907 0.426089
Si Si6 0.265155 0.518111 0.589763
Si Si7 0.752178 0.586018 0.654755
O O1 0.750740 0.406235 0.299373
O O2 0.683745 0.556244 0.311070
O O3 0.983427 0.668455 0.542653
O O4 0.486102 0.657902 0.040279
O O5 0.156468 0.210029 0.382213
O O6 0.183678 0.389750 0.335222
O O7 0.854817 0.459068 0.075252
O O8 0.777420 0.205730 0.947967
O O9 0.253301 0.843229 0.753016
O O10 0.240884 0.903310 0.828621
O O11 0.463295 0.650127 0.378139
O O12 0.955281 0.676158 0.886773
O O13 0.490195 0.977745 0.700886
O O14 0.993587 0.944049 0.188619
#
# Coordination Sequence:
#
# PCOD8127742 Si02
#       7
#     4   4   4   4   4   4   4
#     4  12  23  44  67  99 137 179 227 282 329 403
#     4  10  25  43  68  94 129 169 224 263 348 392
#     4  12  26  41  66 108 134 179 233 283 329 390
#     4  12  23  45  70  95 140 186 227 276 338 404
#     4  10  23  40  66  94 123 169 216 272 325 410
#     4  10  23  41  64  92 129 169 215 261 347 384
#     4  12  25  44  69  97 138 182 220 282 340 408
#
# _framework density 21.671772000000001
#
# number of rings (size 3 to 8) (size 9 to 14) (size 15 to 20)
#    0.857    0.000    1.429    6.000    2.000    2.286 
#    0.000    0.000    0.000    0.000    0.000    0.000 
#    0.000    0.000    0.000    0.000    0.000    0.000 
#
# Total GULP energy -347240.027737 kJ/mol
# GULP energy per Si atom -12401.429562 kJ/mol
# Density = 2.162245 g / cm^3
# Si number density = 21.671772 Si / 1000 Ang^3
#
#
#
# Elastic Constant Matrix: (Units=GPa)
#
#
# Indices 1 2 3 4 5 6 
#
# 1 114.7384 15.3749 -4.3107 0.0000 26.4715 0.0000
# 2 15.3749 90.3420 23.7953 0.0000 7.8792 0.0000
# 3 -4.3107 23.7953 96.9041 0.0000 18.2497 0.0000
# 4 0.0000 0.0000 0.0000 31.0731 0.0000 0.9445
# 5 26.4715 7.8792 18.2497 0.0000 37.5230 0.0000
# 6 0.0000 0.0000 0.0000 0.9445 0.0000 43.8001
#
#
#
# Elastic Compliance Matrix: (Units=1/GPa)
#
#
# Indices 1 2 3 4 5 6 
#
# 1 0.011053 -0.001801 0.002566 0.000000 -0.008667 0.000000
# 2 -0.001801 0.012176 -0.003113 0.000000 0.000228 0.000000
# 3 0.002566 -0.003113 0.012567 0.000000 -0.007269 0.000000
# 4 0.000000 0.000000 0.000000 0.032203 0.000000 -0.000694
# 5 -0.008667 0.000228 -0.007269 0.000000 0.036252 0.000000
# 6 0.000000 0.000000 0.000000 -0.000694 0.000000 0.022846
#
#
# Mechanical properties :
#
#
# Convention : Reuss Voigt Hill
#
# Bulk Modulus (GPa) = 32.15412 41.30041 36.72727
# Shear Modulus (GPa) = 35.17186 40.28755 37.72971
#
# Velocity S-wave (km/s) = 4.03294 4.31628 4.17701
# Velocity P-wave (km/s) = 6.04609 6.62864 6.34406
#
# Compressibility (1/GPa) = 0.03110021
#
# Stress axis : x y z
#
# Youngs Moduli (GPa) = 90.47385 82.13162 79.57397
#
# Poissons Ratio (x) = 0.14792 -0.20421
# Poissons Ratio (y) = 0.16295 0.24770
# Poissons Ratio (z) = -0.23218 0.25566
#
# Static dielectric constant tensor:
#      x y z
#    x 3.834930 0.000000 0.098320 
#    y 0.000000 3.834350 0.000000 
#    z 0.098320 0.000000 3.794500 
# 
# 
# High freq. dielectric constant tensor:
#      x y z
#    x 1.857690 0.000000 0.006640 
#    y 0.000000 1.843160 0.000000 
#    z 0.006640 0.000000 1.862320 
# 
# From -- ./inp_files/80928.got.cif
#   From: 2010.03.12/outbox.cif.g09.slc.cpg/sg14_41_cif.got.tgz:80928.got - 2010.03.31 13:35:05.
