data_PCOD8127789
_publ_section_title
;
Structure prediction by ZEFSAII (Michael W. Deem and Ramdas Pophale) SiO2 
 PCOD8127789
Probable space group: P 21/C
;
_chemical_formula_sum "Si O2"
_cell_formula_units_Z 24
_cell_length_a 10.874500
_cell_length_b 11.029422
_cell_length_c 18.064884
_cell_angle_alpha 90.000000
_cell_angle_beta 31.934655
_cell_angle_gamma 90.000000
_cell_volume 1146.075618
_symmetry_space_group_name_H-M "P 21/C"
_symmetry_group_IT_number 14
_symmetry_cell_setting 'monoclinic'
loop_
_space_group_symop_operation_xyz
x,y,z
-x,1/2+y,1/2-z
-x,-y,-z
x,1/2-y,1/2+z
loop_
_atom_site_type_symbol
_atom_site_label
_atom_site_fract_x
_atom_site_fract_y
_atom_site_fract_z
Si Si1 0.163417 0.300942 0.600005
Si Si2 0.373590 0.450410 0.992052
Si Si3 0.805809 0.102083 0.177871
Si Si4 0.040645 0.384635 0.823441
Si Si5 0.487771 0.504513 0.419124
Si Si6 0.898639 0.362191 0.465107
O O1 0.224553 0.165595 0.592593
O O2 0.381113 0.373377 0.450057
O O3 0.950871 0.299946 0.651023
O O4 0.079097 0.368258 0.716615
O O5 0.545786 0.407169 0.840313
O O6 0.500000 0.500000 0.000000
O O7 0.204270 0.548361 0.041345
O O8 0.793699 0.150442 0.100691
O O9 0.914536 0.969152 0.131032
O O10 0.256406 0.465730 0.744750
O O11 0.030404 0.259497 0.873569
O O12 0.500000 0.500000 0.500000
O O13 0.312093 0.610913 0.483529
#
# Coordination Sequence:
#
# PCOD8127789 Si02
#       6
#     4   4   4   4   4   4
#     4  10  23  41  67  92 137 166 215 279 324 389
#     4  12  25  40  69 101 129 171 222 275 329 395
#     4  10  23  46  65  95 131 177 215 266 340 388
#     4  11  24  38  71  97 126 167 224 268 329 395
#     4   9  22  40  63  97 128 172 217 271 326 384
#     4  10  23  44  68  91 134 176 216 273 329 397
#
# _framework density 20.941026000000001
#
# number of rings (size 3 to 8) (size 9 to 14) (size 15 to 20)
#    0.000    1.667    1.667    1.000   14.000    1.333 
#    6.000    1.667    0.000    0.000    0.000    0.000 
#    0.000    0.000    0.000    0.000    0.000    0.000 
#
# Total GULP energy -297609.621707 kJ/mol
# GULP energy per Si atom -12400.400904 kJ/mol
# Density = 2.089336 g / cm^3
# Si number density = 20.941026 Si / 1000 Ang^3
#
#
#
# Elastic Constant Matrix: (Units=GPa)
#
#
# Indices 1 2 3 4 5 6 
#
# 1 103.0718 39.2680 51.9176 0.0000 -4.4697 0.0000
# 2 39.2680 104.0474 30.5480 0.0000 -8.0718 0.0000
# 3 51.9176 30.5480 96.9507 0.0000 -5.3741 0.0000
# 4 0.0000 0.0000 0.0000 34.4778 0.0000 0.2829
# 5 -4.4697 -8.0718 -5.3741 0.0000 33.0259 0.0000
# 6 0.0000 0.0000 0.0000 0.2829 0.0000 26.6716
#
#
#
# Elastic Compliance Matrix: (Units=1/GPa)
#
#
# Indices 1 2 3 4 5 6 
#
# 1 0.014345 -0.003479 -0.006584 0.000000 0.000020 0.000000
# 2 -0.003479 0.011576 -0.001669 0.000000 0.002087 0.000000
# 3 -0.006584 -0.001669 0.014424 0.000000 0.001048 0.000000
# 4 0.000000 0.000000 0.000000 0.029007 0.000000 -0.000308
# 5 0.000020 0.002087 0.001048 0.000000 0.030962 0.000000
# 6 0.000000 0.000000 0.000000 -0.000308 0.000000 0.037496
#
#
# Mechanical properties :
#
#
# Convention : Reuss Voigt Hill
#
# Bulk Modulus (GPa) = 59.23923 60.83745 60.03834
# Shear Modulus (GPa) = 29.95768 30.99081 30.47425
#
# Velocity S-wave (km/s) = 3.78640 3.85113 3.81890
# Velocity P-wave (km/s) = 6.88954 6.99213 6.94102
#
# Compressibility (1/GPa) = 0.01688071
#
# Stress axis : x y z
#
# Youngs Moduli (GPa) = 69.71116 86.38679 69.32699
#
# Poissons Ratio (x) = 0.30055 0.45648
# Poissons Ratio (y) = 0.24253 0.11568
# Poissons Ratio (z) = 0.45901 0.14415
#
# Static dielectric constant tensor:
#      x y z
#    x 3.882390 0.000000 -0.251690 
#    y 0.000000 3.844960 0.000000 
#    z -0.251690 0.000000 3.916950 
# 
# 
# High freq. dielectric constant tensor:
#      x y z
#    x 1.819220 0.000000 -0.014930 
#    y 0.000000 1.818500 0.000000 
#    z -0.014930 0.000000 1.815520 
# 
# From -- ./inp_files/28753.got.cif
#   From: 2010.03.12/outbox.cif.g09.slc.cpg/sg14_15_cif.got.tgz:28753.got - 2010.03.31 13:35:05.
