data_PCOD8127946
_publ_section_title
;
Structure prediction by ZEFSAII (Michael W. Deem and Ramdas Pophale) SiO2 
 PCOD8127946
Probable space group: P 21/C
;
_chemical_formula_sum "Si O2"
_cell_formula_units_Z 24
_cell_length_a 8.408307
_cell_length_b 11.241063
_cell_length_c 12.155515
_cell_angle_alpha 90.000000
_cell_angle_beta 109.082501
_cell_angle_gamma 90.000000
_cell_volume 1085.784263
_symmetry_space_group_name_H-M "P 21/C"
_symmetry_group_IT_number 14
_symmetry_cell_setting 'monoclinic'
loop_
_space_group_symop_operation_xyz
x,y,z
-x,1/2+y,1/2-z
-x,-y,-z
x,1/2-y,1/2+z
loop_
_atom_site_type_symbol
_atom_site_label
_atom_site_fract_x
_atom_site_fract_y
_atom_site_fract_z
Si Si1 0.308618 0.184488 0.910573
Si Si2 0.192668 0.024248 0.069327
Si Si3 0.232798 0.545909 0.265354
Si Si4 0.681992 0.201288 0.021844
Si Si5 0.159502 0.081161 0.306690
Si Si6 0.820271 0.058872 0.486860
O O1 0.176280 0.278141 0.830671
O O2 0.317089 0.071946 0.832092
O O3 0.248860 0.142930 0.017632
O O4 0.491524 0.246636 0.960877
O O5 0.235200 0.044656 0.206547
O O6 0.296111 0.910864 0.052996
O O7 0.000000 0.000000 0.000000
O O8 0.297189 0.661367 0.346346
O O9 0.288187 0.553862 0.150075
O O10 0.032772 0.539790 0.234793
O O11 0.820122 0.302581 0.024179
O O12 0.258678 0.014523 0.428820
O O13 0.000000 0.000000 0.500000
#
# Coordination Sequence:
#
# PCOD8127946 Si02
#       6
#     4   4   4   4   4   4
#     4  11  26  44  68 104 138 180 230 294 348 411
#     4  11  23  43  73  98 132 188 238 275 346 427
#     4  10  23  43  71  95 141 179 233 282 345 415
#     4  11  25  45  70  99 141 181 227 290 356 403
#     4  11  25  40  73 101 136 178 237 280 349 411
#     4  10  26  42  70 105 137 179 232 290 341 416
#
# _framework density 22.103836000000001
#
# number of rings (size 3 to 8) (size 9 to 14) (size 15 to 20)
#    0.000    1.333    3.333    2.000   14.000    3.333 
#    0.000    0.000    0.000    0.000    0.000    0.000 
#    0.000    0.000    0.000    0.000    0.000    0.000 
#
# Total GULP energy -297534.043223 kJ/mol
# GULP energy per Si atom -12397.251801 kJ/mol
# Density = 2.205353 g / cm^3
# Si number density = 22.103836 Si / 1000 Ang^3
#
#
#
# Elastic Constant Matrix: (Units=GPa)
#
#
# Indices 1 2 3 4 5 6 
#
# 1 77.6276 26.9651 31.2075 0.0000 2.6089 0.0000
# 2 26.9651 115.6730 61.1669 0.0000 -10.0288 0.0000
# 3 31.2075 61.1669 196.5807 0.0000 -38.3446 0.0000
# 4 0.0000 0.0000 0.0000 24.2652 0.0000 0.6163
# 5 2.6089 -10.0288 -38.3446 0.0000 35.1971 0.0000
# 6 0.0000 0.0000 0.0000 0.6163 0.0000 28.5313
#
#
#
# Elastic Compliance Matrix: (Units=1/GPa)
#
#
# Indices 1 2 3 4 5 6 
#
# 1 0.014910 -0.002573 -0.002444 0.000000 -0.004501 0.000000
# 2 -0.002573 0.010806 -0.002941 0.000000 0.000066 0.000000
# 3 -0.002444 -0.002941 0.007952 0.000000 0.008006 0.000000
# 4 0.000000 0.000000 0.000000 0.041234 0.000000 -0.000891
# 5 -0.004501 0.000066 0.008006 0.000000 0.037486 0.000000
# 6 0.000000 0.000000 0.000000 -0.000891 0.000000 0.035068
#
#
# Mechanical properties :
#
#
# Convention : Reuss Voigt Hill
#
# Bulk Modulus (GPa) = 56.33748 69.84004 63.08876
# Shear Modulus (GPa) = 29.53524 35.63484 32.58504
#
# Velocity S-wave (km/s) = 3.65938 4.01952 3.84367
# Velocity P-wave (km/s) = 6.58769 7.29431 6.94999
#
# Compressibility (1/GPa) = 0.01775017
#
# Stress axis : x y z
#
# Youngs Moduli (GPa) = 67.06974 92.54288 125.75943
#
# Poissons Ratio (x) = 0.23816 0.30738
# Poissons Ratio (y) = 0.17260 0.36984
# Poissons Ratio (z) = 0.16393 0.27216
#
# Static dielectric constant tensor:
#      x y z
#    x 3.867570 0.000000 -0.413780 
#    y 0.000000 3.926550 0.000000 
#    z -0.413780 0.000000 4.873540 
# 
# 
# High freq. dielectric constant tensor:
#      x y z
#    x 1.850740 0.000000 -0.008970 
#    y 0.000000 1.865730 0.000000 
#    z -0.008970 0.000000 1.889170 
# 
# From -- ./inp_files/24280.got.cif
#   From: 2010.03.12/outbox.cif.g09.slc.cpg/sg14_13_cif.got.tgz:24280.got - 2010.03.31 13:35:05.
