data_PCOD8127828
_publ_section_title
;
Structure prediction by ZEFSAII (Michael W. Deem and Ramdas Pophale) SiO2 
 PCOD8127828
Probable space group: P 21/C
;
_chemical_formula_sum "Si O2"
_cell_formula_units_Z 20
_cell_length_a 7.300538
_cell_length_b 5.242308
_cell_length_c 20.707659
_cell_angle_alpha 90.000000
_cell_angle_beta 93.752247
_cell_angle_gamma 90.000000
_cell_volume 790.817794
_symmetry_space_group_name_H-M "P 21/C"
_symmetry_group_IT_number 14
_symmetry_cell_setting 'monoclinic'
loop_
_space_group_symop_operation_xyz
x,y,z
-x,1/2+y,1/2-z
-x,-y,-z
x,1/2-y,1/2+z
loop_
_atom_site_type_symbol
_atom_site_label
_atom_site_fract_x
_atom_site_fract_y
_atom_site_fract_z
Si Si1 0.213986 0.647147 0.628636
Si Si2 0.534674 0.310010 0.604749
Si Si3 0.715245 0.097616 0.491564
Si Si4 0.160550 0.096345 0.945194
Si Si5 0.606712 0.272008 0.241101
O O1 0.327196 0.386180 0.616970
O O2 0.308540 0.875171 0.586951
O O3 0.223332 0.722104 0.705016
O O4 0.001736 0.601610 0.610506
O O5 0.534998 0.139509 0.537142
O O6 0.651364 0.564565 0.591335
O O7 0.641964 0.163279 0.665943
O O8 0.850447 0.348255 0.507320
O O9 0.831825 0.853620 0.513380
O O10 0.465431 0.482242 0.263880
#
# Coordination Sequence:
#
# PCOD8127828 Si02
#       5
#     4   4   4   4   4
#     4  11  22  44  67  94 126 178 204 264 333 371
#     4   9  24  43  63  94 128 165 215 263 310 385
#     4  10  23  42  65  96 131 159 218 267 313 384
#     4  10  24  41  64  96 130 161 214 268 312 387
#     4  10  24  42  64  92 127 166 213 257 311 381
#
# _framework density 25.290275999999999
#
# number of rings (size 3 to 8) (size 9 to 14) (size 15 to 20)
#    1.200    0.800    0.000    1.800    5.600    7.200 
#    3.600    0.000    0.000    0.000    0.000    0.000 
#    0.000    0.000    0.000    0.000    0.000    0.000 
#
# Total GULP energy -247831.941484 kJ/mol
# GULP energy per Si atom -12391.597074 kJ/mol
# Density = 2.523271 g / cm^3
# Si number density = 25.290276 Si / 1000 Ang^3
#
#
#
# Elastic Constant Matrix: (Units=GPa)
#
#
# Indices 1 2 3 4 5 6 
#
# 1 52.8955 11.5204 18.0394 0.0000 16.8605 0.0000
# 2 11.5204 111.6288 36.1191 0.0000 1.9998 0.0000
# 3 18.0394 36.1191 187.2610 0.0000 24.6068 0.0000
# 4 0.0000 0.0000 0.0000 38.7039 0.0000 -1.7601
# 5 16.8605 1.9998 24.6068 0.0000 30.7378 0.0000
# 6 0.0000 0.0000 0.0000 -1.7601 0.0000 19.4606
#
#
#
# Elastic Compliance Matrix: (Units=1/GPa)
#
#
# Indices 1 2 3 4 5 6 
#
# 1 0.023440 -0.002130 -0.000196 0.000000 -0.012562 0.000000
# 2 -0.002130 0.009773 -0.001956 0.000000 0.002098 0.000000
# 3 -0.000196 -0.001956 0.006376 0.000000 -0.004869 0.000000
# 4 0.000000 0.000000 0.000000 0.025944 0.000000 0.002346
# 5 -0.012562 0.002098 -0.004869 0.000000 0.043185 0.000000
# 6 0.000000 0.000000 0.000000 0.002346 0.000000 0.051598
#
#
# Mechanical properties :
#
#
# Convention : Reuss Voigt Hill
#
# Bulk Modulus (GPa) = 32.23242 53.68255 42.95749
# Shear Modulus (GPa) = 27.89811 36.85421 32.37616
#
# Velocity S-wave (km/s) = 3.32492 3.82153 3.58185
# Velocity P-wave (km/s) = 5.24526 6.38317 5.84199
#
# Compressibility (1/GPa) = 0.03102466
#
# Stress axis : x y z
#
# Youngs Moduli (GPa) = 42.66154 102.31958 156.83552
#
# Poissons Ratio (x) = 0.21799 0.03082
# Poissons Ratio (y) = 0.09089 0.30670
# Poissons Ratio (z) = 0.00838 0.20009
#
# Static dielectric constant tensor:
#      x y z
#    x 4.229640 0.000000 0.102490 
#    y 0.000000 4.549550 0.000000 
#    z 0.102490 0.000000 5.176990 
# 
# 
# High freq. dielectric constant tensor:
#      x y z
#    x 1.986280 0.000000 0.017350 
#    y 0.000000 2.022240 0.000000 
#    z 0.017350 0.000000 2.030460 
# 
# From -- ./inp_files/64019.got.cif
#   From: 2010.03.12/outbox.cif.g09.slc.cpg/sg14_33_cif.got.tgz:64019.got - 2010.03.31 13:35:05.
