data_PCOD8127193
_publ_section_title
;
Structure prediction by ZEFSAII (Michael W. Deem and Ramdas Pophale) SiO2 
 PCOD8127193
Probable space group: P 21/C
;
_chemical_formula_sum "Si O2"
_cell_formula_units_Z 24
_cell_length_a 30.583225
_cell_length_b 9.075160
_cell_length_c 9.079922
_cell_angle_alpha 90.000000
_cell_angle_beta 26.221819
_cell_angle_gamma 90.000000
_cell_volume 1113.504814
_symmetry_space_group_name_H-M "P 21/C"
_symmetry_group_IT_number 14
_symmetry_cell_setting 'monoclinic'
loop_
_space_group_symop_operation_xyz
x,y,z
-x,1/2+y,1/2-z
-x,-y,-z
x,1/2-y,1/2+z
loop_
_atom_site_type_symbol
_atom_site_label
_atom_site_fract_x
_atom_site_fract_y
_atom_site_fract_z
Si Si1 0.315674 0.990331 0.443700
Si Si2 0.187165 0.276332 0.209665
Si Si3 0.110846 0.446664 0.167124
Si Si4 0.287379 0.838652 0.073751
Si Si5 0.363768 0.424714 0.111754
Si Si6 0.551629 0.078016 0.208244
O O1 0.268956 0.826033 0.571941
O O2 0.222284 0.100028 0.720038
O O3 0.378635 0.016248 0.401668
O O4 0.387252 0.026452 0.088714
O O5 0.123245 0.349997 0.275462
O O6 0.123065 0.154124 0.486291
O O7 0.283140 0.202345 0.848238
O O8 0.000000 0.500000 0.500000
O O9 0.187053 0.584518 0.936164
O O10 0.366715 0.814622 0.966772
O O11 0.332646 0.938743 0.808218
O O12 0.464982 0.349559 0.869583
O O13 0.500000 0.000000 0.500000
#
# Coordination Sequence:
#
# PCOD8127193 Si02
#       6
#     4   4   4   4   4   4
#     4  12  22  40  67  97 140 177 234 276 344 396
#     4  11  24  46  70 104 133 180 227 290 340 409
#     4  11  25  50  74  99 138 178 227 288 351 404
#     4  10  23  43  64  98 139 177 228 290 337 406
#     4  10  23  39  65  97 140 183 230 273 344 407
#     4  10  22  40  63  97 140 186 225 278 334 405
#
# _framework density 21.553566
#
# number of rings (size 3 to 8) (size 9 to 14) (size 15 to 20)
#    0.000    1.333    3.333    1.500    0.000    6.667 
#    3.000    1.667    0.000    0.000    0.000    0.000 
#    0.000    0.000    0.000    0.000    0.000    0.000 
#
# Total GULP energy -297442.937810 kJ/mol
# GULP energy per Si atom -12393.455742 kJ/mol
# Density = 2.150451 g / cm^3
# Si number density = 21.553566 Si / 1000 Ang^3
#
#
#
# Elastic Constant Matrix: (Units=GPa)
#
#
# Indices 1 2 3 4 5 6 
#
# 1 133.1166 45.8246 62.7663 0.0000 -3.1379 0.0000
# 2 45.8246 114.3862 52.2344 0.0000 -9.2125 0.0000
# 3 62.7663 52.2344 131.8343 0.0000 -11.1885 0.0000
# 4 0.0000 0.0000 0.0000 22.4203 0.0000 -1.6982
# 5 -3.1379 -9.2125 -11.1885 0.0000 36.3530 0.0000
# 6 0.0000 0.0000 0.0000 -1.6982 0.0000 29.0371
#
#
#
# Elastic Compliance Matrix: (Units=1/GPa)
#
#
# Indices 1 2 3 4 5 6 
#
# 1 0.010179 -0.002325 -0.004005 0.000000 -0.000943 0.000000
# 2 -0.002325 0.011278 -0.003220 0.000000 0.001666 0.000000
# 3 -0.004005 -0.003220 0.010956 0.000000 0.002210 0.000000
# 4 0.000000 0.000000 0.000000 0.044801 0.000000 0.002620
# 5 -0.000943 0.001666 0.002210 0.000000 0.028529 0.000000
# 6 0.000000 0.000000 0.000000 0.002620 0.000000 0.034592
#
#
# Mechanical properties :
#
#
# Convention : Reuss Voigt Hill
#
# Bulk Modulus (GPa) = 75.11843 77.88752 76.50297
# Shear Modulus (GPa) = 30.51152 32.12953 31.32053
#
# Velocity S-wave (km/s) = 3.76655 3.86512 3.81615
# Velocity P-wave (km/s) = 7.33781 7.49227 7.41544
#
# Compressibility (1/GPa) = 0.01331231
#
# Stress axis : x y z
#
# Youngs Moduli (GPa) = 98.24449 88.66454 91.27754
#
# Poissons Ratio (x) = 0.20613 0.36557
# Poissons Ratio (y) = 0.22840 0.29395
# Poissons Ratio (z) = 0.39347 0.28554
#
# Static dielectric constant tensor:
#      x y z
#    x 4.143310 0.000000 0.078040 
#    y 0.000000 3.789750 0.000000 
#    z 0.078040 0.000000 3.779620 
# 
# 
# High freq. dielectric constant tensor:
#      x y z
#    x 1.863050 0.000000 0.014580 
#    y 0.000000 1.839890 0.000000 
#    z 0.014580 0.000000 1.829560 
# 
# From -- ./inp_files/19931.got.cif
#   From: 2010.03.12/outbox.cif.g09.slc.cpg/sg14_10_cif.got.tgz:19931.got - 2010.03.31 13:35:05.
