data_PCOD8127011
_publ_section_title
;
Structure prediction by ZEFSAII (Michael W. Deem and Ramdas Pophale) SiO2 
 PCOD8127011
Probable space group: P 21/C
;
_chemical_formula_sum "Si O2"
_cell_formula_units_Z 28
_cell_length_a 11.095569
_cell_length_b 17.208840
_cell_length_c 12.142014
_cell_angle_alpha 90.000000
_cell_angle_beta 143.097764
_cell_angle_gamma 90.000000
_cell_volume 1392.097938
_symmetry_space_group_name_H-M "P 21/C"
_symmetry_group_IT_number 14
_symmetry_cell_setting 'monoclinic'
loop_
_space_group_symop_operation_xyz
x,y,z
-x,1/2+y,1/2-z
-x,-y,-z
x,1/2-y,1/2+z
loop_
_atom_site_type_symbol
_atom_site_label
_atom_site_fract_x
_atom_site_fract_y
_atom_site_fract_z
Si Si1 0.579462 0.838750 0.952462
Si Si2 0.079461 0.338750 0.452460
Si Si3 0.254629 0.093702 0.298357
Si Si4 0.250000 0.311000 1.000000
Si Si5 0.245370 0.093703 0.701641
Si Si6 0.787366 0.075520 0.400273
Si Si7 0.287366 0.924480 0.400273
O O1 0.358813 0.858629 0.750861
O O2 0.750001 0.878850 0.000002
O O3 0.589008 0.744909 0.944428
O O4 0.620442 0.868748 0.105000
O O5 0.120442 0.368749 0.604999
O O6 0.089009 0.244909 0.444428
O O7 0.858811 0.358628 0.250859
O O8 0.163759 0.132915 0.342210
O O9 0.491103 0.110202 0.455596
O O10 0.235225 0.000779 0.290476
O O11 0.336240 0.367086 0.157788
O O12 0.008896 0.110204 0.544403
O O13 0.264771 0.000779 0.709522
O O14 0.749999 0.056141 0.499999
#
# Coordination Sequence:
#
# PCOD8127011 Si02
#       7
#     4   4   4   4   4   4   4
#     4  10  22  38  60  87 122 159 194 251 299 353
#     4  10  22  38  60  87 122 159 194 251 299 353
#     4  11  22  40  62  89 123 158 204 247 296 365
#     4  10  22  40  64  90 126 158 196 254 308 350
#     4  11  22  40  62  89 123 158 204 247 296 365
#     4  11  21  39  63  89 121 161 203 244 302 356
#     4  11  21  39  63  89 121 161 203 244 302 356
#
# _framework density 20.113527999999999
#
# number of rings (size 3 to 8) (size 9 to 14) (size 15 to 20)
#    0.857    0.571    4.286    1.714    0.000    1.143 
#    0.000    4.286    0.000    0.000    0.000    0.000 
#    0.000    0.000    0.000    0.000    0.000    0.000 
#
# Total GULP energy -347006.780381 kJ/mol
# GULP energy per Si atom -12393.099299 kJ/mol
# Density = 2.006775 g / cm^3
# Si number density = 20.113528 Si / 1000 Ang^3
#
#
#
# Elastic Constant Matrix: (Units=GPa)
#
#
# Indices 1 2 3 4 5 6 
#
# 1 49.9017 6.8621 21.8677 0.0000 -21.1569 0.0000
# 2 6.8621 62.7868 10.8917 0.0000 0.4951 0.0000
# 3 21.8677 10.8917 80.4975 0.0000 -12.0219 0.0000
# 4 0.0000 0.0000 0.0000 9.3504 0.0000 -4.3084
# 5 -21.1569 0.4951 -12.0219 0.0000 41.5558 0.0000
# 6 0.0000 0.0000 0.0000 -4.3084 0.0000 23.4778
#
#
#
# Elastic Compliance Matrix: (Units=1/GPa)
#
#
# Indices 1 2 3 4 5 6 
#
# 1 0.028149 -0.002234 -0.005435 0.000000 0.012786 0.000000
# 2 -0.002234 0.016517 -0.001910 0.000000 -0.001887 0.000000
# 3 -0.005435 -0.001910 0.014369 0.000000 0.001412 0.000000
# 4 0.000000 0.000000 0.000000 0.116826 0.000000 0.021439
# 5 0.012786 -0.001887 0.001412 0.000000 0.031004 0.000000
# 6 0.000000 0.000000 0.000000 0.021439 0.000000 0.046528
#
#
# Mechanical properties :
#
#
# Convention : Reuss Voigt Hill
#
# Bulk Modulus (GPa) = 25.07743 30.26987 27.67365
# Shear Modulus (GPa) = 17.49212 25.11445 21.30328
#
# Velocity S-wave (km/s) = 2.95221 3.53744 3.25799
# Velocity P-wave (km/s) = 4.91078 5.63620 5.28595
#
# Compressibility (1/GPa) = 0.03987649
#
# Stress axis : x y z
#
# Youngs Moduli (GPa) = 35.52512 60.54273 69.59646
#
# Poissons Ratio (x) = 0.13528 0.37826
# Poissons Ratio (y) = 0.07938 0.13290
# Poissons Ratio (z) = 0.19308 0.11562
#
# Static dielectric constant tensor:
#      x y z
#    x 3.643290 0.000000 -0.153030 
#    y 0.000000 3.523100 0.000000 
#    z -0.153030 0.000000 3.403650 
# 
# 
# High freq. dielectric constant tensor:
#      x y z
#    x 1.781210 0.000000 -0.018480 
#    y 0.000000 1.786900 0.000000 
#    z -0.018480 0.000000 1.775500 
# 
# From -- ./inp_files/30324.got.cif
#   From: 2010.03.12/outbox.cif.g09.slc.cpg/sg14_16_cif.got.tgz:30324.got - 2010.03.31 13:35:05.
