data_PCOD8127882
_publ_section_title
;
Structure prediction by ZEFSAII (Michael W. Deem and Ramdas Pophale) SiO2 
 PCOD8127882
Probable space group: P 21/C
;
_chemical_formula_sum "Si O2"
_cell_formula_units_Z 24
_cell_length_a 15.182106
_cell_length_b 17.968498
_cell_length_c 8.872644
_cell_angle_alpha 90.000000
_cell_angle_beta 31.652295
_cell_angle_gamma 90.000000
_cell_volume 1270.164939
_symmetry_space_group_name_H-M "P 21/C"
_symmetry_group_IT_number 14
_symmetry_cell_setting 'monoclinic'
loop_
_space_group_symop_operation_xyz
x,y,z
-x,1/2+y,1/2-z
-x,-y,-z
x,1/2-y,1/2+z
loop_
_atom_site_type_symbol
_atom_site_label
_atom_site_fract_x
_atom_site_fract_y
_atom_site_fract_z
Si Si1 0.519554 0.574792 0.064263
Si Si2 0.955181 0.447507 0.846800
Si Si3 0.826576 0.831725 0.610763
Si Si4 0.851344 0.081993 0.830805
Si Si5 0.213422 0.173749 0.979334
Si Si6 0.342514 0.033618 0.315229
O O1 0.335737 0.608985 0.361563
O O2 0.613655 0.559787 0.082676
O O3 0.500000 0.500000 0.000000
O O4 0.618662 0.636195 0.826341
O O5 0.102085 0.509446 0.637984
O O6 0.046351 0.370739 0.667233
O O7 0.862463 0.441635 0.141325
O O8 0.807339 0.472352 0.948246
O O9 0.795304 0.756603 0.567783
O O10 0.719777 0.897104 0.692181
O O11 0.024016 0.850253 0.313160
O O12 0.770658 0.824559 0.864475
O O13 0.500000 0.000000 0.000000
#
# Coordination Sequence:
#
# PCOD8127882 Si02
#       6
#     4   4   4   4   4   4
#     4  12  22  37  62  96 123 155 201 259 296 358
#     4   9  18  37  64  84 118 158 195 244 300 362
#     4  10  23  43  62  83 122 168 197 246 306 366
#     4   9  18  38  61  87 119 158 196 242 302 356
#     4  11  22  41  62  87 124 157 203 246 309 355
#     4  11  21  38  65  91 119 157 207 247 302 352
#
# _framework density 18.895182999999999
#
# number of rings (size 3 to 8) (size 9 to 14) (size 15 to 20)
#    0.000    1.667    3.333    3.000    0.000    0.667 
#    6.000    1.667    0.000    0.000    0.000    0.000 
#    0.000    0.000    0.000    0.000    0.000    0.000 
#
# Total GULP energy -297627.545384 kJ/mol
# GULP energy per Si atom -12401.147724 kJ/mol
# Density = 1.885218 g / cm^3
# Si number density = 18.895183 Si / 1000 Ang^3
#
#
#
# Elastic Constant Matrix: (Units=GPa)
#
#
# Indices 1 2 3 4 5 6 
#
# 1 124.2834 55.0224 62.4516 0.0000 -5.2691 0.0000
# 2 55.0224 114.5101 49.7167 0.0000 -6.5591 0.0000
# 3 62.4516 49.7167 123.4710 0.0000 -16.1542 0.0000
# 4 0.0000 0.0000 0.0000 27.8422 0.0000 0.2034
# 5 -5.2691 -6.5591 -16.1542 0.0000 31.1027 0.0000
# 6 0.0000 0.0000 0.0000 0.2034 0.0000 33.1696
#
#
#
# Elastic Compliance Matrix: (Units=1/GPa)
#
#
# Indices 1 2 3 4 5 6 
#
# 1 0.012055 -0.003812 -0.004721 0.000000 -0.001214 0.000000
# 2 -0.003812 0.011789 -0.002766 0.000000 0.000404 0.000000
# 3 -0.004721 -0.002766 0.012252 0.000000 0.004981 0.000000
# 4 0.000000 0.000000 0.000000 0.035918 0.000000 -0.000220
# 5 -0.001214 0.000404 0.004981 0.000000 0.034618 0.000000
# 6 0.000000 0.000000 0.000000 -0.000220 0.000000 0.030149
#
#
# Mechanical properties :
#
#
# Convention : Reuss Voigt Hill
#
# Bulk Modulus (GPa) = 74.08737 77.40509 75.74623
# Shear Modulus (GPa) = 30.51047 31.42782 30.96914
#
# Velocity S-wave (km/s) = 4.02272 4.08275 4.05284
# Velocity P-wave (km/s) = 7.80200 7.95484 7.87879
#
# Compressibility (1/GPa) = 0.01349758
#
# Stress axis : x y z
#
# Youngs Moduli (GPa) = 82.95553 84.82841 81.61742
#
# Poissons Ratio (x) = 0.32337 0.38532
# Poissons Ratio (y) = 0.31623 0.22574
# Poissons Ratio (z) = 0.39164 0.23462
#
# Static dielectric constant tensor:
#      x y z
#    x 3.665870 0.000000 -0.210130 
#    y 0.000000 3.390840 0.000000 
#    z -0.210130 0.000000 3.833430 
# 
# 
# High freq. dielectric constant tensor:
#      x y z
#    x 1.736470 0.000000 -0.004330 
#    y 0.000000 1.724360 0.000000 
#    z -0.004330 0.000000 1.744580 
# 
# From -- ./inp_files/16608.got.cif
#   From: 2010.03.12/outbox.cif.g09.slc.cpg/sg14_9_cif.got.tgz:16608.got - 2010.03.31 13:35:05.
