data_PCOD8127903
_publ_section_title
;
Structure prediction by ZEFSAII (Michael W. Deem and Ramdas Pophale) SiO2 
 PCOD8127903
Probable space group: P 21/C
;
_chemical_formula_sum "Si O2"
_cell_formula_units_Z 28
_cell_length_a 18.803863
_cell_length_b 9.579040
_cell_length_c 13.729876
_cell_angle_alpha 90.000000
_cell_angle_beta 148.137736
_cell_angle_gamma 90.000000
_cell_volume 1305.479706
_symmetry_space_group_name_H-M "P 21/C"
_symmetry_group_IT_number 14
_symmetry_cell_setting 'monoclinic'
loop_
_space_group_symop_operation_xyz
x,y,z
-x,1/2+y,1/2-z
-x,-y,-z
x,1/2-y,1/2+z
loop_
_atom_site_type_symbol
_atom_site_label
_atom_site_fract_x
_atom_site_fract_y
_atom_site_fract_z
Si Si1 0.248053 0.462976 0.027888
Si Si2 0.480393 0.592447 0.573819
Si Si3 0.854650 0.741751 0.444207
Si Si4 0.897447 0.239941 0.640250
Si Si5 0.420181 0.101596 0.336783
Si Si6 0.720654 0.007194 0.005219
Si Si7 0.114374 0.243548 0.243089
O O1 0.407963 0.448093 0.216628
O O2 0.184664 0.385562 0.048168
O O3 0.218296 0.625655 0.001015
O O4 0.190881 0.400041 0.860385
O O5 0.500000 0.500000 0.500000
O O6 0.491019 0.757399 0.565010
O O7 0.338095 0.557363 0.459018
O O8 0.730726 0.633473 0.299961
O O9 0.896106 0.772023 0.382437
O O10 0.987545 0.683741 0.652001
O O11 0.829184 0.382227 0.594351
O O12 0.963448 0.261663 0.610668
O O13 0.500000 0.000000 0.500000
O O14 0.401793 0.021829 0.212573
O O15 0.799773 0.863303 0.105421
#
# Coordination Sequence:
#
# PCOD8127903 Si02
#       7
#     4   4   4   4   4   4   4
#     4  10  23  43  65  96 141 175 229 287 346 414
#     4  11  26  45  71 102 134 184 236 284 356 423
#     4  10  23  44  71  97 135 182 229 288 348 404
#     4  11  25  42  66 105 135 180 237 279 351 421
#     4  11  26  46  69 105 141 179 233 289 352 419
#     4  12  25  44  72  99 141 187 227 290 351 409
#     4  11  22  44  69  92 140 179 226 292 342 408
#
# _framework density 21.448055
#
# number of rings (size 3 to 8) (size 9 to 14) (size 15 to 20)
#    0.000    1.143    4.286    3.429    6.000    4.000 
#    0.000    0.000    0.000    0.000    0.000    0.000 
#    0.000    0.000    0.000    0.000    0.000    0.000 
#
# Total GULP energy -347219.370547 kJ/mol
# GULP energy per Si atom -12400.691805 kJ/mol
# Density = 2.139924 g / cm^3
# Si number density = 21.448055 Si / 1000 Ang^3
#
#
#
# Elastic Constant Matrix: (Units=GPa)
#
#
# Indices 1 2 3 4 5 6 
#
# 1 126.1211 24.1664 26.1891 0.0000 -6.3530 0.0000
# 2 24.1664 84.7174 31.6557 0.0000 9.6423 0.0000
# 3 26.1891 31.6557 52.9294 0.0000 -5.4884 0.0000
# 4 0.0000 0.0000 0.0000 43.3583 0.0000 4.8193
# 5 -6.3530 9.6423 -5.4884 0.0000 36.5037 0.0000
# 6 0.0000 0.0000 0.0000 4.8193 0.0000 20.3496
#
#
#
# Elastic Compliance Matrix: (Units=1/GPa)
#
#
# Indices 1 2 3 4 5 6 
#
# 1 0.008991 -0.001443 -0.003438 0.000000 0.001429 0.000000
# 2 -0.001443 0.016588 -0.009841 0.000000 -0.006113 0.000000
# 3 -0.003438 -0.009841 0.027110 0.000000 0.006077 0.000000
# 4 0.000000 0.000000 0.000000 0.023687 0.000000 -0.005610
# 5 0.001429 -0.006113 0.006077 0.000000 0.030172 0.000000
# 6 0.000000 0.000000 0.000000 -0.005610 0.000000 0.050470
#
#
# Mechanical properties :
#
#
# Convention : Reuss Voigt Hill
#
# Bulk Modulus (GPa) = 43.01748 47.53225 45.27487
# Shear Modulus (GPa) = 25.74539 32.15944 28.95241
#
# Velocity S-wave (km/s) = 3.46838 3.87642 3.67806
# Velocity P-wave (km/s) = 6.01163 6.49963 6.26039
#
# Compressibility (1/GPa) = 0.02324636
#
# Stress axis : x y z
#
# Youngs Moduli (GPa) = 111.22013 60.28276 36.88705
#
# Poissons Ratio (x) = 0.08699 0.12680
# Poissons Ratio (y) = 0.16049 0.36301
# Poissons Ratio (z) = 0.38233 0.59324
#
# Static dielectric constant tensor:
#      x y z
#    x 3.908810 0.000000 0.079890 
#    y 0.000000 3.865850 0.000000 
#    z 0.079890 0.000000 3.994660 
# 
# 
# High freq. dielectric constant tensor:
#      x y z
#    x 1.842810 0.000000 0.002970 
#    y 0.000000 1.843730 0.000000 
#    z 0.002970 0.000000 1.842500 
# 
# From -- ./inp_files/50146.got.cif
#   From: 2010.03.12/outbox.cif.g09.slc.cpg/sg14_26_cif.got.tgz:50146.got - 2010.03.31 13:35:05.
