data_PCOD8127067
_publ_section_title
;
Structure prediction by ZEFSAII (Michael W. Deem and Ramdas Pophale) SiO2 
 PCOD8127067
Probable space group: P 21/C
;
_chemical_formula_sum "Si O2"
_cell_formula_units_Z 32
_cell_length_a 8.139368
_cell_length_b 13.397798
_cell_length_c 13.979488
_cell_angle_alpha 90.000000
_cell_angle_beta 89.796947
_cell_angle_gamma 90.000000
_cell_volume 1524.448118
_symmetry_space_group_name_H-M "P 21/C"
_symmetry_group_IT_number 14
_symmetry_cell_setting 'monoclinic'
loop_
_space_group_symop_operation_xyz
x,y,z
-x,1/2+y,1/2-z
-x,-y,-z
x,1/2-y,1/2+z
loop_
_atom_site_type_symbol
_atom_site_label
_atom_site_fract_x
_atom_site_fract_y
_atom_site_fract_z
Si Si1 0.397461 0.758766 0.973736
Si Si2 0.497971 0.290735 0.328477
Si Si3 0.420399 0.413278 0.755442
Si Si4 0.178196 0.387276 0.384497
Si Si5 0.706083 0.389066 0.164959
Si Si6 0.998667 0.726249 0.776419
Si Si7 0.254125 0.176670 0.086845
Si Si8 0.769048 0.399606 0.674695
O O1 0.334208 0.649205 0.941916
O O2 0.591870 0.762034 0.953379
O O3 0.295556 0.844460 0.920137
O O4 0.370301 0.772358 0.086967
O O5 0.391065 0.192008 0.307595
O O6 0.372056 0.377454 0.358820
O O7 0.598619 0.318590 0.234632
O O8 0.341280 0.496290 0.823754
O O9 0.321163 0.412766 0.655018
O O10 0.615263 0.429457 0.741914
O O11 0.072202 0.306097 0.326381
O O12 0.151650 0.369674 0.498205
O O13 0.131775 0.501030 0.356878
O O14 0.896726 0.368631 0.186420
O O15 0.856041 0.745499 0.853849
O O16 0.107807 0.827178 0.767087
#
# Coordination Sequence:
#
# PCOD8127067 Si02
#       8
#     4   4   4   4   4   4   4   4
#     4   9  21  39  61  88 121 157 210 248 298 353
#     4  11  20  39  65  87 119 162 203 256 296 357
#     4  11  21  40  64  90 119 158 211 250 300 351
#     4  11  23  38  66  87 124 166 194 251 314 349
#     4  11  22  38  62  89 120 163 197 258 302 354
#     4  11  23  40  56  90 130 157 191 246 314 366
#     4  10  22  39  59  91 124 154 203 250 297 368
#     4  10  22  39  61  93 120 153 208 257 292 358
#
# _framework density 20.991202000000001
#
# number of rings (size 3 to 8) (size 9 to 14) (size 15 to 20)
#    0.000    1.500    6.250    0.000    3.500    4.500 
#    0.000    0.000    0.000    2.250    0.000    0.000 
#    0.000    0.000    0.000    0.000    0.000    0.000 
#
# Total GULP energy -396773.913060 kJ/mol
# GULP energy per Si atom -12399.184783 kJ/mol
# Density = 2.094342 g / cm^3
# Si number density = 20.991202 Si / 1000 Ang^3
#
#
#
# Elastic Constant Matrix: (Units=GPa)
#
#
# Indices 1 2 3 4 5 6 
#
# 1 70.7261 20.6602 16.9143 0.0000 14.6840 0.0000
# 2 20.6602 107.9835 29.1599 0.0000 6.9477 0.0000
# 3 16.9143 29.1599 74.7398 0.0000 25.0581 0.0000
# 4 0.0000 0.0000 0.0000 19.2478 0.0000 -0.2896
# 5 14.6840 6.9477 25.0581 0.0000 24.9294 0.0000
# 6 0.0000 0.0000 0.0000 -0.2896 0.0000 26.6240
#
#
#
# Elastic Compliance Matrix: (Units=1/GPa)
#
#
# Indices 1 2 3 4 5 6 
#
# 1 0.016821 -0.002731 0.000491 0.000000 -0.009640 0.000000
# 2 -0.002731 0.010847 -0.004736 0.000000 0.003345 0.000000
# 3 0.000491 -0.004736 0.022279 0.000000 -0.021363 0.000000
# 4 0.000000 0.000000 0.000000 0.051963 0.000000 0.000565
# 5 -0.009640 0.003345 -0.021363 0.000000 0.066332 0.000000
# 6 0.000000 0.000000 0.000000 0.000565 0.000000 0.037566
#
#
# Mechanical properties :
#
#
# Convention : Reuss Voigt Hill
#
# Bulk Modulus (GPa) = 27.78142 42.99092 35.38617
# Shear Modulus (GPa) = 21.57440 26.60792 24.09116
#
# Velocity S-wave (km/s) = 3.20938 3.56416 3.39142
# Velocity P-wave (km/s) = 5.19587 6.12067 5.67713
#
# Compressibility (1/GPa) = 0.03599528
#
# Stress axis : x y z
#
# Youngs Moduli (GPa) = 59.45024 92.19444 44.88608
#
# Poissons Ratio (x) = 0.25174 -0.02202
# Poissons Ratio (y) = 0.16233 0.21256
# Poissons Ratio (z) = -0.02917 0.43659
#
# Static dielectric constant tensor:
#      x y z
#    x 3.811740 0.000000 0.168250 
#    y 0.000000 3.639520 0.000000 
#    z 0.168250 0.000000 3.816390 
# 
# 
# High freq. dielectric constant tensor:
#      x y z
#    x 1.820310 0.000000 0.011960 
#    y 0.000000 1.810370 0.000000 
#    z 0.011960 0.000000 1.811090 
# 
# From -- ./inp_files/40303.got.cif
#   From: 2010.03.12/outbox.cif.g09.slc.cpg/sg14_21_cif.got.tgz:40303.got - 2010.03.31 13:35:05.
