data_PCOD8127599
_publ_section_title
;
Structure prediction by ZEFSAII (Michael W. Deem and Ramdas Pophale) SiO2 
 PCOD8127599
Probable space group: P 21/C
;
_chemical_formula_sum "Si O2"
_cell_formula_units_Z 32
_cell_length_a 11.390194
_cell_length_b 14.123393
_cell_length_c 14.636890
_cell_angle_alpha 90.000000
_cell_angle_beta 36.243147
_cell_angle_gamma 90.000000
_cell_volume 1392.076451
_symmetry_space_group_name_H-M "P 21/C"
_symmetry_group_IT_number 14
_symmetry_cell_setting 'monoclinic'
loop_
_space_group_symop_operation_xyz
x,y,z
-x,1/2+y,1/2-z
-x,-y,-z
x,1/2-y,1/2+z
loop_
_atom_site_type_symbol
_atom_site_label
_atom_site_fract_x
_atom_site_fract_y
_atom_site_fract_z
Si Si1 0.008579 0.355529 0.695249
Si Si2 0.756918 0.448959 0.197710
Si Si3 0.312736 0.822210 0.934962
Si Si4 0.089388 0.750262 0.407335
Si Si5 0.104140 0.165032 0.710415
Si Si6 0.322678 0.310385 0.258064
Si Si7 0.906156 0.012605 0.408475
Si Si8 0.648232 0.962455 0.106728
O O1 0.147679 0.266505 0.635930
O O2 0.143525 0.441355 0.573113
O O3 0.863084 0.322709 0.704739
O O4 0.877126 0.395204 0.861777
O O5 0.881515 0.356069 0.145508
O O6 0.522864 0.436577 0.360508
O O7 0.863482 0.521628 0.200377
O O8 0.769302 0.480203 0.083502
O O9 0.244671 0.763574 0.890252
O O10 0.496613 0.764776 0.864017
O O11 0.372004 0.925978 0.861311
O O12 0.131174 0.833198 0.119260
O O13 0.860893 0.742453 0.579739
O O14 0.250290 0.152642 0.704865
O O15 0.152462 0.080787 0.610702
O O16 0.378939 0.402695 0.282784
#
# Coordination Sequence:
#
# PCOD8127599 Si02
#       8
#     4   4   4   4   4   4   4   4
#     4  11  24  43  67 101 130 174 228 281 332 404
#     4  11  24  44  67  97 137 185 224 280 344 410
#     4  11  23  43  69 101 137 180 223 283 344 407
#     4  10  22  44  70  92 137 183 222 276 340 407
#     4  11  24  44  67  97 139 178 221 288 342 400
#     4  10  24  41  67  98 137 177 226 281 342 407
#     4  11  24  42  68  95 137 181 224 275 349 402
#     4  11  25  41  70 102 131 175 237 275 337 414
#
# _framework density 22.987242999999999
#
# number of rings (size 3 to 8) (size 9 to 14) (size 15 to 20)
#    0.000    1.250    3.750    1.500    7.000    3.000 
#    0.000    0.625    0.000    0.000    0.000    0.000 
#    0.000    0.000    0.000    0.000    0.000    0.000 
#
# Total GULP energy -396734.120897 kJ/mol
# GULP energy per Si atom -12397.941278 kJ/mol
# Density = 2.293492 g / cm^3
# Si number density = 22.987243 Si / 1000 Ang^3
#
#
#
# Elastic Constant Matrix: (Units=GPa)
#
#
# Indices 1 2 3 4 5 6 
#
# 1 97.6668 16.9511 29.9414 0.0000 -6.3825 0.0000
# 2 16.9511 102.9430 25.2919 0.0000 -0.7240 0.0000
# 3 29.9414 25.2919 40.5876 0.0000 3.8362 0.0000
# 4 0.0000 0.0000 0.0000 27.5938 0.0000 5.2168
# 5 -6.3825 -0.7240 3.8362 0.0000 39.3642 0.0000
# 6 0.0000 0.0000 0.0000 5.2168 0.0000 39.8596
#
#
#
# Elastic Compliance Matrix: (Units=1/GPa)
#
#
# Indices 1 2 3 4 5 6 
#
# 1 0.013636 0.000383 -0.010605 0.000000 0.003252 0.000000
# 2 0.000383 0.011514 -0.007553 0.000000 0.001010 0.000000
# 3 -0.010605 -0.007553 0.037691 0.000000 -0.005532 0.000000
# 4 0.000000 0.000000 0.000000 0.037159 0.000000 -0.004863
# 5 0.003252 0.001010 -0.005532 0.000000 0.026489 0.000000
# 6 0.000000 0.000000 0.000000 -0.004863 0.000000 0.025725
#
#
# Mechanical properties :
#
#
# Convention : Reuss Voigt Hill
#
# Bulk Modulus (GPa) = 36.64258 42.84071 39.74164
# Shear Modulus (GPa) = 25.39865 32.63106 29.01485
#
# Velocity S-wave (km/s) = 3.32761 3.77175 3.55662
# Velocity P-wave (km/s) = 5.54428 6.13558 5.84741
#
# Compressibility (1/GPa) = 0.02729066
#
# Stress axis : x y z
#
# Youngs Moduli (GPa) = 73.33437 86.85244 26.53150
#
# Poissons Ratio (x) = -0.03327 0.28138
# Poissons Ratio (y) = -0.02810 0.20039
# Poissons Ratio (z) = 0.77774 0.65598
#
# Static dielectric constant tensor:
#      x y z
#    x 4.312190 0.000000 0.093080 
#    y 0.000000 4.172590 0.000000 
#    z 0.093080 0.000000 3.883080 
# 
# 
# High freq. dielectric constant tensor:
#      x y z
#    x 1.918240 0.000000 0.008950 
#    y 0.000000 1.920060 0.000000 
#    z 0.008950 0.000000 1.883380 
# 
# From -- ./inp_files/45080.got.cif
#   From: 2010.03.12/outbox.cif.g09.slc.cpg/sg14_23_cif.got.tgz:45080.got - 2010.03.31 13:35:05.
