data_PCOD8127945
_publ_section_title
;
Structure prediction by ZEFSAII (Michael W. Deem and Ramdas Pophale) SiO2 
 PCOD8127945
Probable space group: P 21/C
;
_chemical_formula_sum "Si O2"
_cell_formula_units_Z 16
_cell_length_a 4.949642
_cell_length_b 24.600838
_cell_length_c 5.029796
_cell_angle_alpha 90.000000
_cell_angle_beta 92.252017
_cell_angle_gamma 90.000000
_cell_volume 611.981798
_symmetry_space_group_name_H-M "P 21/C"
_symmetry_group_IT_number 14
_symmetry_cell_setting 'monoclinic'
loop_
_space_group_symop_operation_xyz
x,y,z
-x,1/2+y,1/2-z
-x,-y,-z
x,1/2-y,1/2+z
loop_
_atom_site_type_symbol
_atom_site_label
_atom_site_fract_x
_atom_site_fract_y
_atom_site_fract_z
Si Si1 0.612824 0.358277 0.915186
Si Si2 0.871454 0.434179 0.284278
Si Si3 0.772730 0.553457 0.210013
Si Si4 0.899893 0.785886 0.606800
O O1 0.495761 0.410089 0.743820
O O2 0.401822 0.309256 0.905609
O O3 0.892635 0.334209 0.812888
O O4 0.677223 0.382694 0.213044
O O5 0.698584 0.490110 0.248934
O O6 0.990474 0.428116 0.581307
O O7 0.118038 0.435095 0.081588
O O8 0.945689 0.762526 0.315276
#
# Coordination Sequence:
#
# PCOD8127945 Si02
#       4
#     4   4   4   4
#     4  12  25  50  78 102 146 188 239 288 370 414
#     4  10  23  43  71 110 147 183 230 282 350 434
#     4  10  23  43  71 110 147 183 230 282 350 434
#     4  12  30  50  73 104 139 186 246 308 350 412
#
# _framework density 26.144568
#
# number of rings (size 3 to 8) (size 9 to 14) (size 15 to 20)
#    0.000    1.000    2.500    2.250    3.500    6.000 
#    0.000    7.500    0.000    0.000    0.000    0.000 
#    0.000    0.000    0.000    0.000    0.000    0.000 
#
# Total GULP energy -198400.687713 kJ/mol
# GULP energy per Si atom -12400.042982 kJ/mol
# Density = 2.608506 g / cm^3
# Si number density = 26.144568 Si / 1000 Ang^3
#
#
#
# Elastic Constant Matrix: (Units=GPa)
#
#
# Indices 1 2 3 4 5 6 
#
# 1 83.4910 24.8166 5.7493 0.0000 13.4822 0.0000
# 2 24.8166 119.2977 17.2623 0.0000 12.7716 0.0000
# 3 5.7493 17.2623 56.3537 0.0000 -2.5871 0.0000
# 4 0.0000 0.0000 0.0000 43.2720 0.0000 20.3375
# 5 13.4822 12.7716 -2.5871 0.0000 15.7209 0.0000
# 6 0.0000 0.0000 0.0000 20.3375 0.0000 58.8783
#
#
#
# Elastic Compliance Matrix: (Units=1/GPa)
#
#
# Indices 1 2 3 4 5 6 
#
# 1 0.014370 -0.001561 -0.001507 0.000000 -0.011304 0.000000
# 2 -0.001561 0.009953 -0.003223 0.000000 -0.007277 0.000000
# 3 -0.001507 -0.003223 0.019211 0.000000 0.007072 0.000000
# 4 0.000000 0.000000 0.000000 0.027588 0.000000 -0.009529
# 5 -0.011304 -0.007277 0.007072 0.000000 0.080379 0.000000
# 6 0.000000 0.000000 0.000000 -0.009529 0.000000 0.020276
#
#
# Mechanical properties :
#
#
# Convention : Reuss Voigt Hill
#
# Bulk Modulus (GPa) = 32.30914 39.42209 35.86561
# Shear Modulus (GPa) = 25.68350 37.66187 31.67269
#
# Velocity S-wave (km/s) = 3.13767 3.79954 3.48436
# Velocity P-wave (km/s) = 5.05087 5.86173 5.47135
#
# Compressibility (1/GPa) = 0.03095100
#
# Stress axis : x y z
#
# Youngs Moduli (GPa) = 69.58714 100.47576 52.05385
#
# Poissons Ratio (x) = 0.15686 0.07843
# Poissons Ratio (y) = 0.10864 0.16780
# Poissons Ratio (z) = 0.10485 0.32388
#
# Static dielectric constant tensor:
#      x y z
#    x 4.540850 0.000000 0.362100 
#    y 0.000000 4.986660 0.000000 
#    z 0.362100 0.000000 4.516200 
# 
# 
# High freq. dielectric constant tensor:
#      x y z
#    x 2.049180 0.000000 0.021700 
#    y 0.000000 2.062160 0.000000 
#    z 0.021700 0.000000 2.038940 
# 
# From -- ./inp_files/334.got.cif
#   From: 2010.03.12/outbox.cif.g09.slc.cpg/sg14_1_cif.got.tgz:334.got - 2010.03.31 13:35:05.
