data_PCOD8127443
_publ_section_title
;
Structure prediction by ZEFSAII (Michael W. Deem and Ramdas Pophale) SiO2 
 PCOD8127443
Probable space group: P 21/C
;
_chemical_formula_sum "Si O2"
_cell_formula_units_Z 28
_cell_length_a 11.661419
_cell_length_b 11.514335
_cell_length_c 19.870671
_cell_angle_alpha 90.000000
_cell_angle_beta 150.815538
_cell_angle_gamma 90.000000
_cell_volume 1301.028766
_symmetry_space_group_name_H-M "P 21/C"
_symmetry_group_IT_number 14
_symmetry_cell_setting 'monoclinic'
loop_
_space_group_symop_operation_xyz
x,y,z
-x,1/2+y,1/2-z
-x,-y,-z
x,1/2-y,1/2+z
loop_
_atom_site_type_symbol
_atom_site_label
_atom_site_fract_x
_atom_site_fract_y
_atom_site_fract_z
Si Si1 0.422132 0.412775 0.618668
Si Si2 0.074172 0.934321 0.872569
Si Si3 0.927400 0.327505 0.120340
Si Si4 0.331567 0.593661 0.883091
Si Si5 0.243996 0.534111 0.089486
Si Si6 0.710376 0.830253 0.480975
Si Si7 0.823455 0.446195 0.723743
O O1 0.253051 0.523847 0.522446
O O2 0.563390 0.420969 0.759955
O O3 0.258491 0.297750 0.534312
O O4 0.601458 0.398535 0.648921
O O5 0.982353 0.804532 0.843001
O O6 0.220514 0.935311 0.877967
O O7 0.862449 0.025545 0.759813
O O8 0.774989 0.330934 0.110745
O O9 0.141308 0.418504 0.237439
O O10 0.782537 0.364667 0.979747
O O11 0.484569 0.676558 0.914209
O O12 0.500000 0.500000 0.000000
O O13 0.346638 0.418915 0.108027
O O14 0.000000 0.500000 0.000000
O O15 0.944266 0.870465 0.639890
#
# Coordination Sequence:
#
# PCOD8127443 Si02
#       7
#     4   4   4   4   4   4   4
#     4  12  26  41  69  99 134 171 233 272 314 408
#     4  11  25  38  68 109 124 164 230 280 327 384
#     4  10  22  42  69  94 135 171 219 267 337 393
#     4  11  21  43  69  95 132 172 215 270 339 392
#     4  11  23  48  65  90 131 188 217 255 342 392
#     4  11  24  44  71  91 134 178 221 266 338 395
#     4  10  22  45  65  97 132 179 206 276 348 385
#
# _framework density 21.521429999999999
#
# number of rings (size 3 to 8) (size 9 to 14) (size 15 to 20)
#    0.000    1.143    7.143    1.286    8.000    1.143 
#    2.571    0.714    0.000    0.000    0.000    0.000 
#    0.000    0.000    0.000    0.000    0.000    0.000 
#
# Total GULP energy -347170.909509 kJ/mol
# GULP energy per Si atom -12398.961054 kJ/mol
# Density = 2.147245 g / cm^3
# Si number density = 21.521430 Si / 1000 Ang^3
#
#
#
# Elastic Constant Matrix: (Units=GPa)
#
#
# Indices 1 2 3 4 5 6 
#
# 1 56.3761 13.8627 18.7812 0.0000 -4.2168 0.0000
# 2 13.8627 133.5099 42.5393 0.0000 -16.6489 0.0000
# 3 18.7812 42.5393 100.5030 0.0000 -17.5137 0.0000
# 4 0.0000 0.0000 0.0000 10.9733 0.0000 -1.6491
# 5 -4.2168 -16.6489 -17.5137 0.0000 35.7198 0.0000
# 6 0.0000 0.0000 0.0000 -1.6491 0.0000 18.7164
#
#
#
# Elastic Compliance Matrix: (Units=1/GPa)
#
#
# Indices 1 2 3 4 5 6 
#
# 1 0.019027 -0.000952 -0.003104 0.000000 0.000281 0.000000
# 2 -0.000952 0.008906 -0.003158 0.000000 0.002490 0.000000
# 3 -0.003104 -0.003158 0.012625 0.000000 0.004352 0.000000
# 4 0.000000 0.000000 0.000000 0.092353 0.000000 0.008137
# 5 0.000281 0.002490 0.004352 0.000000 0.031323 0.000000
# 6 0.000000 0.000000 0.000000 0.008137 0.000000 0.054146
#
#
# Mechanical properties :
#
#
# Convention : Reuss Voigt Hill
#
# Bulk Modulus (GPa) = 38.26850 48.97282 43.62066
# Shear Modulus (GPa) = 20.70251 27.42895 24.06573
#
# Velocity S-wave (km/s) = 3.10489 3.57388 3.34761
# Velocity P-wave (km/s) = 5.53841 6.31149 5.93755
#
# Compressibility (1/GPa) = 0.02613115
#
# Stress axis : x y z
#
# Youngs Moduli (GPa) = 52.55678 112.28985 79.20896
#
# Poissons Ratio (x) = 0.10686 0.24586
# Poissons Ratio (y) = 0.05002 0.25011
# Poissons Ratio (z) = 0.16313 0.35457
#
# Static dielectric constant tensor:
#      x y z
#    x 4.699270 0.000000 0.629840 
#    y 0.000000 3.992870 0.000000 
#    z 0.629840 0.000000 4.485500 
# 
# 
# High freq. dielectric constant tensor:
#      x y z
#    x 1.831730 0.000000 -0.007750 
#    y 0.000000 1.852570 0.000000 
#    z -0.007750 0.000000 1.840970 
# 
# From -- ./inp_files/67362.got.cif
#   From: 2010.03.12/outbox.cif.g09.slc.cpg/sg14_34_cif.got.tgz:67362.got - 2010.03.31 13:35:05.
