data_PCOD8127569
_publ_section_title
;
Structure prediction by ZEFSAII (Michael W. Deem and Ramdas Pophale) SiO2 
 PCOD8127569
Probable space group: P 21/C
;
_chemical_formula_sum "Si O2"
_cell_formula_units_Z 24
_cell_length_a 15.234670
_cell_length_b 5.045408
_cell_length_c 13.987955
_cell_angle_alpha 90.000000
_cell_angle_beta 119.646093
_cell_angle_gamma 90.000000
_cell_volume 934.441165
_symmetry_space_group_name_H-M "P 21/C"
_symmetry_group_IT_number 14
_symmetry_cell_setting 'monoclinic'
loop_
_space_group_symop_operation_xyz
x,y,z
-x,1/2+y,1/2-z
-x,-y,-z
x,1/2-y,1/2+z
loop_
_atom_site_type_symbol
_atom_site_label
_atom_site_fract_x
_atom_site_fract_y
_atom_site_fract_z
Si Si1 0.205314 0.988614 0.138680
Si Si2 0.713275 0.834992 0.008597
Si Si3 0.005518 0.982060 0.123427
Si Si4 0.892053 0.482352 0.120636
Si Si5 0.707317 0.504568 0.715109
Si Si6 0.499185 0.346590 0.686118
O O1 0.243896 0.977634 0.051502
O O2 0.082157 0.036462 0.073982
O O3 0.269432 0.209832 0.228416
O O4 0.220152 0.705288 0.195707
O O5 0.595751 0.766059 0.930774
O O6 0.773732 0.555457 0.043423
O O7 0.730847 0.998254 0.115359
O O8 0.082538 0.006657 0.254141
O O9 0.916719 0.198867 0.087522
O O10 0.957123 0.693465 0.095620
O O11 0.590372 0.435809 0.667810
O O12 0.466567 0.587902 0.737099
#
# Coordination Sequence:
#
# PCOD8127569 Si02
#       6
#     4   4   4   4   4   4
#     4  12  26  46  76 107 152 191 249 311 363 442
#     4  12  27  46  80 109 145 201 253 295 380 449
#     4  10  22  44  66 106 147 188 234 308 353 430
#     4  10  23  40  72 104 141 194 242 288 370 431
#     4  12  26  48  73 111 148 194 248 310 371 436
#     4  12  25  50  73 108 150 194 243 314 373 435
#
# _framework density 25.683800999999999
#
# number of rings (size 3 to 8) (size 9 to 14) (size 15 to 20)
#    0.000    0.667    5.000    1.500    4.667    6.667 
#    0.000    3.333    0.000    0.000    0.000    0.000 
#    0.000    0.000    0.000    0.000    0.000    0.000 
#
# Total GULP energy -297818.576247 kJ/mol
# GULP energy per Si atom -12409.107344 kJ/mol
# Density = 2.562534 g / cm^3
# Si number density = 25.683801 Si / 1000 Ang^3
#
#
#
# Elastic Constant Matrix: (Units=GPa)
#
#
# Indices 1 2 3 4 5 6 
#
# 1 160.9813 15.9912 54.9573 0.0000 4.9510 0.0000
# 2 15.9912 99.1542 25.1687 0.0000 -14.0757 0.0000
# 3 54.9573 25.1687 103.9318 0.0000 -10.0963 0.0000
# 4 0.0000 0.0000 0.0000 34.9860 0.0000 4.8338
# 5 4.9510 -14.0757 -10.0963 0.0000 66.9723 0.0000
# 6 0.0000 0.0000 0.0000 4.8338 0.0000 31.6286
#
#
#
# Elastic Compliance Matrix: (Units=1/GPa)
#
#
# Indices 1 2 3 4 5 6 
#
# 1 0.007687 -0.000380 -0.004096 0.000000 -0.001265 0.000000
# 2 -0.000380 0.011007 -0.002270 0.000000 0.001999 0.000000
# 3 -0.004096 -0.002270 0.012503 0.000000 0.001711 0.000000
# 4 0.000000 0.000000 0.000000 0.029199 0.000000 -0.004463
# 5 -0.001265 0.001999 0.001711 0.000000 0.015703 0.000000
# 6 0.000000 0.000000 0.000000 -0.004463 0.000000 0.032299
#
#
# Mechanical properties :
#
#
# Convention : Reuss Voigt Hill
#
# Bulk Modulus (GPa) = 56.48048 61.81128 59.14588
# Shear Modulus (GPa) = 39.12624 44.58072 41.85348
#
# Velocity S-wave (km/s) = 3.90729 4.17076 4.04117
# Velocity P-wave (km/s) = 6.51109 6.87838 6.69725
#
# Compressibility (1/GPa) = 0.01770523
#
# Stress axis : x y z
#
# Youngs Moduli (GPa) = 130.09429 90.85418 79.97852
#
# Poissons Ratio (x) = 0.03450 0.32756
# Poissons Ratio (y) = 0.04940 0.18159
# Poissons Ratio (z) = 0.53281 0.20628
#
# Static dielectric constant tensor:
#      x y z
#    x 4.796590 0.000000 0.020170 
#    y 0.000000 4.455860 0.000000 
#    z 0.020170 0.000000 5.016170 
# 
# 
# High freq. dielectric constant tensor:
#      x y z
#    x 2.044900 0.000000 0.005540 
#    y 0.000000 2.023650 0.000000 
#    z 0.005540 0.000000 2.051480 
# 
# From -- ./inp_files/46005.got.cif
#   From: 2010.03.12/outbox.cif.g09.slc.cpg/sg14_24_cif.got.tgz:46005.got - 2010.03.31 13:35:05.
