data_PCOD8127682
_publ_section_title
;
Structure prediction by ZEFSAII (Michael W. Deem and Ramdas Pophale) SiO2 
 PCOD8127682
Probable space group: P 21/C
;
_chemical_formula_sum "Si O2"
_cell_formula_units_Z 28
_cell_length_a 11.103294
_cell_length_b 9.255690
_cell_length_c 25.763463
_cell_angle_alpha 90.000000
_cell_angle_beta 29.277142
_cell_angle_gamma 90.000000
_cell_volume 1294.805035
_symmetry_space_group_name_H-M "P 21/C"
_symmetry_group_IT_number 14
_symmetry_cell_setting 'monoclinic'
loop_
_space_group_symop_operation_xyz
x,y,z
-x,1/2+y,1/2-z
-x,-y,-z
x,1/2-y,1/2+z
loop_
_atom_site_type_symbol
_atom_site_label
_atom_site_fract_x
_atom_site_fract_y
_atom_site_fract_z
Si Si1 0.785425 0.698179 0.798864
Si Si2 0.826995 0.596137 0.190725
Si Si3 0.662654 0.195540 0.172511
Si Si4 0.753424 0.211280 0.530742
Si Si5 0.380774 0.682305 0.701217
Si Si6 0.147836 0.045557 0.027589
Si Si7 0.992992 0.397654 0.699391
O O1 0.872635 0.771468 0.712485
O O2 0.835775 0.803215 0.827868
O O3 0.932650 0.549064 0.749975
O O4 0.494956 0.667664 0.905675
O O5 0.559107 0.597779 0.265019
O O6 0.826413 0.444879 0.222143
O O7 0.037935 0.602634 0.068070
O O8 0.567640 0.280728 0.258198
O O9 0.732048 0.310421 0.100992
O O10 0.890959 0.091121 0.098398
O O11 0.814620 0.378013 0.497242
O O12 0.632967 0.639493 0.578860
O O13 0.266145 0.818578 0.714389
O O14 0.145821 0.076513 0.089532
#
# Coordination Sequence:
#
# PCOD8127682 Si02
#       7
#     4   4   4   4   4   4   4
#     4  11  24  44  67 101 128 176 219 284 332 397
#     4  11  23  41  66  98 138 170 228 272 326 395
#     4  10  23  36  67 101 135 176 217 277 322 394
#     4  11  23  41  70  97 137 176 225 270 338 395
#     4  11  24  42  66 100 135 175 225 275 329 399
#     4  11  22  43  69  98 133 184 222 262 343 407
#     4  11  26  45  72  96 136 169 227 279 339 397
#
# _framework density 21.624879
#
# number of rings (size 3 to 8) (size 9 to 14) (size 15 to 20)
#    0.000    1.143    4.286    2.143    2.000    5.714 
#    0.000    2.143    0.000    0.000    0.000    0.000 
#    0.000    0.000    0.000    0.000    0.000    0.000 
#
# Total GULP energy -347293.387460 kJ/mol
# GULP energy per Si atom -12403.335266 kJ/mol
# Density = 2.157566 g / cm^3
# Si number density = 21.624879 Si / 1000 Ang^3
#
#
#
# Elastic Constant Matrix: (Units=GPa)
#
#
# Indices 1 2 3 4 5 6 
#
# 1 92.5786 17.0059 40.9392 0.0000 9.5986 0.0000
# 2 17.0059 93.7349 26.7234 0.0000 7.4481 0.0000
# 3 40.9392 26.7234 111.8866 0.0000 12.2300 0.0000
# 4 0.0000 0.0000 0.0000 31.5051 0.0000 0.1901
# 5 9.5986 7.4481 12.2300 0.0000 15.2606 0.0000
# 6 0.0000 0.0000 0.0000 0.1901 0.0000 16.8841
#
#
#
# Elastic Compliance Matrix: (Units=1/GPa)
#
#
# Indices 1 2 3 4 5 6 
#
# 1 0.013271 -0.000859 -0.004147 0.000000 -0.004604 0.000000
# 2 -0.000859 0.011700 -0.002099 0.000000 -0.003488 0.000000
# 3 -0.004147 -0.002099 0.011573 0.000000 -0.005642 0.000000
# 4 0.000000 0.000000 0.000000 0.031743 0.000000 -0.000357
# 5 -0.004604 -0.003488 -0.005642 0.000000 0.074648 0.000000
# 6 0.000000 0.000000 0.000000 -0.000357 0.000000 0.059231
#
#
# Mechanical properties :
#
#
# Convention : Reuss Voigt Hill
#
# Bulk Modulus (GPa) = 44.77724 51.94858 48.36291
# Shear Modulus (GPa) = 22.33929 26.96540 24.65234
#
# Velocity S-wave (km/s) = 3.21758 3.53507 3.38005
# Velocity P-wave (km/s) = 5.87835 6.38255 6.13563
#
# Compressibility (1/GPa) = 0.02233278
#
# Stress axis : x y z
#
# Youngs Moduli (GPa) = 75.35336 85.47173 86.40761
#
# Poissons Ratio (x) = 0.07346 0.35835
# Poissons Ratio (y) = 0.06476 0.18134
# Poissons Ratio (z) = 0.31251 0.17938
#
# Static dielectric constant tensor:
#      x y z
#    x 3.934790 0.000000 0.202850 
#    y 0.000000 3.879160 0.000000 
#    z 0.202850 0.000000 4.061880 
# 
# 
# High freq. dielectric constant tensor:
#      x y z
#    x 1.851710 0.000000 0.007250 
#    y 0.000000 1.849290 0.000000 
#    z 0.007250 0.000000 1.855030 
# 
# From -- ./inp_files/77115.got.cif
#   From: 2010.03.12/outbox.cif.g09.slc.cpg/sg14_39_cif.got.tgz:77115.got - 2010.03.31 13:35:05.
