data_PCOD8127391
_publ_section_title
;
Structure prediction by ZEFSAII (Michael W. Deem and Ramdas Pophale) SiO2 
 PCOD8127391
Probable space group: P 21/C
;
_chemical_formula_sum "Si O2"
_cell_formula_units_Z 32
_cell_length_a 14.585150
_cell_length_b 8.105200
_cell_length_c 14.236269
_cell_angle_alpha 90.000000
_cell_angle_beta 61.766372
_cell_angle_gamma 90.000000
_cell_volume 1482.721286
_symmetry_space_group_name_H-M "P 21/C"
_symmetry_group_IT_number 14
_symmetry_cell_setting 'monoclinic'
loop_
_space_group_symop_operation_xyz
x,y,z
-x,1/2+y,1/2-z
-x,-y,-z
x,1/2-y,1/2+z
loop_
_atom_site_type_symbol
_atom_site_label
_atom_site_fract_x
_atom_site_fract_y
_atom_site_fract_z
Si Si1 0.574124 0.143101 0.702767
Si Si2 0.730128 0.639844 0.443279
Si Si3 0.608983 0.534371 0.996280
Si Si4 0.354821 0.014346 0.832521
Si Si5 0.257255 0.574825 0.733847
Si Si6 0.933216 0.686319 0.773085
Si Si7 0.226220 0.561388 0.220125
Si Si8 0.041481 0.471595 0.873135
O O1 0.605523 0.329964 0.666219
O O2 0.637325 0.070844 0.759254
O O3 0.600571 0.018939 0.606983
O O4 0.452069 0.139021 0.785323
O O5 0.638864 0.773555 0.472481
O O6 0.727056 0.567977 0.549042
O O7 0.709274 0.487267 0.384485
O O8 0.844344 0.711891 0.370085
O O9 0.702374 0.428120 0.907087
O O10 0.500000 0.500000 0.000000
O O11 0.294374 0.035049 0.764364
O O12 0.203225 0.753699 0.761978
O O13 0.166838 0.460195 0.821999
O O14 0.882672 0.530333 0.743901
O O15 0.991680 0.799921 0.664929
O O16 0.010073 0.620419 0.817338
O O17 0.000000 0.500000 0.000000
#
# Coordination Sequence:
#
# PCOD8127391 Si02
#       8
#     4   4   4   4   4   4   4   4
#     4  11  24  38  62  91 129 174 218 269 316 398
#     4  10  24  40  66  90 133 168 213 274 328 394
#     4  11  22  37  59  88 125 174 213 265 319 378
#     4  11  23  39  62  95 128 172 218 262 328 395
#     4  10  24  44  63  96 126 168 221 270 330 397
#     4  10  24  45  70 100 133 170 219 284 334 415
#     4  10  22  42  65  91 131 167 214 271 329 396
#     4  11  25  46  72 101 132 177 225 280 350 404
#
# _framework density 21.581938000000001
#
# number of rings (size 3 to 8) (size 9 to 14) (size 15 to 20)
#    0.000    1.500    1.250    2.250    8.750    3.500 
#    9.000    1.250    0.000    0.000    0.000    0.000 
#    0.000    0.000    0.000    0.000    0.000    0.000 
#
# Total GULP energy -396745.126640 kJ/mol
# GULP energy per Si atom -12398.285207 kJ/mol
# Density = 2.153282 g / cm^3
# Si number density = 21.581938 Si / 1000 Ang^3
#
#
#
# Elastic Constant Matrix: (Units=GPa)
#
#
# Indices 1 2 3 4 5 6 
#
# 1 75.3615 19.2528 20.4012 0.0000 12.4314 0.0000
# 2 19.2528 60.4804 24.5263 0.0000 12.6077 0.0000
# 3 20.4012 24.5263 125.5767 0.0000 6.6629 0.0000
# 4 0.0000 0.0000 0.0000 36.9335 0.0000 -0.6269
# 5 12.4314 12.6077 6.6629 0.0000 27.2885 0.0000
# 6 0.0000 0.0000 0.0000 -0.6269 0.0000 30.9352
#
#
#
# Elastic Compliance Matrix: (Units=1/GPa)
#
#
# Indices 1 2 3 4 5 6 
#
# 1 0.015361 -0.003167 -0.001604 0.000000 -0.005143 0.000000
# 2 -0.003167 0.020282 -0.003066 0.000000 -0.007179 0.000000
# 3 -0.001604 -0.003066 0.008823 0.000000 -0.000007 0.000000
# 4 0.000000 0.000000 0.000000 0.027085 0.000000 0.000549
# 5 -0.005143 -0.007179 -0.000007 0.000000 0.042307 0.000000
# 6 0.000000 0.000000 0.000000 0.000549 0.000000 0.032337
#
#
# Mechanical properties :
#
#
# Convention : Reuss Voigt Hill
#
# Bulk Modulus (GPa) = 34.73191 43.30880 39.02035
# Shear Modulus (GPa) = 29.16008 32.18065 30.67037
#
# Velocity S-wave (km/s) = 3.67976 3.86566 3.77385
# Velocity P-wave (km/s) = 5.84655 6.32733 6.09169
#
# Compressibility (1/GPa) = 0.02879197
#
# Stress axis : x y z
#
# Youngs Moduli (GPa) = 65.09936 49.30373 113.33976
#
# Poissons Ratio (x) = 0.15616 0.18181
# Poissons Ratio (y) = 0.20619 0.34748
# Poissons Ratio (z) = 0.10443 0.15116
#
# Static dielectric constant tensor:
#      x y z
#    x 3.640520 0.000000 -0.035290 
#    y 0.000000 3.738530 0.000000 
#    z -0.035290 0.000000 3.900820 
# 
# 
# High freq. dielectric constant tensor:
#      x y z
#    x 1.848520 0.000000 0.004550 
#    y 0.000000 1.854840 0.000000 
#    z 0.004550 0.000000 1.846950 
# 
# From -- ./inp_files/31799.got.cif
#   From: 2010.03.12/outbox.cif.g09.slc.cpg/sg14_16_cif.got.tgz:31799.got - 2010.03.31 13:35:05.
