data_PCOD8127109
_publ_section_title
;
Structure prediction by ZEFSAII (Michael W. Deem and Ramdas Pophale) SiO2 
 PCOD8127109
Probable space group: P 21/C
;
_chemical_formula_sum "Si O2"
_cell_formula_units_Z 24
_cell_length_a 8.477716
_cell_length_b 11.598358
_cell_length_c 12.601122
_cell_angle_alpha 90.000000
_cell_angle_beta 107.755939
_cell_angle_gamma 90.000000
_cell_volume 1180.015328
_symmetry_space_group_name_H-M "P 21/C"
_symmetry_group_IT_number 14
_symmetry_cell_setting 'monoclinic'
loop_
_space_group_symop_operation_xyz
x,y,z
-x,1/2+y,1/2-z
-x,-y,-z
x,1/2-y,1/2+z
loop_
_atom_site_type_symbol
_atom_site_label
_atom_site_fract_x
_atom_site_fract_y
_atom_site_fract_z
Si Si1 0.381865 0.821671 0.930443
Si Si2 0.668833 0.064552 0.514934
Si Si3 0.689163 0.651560 0.641754
Si Si4 0.079797 0.976092 0.905155
Si Si5 0.429587 0.959235 0.733312
Si Si6 0.225975 0.087207 0.292728
O O1 0.234219 0.892139 0.954264
O O2 0.399654 0.856509 0.810956
O O3 0.336746 0.688483 0.931231
O O4 0.551251 0.855770 0.022560
O O5 0.689794 0.071322 0.391816
O O6 0.500000 0.000000 0.500000
O O7 0.803832 0.984960 0.603640
O O8 0.858830 0.595701 0.633797
O O9 0.625361 0.582895 0.731994
O O10 0.723211 0.782197 0.676784
O O11 0.945534 0.914334 0.803916
O O12 0.000000 0.000000 0.000000
O O13 0.623264 0.969381 0.742785
#
# Coordination Sequence:
#
# PCOD8127109 Si02
#       6
#     4   4   4   4   4   4
#     4  11  22  43  68  97 125 175 223 266 320 396
#     4  10  22  39  63  99 128 166 219 264 328 378
#     4  11  23  43  67  97 130 169 225 264 322 395
#     4  11  25  43  66  95 132 177 213 270 327 389
#     4  10  22  40  70  93 126 174 217 270 318 387
#     4  11  24  41  65  99 133 169 210 281 325 381
#
# _framework density 20.338719000000001
#
# number of rings (size 3 to 8) (size 9 to 14) (size 15 to 20)
#    0.000    1.333    3.333    4.000    7.000    2.667 
#    3.000    3.333    0.000    0.000    0.000    0.000 
#    0.000    0.000    0.000    0.000    0.000    0.000 
#
# Total GULP energy -297585.838044 kJ/mol
# GULP energy per Si atom -12399.409919 kJ/mol
# Density = 2.029243 g / cm^3
# Si number density = 20.338719 Si / 1000 Ang^3
#
#
#
# Elastic Constant Matrix: (Units=GPa)
#
#
# Indices 1 2 3 4 5 6 
#
# 1 99.0564 32.8370 48.3451 0.0000 -2.5088 0.0000
# 2 32.8370 133.8002 73.1426 0.0000 -7.1591 0.0000
# 3 48.3451 73.1426 157.5647 0.0000 -3.7116 0.0000
# 4 0.0000 0.0000 0.0000 34.3898 0.0000 1.0874
# 5 -2.5088 -7.1591 -3.7116 0.0000 34.4624 0.0000
# 6 0.0000 0.0000 0.0000 1.0874 0.0000 14.3328
#
#
#
# Elastic Compliance Matrix: (Units=1/GPa)
#
#
# Indices 1 2 3 4 5 6 
#
# 1 0.012031 -0.001237 -0.003110 0.000000 0.000284 0.000000
# 2 -0.001237 0.010230 -0.004332 0.000000 0.001568 0.000000
# 3 -0.003110 -0.004332 0.009309 0.000000 -0.000124 0.000000
# 4 0.000000 0.000000 0.000000 0.029148 0.000000 -0.002211
# 5 0.000284 0.001568 -0.000124 0.000000 0.029350 0.000000
# 6 0.000000 0.000000 0.000000 -0.002211 0.000000 0.069938
#
#
# Mechanical properties :
#
#
# Convention : Reuss Voigt Hill
#
# Bulk Modulus (GPa) = 70.37261 77.67450 74.02356
# Shear Modulus (GPa) = 27.45724 32.37677 29.91701
#
# Velocity S-wave (km/s) = 3.67822 3.99416 3.83944
# Velocity P-wave (km/s) = 7.26047 7.71651 7.49196
#
# Compressibility (1/GPa) = 0.01421007
#
# Stress axis : x y z
#
# Youngs Moduli (GPa) = 83.12162 97.75642 107.42266
#
# Poissons Ratio (x) = 0.12093 0.33413
# Poissons Ratio (y) = 0.10282 0.46537
# Poissons Ratio (z) = 0.25854 0.42349
#
# Static dielectric constant tensor:
#      x y z
#    x 3.657190 0.000000 0.005470 
#    y 0.000000 3.717400 0.000000 
#    z 0.005470 0.000000 4.559850 
# 
# 
# High freq. dielectric constant tensor:
#      x y z
#    x 1.779580 0.000000 0.000300 
#    y 0.000000 1.806370 0.000000 
#    z 0.000300 0.000000 1.809400 
# 
# From -- ./inp_files/24241.got.cif
#   From: 2010.03.12/outbox.cif.g09.slc.cpg/sg14_13_cif.got.tgz:24241.got - 2010.03.31 13:35:05.
