data_PCOD8127925
_publ_section_title
;
Structure prediction by ZEFSAII (Michael W. Deem and Ramdas Pophale) SiO2 
 PCOD8127925
Probable space group: P 21/C
;
_chemical_formula_sum "Si O2"
_cell_formula_units_Z 28
_cell_length_a 9.249164
_cell_length_b 13.906545
_cell_length_c 13.938570
_cell_angle_alpha 90.000000
_cell_angle_beta 131.129028
_cell_angle_gamma 90.000000
_cell_volume 1350.416381
_symmetry_space_group_name_H-M "P 21/C"
_symmetry_group_IT_number 14
_symmetry_cell_setting 'monoclinic'
loop_
_space_group_symop_operation_xyz
x,y,z
-x,1/2+y,1/2-z
-x,-y,-z
x,1/2-y,1/2+z
loop_
_atom_site_type_symbol
_atom_site_label
_atom_site_fract_x
_atom_site_fract_y
_atom_site_fract_z
Si Si1 0.683268 0.402529 0.608796
Si Si2 0.997486 0.748492 0.278182
Si Si3 0.281169 0.255013 0.690376
Si Si4 0.456546 0.455507 0.824734
Si Si5 0.309348 0.594527 0.902641
Si Si6 0.540471 0.938223 0.167512
Si Si7 0.627008 0.746556 0.985522
O O1 0.646842 0.437273 0.483496
O O2 0.702294 0.493820 0.688344
O O3 0.498539 0.342898 0.564617
O O4 0.877758 0.342442 0.699967
O O5 0.937177 0.738969 0.364154
O O6 0.113523 0.846529 0.312279
O O7 0.801541 0.751242 0.134657
O O8 0.392151 0.352655 0.759910
O O9 0.387593 0.170403 0.794193
O O10 0.277194 0.234064 0.576487
O O11 0.294818 0.504930 0.822546
O O12 0.489400 0.524800 0.749896
O O13 0.652478 0.443113 0.972404
O O14 0.494431 0.656255 0.952034
#
# Coordination Sequence:
#
# PCOD8127925 Si02
#       7
#     4   4   4   4   4   4   4
#     4  10  23  43  68  93 130 177 208 267 327 377
#     4  11  24  43  65  99 136 163 216 268 320 389
#     4  12  23  40  65  97 132 170 217 273 320 381
#     4  11  22  42  71  94 128 173 222 261 322 389
#     4  10  23  43  68  93 130 177 208 267 327 377
#     4  11  22  42  71  94 128 173 222 261 322 389
#     4  11  21  43  66  94 132 173 211 259 326 386
#
# _framework density 20.734345000000001
#
# number of rings (size 3 to 8) (size 9 to 14) (size 15 to 20)
#    0.000    1.143    5.714    0.857    0.000    3.429 
#    0.000    2.857    0.000    0.000    0.000    0.000 
#    0.000    0.000    0.000    0.000    0.000    0.000 
#
# Total GULP energy -347198.006865 kJ/mol
# GULP energy per Si atom -12399.928817 kJ/mol
# Density = 2.068715 g / cm^3
# Si number density = 20.734345 Si / 1000 Ang^3
#
#
#
# Elastic Constant Matrix: (Units=GPa)
#
#
# Indices 1 2 3 4 5 6 
#
# 1 95.7403 8.6229 48.0030 0.0000 -1.8558 0.0000
# 2 8.6229 82.4160 21.9374 0.0000 7.7117 0.0000
# 3 48.0030 21.9374 65.4343 0.0000 -8.3040 0.0000
# 4 0.0000 0.0000 0.0000 24.9891 0.0000 -17.8697
# 5 -1.8558 7.7117 -8.3040 0.0000 36.4909 0.0000
# 6 0.0000 0.0000 0.0000 -17.8697 0.0000 14.5705
#
#
#
# Elastic Compliance Matrix: (Units=1/GPa)
#
#
# Indices 1 2 3 4 5 6 
#
# 1 0.016960 0.002057 -0.013466 0.000000 -0.002637 0.000000
# 2 0.002057 0.014147 -0.006815 0.000000 -0.004436 0.000000
# 3 -0.013466 -0.006815 0.028361 0.000000 0.007209 0.000000
# 4 0.000000 0.000000 0.000000 0.325389 0.000000 0.399066
# 5 -0.002637 -0.004436 0.007209 0.000000 0.029848 0.000000
# 6 0.000000 0.000000 0.000000 0.399066 0.000000 0.558057
#
#
# Mechanical properties :
#
#
# Convention : Reuss Voigt Hill
#
# Bulk Modulus (GPa) = 43.44051 44.52415 43.98233
# Shear Modulus (GPa) = 4.91697 26.21192 15.56445
#
# Velocity S-wave (km/s) = 1.54161 3.55939 2.74279
# Velocity P-wave (km/s) = 4.91581 6.19779 5.59365
#
# Compressibility (1/GPa) = 0.02301999
#
# Stress axis : x y z
#
# Youngs Moduli (GPa) = 58.96057 70.68427 35.25945
#
# Poissons Ratio (x) = -0.14537 0.47482
# Poissons Ratio (y) = -0.12126 0.24029
# Poissons Ratio (z) = 0.79399 0.48170
#
# Static dielectric constant tensor:
#      x y z
#    x 3.972220 0.000000 -0.320670 
#    y 0.000000 4.055790 0.000000 
#    z -0.320670 0.000000 3.575380 
# 
# 
# High freq. dielectric constant tensor:
#      x y z
#    x 1.807390 0.000000 -0.025040 
#    y 0.000000 1.837170 0.000000 
#    z -0.025040 0.000000 1.796290 
# 
# From -- ./inp_files/41145.got.cif
#   From: 2010.03.12/outbox.cif.g09.slc.cpg/sg14_21_cif.got.tgz:41145.got - 2010.03.31 13:35:05.
