data_PCOD8128961
_publ_section_title
;
Structure prediction by ZEFSAII (Michael W. Deem and Ramdas Pophale) SiO2 
 PCOD8128961
Probable space group: P 21/C
;
_chemical_formula_sum "Si O2"
_cell_formula_units_Z 24
_cell_length_a 11.535457
_cell_length_b 9.053487
_cell_length_c 11.761973
_cell_angle_alpha 90.000000
_cell_angle_beta 111.524471
_cell_angle_gamma 90.000000
_cell_volume 1142.709022
_symmetry_space_group_name_H-M "P 21/C"
_symmetry_group_IT_number 14
_symmetry_cell_setting 'monoclinic'
loop_
_space_group_symop_operation_xyz
x,y,z
-x,1/2+y,1/2-z
-x,-y,-z
x,1/2-y,1/2+z
loop_
_atom_site_type_symbol
_atom_site_label
_atom_site_fract_x
_atom_site_fract_y
_atom_site_fract_z
Si Si1 0.625896 0.427007 0.002746
Si Si2 0.765273 0.576829 0.426821
Si Si3 0.863295 0.534431 0.221503
Si Si4 0.546620 0.109885 0.920355
Si Si5 0.886916 0.873697 0.201868
Si Si6 0.313655 0.115774 0.683908
O O1 0.609869 0.251426 0.000951
O O2 0.657462 0.476457 0.885453
O O3 0.500000 0.500000 0.000000
O O4 0.735652 0.471349 0.126658
O O5 0.856004 0.538610 0.355407
O O6 0.646335 0.470512 0.376461
O O7 0.837956 0.548279 0.570032
O O8 0.719069 0.745531 0.406839
O O9 0.887658 0.698303 0.183762
O O10 0.974252 0.428574 0.221463
O O11 0.431370 0.161614 0.802391
O O12 0.500000 0.000000 0.000000
O O13 0.801232 0.924893 0.275785
#
# Coordination Sequence:
#
# PCOD8128961 Si02
#       6
#     4   4   4   4   4   4
#     4  12  25  45  69 102 139 174 227 279 343 400
#     4  11  23  46  66  98 135 177 226 280 337 395
#     4  11  26  44  71  99 135 181 222 283 335 408
#     4  12  24  40  72 100 134 173 226 280 332 404
#     4  11  24  45  68  97 139 174 230 272 341 405
#     4  11  23  45  69  97 137 179 217 285 336 397
#
# _framework density 21.002723
#
# number of rings (size 3 to 8) (size 9 to 14) (size 15 to 20)
#    0.000    0.667    3.333    5.500    2.333    3.333 
#    0.000    0.000    0.000    0.000    0.000    0.000 
#    0.000    0.000    0.000    0.000    0.000    0.000 
#
# Total GULP energy -297796.978855 kJ/mol
# GULP energy per Si atom -12408.207452 kJ/mol
# Density = 2.095492 g / cm^3
# Si number density = 21.002723 Si / 1000 Ang^3
#
#
#
# Elastic Constant Matrix: (Units=GPa)
#
#
# Indices 1 2 3 4 5 6 
#
# 1 153.4043 66.9332 50.1940 0.0000 9.8791 0.0000
# 2 66.9332 120.7634 37.1190 0.0000 -11.1086 0.0000
# 3 50.1940 37.1190 99.6834 0.0000 2.6732 0.0000
# 4 0.0000 0.0000 0.0000 25.8319 0.0000 3.8502
# 5 9.8791 -11.1086 2.6732 0.0000 34.3054 0.0000
# 6 0.0000 0.0000 0.0000 3.8502 0.0000 39.3037
#
#
#
# Elastic Compliance Matrix: (Units=1/GPa)
#
#
# Indices 1 2 3 4 5 6 
#
# 1 0.009959 -0.004973 -0.003049 0.000000 -0.004241 0.000000
# 2 -0.004973 0.012224 -0.002197 0.000000 0.005561 0.000000
# 3 -0.003049 -0.002197 0.012407 0.000000 -0.000800 0.000000
# 4 0.000000 0.000000 0.000000 0.039285 0.000000 -0.003848
# 5 -0.004241 0.005561 -0.000800 0.000000 0.032234 0.000000
# 6 0.000000 0.000000 0.000000 -0.003848 0.000000 0.025820
#
#
# Mechanical properties :
#
#
# Convention : Reuss Voigt Hill
#
# Bulk Modulus (GPa) = 70.66356 75.81595 73.23975
# Shear Modulus (GPa) = 31.82998 34.52853 33.17925
#
# Velocity S-wave (km/s) = 3.89719 4.05903 3.97893
# Velocity P-wave (km/s) = 7.34634 7.62523 7.48709
#
# Compressibility (1/GPa) = 0.01415156
#
# Stress axis : x y z
#
# Youngs Moduli (GPa) = 100.40882 81.80880 80.60121
#
# Poissons Ratio (x) = 0.40681 0.24579
# Poissons Ratio (y) = 0.49931 0.17707
# Poissons Ratio (z) = 0.30619 0.17973
#
# Static dielectric constant tensor:
#      x y z
#    x 3.951490 0.000000 0.000580 
#    y 0.000000 3.824010 0.000000 
#    z 0.000580 0.000000 3.815830 
# 
# 
# High freq. dielectric constant tensor:
#      x y z
#    x 1.835830 0.000000 -0.002230 
#    y 0.000000 1.822110 0.000000 
#    z -0.002230 0.000000 1.829910 
# 
# From -- ./inp_files/28182.got.cif
#   From: 2010.03.12/outbox.cif.g09.slc.cpg/sg14_15_cif.got.tgz:28182.got - 2010.03.31 13:35:05.
