data_PCOD8128292
_publ_section_title
;
Structure prediction by ZEFSAII (Michael W. Deem and Ramdas Pophale) SiO2 
 PCOD8128292
Probable space group: P 21/C
;
_chemical_formula_sum "Si O2"
_cell_formula_units_Z 20
_cell_length_a 11.472434
_cell_length_b 6.528549
_cell_length_c 18.661647
_cell_angle_alpha 90.000000
_cell_angle_beta 41.306514
_cell_angle_gamma 90.000000
_cell_volume 922.621212
_symmetry_space_group_name_H-M "P 21/C"
_symmetry_group_IT_number 14
_symmetry_cell_setting 'monoclinic'
loop_
_space_group_symop_operation_xyz
x,y,z
-x,1/2+y,1/2-z
-x,-y,-z
x,1/2-y,1/2+z
loop_
_atom_site_type_symbol
_atom_site_label
_atom_site_fract_x
_atom_site_fract_y
_atom_site_fract_z
Si Si1 0.566437 0.937706 0.387188
Si Si2 0.633171 0.330617 0.622359
Si Si3 0.834378 0.599627 0.281487
Si Si4 0.216594 0.752375 0.588600
Si Si5 0.362930 0.830799 0.228126
O O1 0.512184 0.836255 0.335791
O O2 0.739763 0.818286 0.334803
O O3 0.392453 0.900271 0.520983
O O4 0.612583 0.172472 0.348879
O O5 0.793152 0.314579 0.490736
O O6 0.704591 0.279435 0.668426
O O7 0.548767 0.557349 0.658071
O O8 0.763375 0.457531 0.377860
O O9 0.785311 0.492424 0.228510
O O10 0.044174 0.622652 0.190238
#
# Coordination Sequence:
#
# PCOD8128292 Si02
#       5
#     4   4   4   4   4
#     4   9  22  42  66  94 125 174 211 267 323 383
#     4   9  20  40  66  95 127 170 212 262 327 381
#     4  11  25  42  65  99 132 170 224 264 321 387
#     4  10  24  45  63  95 136 169 220 271 320 382
#     4  11  20  41  71  95 131 170 216 267 322 393
#
# _framework density 21.67737
#
# number of rings (size 3 to 8) (size 9 to 14) (size 15 to 20)
#    1.200    0.800    2.000    0.600    2.800    3.200 
#    0.000    1.000    0.000    0.000    0.000    0.000 
#    0.000    0.000    0.000    0.000    0.000    0.000 
#
# Total GULP energy -247933.924541 kJ/mol
# GULP energy per Si atom -12396.696227 kJ/mol
# Density = 2.162803 g / cm^3
# Si number density = 21.677370 Si / 1000 Ang^3
#
#
#
# Elastic Constant Matrix: (Units=GPa)
#
#
# Indices 1 2 3 4 5 6 
#
# 1 67.8819 32.5005 38.7734 0.0000 -12.9754 0.0000
# 2 32.5005 108.1106 34.6370 0.0000 -10.8781 0.0000
# 3 38.7734 34.6370 103.6551 0.0000 -4.6139 0.0000
# 4 0.0000 0.0000 0.0000 33.6222 0.0000 -0.6079
# 5 -12.9754 -10.8781 -4.6139 0.0000 37.0791 0.0000
# 6 0.0000 0.0000 0.0000 -0.6079 0.0000 40.1776
#
#
#
# Elastic Compliance Matrix: (Units=1/GPa)
#
#
# Indices 1 2 3 4 5 6 
#
# 1 0.021283 -0.003773 -0.006454 0.000000 0.005538 0.000000
# 2 -0.003773 0.011288 -0.002284 0.000000 0.001707 0.000000
# 3 -0.006454 -0.002284 0.012765 0.000000 -0.001340 0.000000
# 4 0.000000 0.000000 0.000000 0.029750 0.000000 0.000450
# 5 0.005538 0.001707 -0.001340 0.000000 0.029241 0.000000
# 6 0.000000 0.000000 0.000000 0.000450 0.000000 0.024896
#
#
# Mechanical properties :
#
#
# Convention : Reuss Voigt Hill
#
# Bulk Modulus (GPa) = 49.22986 54.60774 51.91880
# Shear Modulus (GPa) = 31.05252 33.75823 32.40537
#
# Velocity S-wave (km/s) = 3.78892 3.95055 3.87058
# Velocity P-wave (km/s) = 6.47308 6.78638 6.63158
#
# Compressibility (1/GPa) = 0.02031287
#
# Stress axis : x y z
#
# Youngs Moduli (GPa) = 46.98621 88.59149 78.33799
#
# Poissons Ratio (x) = 0.33428 0.50557
# Poissons Ratio (y) = 0.17729 0.17896
# Poissons Ratio (z) = 0.30324 0.20239
#
# Static dielectric constant tensor:
#      x y z
#    x 3.724370 0.000000 0.226260 
#    y 0.000000 3.862970 0.000000 
#    z 0.226260 0.000000 3.676810 
# 
# 
# High freq. dielectric constant tensor:
#      x y z
#    x 1.847780 0.000000 0.025800 
#    y 0.000000 1.863560 0.000000 
#    z 0.025800 0.000000 1.839510 
# 
# From -- ./inp_files/62465.got.cif
#   From: 2010.03.12/outbox.cif.g09.slc.cpg/sg14_32_cif.got.tgz:62465.got - 2010.03.31 13:35:05.
