data_PCOD8128201
_publ_section_title
;
Structure prediction by ZEFSAII (Michael W. Deem and Ramdas Pophale) SiO2 
 PCOD8128201
Probable space group: P 21/C
;
_chemical_formula_sum "Si O2"
_cell_formula_units_Z 20
_cell_length_a 5.057471
_cell_length_b 9.186179
_cell_length_c 19.022470
_cell_angle_alpha 90.000000
_cell_angle_beta 107.117186
_cell_angle_gamma 90.000000
_cell_volume 844.615346
_symmetry_space_group_name_H-M "P 21/C"
_symmetry_group_IT_number 14
_symmetry_cell_setting 'monoclinic'
loop_
_space_group_symop_operation_xyz
x,y,z
-x,1/2+y,1/2-z
-x,-y,-z
x,1/2-y,1/2+z
loop_
_atom_site_type_symbol
_atom_site_label
_atom_site_fract_x
_atom_site_fract_y
_atom_site_fract_z
Si Si1 0.200852 0.788495 0.553590
Si Si2 0.570582 0.564882 0.867422
Si Si3 0.277467 0.812111 0.905201
Si Si4 0.013928 0.379653 0.213152
Si Si5 0.763090 0.642587 0.617408
O O1 0.253429 0.961098 0.567408
O O2 0.169605 0.757136 0.469142
O O3 0.468770 0.714281 0.609802
O O4 0.926679 0.731719 0.570940
O O5 0.560219 0.725827 0.903856
O O6 0.711276 0.559801 0.801725
O O7 0.250730 0.516296 0.826902
O O8 0.315911 0.982820 0.917495
O O9 0.050132 0.779572 0.826341
O O10 0.051852 0.364065 0.298731
#
# Coordination Sequence:
#
# PCOD8128201 Si02
#       5
#     4   4   4   4   4
#     4  12  26  44  70 104 139 182 228 290 346 417
#     4  10  24  42  72  95 137 177 237 279 341 407
#     4  10  27  44  72  99 142 181 233 280 353 412
#     4  10  25  42  70  97 136 181 234 280 339 412
#     4  12  27  43  70 101 145 177 233 286 355 404
#
# _framework density 23.679417000000001
#
# number of rings (size 3 to 8) (size 9 to 14) (size 15 to 20)
#    1.200    0.000    0.000    4.200   11.200    0.800 
#    0.000    0.000    0.000    0.000    0.000    0.000 
#    0.000    0.000    0.000    0.000    0.000    0.000 
#
# Total GULP energy -247871.126295 kJ/mol
# GULP energy per Si atom -12393.556315 kJ/mol
# Density = 2.362552 g / cm^3
# Si number density = 23.679417 Si / 1000 Ang^3
#
#
#
# Elastic Constant Matrix: (Units=GPa)
#
#
# Indices 1 2 3 4 5 6 
#
# 1 107.8736 32.2388 5.0673 0.0000 -24.6133 0.0000
# 2 32.2388 80.5666 0.1513 0.0000 -0.0403 0.0000
# 3 5.0673 0.1513 102.4063 0.0000 -13.9406 0.0000
# 4 0.0000 0.0000 0.0000 25.1191 0.0000 4.0696
# 5 -24.6133 -0.0403 -13.9406 0.0000 37.0020 0.0000
# 6 0.0000 0.0000 0.0000 4.0696 0.0000 30.5874
#
#
#
# Elastic Compliance Matrix: (Units=1/GPa)
#
#
# Indices 1 2 3 4 5 6 
#
# 1 0.012749 -0.005098 0.000559 0.000000 0.008686 0.000000
# 2 -0.005098 0.014451 -0.000241 0.000000 -0.003466 0.000000
# 3 0.000559 -0.000241 0.010317 0.000000 0.004259 0.000000
# 4 0.000000 0.000000 0.000000 0.040687 0.000000 -0.005413
# 5 0.008686 -0.003466 0.004259 0.000000 0.034404 0.000000
# 6 0.000000 0.000000 0.000000 -0.005413 0.000000 0.033413
#
#
# Mechanical properties :
#
#
# Convention : Reuss Voigt Hill
#
# Bulk Modulus (GPa) = 35.76891 40.64012 38.20452
# Shear Modulus (GPa) = 30.32101 35.43430 32.87766
#
# Velocity S-wave (km/s) = 3.58226 3.87255 3.73023
# Velocity P-wave (km/s) = 5.67877 6.09881 5.89253
#
# Compressibility (1/GPa) = 0.02795724
#
# Stress axis : x y z
#
# Youngs Moduli (GPa) = 78.43535 69.19974 96.92302
#
# Poissons Ratio (x) = 0.35281 -0.05419
# Poissons Ratio (y) = 0.39989 0.02335
# Poissons Ratio (z) = -0.04385 0.01667
#
# Static dielectric constant tensor:
#      x y z
#    x 4.183390 0.000000 -0.040820 
#    y 0.000000 4.260390 0.000000 
#    z -0.040820 0.000000 3.984720 
# 
# 
# High freq. dielectric constant tensor:
#      x y z
#    x 1.944330 0.000000 -0.002090 
#    y 0.000000 1.924780 0.000000 
#    z -0.002090 0.000000 1.942630 
# 
# From -- ./inp_files/63100.got.cif
#   From: 2010.03.12/outbox.cif.g09.slc.cpg/sg14_32_cif.got.tgz:63100.got - 2010.03.31 13:35:05.
