data_PCOD8128855
_publ_section_title
;
Structure prediction by ZEFSAII (Michael W. Deem and Ramdas Pophale) SiO2 
 PCOD8128855
Probable space group: P 21/C
;
_chemical_formula_sum "Si O2"
_cell_formula_units_Z 20
_cell_length_a 19.182393
_cell_length_b 5.161644
_cell_length_c 8.972668
_cell_angle_alpha 90.000000
_cell_angle_beta 100.738858
_cell_angle_gamma 90.000000
_cell_volume 872.848941
_symmetry_space_group_name_H-M "P 21/C"
_symmetry_group_IT_number 14
_symmetry_cell_setting 'monoclinic'
loop_
_space_group_symop_operation_xyz
x,y,z
-x,1/2+y,1/2-z
-x,-y,-z
x,1/2-y,1/2+z
loop_
_atom_site_type_symbol
_atom_site_label
_atom_site_fract_x
_atom_site_fract_y
_atom_site_fract_z
Si Si1 0.900373 0.534883 0.805435
Si Si2 0.473963 0.537534 0.657099
Si Si3 0.689766 0.451443 0.394618
Si Si4 0.033224 0.718529 0.413159
Si Si5 0.259579 0.443992 0.252259
O O1 0.899168 0.336505 0.667192
O O2 0.822101 0.649855 0.794747
O O3 0.964581 0.724213 0.779407
O O4 0.930809 0.441630 0.975139
O O5 0.482557 0.270096 0.750093
O O6 0.500000 0.500000 0.500000
O O7 0.392305 0.622151 0.623236
O O8 0.729528 0.207784 0.336333
O O9 0.721252 0.508704 0.569043
O O10 0.695024 0.707084 0.294366
O O11 0.000000 0.500000 0.500000
#
# Coordination Sequence:
#
# PCOD8128855 Si02
#       5
#     4   4   4   4   4
#     4  11  25  40  68  92 127 177 221 285 338 398
#     4  12  25  45  77 105 141 184 233 285 342 406
#     4  12  26  49  69 109 141 186 230 286 342 428
#     4  11  23  42  63  92 125 163 233 278 328 395
#     4  12  28  45  73 100 150 184 232 284 358 417
#
# _framework density 22.91347
#
# number of rings (size 3 to 8) (size 9 to 14) (size 15 to 20)
#    0.000    0.400    2.000    6.600    5.600    0.000 
#    0.000    0.000    0.000    0.000    0.000    0.000 
#    0.000    0.000    0.000    0.000    0.000    0.000 
#
# Total GULP energy -247853.449897 kJ/mol
# GULP energy per Si atom -12392.672495 kJ/mol
# Density = 2.286132 g / cm^3
# Si number density = 22.913470 Si / 1000 Ang^3
#
#
#
# Elastic Constant Matrix: (Units=GPa)
#
#
# Indices 1 2 3 4 5 6 
#
# 1 128.4335 0.1275 21.1462 0.0000 6.3897 0.0000
# 2 0.1275 90.3226 21.0852 0.0000 -8.5096 0.0000
# 3 21.1462 21.0852 113.7459 0.0000 -10.1883 0.0000
# 4 0.0000 0.0000 0.0000 37.1829 0.0000 -4.1790
# 5 6.3897 -8.5096 -10.1883 0.0000 37.8011 0.0000
# 6 0.0000 0.0000 0.0000 -4.1790 0.0000 34.8718
#
#
#
# Elastic Compliance Matrix: (Units=1/GPa)
#
#
# Indices 1 2 3 4 5 6 
#
# 1 0.008158 0.000221 -0.001718 0.000000 -0.001792 0.000000
# 2 0.000221 0.011740 -0.002033 0.000000 0.002058 0.000000
# 3 -0.001718 -0.002033 0.009707 0.000000 0.002449 0.000000
# 4 0.000000 0.000000 0.000000 0.027261 0.000000 0.003267
# 5 -0.001792 0.002058 0.002449 0.000000 0.027880 0.000000
# 6 0.000000 0.000000 0.000000 0.003267 0.000000 0.029068
#
#
# Mechanical properties :
#
#
# Convention : Reuss Voigt Hill
#
# Bulk Modulus (GPa) = 44.35761 46.35776 45.35768
# Shear Modulus (GPa) = 38.94398 41.31405 40.12901
#
# Velocity S-wave (km/s) = 4.12711 4.25084 4.18943
# Velocity P-wave (km/s) = 6.48933 6.66096 6.57571
#
# Compressibility (1/GPa) = 0.02254405
#
# Stress axis : x y z
#
# Youngs Moduli (GPa) = 122.57970 85.18230 103.01704
#
# Poissons Ratio (x) = -0.01880 0.17699
# Poissons Ratio (y) = -0.02705 0.20942
# Poissons Ratio (z) = 0.21060 0.17317
#
# Static dielectric constant tensor:
#      x y z
#    x 4.352300 0.000000 -0.115860 
#    y 0.000000 5.411720 0.000000 
#    z -0.115860 0.000000 3.915480 
# 
# 
# High freq. dielectric constant tensor:
#      x y z
#    x 1.917230 0.000000 -0.007730 
#    y 0.000000 1.905170 0.000000 
#    z -0.007730 0.000000 1.929700 
# 
# From -- ./inp_files/17227.got.cif
#   From: 2010.03.12/outbox.cif.g09.slc.cpg/sg14_9_cif.got.tgz:17227.got - 2010.03.31 13:35:05.
