data_PCOD8128032
_publ_section_title
;
Structure prediction by ZEFSAII (Michael W. Deem and Ramdas Pophale) SiO2 
 PCOD8128032
Probable space group: P 21/C
;
_chemical_formula_sum "Si O2"
_cell_formula_units_Z 28
_cell_length_a 12.710691
_cell_length_b 14.602844
_cell_length_c 9.065814
_cell_angle_alpha 90.000000
_cell_angle_beta 121.263274
_cell_angle_gamma 90.000000
_cell_volume 1438.380173
_symmetry_space_group_name_H-M "P 21/C"
_symmetry_group_IT_number 14
_symmetry_cell_setting 'monoclinic'
loop_
_space_group_symop_operation_xyz
x,y,z
-x,1/2+y,1/2-z
-x,-y,-z
x,1/2-y,1/2+z
loop_
_atom_site_type_symbol
_atom_site_label
_atom_site_fract_x
_atom_site_fract_y
_atom_site_fract_z
Si Si1 0.281332 0.585488 0.523036
Si Si2 0.140198 0.768848 0.500481
Si Si3 0.125093 0.446550 0.578270
Si Si4 0.217958 0.095914 0.460838
Si Si5 0.036375 0.262097 0.380237
Si Si6 0.295507 0.564799 0.186976
Si Si7 0.475242 0.042351 0.641363
O O1 0.195362 0.670901 0.498478
O O2 0.213818 0.493079 0.523747
O O3 0.308335 0.579745 0.369842
O O4 0.407865 0.593937 0.705722
O O5 0.246336 0.844577 0.568361
O O6 0.018119 0.792412 0.316463
O O7 0.087328 0.770099 0.627095
O O8 0.104518 0.343178 0.513165
O O9 0.000000 0.500000 0.500000
O O10 0.183164 0.449949 0.781275
O O11 0.137186 0.183089 0.439310
O O12 0.201473 0.018806 0.577770
O O13 0.364744 0.118151 0.553900
O O14 0.429797 0.541051 0.215684
O O15 0.500000 0.000000 0.500000
#
# Coordination Sequence:
#
# PCOD8128032 Si02
#       7
#     4   4   4   4   4   4   4
#     4  12  23  44  69  98 131 177 227 274 326 402
#     4  12  25  41  67 100 133 172 222 275 332 401
#     4  12  23  41  67  96 134 176 218 275 340 392
#     4  10  24  44  61  97 131 175 217 272 336 394
#     4  12  24  42  64  99 139 169 222 274 337 404
#     4  10  25  42  67  99 131 172 225 274 332 392
#     4  10  23  45  69  91 135 170 225 271 335 394
#
# _framework density 19.466342000000001
#
# number of rings (size 3 to 8) (size 9 to 14) (size 15 to 20)
#    0.857    0.000    5.714    1.286    4.000    0.571 
#    2.571    1.429    0.000    0.000    0.000    0.000 
#    0.000    0.000    0.000    0.000    0.000    0.000 
#
# Total GULP energy -347084.194434 kJ/mol
# GULP energy per Si atom -12395.864087 kJ/mol
# Density = 1.942204 g / cm^3
# Si number density = 19.466342 Si / 1000 Ang^3
#
#
#
# Elastic Constant Matrix: (Units=GPa)
#
#
# Indices 1 2 3 4 5 6 
#
# 1 109.4751 26.6042 34.9695 0.0000 -4.1864 0.0000
# 2 26.6042 52.6270 26.9168 0.0000 -6.9457 0.0000
# 3 34.9695 26.9168 124.0725 0.0000 3.1618 0.0000
# 4 0.0000 0.0000 0.0000 31.3697 0.0000 3.2689
# 5 -4.1864 -6.9457 3.1618 0.0000 34.9023 0.0000
# 6 0.0000 0.0000 0.0000 3.2689 0.0000 29.2284
#
#
#
# Elastic Compliance Matrix: (Units=1/GPa)
#
#
# Indices 1 2 3 4 5 6 
#
# 1 0.010896 -0.004325 -0.002149 0.000000 0.000641 0.000000
# 2 -0.004325 0.023882 -0.004079 0.000000 0.004603 0.000000
# 3 -0.002149 -0.004079 0.009600 0.000000 -0.001939 0.000000
# 4 0.000000 0.000000 0.000000 0.032254 0.000000 -0.003607
# 5 0.000641 0.004603 -0.001939 0.000000 0.029820 0.000000
# 6 0.000000 0.000000 0.000000 -0.003607 0.000000 0.034617
#
#
# Mechanical properties :
#
#
# Convention : Reuss Voigt Hill
#
# Bulk Modulus (GPa) = 42.97053 51.46172 47.21612
# Shear Modulus (GPa) = 29.42336 32.27901 30.85118
#
# Velocity S-wave (km/s) = 3.89202 4.07651 3.98533
# Velocity P-wave (km/s) = 6.50533 6.97502 6.74426
#
# Compressibility (1/GPa) = 0.02327176
#
# Stress axis : x y z
#
# Youngs Moduli (GPa) = 91.77267 41.87273 104.16647
#
# Poissons Ratio (x) = 0.18108 0.22389
# Poissons Ratio (y) = 0.39687 0.42495
# Poissons Ratio (z) = 0.19725 0.17082
#
# Static dielectric constant tensor:
#      x y z
#    x 3.553150 0.000000 -0.105070 
#    y 0.000000 3.488550 0.000000 
#    z -0.105070 0.000000 3.626740 
# 
# 
# High freq. dielectric constant tensor:
#      x y z
#    x 1.760440 0.000000 -0.003890 
#    y 0.000000 1.745620 0.000000 
#    z -0.003890 0.000000 1.777220 
# 
# From -- ./inp_files/16298.got.cif
#   From: 2010.03.12/outbox.cif.g09.slc.cpg/sg14_9_cif.got.tgz:16298.got - 2010.03.31 13:35:05.
