data_PCOD8128327
_publ_section_title
;
Structure prediction by ZEFSAII (Michael W. Deem and Ramdas Pophale) SiO2 
 PCOD8128327
Probable space group: P 21/C
;
_chemical_formula_sum "Si O2"
_cell_formula_units_Z 20
_cell_length_a 10.375514
_cell_length_b 9.686222
_cell_length_c 11.355298
_cell_angle_alpha 90.000000
_cell_angle_beta 132.528290
_cell_angle_gamma 90.000000
_cell_volume 841.001691
_symmetry_space_group_name_H-M "P 21/C"
_symmetry_group_IT_number 14
_symmetry_cell_setting 'monoclinic'
loop_
_space_group_symop_operation_xyz
x,y,z
-x,1/2+y,1/2-z
-x,-y,-z
x,1/2-y,1/2+z
loop_
_atom_site_type_symbol
_atom_site_label
_atom_site_fract_x
_atom_site_fract_y
_atom_site_fract_z
Si Si1 0.493301 0.799871 0.803653
Si Si2 0.795739 0.507804 0.890671
Si Si3 0.897419 0.544058 0.206955
Si Si4 0.199338 0.157264 0.827384
Si Si5 0.397638 0.507911 0.816500
O O1 0.306015 0.870870 0.713700
O O2 0.454993 0.635813 0.768144
O O3 0.576265 0.865153 0.737419
O O4 0.623458 0.827991 0.991190
O O5 0.737837 0.633018 0.769110
O O6 0.765300 0.532527 0.011344
O O7 0.000000 0.500000 0.000000
O O8 0.924376 0.707970 0.242673
O O9 0.804855 0.480098 0.266045
O O10 0.084463 0.472219 0.303404
O O11 0.500000 0.500000 0.000000
#
# Coordination Sequence:
#
# PCOD8128327 Si02
#       5
#     4   4   4   4   4
#     4  12  26  46  76 106 142 196 244 300 363 436
#     4  10  24  46  71 101 146 190 235 299 365 426
#     4  11  26  48  71 104 149 190 238 309 364 434
#     4  11  26  44  73 106 144 188 248 295 368 439
#     4  12  27  48  76 106 150 187 250 303 366 432
#
# _framework density 23.781164
#
# number of rings (size 3 to 8) (size 9 to 14) (size 15 to 20)
#    0.000    0.800    4.000    0.600   11.200    5.600 
#    0.000    0.000    0.000    0.000    0.000    0.000 
#    0.000    0.000    0.000    0.000    0.000    0.000 
#
# Total GULP energy -247878.430619 kJ/mol
# GULP energy per Si atom -12393.921531 kJ/mol
# Density = 2.372704 g / cm^3
# Si number density = 23.781164 Si / 1000 Ang^3
#
#
#
# Elastic Constant Matrix: (Units=GPa)
#
#
# Indices 1 2 3 4 5 6 
#
# 1 132.4557 47.9857 30.5927 0.0000 -11.0903 0.0000
# 2 47.9857 145.0688 21.2872 0.0000 -11.1435 0.0000
# 3 30.5927 21.2872 71.2565 0.0000 -6.0785 0.0000
# 4 0.0000 0.0000 0.0000 32.0187 0.0000 3.5046
# 5 -11.0903 -11.1435 -6.0785 0.0000 44.1562 0.0000
# 6 0.0000 0.0000 0.0000 3.5046 0.0000 52.2798
#
#
#
# Elastic Compliance Matrix: (Units=1/GPa)
#
#
# Indices 1 2 3 4 5 6 
#
# 1 0.009290 -0.002517 -0.003129 0.000000 0.001268 0.000000
# 2 -0.002517 0.007996 -0.001204 0.000000 0.001220 0.000000
# 3 -0.003129 -0.001204 0.015830 0.000000 0.001089 0.000000
# 4 0.000000 0.000000 0.000000 0.031463 0.000000 -0.002109
# 5 0.001268 0.001220 0.001089 0.000000 0.023423 0.000000
# 6 0.000000 0.000000 0.000000 -0.002109 0.000000 0.019269
#
#
# Mechanical properties :
#
#
# Convention : Reuss Voigt Hill
#
# Bulk Modulus (GPa) = 51.50088 60.94579 56.22333
# Shear Modulus (GPa) = 39.23350 42.28529 40.75940
#
# Velocity S-wave (km/s) = 4.06614 4.22133 4.14446
# Velocity P-wave (km/s) = 6.61422 7.03156 6.82608
#
# Compressibility (1/GPa) = 0.01941714
#
# Stress axis : x y z
#
# Youngs Moduli (GPa) = 107.64143 125.06054 63.17233
#
# Poissons Ratio (x) = 0.31472 0.19764
# Poissons Ratio (y) = 0.27088 0.07608
# Poissons Ratio (z) = 0.33677 0.15061
#
# Static dielectric constant tensor:
#      x y z
#    x 5.116210 0.000000 -0.635290 
#    y 0.000000 4.145210 0.000000 
#    z -0.635290 0.000000 4.769110 
# 
# 
# High freq. dielectric constant tensor:
#      x y z
#    x 1.966540 0.000000 -0.002300 
#    y 0.000000 1.941300 0.000000 
#    z -0.002300 0.000000 1.937300 
# 
# From -- ./inp_files/27901.got.cif
#   From: 2010.03.12/outbox.cif.g09.slc.cpg/sg14_14_cif.got.tgz:27901.got - 2010.03.31 13:35:05.
