data_PCOD8128921
_publ_section_title
;
Structure prediction by ZEFSAII (Michael W. Deem and Ramdas Pophale) SiO2 
 PCOD8128921
Probable space group: P 21/C
;
_chemical_formula_sum "Si O2"
_cell_formula_units_Z 28
_cell_length_a 8.962648
_cell_length_b 11.533159
_cell_length_c 13.646047
_cell_angle_alpha 90.000000
_cell_angle_beta 115.580393
_cell_angle_gamma 90.000000
_cell_volume 1272.297143
_symmetry_space_group_name_H-M "P 21/C"
_symmetry_group_IT_number 14
_symmetry_cell_setting 'monoclinic'
loop_
_space_group_symop_operation_xyz
x,y,z
-x,1/2+y,1/2-z
-x,-y,-z
x,1/2-y,1/2+z
loop_
_atom_site_type_symbol
_atom_site_label
_atom_site_fract_x
_atom_site_fract_y
_atom_site_fract_z
Si Si1 0.950131 0.621166 0.535772
Si Si2 0.210810 0.655091 0.768492
Si Si3 0.731762 0.897297 0.686978
Si Si4 0.934321 0.314641 0.620091
Si Si5 0.494119 0.221239 0.763337
Si Si6 0.648813 0.766266 0.475294
Si Si7 0.586661 0.111593 0.986498
O O1 0.757603 0.647489 0.501766
O O2 0.000000 0.500000 0.500000
O O3 0.043412 0.634085 0.662813
O O4 0.000898 0.719827 0.469678
O O5 0.305748 0.533943 0.815032
O O6 0.146270 0.703496 0.852953
O O7 0.328786 0.743665 0.740591
O O8 0.590764 0.833906 0.711954
O O9 0.725567 0.860543 0.571087
O O10 0.918099 0.871457 0.775668
O O11 0.783454 0.406211 0.557844
O O12 0.374280 0.178579 0.640082
O O13 0.531345 0.125575 0.856841
O O14 0.471757 0.724670 0.468087
O O15 0.500000 0.000000 0.000000
#
# Coordination Sequence:
#
# PCOD8128921 Si02
#       7
#     4   4   4   4   4   4   4
#     4  12  22  41  73  96 129 181 225 276 332 394
#     4  12  25  43  70  99 134 178 222 278 339 397
#     4  11  26  44  68  99 136 177 221 277 341 397
#     4  12  23  42  67 103 130 168 235 275 324 402
#     4  11  24  43  65  95 136 177 221 273 334 397
#     4  11  23  44  62  97 141 173 217 278 335 402
#     4  11  25  40  68 103 128 173 235 278 323 397
#
# _framework density 22.007439000000002
#
# number of rings (size 3 to 8) (size 9 to 14) (size 15 to 20)
#    0.000    0.571    7.143    0.857    2.000    0.571 
#    0.000    2.143    0.000    0.000    0.000    0.000 
#    0.000    0.000    0.000    0.000    0.000    0.000 
#
# Total GULP energy -346915.825597 kJ/mol
# GULP energy per Si atom -12389.850914 kJ/mol
# Density = 2.195735 g / cm^3
# Si number density = 22.007439 Si / 1000 Ang^3
#
#
#
# Elastic Constant Matrix: (Units=GPa)
#
#
# Indices 1 2 3 4 5 6 
#
# 1 93.5997 28.4564 12.4330 0.0000 2.7239 0.0000
# 2 28.4564 61.2849 21.7234 0.0000 -7.6776 0.0000
# 3 12.4330 21.7234 121.9228 0.0000 -9.9976 0.0000
# 4 0.0000 0.0000 0.0000 26.9883 0.0000 -7.1292
# 5 2.7239 -7.6776 -9.9976 0.0000 48.9437 0.0000
# 6 0.0000 0.0000 0.0000 -7.1292 0.0000 26.8326
#
#
#
# Elastic Compliance Matrix: (Units=1/GPa)
#
#
# Indices 1 2 3 4 5 6 
#
# 1 0.012584 -0.005927 -0.000367 0.000000 -0.001705 0.000000
# 2 -0.005927 0.020430 -0.002793 0.000000 0.002964 0.000000
# 3 -0.000367 -0.002793 0.008851 0.000000 0.001390 0.000000
# 4 0.000000 0.000000 0.000000 0.039850 0.000000 0.010588
# 5 -0.001705 0.002964 0.001390 0.000000 0.021276 0.000000
# 6 0.000000 0.000000 0.000000 0.010588 0.000000 0.040081
#
#
# Mechanical properties :
#
#
# Convention : Reuss Voigt Hill
#
# Bulk Modulus (GPa) = 42.20745 44.67032 43.43888
# Shear Modulus (GPa) = 29.56089 34.83255 32.19672
#
# Velocity S-wave (km/s) = 3.66898 3.98271 3.82906
# Velocity P-wave (km/s) = 6.09663 6.44137 6.27137
#
# Compressibility (1/GPa) = 0.02369250
#
# Stress axis : x y z
#
# Youngs Moduli (GPa) = 79.46595 48.94663 112.98236
#
# Poissons Ratio (x) = 0.29009 0.04148
# Poissons Ratio (y) = 0.47096 0.31553
# Poissons Ratio (z) = 0.02917 0.13669
#
# Static dielectric constant tensor:
#      x y z
#    x 4.637590 0.000000 -0.369520 
#    y 0.000000 3.750190 0.000000 
#    z -0.369520 0.000000 4.843260 
# 
# 
# High freq. dielectric constant tensor:
#      x y z
#    x 1.886360 0.000000 -0.000340 
#    y 0.000000 1.824070 0.000000 
#    z -0.000340 0.000000 1.889050 
# 
# From -- ./inp_files/40388.got.cif
#   From: 2010.03.12/outbox.cif.g09.slc.cpg/sg14_21_cif.got.tgz:40388.got - 2010.03.31 13:35:05.
