data_PCOD8128636
_publ_section_title
;
Structure prediction by ZEFSAII (Michael W. Deem and Ramdas Pophale) SiO2 
 PCOD8128636
Probable space group: P 21/C
;
_chemical_formula_sum "Si O2"
_cell_formula_units_Z 24
_cell_length_a 14.804514
_cell_length_b 12.696940
_cell_length_c 10.057815
_cell_angle_alpha 90.000000
_cell_angle_beta 141.389432
_cell_angle_gamma 90.000000
_cell_volume 1179.771699
_symmetry_space_group_name_H-M "P 21/C"
_symmetry_group_IT_number 14
_symmetry_cell_setting 'monoclinic'
loop_
_space_group_symop_operation_xyz
x,y,z
-x,1/2+y,1/2-z
-x,-y,-z
x,1/2-y,1/2+z
loop_
_atom_site_type_symbol
_atom_site_label
_atom_site_fract_x
_atom_site_fract_y
_atom_site_fract_z
Si Si1 0.198345 0.442124 0.043697
Si Si2 0.270500 0.165420 0.884366
Si Si3 0.096937 0.662158 0.313775
Si Si4 0.929014 0.337409 0.015924
Si Si5 0.327291 0.497000 0.661754
Si Si6 0.633542 0.904062 0.515495
O O1 0.295811 0.387347 0.269484
O O2 0.297248 0.465043 0.030051
O O3 0.127578 0.546620 0.020560
O O4 0.071315 0.362707 0.854834
O O5 0.101385 0.165869 0.725556
O O6 0.339341 0.280379 0.964290
O O7 0.356538 0.098834 0.094144
O O8 0.142794 0.758097 0.461500
O O9 0.187353 0.559323 0.453139
O O10 0.122836 0.695933 0.190880
O O11 0.462569 0.575835 0.820977
O O12 0.293400 0.449735 0.767767
#
# Coordination Sequence:
#
# PCOD8128636 Si02
#       6
#     4   4   4   4   4   4
#     4  11  22  42  68  97 125 171 219 264 326 380
#     4  11  21  45  67  93 132 169 217 268 324 384
#     4  11  23  42  66  98 134 165 215 275 314 381
#     4  11  23  39  69 101 127 171 214 268 330 370
#     4  11  25  46  62  97 139 162 218 277 307 387
#     4  11  26  41  67  94 129 184 212 253 334 386
#
# _framework density 20.342917
#
# number of rings (size 3 to 8) (size 9 to 14) (size 15 to 20)
#    0.000    1.000    5.000    2.000    4.667    2.667 
#    6.000    0.000    0.000    0.000    0.000    0.000 
#    0.000    0.000    0.000    0.000    0.000    0.000 
#
# Total GULP energy -297734.928670 kJ/mol
# GULP energy per Si atom -12405.622028 kJ/mol
# Density = 2.029662 g / cm^3
# Si number density = 20.342917 Si / 1000 Ang^3
#
#
#
# Elastic Constant Matrix: (Units=GPa)
#
#
# Indices 1 2 3 4 5 6 
#
# 1 97.6415 42.3124 47.5762 0.0000 -31.4582 0.0000
# 2 42.3124 116.0687 38.9356 0.0000 -14.3522 0.0000
# 3 47.5762 38.9356 96.8357 0.0000 -31.7428 0.0000
# 4 0.0000 0.0000 0.0000 36.5626 0.0000 -10.1211
# 5 -31.4582 -14.3522 -31.7428 0.0000 28.2713 0.0000
# 6 0.0000 0.0000 0.0000 -10.1211 0.0000 33.1308
#
#
#
# Elastic Compliance Matrix: (Units=1/GPa)
#
#
# Indices 1 2 3 4 5 6 
#
# 1 0.018032 -0.003915 -0.002151 0.000000 0.015662 0.000000
# 2 -0.003915 0.010823 -0.003252 0.000000 -0.002514 0.000000
# 3 -0.002151 -0.003252 0.017985 0.000000 0.016149 0.000000
# 4 0.000000 0.000000 0.000000 0.029877 0.000000 0.009127
# 5 0.015662 -0.002514 0.016149 0.000000 0.069655 0.000000
# 6 0.000000 0.000000 0.000000 0.009127 0.000000 0.032972
#
#
# Mechanical properties :
#
#
# Convention : Reuss Voigt Hill
#
# Bulk Modulus (GPa) = 35.45701 63.13269 49.29485
# Shear Modulus (GPa) = 24.11012 31.70772 27.90892
#
# Velocity S-wave (km/s) = 3.44639 3.95227 3.70797
# Velocity P-wave (km/s) = 5.77099 7.20617 6.52814
#
# Compressibility (1/GPa) = 0.02820317
#
# Stress axis : x y z
#
# Youngs Moduli (GPa) = 55.45556 92.39580 55.60264
#
# Poissons Ratio (x) = 0.36177 0.11961
# Poissons Ratio (y) = 0.21713 0.18082
# Poissons Ratio (z) = 0.11929 0.30047
#
# Static dielectric constant tensor:
#      x y z
#    x 3.666170 0.000000 -0.298950 
#    y 0.000000 3.676890 0.000000 
#    z -0.298950 0.000000 3.796040 
# 
# 
# High freq. dielectric constant tensor:
#      x y z
#    x 1.790490 0.000000 -0.021580 
#    y 0.000000 1.802340 0.000000 
#    z -0.021580 0.000000 1.799230 
# 
# From -- ./inp_files/16334.got.cif
#   From: 2010.03.12/outbox.cif.g09.slc.cpg/sg14_9_cif.got.tgz:16334.got - 2010.03.31 13:35:05.
