data_PCOD8128941
_publ_section_title
;
Structure prediction by ZEFSAII (Michael W. Deem and Ramdas Pophale) SiO2 
 PCOD8128941
Probable space group: P 21/C
;
_chemical_formula_sum "Si O2"
_cell_formula_units_Z 24
_cell_length_a 9.491047
_cell_length_b 11.189017
_cell_length_c 11.727297
_cell_angle_alpha 90.000000
_cell_angle_beta 59.624542
_cell_angle_gamma 90.000000
_cell_volume 1074.432298
_symmetry_space_group_name_H-M "P 21/C"
_symmetry_group_IT_number 14
_symmetry_cell_setting 'monoclinic'
loop_
_space_group_symop_operation_xyz
x,y,z
-x,1/2+y,1/2-z
-x,-y,-z
x,1/2-y,1/2+z
loop_
_atom_site_type_symbol
_atom_site_label
_atom_site_fract_x
_atom_site_fract_y
_atom_site_fract_z
Si Si1 0.330474 0.802250 0.926203
Si Si2 0.744620 0.453324 0.106382
Si Si3 0.438190 0.909341 0.663550
Si Si4 0.837351 0.543227 0.847549
Si Si5 0.358914 0.234936 0.069206
Si Si6 0.191823 0.510376 0.653944
O O1 0.228781 0.682808 0.944165
O O2 0.317714 0.876428 0.815436
O O3 0.522452 0.779455 0.871272
O O4 0.255873 0.872721 0.063700
O O5 0.557264 0.488740 0.160833
O O6 0.782141 0.474120 0.222575
O O7 0.862664 0.532079 0.974944
O O8 0.321942 0.961348 0.612321
O O9 0.537440 0.793144 0.577250
O O10 0.792761 0.679909 0.834066
O O11 0.996786 0.501920 0.713075
O O12 0.283672 0.105939 0.066455
#
# Coordination Sequence:
#
# PCOD8128941 Si02
#       6
#     4   4   4   4   4   4
#     4  12  24  42  73 100 138 180 239 286 331 424
#     4  11  23  45  71  98 136 191 232 275 345 421
#     4  11  23  44  73  99 133 187 236 275 346 416
#     4  11  25  47  69 105 143 179 223 296 357 401
#     4  11  23  44  71  98 136 184 230 280 337 420
#     4  12  28  43  72 109 139 177 236 291 350 403
#
# _framework density 22.337378999999999
#
# number of rings (size 3 to 8) (size 9 to 14) (size 15 to 20)
#    0.000    0.667    5.000    3.000    4.667    0.667 
#    0.000    0.000    0.000    0.000    0.000    0.000 
#    0.000    0.000    0.000    0.000    0.000    0.000 
#
# Total GULP energy -297596.270455 kJ/mol
# GULP energy per Si atom -12399.844602 kJ/mol
# Density = 2.228654 g / cm^3
# Si number density = 22.337379 Si / 1000 Ang^3
#
#
#
# Elastic Constant Matrix: (Units=GPa)
#
#
# Indices 1 2 3 4 5 6 
#
# 1 71.8574 36.2235 28.1926 0.0000 -11.4082 0.0000
# 2 36.2235 133.2749 43.8199 0.0000 -6.7545 0.0000
# 3 28.1926 43.8199 90.2304 0.0000 3.8209 0.0000
# 4 0.0000 0.0000 0.0000 30.1450 0.0000 -2.8160
# 5 -11.4082 -6.7545 3.8209 0.0000 30.4130 0.0000
# 6 0.0000 0.0000 0.0000 -2.8160 0.0000 26.1745
#
#
#
# Elastic Compliance Matrix: (Units=1/GPa)
#
#
# Indices 1 2 3 4 5 6 
#
# 1 0.018341 -0.003172 -0.004476 0.000000 0.006738 0.000000
# 2 -0.003172 0.009677 -0.003769 0.000000 0.001433 0.000000
# 3 -0.004476 -0.003769 0.014495 0.000000 -0.004337 0.000000
# 4 0.000000 0.000000 0.000000 0.033510 0.000000 0.003605
# 5 0.006738 0.001433 -0.004337 0.000000 0.036271 0.000000
# 6 0.000000 0.000000 0.000000 0.003605 0.000000 0.038593
#
#
# Mechanical properties :
#
#
# Convention : Reuss Voigt Hill
#
# Bulk Modulus (GPa) = 50.81294 56.87052 53.84173
# Shear Modulus (GPa) = 27.73435 29.82159 28.77797
#
# Velocity S-wave (km/s) = 3.52747 3.65780 3.59323
# Velocity P-wave (km/s) = 6.27599 6.58441 6.43205
#
# Compressibility (1/GPa) = 0.01968003
#
# Stress axis : x y z
#
# Youngs Moduli (GPa) = 54.52226 103.33358 68.98761
#
# Poissons Ratio (x) = 0.32778 0.30876
# Poissons Ratio (y) = 0.17295 0.26004
# Poissons Ratio (z) = 0.24402 0.38950
#
# Static dielectric constant tensor:
#      x y z
#    x 3.994060 0.000000 0.026540 
#    y 0.000000 4.084150 0.000000 
#    z 0.026540 0.000000 3.885220 
# 
# 
# High freq. dielectric constant tensor:
#      x y z
#    x 1.872450 0.000000 0.005020 
#    y 0.000000 1.884350 0.000000 
#    z 0.005020 0.000000 1.878110 
# 
# From -- ./inp_files/24065.got.cif
#   From: 2010.03.12/outbox.cif.g09.slc.cpg/sg14_13_cif.got.tgz:24065.got - 2010.03.31 13:35:05.
