data_PCOD8128009
_publ_section_title
;
Structure prediction by ZEFSAII (Michael W. Deem and Ramdas Pophale) SiO2 
 PCOD8128009
Probable space group: P 21/C
;
_chemical_formula_sum "Si O2"
_cell_formula_units_Z 20
_cell_length_a 8.834080
_cell_length_b 8.693763
_cell_length_c 23.052003
_cell_angle_alpha 90.000000
_cell_angle_beta 154.352103
_cell_angle_gamma 90.000000
_cell_volume 766.310317
_symmetry_space_group_name_H-M "P 21/C"
_symmetry_group_IT_number 14
_symmetry_cell_setting 'monoclinic'
loop_
_space_group_symop_operation_xyz
x,y,z
-x,1/2+y,1/2-z
-x,-y,-z
x,1/2-y,1/2+z
loop_
_atom_site_type_symbol
_atom_site_label
_atom_site_fract_x
_atom_site_fract_y
_atom_site_fract_z
Si Si1 0.678999 0.885319 0.445210
Si Si2 0.235996 0.958970 0.985394
Si Si3 0.494866 0.715514 0.148100
Si Si4 0.756905 0.296024 0.629957
Si Si5 0.340733 0.792250 0.215248
O O1 0.392220 0.868207 0.398334
O O2 0.555507 0.773622 0.349001
O O3 0.046464 0.836754 0.600352
O O4 0.717189 0.056870 0.432953
O O5 0.234549 0.854767 0.042046
O O6 0.555380 0.079692 0.100400
O O7 0.323523 0.839273 0.963948
O O8 0.858386 0.041632 0.848171
O O9 0.604318 0.763480 0.251965
O O10 0.825646 0.707856 0.219132
#
# Coordination Sequence:
#
# PCOD8128009 Si02
#       5
#     4   4   4   4   4
#     4  11  26  48  70 106 142 188 241 296 358 431
#     4  10  23  46  70 100 144 192 232 300 359 422
#     4  12  24  42  74 104 138 188 243 291 358 429
#     4  10  23  44  73  98 143 184 241 291 359 423
#     4  11  26  48  70 103 151 185 237 300 362 427
#
# _framework density 26.099086
#
# number of rings (size 3 to 8) (size 9 to 14) (size 15 to 20)
#    0.000    1.200    2.000    2.400    8.400    4.000 
#    7.200    0.000    0.000    0.000    0.000    0.000 
#    0.000    0.000    0.000    0.000    0.000    0.000 
#
# Total GULP energy -247783.219004 kJ/mol
# GULP energy per Si atom -12389.160950 kJ/mol
# Density = 2.603968 g / cm^3
# Si number density = 26.099086 Si / 1000 Ang^3
#
#
#
# Elastic Constant Matrix: (Units=GPa)
#
#
# Indices 1 2 3 4 5 6 
#
# 1 94.0380 40.2687 -1.5287 0.0000 4.7781 0.0000
# 2 40.2687 68.9078 5.5193 0.0000 -0.8865 0.0000
# 3 -1.5287 5.5193 49.8324 0.0000 17.3453 0.0000
# 4 0.0000 0.0000 0.0000 22.6940 0.0000 -4.7020
# 5 4.7781 -0.8865 17.3453 0.0000 30.4713 0.0000
# 6 0.0000 0.0000 0.0000 -4.7020 0.0000 26.6846
#
#
#
# Elastic Compliance Matrix: (Units=1/GPa)
#
#
# Indices 1 2 3 4 5 6 
#
# 1 0.014695 -0.008874 0.002900 0.000000 -0.004213 0.000000
# 2 -0.008874 0.020071 -0.003969 0.000000 0.004235 0.000000
# 3 0.002900 -0.003969 0.025932 0.000000 -0.015332 0.000000
# 4 0.000000 0.000000 0.000000 0.045734 0.000000 0.008059
# 5 -0.004213 0.004235 -0.015332 0.000000 0.042329 0.000000
# 6 0.000000 0.000000 0.000000 0.008059 0.000000 0.038895
#
#
# Mechanical properties :
#
#
# Convention : Reuss Voigt Hill
#
# Bulk Modulus (GPa) = 24.50262 33.47744 28.99003
# Shear Modulus (GPa) = 22.60941 27.20457 24.90699
#
# Velocity S-wave (km/s) = 2.94648 3.23206 3.09257
# Velocity P-wave (km/s) = 4.58086 5.17525 4.88710
#
# Compressibility (1/GPa) = 0.04081196
#
# Stress axis : x y z
#
# Youngs Moduli (GPa) = 68.04878 49.82429 38.56166
#
# Poissons Ratio (x) = 0.44215 -0.11184
# Poissons Ratio (y) = 0.60388 0.15306
# Poissons Ratio (z) = -0.19736 0.19776
#
# Static dielectric constant tensor:
#      x y z
#    x 4.865070 0.000000 0.135620 
#    y 0.000000 4.747930 0.000000 
#    z 0.135620 0.000000 4.345210 
# 
# 
# High freq. dielectric constant tensor:
#      x y z
#    x 2.053350 0.000000 0.009920 
#    y 0.000000 2.037420 0.000000 
#    z 0.009920 0.000000 2.038500 
# 
# From -- ./inp_files/72111.got.cif
#   From: 2010.03.12/outbox.cif.g09.slc.cpg/sg14_37_cif.got.tgz:72111.got - 2010.03.31 13:35:05.
