data_PCOD8128852
_publ_section_title
;
Structure prediction by ZEFSAII (Michael W. Deem and Ramdas Pophale) SiO2 
 PCOD8128852
Probable space group: P 21/C
;
_chemical_formula_sum "Si O2"
_cell_formula_units_Z 28
_cell_length_a 32.533857
_cell_length_b 5.106655
_cell_length_c 8.934028
_cell_angle_alpha 90.000000
_cell_angle_beta 124.213927
_cell_angle_gamma 90.000000
_cell_volume 1227.426347
_symmetry_space_group_name_H-M "P 21/C"
_symmetry_group_IT_number 14
_symmetry_cell_setting 'monoclinic'
loop_
_space_group_symop_operation_xyz
x,y,z
-x,1/2+y,1/2-z
-x,-y,-z
x,1/2-y,1/2+z
loop_
_atom_site_type_symbol
_atom_site_label
_atom_site_fract_x
_atom_site_fract_y
_atom_site_fract_z
Si Si1 0.668925 0.032171 0.828333
Si Si2 0.181655 0.061567 0.525060
Si Si3 0.023636 0.719487 0.947495
Si Si4 0.481427 0.484247 0.293783
Si Si5 0.930019 0.539522 0.201642
Si Si6 0.367321 0.022985 0.579428
Si Si7 0.782615 0.447656 0.570107
O O1 0.659419 0.752674 0.884238
O O2 0.634017 0.254392 0.828897
O O3 0.659862 0.014741 0.633481
O O4 0.725081 0.124026 0.973024
O O5 0.124640 0.159470 0.390489
O O6 0.189304 0.797512 0.445969
O O7 0.193725 0.010673 0.721892
O O8 0.214933 0.297861 0.531269
O O9 0.071293 0.663523 0.938307
O O10 0.048691 0.946632 0.096069
O O11 0.975627 0.774723 0.741241
O O12 0.000000 0.500000 0.000000
O O13 0.512979 0.266008 0.271797
O O14 0.500000 0.500000 0.500000
O O15 0.424238 0.398296 0.169956
#
# Coordination Sequence:
#
# PCOD8128852 Si02
#       7
#     4   4   4   4   4   4   4
#     4  12  24  44  70  96 134 170 232 279 332 397
#     4  12  27  44  71  98 135 172 219 266 343 398
#     4  11  23  42  61  92 121 161 204 253 307 364
#     4  12  24  42  64  97 142 180 225 278 333 396
#     4  11  25  39  67  88 126 161 208 255 309 390
#     4  12  24  42  69 101 130 184 226 277 334 395
#     4  12  26  48  68 102 132 176 216 284 335 394
#
# _framework density 22.811962000000001
#
# number of rings (size 3 to 8) (size 9 to 14) (size 15 to 20)
#    0.000    0.286    1.429    8.143    4.000    0.000 
#    0.000    0.000    0.000    0.000    0.000    0.000 
#    0.000    0.000    0.000    0.000    0.000    0.000 
#
# Total GULP energy -347158.667821 kJ/mol
# GULP energy per Si atom -12398.523851 kJ/mol
# Density = 2.276004 g / cm^3
# Si number density = 22.811962 Si / 1000 Ang^3
#
#
#
# Elastic Constant Matrix: (Units=GPa)
#
#
# Indices 1 2 3 4 5 6 
#
# 1 94.6662 15.6865 28.6851 0.0000 6.8507 0.0000
# 2 15.6865 99.6530 17.9668 0.0000 -21.6591 0.0000
# 3 28.6851 17.9668 101.7610 0.0000 -4.3301 0.0000
# 4 0.0000 0.0000 0.0000 31.4265 0.0000 -5.0999
# 5 6.8507 -21.6591 -4.3301 0.0000 51.3607 0.0000
# 6 0.0000 0.0000 0.0000 -5.0999 0.0000 37.4394
#
#
#
# Elastic Compliance Matrix: (Units=1/GPa)
#
#
# Indices 1 2 3 4 5 6 
#
# 1 0.012033 -0.001904 -0.003170 0.000000 -0.002675 0.000000
# 2 -0.001904 0.011671 -0.001308 0.000000 0.005066 0.000000
# 3 -0.003170 -0.001308 0.010985 0.000000 0.000797 0.000000
# 4 0.000000 0.000000 0.000000 0.032540 0.000000 0.004432
# 5 -0.002675 0.005066 0.000797 0.000000 0.022030 0.000000
# 6 0.000000 0.000000 0.000000 0.004432 0.000000 0.027314
#
#
# Mechanical properties :
#
#
# Convention : Reuss Voigt Hill
#
# Bulk Modulus (GPa) = 45.60890 46.75078 46.17984
# Shear Modulus (GPa) = 36.59091 39.62812 38.10952
#
# Velocity S-wave (km/s) = 4.00937 4.17245 4.09172
# Velocity P-wave (km/s) = 6.43974 6.61445 6.52768
#
# Compressibility (1/GPa) = 0.02192555
#
# Stress axis : x y z
#
# Youngs Moduli (GPa) = 83.10501 85.67939 91.03043
#
# Poissons Ratio (x) = 0.16314 0.28853
# Poissons Ratio (y) = 0.15824 0.11910
# Poissons Ratio (z) = 0.26341 0.11210
#
# Static dielectric constant tensor:
#      x y z
#    x 4.270520 0.000000 0.065670 
#    y 0.000000 5.420070 0.000000 
#    z 0.065670 0.000000 3.926480 
# 
# 
# High freq. dielectric constant tensor:
#      x y z
#    x 1.917490 0.000000 -0.009370 
#    y 0.000000 1.905090 0.000000 
#    z -0.009370 0.000000 1.917640 
# 
# From -- ./inp_files/19859.got.cif
#   From: 2010.03.12/outbox.cif.g09.slc.cpg/sg14_10_cif.got.tgz:19859.got - 2010.03.31 13:35:05.
