data_PCOD8128569
_publ_section_title
;
Structure prediction by ZEFSAII (Michael W. Deem and Ramdas Pophale) SiO2 
 PCOD8128569
Probable space group: P 21/C
;
_chemical_formula_sum "Si O2"
_cell_formula_units_Z 28
_cell_length_a 9.436263
_cell_length_b 13.791988
_cell_length_c 16.194214
_cell_angle_alpha 90.000000
_cell_angle_beta 139.650327
_cell_angle_gamma 90.000000
_cell_volume 1364.562748
_symmetry_space_group_name_H-M "P 21/C"
_symmetry_group_IT_number 14
_symmetry_cell_setting 'monoclinic'
loop_
_space_group_symop_operation_xyz
x,y,z
-x,1/2+y,1/2-z
-x,-y,-z
x,1/2-y,1/2+z
loop_
_atom_site_type_symbol
_atom_site_label
_atom_site_fract_x
_atom_site_fract_y
_atom_site_fract_z
Si Si1 0.679984 0.710819 0.908885
Si Si2 0.979386 0.299297 0.558661
Si Si3 0.924215 0.564384 0.125411
Si Si4 0.737673 0.117790 0.470539
Si Si5 0.268085 0.063611 0.286949
Si Si6 0.386149 0.610504 0.272534
Si Si7 0.633998 0.067866 0.819881
O O1 0.527572 0.799818 0.870824
O O2 0.552363 0.644548 0.786361
O O3 0.899149 0.749682 0.963915
O O4 0.758475 0.649128 0.022821
O O5 0.842926 0.218163 0.548809
O O6 0.826766 0.384263 0.457106
O O7 0.155439 0.341530 0.699566
O O8 0.859670 0.530276 0.188442
O O9 0.176306 0.597885 0.238120
O O10 0.904520 0.471575 0.056394
O O11 0.515487 0.093498 0.420928
O O12 0.691061 0.134367 0.353721
O O13 0.267110 0.976626 0.220450
O O14 0.533862 0.514058 0.335410
#
# Coordination Sequence:
#
# PCOD8128569 Si02
#       7
#     4   4   4   4   4   4   4
#     4  12  21  38  69  93 122 162 218 255 303 377
#     4  12  22  42  68  95 122 167 215 259 303 371
#     4  12  24  42  63  93 134 163 201 266 319 360
#     4  11  21  40  66  89 123 165 218 246 304 380
#     4  11  25  41  61  96 129 165 204 260 321 366
#     4  11  22  39  63  97 119 169 216 248 307 381
#     4  11  22  41  68  88 127 163 214 259 302 372
#
# _framework density 20.519393999999998
#
# number of rings (size 3 to 8) (size 9 to 14) (size 15 to 20)
#    0.000    0.571    8.571    2.143    0.000    1.143 
#    2.571    0.714    0.000    0.000    0.000    0.000 
#    0.000    0.000    0.000    0.000    0.000    0.000 
#
# Total GULP energy -347322.121326 kJ/mol
# GULP energy per Si atom -12404.361476 kJ/mol
# Density = 2.047269 g / cm^3
# Si number density = 20.519394 Si / 1000 Ang^3
#
#
#
# Elastic Constant Matrix: (Units=GPa)
#
#
# Indices 1 2 3 4 5 6 
#
# 1 96.0228 28.8579 22.7303 0.0000 15.6997 0.0000
# 2 28.8579 144.7638 52.9831 0.0000 20.0343 0.0000
# 3 22.7303 52.9831 60.7331 0.0000 15.6650 0.0000
# 4 0.0000 0.0000 0.0000 40.2226 0.0000 17.9214
# 5 15.6997 20.0343 15.6650 0.0000 23.6019 0.0000
# 6 0.0000 0.0000 0.0000 17.9214 0.0000 22.4546
#
#
#
# Elastic Compliance Matrix: (Units=1/GPa)
#
#
# Indices 1 2 3 4 5 6 
#
# 1 0.012163 -0.000735 -0.002395 0.000000 -0.005877 0.000000
# 2 -0.000735 0.010410 -0.008028 0.000000 -0.003020 0.000000
# 3 -0.002395 -0.008028 0.026782 0.000000 -0.009368 0.000000
# 4 0.000000 0.000000 0.000000 0.038581 0.000000 -0.030792
# 5 -0.005877 -0.003020 -0.009368 0.000000 0.055060 0.000000
# 6 0.000000 0.000000 0.000000 -0.030792 0.000000 0.069110
#
#
# Mechanical properties :
#
#
# Convention : Reuss Voigt Hill
#
# Bulk Modulus (GPa) = 36.98365 56.74027 46.86196
# Shear Modulus (GPa) = 20.53928 30.38571 25.46250
#
# Velocity S-wave (km/s) = 3.16724 3.85233 3.52646
# Velocity P-wave (km/s) = 5.60697 6.89197 6.28241
#
# Compressibility (1/GPa) = 0.02703897
#
# Stress axis : x y z
#
# Youngs Moduli (GPa) = 82.21718 96.05750 37.33863
#
# Poissons Ratio (x) = 0.07055 0.08944
# Poissons Ratio (y) = 0.06039 0.29976
# Poissons Ratio (z) = 0.19695 0.77117
#
# Static dielectric constant tensor:
#      x y z
#    x 3.514160 0.000000 0.353590 
#    y 0.000000 3.948590 0.000000 
#    z 0.353590 0.000000 3.748930 
# 
# 
# High freq. dielectric constant tensor:
#      x y z
#    x 1.779410 0.000000 0.029840 
#    y 0.000000 1.817760 0.000000 
#    z 0.029840 0.000000 1.800100 
# 
# From -- ./inp_files/34076.got.cif
#   From: 2010.03.12/outbox.cif.g09.slc.cpg/sg14_18_cif.got.tgz:34076.got - 2010.03.31 13:35:05.
