data_PCOD8128095
_publ_section_title
;
Structure prediction by ZEFSAII (Michael W. Deem and Ramdas Pophale) SiO2 
 PCOD8128095
Probable space group: P 21/C
;
_chemical_formula_sum "Si O2"
_cell_formula_units_Z 20
_cell_length_a 5.104678
_cell_length_b 10.932471
_cell_length_c 15.924108
_cell_angle_alpha 90.000000
_cell_angle_beta 70.885653
_cell_angle_gamma 90.000000
_cell_volume 839.677386
_symmetry_space_group_name_H-M "P 21/C"
_symmetry_group_IT_number 14
_symmetry_cell_setting 'monoclinic'
loop_
_space_group_symop_operation_xyz
x,y,z
-x,1/2+y,1/2-z
-x,-y,-z
x,1/2-y,1/2+z
loop_
_atom_site_type_symbol
_atom_site_label
_atom_site_fract_x
_atom_site_fract_y
_atom_site_fract_z
Si Si1 0.442701 0.190476 0.928617
Si Si2 0.638225 0.542881 0.332750
Si Si3 0.264340 0.631318 0.981375
Si Si4 0.733310 0.922999 0.632572
Si Si5 0.959093 0.341785 0.586834
O O1 0.398963 0.287555 0.858049
O O2 0.665203 0.090430 0.874475
O O3 0.534468 0.265886 0.001790
O O4 0.158204 0.121302 0.986628
O O5 0.691604 0.524887 0.229162
O O6 0.873563 0.632822 0.344450
O O7 0.327870 0.586249 0.382769
O O8 0.412252 0.513575 0.921836
O O9 0.099186 0.696993 0.921264
O O10 0.057828 0.584572 0.075770
#
# Coordination Sequence:
#
# PCOD8128095 Si02
#       5
#     4   4   4   4   4
#     4  11  24  45  76  97 145 189 232 282 358 416
#     4  12  27  42  72 107 141 177 241 293 343 410
#     4  10  23  48  72  99 143 191 230 283 355 426
#     4  10  26  44  67 109 138 188 233 291 347 417
#     4  11  25  46  70 102 140 183 230 289 352 412
#
# _framework density 23.818674999999999
#
# number of rings (size 3 to 8) (size 9 to 14) (size 15 to 20)
#    0.000    1.200    2.000    1.800   11.200    0.000 
#    0.000    0.000    0.000    0.000    0.000    0.000 
#    0.000    0.000    0.000    0.000    0.000    0.000 
#
# Total GULP energy -247879.971420 kJ/mol
# GULP energy per Si atom -12393.998571 kJ/mol
# Density = 2.376446 g / cm^3
# Si number density = 23.818675 Si / 1000 Ang^3
#
#
#
# Elastic Constant Matrix: (Units=GPa)
#
#
# Indices 1 2 3 4 5 6 
#
# 1 92.6890 38.0308 9.3976 0.0000 5.6655 0.0000
# 2 38.0308 92.6677 67.4637 0.0000 -16.1399 0.0000
# 3 9.3976 67.4637 93.2363 0.0000 3.1499 0.0000
# 4 0.0000 0.0000 0.0000 35.9549 0.0000 10.7636
# 5 5.6655 -16.1399 3.1499 0.0000 20.2064 0.0000
# 6 0.0000 0.0000 0.0000 10.7636 0.0000 28.1349
#
#
#
# Elastic Compliance Matrix: (Units=1/GPa)
#
#
# Indices 1 2 3 4 5 6 
#
# 1 0.023855 -0.031954 0.021921 0.000000 -0.035629 0.000000
# 2 -0.031954 0.079876 -0.057336 0.000000 0.081698 0.000000
# 3 0.021921 -0.057336 0.052032 0.000000 -0.060054 0.000000
# 4 0.000000 0.000000 0.000000 0.031410 0.000000 -0.012016
# 5 -0.035629 0.081698 -0.060054 0.000000 0.134097 0.000000
# 6 0.000000 0.000000 0.000000 -0.012016 0.000000 0.040140
#
#
# Mechanical properties :
#
#
# Convention : Reuss Voigt Hill
#
# Bulk Modulus (GPa) = 47.56465 56.48634 52.02550
# Shear Modulus (GPa) = 9.93725 27.77264 18.85495
#
# Velocity S-wave (km/s) = 2.04477 3.41838 2.81660
# Velocity P-wave (km/s) = 5.05842 6.27273 5.69801
#
# Compressibility (1/GPa) = 0.02102402
#
# Stress axis : x y z
#
# Youngs Moduli (GPa) = 41.92001 12.51940 19.21900
#
# Poissons Ratio (x) = 0.40005 -0.42129
# Poissons Ratio (y) = 1.33951 1.10194
# Poissons Ratio (z) = -0.91891 0.71781
#
# Static dielectric constant tensor:
#      x y z
#    x 4.234470 0.000000 0.016780 
#    y 0.000000 4.512640 0.000000 
#    z 0.016780 0.000000 4.022080 
# 
# 
# High freq. dielectric constant tensor:
#      x y z
#    x 1.937380 0.000000 0.000620 
#    y 0.000000 1.958290 0.000000 
#    z 0.000620 0.000000 1.925900 
# 
# From -- ./inp_files/36832.got.cif
#   From: 2010.03.12/outbox.cif.g09.slc.cpg/sg14_19_cif.got.tgz:36832.got - 2010.03.31 13:35:05.
