data_PCOD8128684
_publ_section_title
;
Structure prediction by ZEFSAII (Michael W. Deem and Ramdas Pophale) SiO2 
 PCOD8128684
Probable space group: P 21/C
;
_chemical_formula_sum "Si O2"
_cell_formula_units_Z 24
_cell_length_a 9.556185
_cell_length_b 13.674397
_cell_length_c 18.923660
_cell_angle_alpha 90.000000
_cell_angle_beta 27.357936
_cell_angle_gamma 90.000000
_cell_volume 1136.393193
_symmetry_space_group_name_H-M "P 21/C"
_symmetry_group_IT_number 14
_symmetry_cell_setting 'monoclinic'
loop_
_space_group_symop_operation_xyz
x,y,z
-x,1/2+y,1/2-z
-x,-y,-z
x,1/2-y,1/2+z
loop_
_atom_site_type_symbol
_atom_site_label
_atom_site_fract_x
_atom_site_fract_y
_atom_site_fract_z
Si Si1 0.974805 0.850981 0.809919
Si Si2 0.431328 0.522097 0.182493
Si Si3 0.488961 0.841106 0.261665
Si Si4 0.809696 0.852246 0.616312
Si Si5 0.016010 0.533417 0.153679
Si Si6 0.645023 0.156057 0.837907
O O1 0.113458 0.937359 0.796095
O O2 0.144538 0.750414 0.749408
O O3 0.015320 0.878796 0.709902
O O4 0.617629 0.840410 0.985581
O O5 0.359087 0.434156 0.268566
O O6 0.607614 0.608765 0.142879
O O7 0.635541 0.487311 0.024604
O O8 0.667314 0.746840 0.210629
O O9 0.522186 0.849219 0.162637
O O10 0.138776 0.829299 0.438021
O O11 0.826869 0.933922 0.669289
O O12 0.857226 0.437634 0.256834
#
# Coordination Sequence:
#
# PCOD8128684 Si02
#       6
#     4   4   4   4   4   4
#     4  12  27  39  68  94 128 169 208 256 315 379
#     4  11  22  43  66  94 121 169 209 259 314 366
#     4  11  22  39  67  93 125 163 215 260 309 368
#     4  11  22  40  66  93 123 168 208 262 311 366
#     4  11  24  45  64  91 132 164 210 260 313 375
#     4  12  23  43  64  93 130 168 208 259 316 369
#
# _framework density 21.119451000000002
#
# number of rings (size 3 to 8) (size 9 to 14) (size 15 to 20)
#    0.000    0.667    5.000    4.000    0.000    6.000 
#    0.000    0.000    0.000    0.000    0.000    0.000 
#    0.000    0.000    0.000    0.000    0.000    0.000 
#
# Total GULP energy -297791.007904 kJ/mol
# GULP energy per Si atom -12407.958663 kJ/mol
# Density = 2.107138 g / cm^3
# Si number density = 21.119451 Si / 1000 Ang^3
#
#
#
# Elastic Constant Matrix: (Units=GPa)
#
#
# Indices 1 2 3 4 5 6 
#
# 1 53.1331 3.5717 14.7333 0.0000 15.4864 0.0000
# 2 3.5717 89.9705 29.9708 0.0000 6.0931 0.0000
# 3 14.7333 29.9708 62.6316 0.0000 15.4199 0.0000
# 4 0.0000 0.0000 0.0000 36.3733 0.0000 5.5008
# 5 15.4864 6.0931 15.4199 0.0000 24.0291 0.0000
# 6 0.0000 0.0000 0.0000 5.5008 0.0000 28.0219
#
#
#
# Elastic Compliance Matrix: (Units=1/GPa)
#
#
# Indices 1 2 3 4 5 6 
#
# 1 0.023464 0.000846 -0.002552 0.000000 -0.013699 0.000000
# 2 0.000846 0.013267 -0.006633 0.000000 0.000347 0.000000
# 3 -0.002552 -0.006633 0.022472 0.000000 -0.011094 0.000000
# 4 0.000000 0.000000 0.000000 0.028334 0.000000 -0.005562
# 5 -0.013699 0.000347 -0.011094 0.000000 0.057477 0.000000
# 6 0.000000 0.000000 0.000000 -0.005562 0.000000 0.036778
#
#
# Mechanical properties :
#
#
# Convention : Reuss Voigt Hill
#
# Bulk Modulus (GPa) = 23.51494 33.58744 28.55119
# Shear Modulus (GPa) = 23.51331 28.18214 25.84772
#
# Velocity S-wave (km/s) = 3.34031 3.65693 3.50220
# Velocity P-wave (km/s) = 5.10248 5.81110 5.46828
#
# Compressibility (1/GPa) = 0.04252616
#
# Stress axis : x y z
#
# Youngs Moduli (GPa) = 42.61807 75.37314 44.49932
#
# Poissons Ratio (x) = -0.06379 0.11356
# Poissons Ratio (y) = -0.03607 0.29518
# Poissons Ratio (z) = 0.10876 0.49997
#
# Static dielectric constant tensor:
#      x y z
#    x 3.781450 0.000000 0.080380 
#    y 0.000000 3.960940 0.000000 
#    z 0.080380 0.000000 3.737930 
# 
# 
# High freq. dielectric constant tensor:
#      x y z
#    x 1.821670 0.000000 0.003430 
#    y 0.000000 1.842710 0.000000 
#    z 0.003430 0.000000 1.826520 
# 
# From -- ./inp_files/8597.got.cif
#   From: 2010.03.12/outbox.cif.g09.slc.cpg/sg14_5_cif.got.tgz:8597.got - 2010.03.31 13:35:05.
