data_PCOD8128041
_publ_section_title
;
Structure prediction by ZEFSAII (Michael W. Deem and Ramdas Pophale) SiO2 
 PCOD8128041
Probable space group: P 21/C
;
_chemical_formula_sum "Si O2"
_cell_formula_units_Z 32
_cell_length_a 12.468486
_cell_length_b 8.408902
_cell_length_c 14.464392
_cell_angle_alpha 90.000000
_cell_angle_beta 71.086863
_cell_angle_gamma 90.000000
_cell_volume 1434.661396
_symmetry_space_group_name_H-M "P 21/C"
_symmetry_group_IT_number 14
_symmetry_cell_setting 'monoclinic'
loop_
_space_group_symop_operation_xyz
x,y,z
-x,1/2+y,1/2-z
-x,-y,-z
x,1/2-y,1/2+z
loop_
_atom_site_type_symbol
_atom_site_label
_atom_site_fract_x
_atom_site_fract_y
_atom_site_fract_z
Si Si1 0.692745 0.681209 0.916663
Si Si2 0.729312 0.378699 0.605248
Si Si3 0.064798 0.696672 0.749615
Si Si4 0.973071 0.326855 0.544689
Si Si5 0.143134 0.346975 0.755872
Si Si6 0.456350 0.675465 0.493441
Si Si7 0.790442 0.748114 0.575720
Si Si8 0.704800 0.342466 0.826062
O O1 0.777582 0.820194 0.856422
O O2 0.562488 0.719278 0.933352
O O3 0.719293 0.521197 0.855803
O O4 0.714655 0.662485 0.020345
O O5 0.845281 0.281964 0.547286
O O6 0.632301 0.318662 0.564881
O O7 0.752897 0.565253 0.587247
O O8 0.690133 0.337837 0.719892
O O9 0.029992 0.814922 0.843130
O O10 0.081048 0.515736 0.775435
O O11 0.182076 0.752654 0.671624
O O12 0.958248 0.714388 0.709176
O O13 0.000000 0.500000 0.500000
O O14 0.075761 0.216956 0.481271
O O15 0.228627 0.326958 0.818786
O O16 0.500000 0.500000 0.500000
O O17 0.402128 0.751203 0.600550
#
# Coordination Sequence:
#
# PCOD8128041 Si02
#       8
#     4   4   4   4   4   4   4   4
#     4  12  25  47  71 107 143 186 241 295 357 423
#     4  10  23  45  70 105 138 189 234 289 362 417
#     4  11  25  43  68 107 146 186 235 289 371 422
#     4   9  21  39  68  99 138 181 230 284 350 422
#     4  12  26  43  69 107 146 188 232 302 355 441
#     4  12  26  45  74 104 139 186 241 296 353 434
#     4  11  23  42  72 100 143 185 237 290 358 422
#     4  11  26  47  72 104 142 190 236 298 357 429
#
# _framework density 22.304912999999999
#
# number of rings (size 3 to 8) (size 9 to 14) (size 15 to 20)
#    0.000    1.000    3.750    1.875    5.250    4.500 
#    0.000    0.000    0.000    0.000    0.000    0.000 
#    0.000    0.000    0.000    0.000    0.000    0.000 
#
# Total GULP energy -396767.093309 kJ/mol
# GULP energy per Si atom -12398.971666 kJ/mol
# Density = 2.225415 g / cm^3
# Si number density = 22.304913 Si / 1000 Ang^3
#
#
#
# Elastic Constant Matrix: (Units=GPa)
#
#
# Indices 1 2 3 4 5 6 
#
# 1 162.5590 32.4629 49.7574 0.0000 5.5616 0.0000
# 2 32.4629 79.3417 35.3228 0.0000 -2.8526 0.0000
# 3 49.7574 35.3228 85.7659 0.0000 4.3033 0.0000
# 4 0.0000 0.0000 0.0000 37.5544 0.0000 -3.4935
# 5 5.5616 -2.8526 4.3033 0.0000 45.5498 0.0000
# 6 0.0000 0.0000 0.0000 -3.4935 0.0000 32.8961
#
#
#
# Elastic Compliance Matrix: (Units=1/GPa)
#
#
# Indices 1 2 3 4 5 6 
#
# 1 0.007625 -0.001456 -0.003791 0.000000 -0.000664 0.000000
# 2 -0.001456 0.015825 -0.005759 0.000000 0.001713 0.000000
# 3 -0.003791 -0.005759 0.016303 0.000000 -0.001438 0.000000
# 4 0.000000 0.000000 0.000000 0.026894 0.000000 0.002856
# 5 -0.000664 0.001713 -0.001438 0.000000 0.022278 0.000000
# 6 0.000000 0.000000 0.000000 0.002856 0.000000 0.030702
#
#
# Mechanical properties :
#
#
# Convention : Reuss Voigt Hill
#
# Bulk Modulus (GPa) = 56.36431 62.52810 59.44620
# Shear Modulus (GPa) = 33.88627 37.20829 35.54728
#
# Velocity S-wave (km/s) = 3.90196 4.08875 3.99644
# Velocity P-wave (km/s) = 6.75464 7.09822 6.92856
#
# Compressibility (1/GPa) = 0.01774172
#
# Stress axis : x y z
#
# Youngs Moduli (GPa) = 131.13922 63.19188 61.33914
#
# Poissons Ratio (x) = 0.09202 0.23253
# Poissons Ratio (y) = 0.19096 0.35323
# Poissons Ratio (z) = 0.49714 0.36390
#
# Static dielectric constant tensor:
#      x y z
#    x 4.425140 0.000000 -0.084850 
#    y 0.000000 3.775810 0.000000 
#    z -0.084850 0.000000 4.140300 
# 
# 
# High freq. dielectric constant tensor:
#      x y z
#    x 1.887820 0.000000 -0.001080 
#    y 0.000000 1.863980 0.000000 
#    z -0.001080 0.000000 1.884790 
# 
# From -- ./inp_files/43710.got.cif
#   From: 2010.03.12/outbox.cif.g09.slc.cpg/sg14_22_cif.got.tgz:43710.got - 2010.03.31 13:35:05.
