data_PCOD8128826
_publ_section_title
;
Structure prediction by ZEFSAII (Michael W. Deem and Ramdas Pophale) SiO2 
 PCOD8128826
Probable space group: P 21/C
;
_chemical_formula_sum "Si O2"
_cell_formula_units_Z 32
_cell_length_a 14.576397
_cell_length_b 9.941586
_cell_length_c 11.319336
_cell_angle_alpha 90.000000
_cell_angle_beta 64.653876
_cell_angle_gamma 90.000000
_cell_volume 1482.413858
_symmetry_space_group_name_H-M "P 21/C"
_symmetry_group_IT_number 14
_symmetry_cell_setting 'monoclinic'
loop_
_space_group_symop_operation_xyz
x,y,z
-x,1/2+y,1/2-z
-x,-y,-z
x,1/2-y,1/2+z
loop_
_atom_site_type_symbol
_atom_site_label
_atom_site_fract_x
_atom_site_fract_y
_atom_site_fract_z
Si Si1 0.909710 0.601409 0.043782
Si Si2 0.748338 0.917181 0.824952
Si Si3 0.678308 0.090954 0.432847
Si Si4 0.002096 0.863638 0.070478
Si Si5 0.767176 0.153048 0.991751
Si Si6 0.584087 0.483845 0.230997
Si Si7 0.583998 0.177109 0.261643
Si Si8 0.821551 0.631079 0.845129
O O1 0.835933 0.589345 0.973270
O O2 0.849252 0.562267 0.194140
O O3 0.000000 0.500000 0.000000
O O4 0.953781 0.751547 0.013126
O O5 0.651915 0.951837 0.797131
O O6 0.752445 0.764018 0.868939
O O7 0.750301 0.009982 0.939245
O O8 0.737375 0.230096 0.417917
O O9 0.585525 0.121869 0.394869
O O10 0.639442 0.022573 0.574437
O O11 0.754671 0.988056 0.325654
O O12 0.116044 0.824737 0.040160
O O13 0.932691 0.867448 0.225692
O O14 0.000000 0.000000 0.000000
O O15 0.697632 0.166400 0.146281
O O16 0.547372 0.332777 0.283888
O O17 0.489413 0.585053 0.276331
#
# Coordination Sequence:
#
# PCOD8128826 Si02
#       8
#     4   4   4   4   4   4   4   4
#     4  11  23  40  66  96 132 178 220 267 324 386
#     4  11  24  44  65  98 139 170 221 272 331 396
#     4  11  23  45  70  96 130 175 223 271 332 401
#     4  11  24  40  62  96 136 171 221 267 315 391
#     4  11  24  43  67  97 135 175 217 274 329 397
#     4  11  25  47  69  98 132 171 221 281 333 398
#     4  11  26  44  70  99 129 173 223 272 345 393
#     4  11  24  39  66 100 131 182 217 267 336 380
#
# _framework density 21.586414000000001
#
# number of rings (size 3 to 8) (size 9 to 14) (size 15 to 20)
#    0.000    1.000    2.500    3.375    3.500    7.500 
#    0.000    0.000    0.000    0.000    0.000    0.000 
#    0.000    0.000    0.000    0.000    0.000    0.000 
#
# Total GULP energy -396840.848273 kJ/mol
# GULP energy per Si atom -12401.276509 kJ/mol
# Density = 2.153728 g / cm^3
# Si number density = 21.586414 Si / 1000 Ang^3
#
#
#
# Elastic Constant Matrix: (Units=GPa)
#
#
# Indices 1 2 3 4 5 6 
#
# 1 101.5057 33.3678 5.5854 0.0000 6.3338 0.0000
# 2 33.3678 128.9442 19.7227 0.0000 0.4877 0.0000
# 3 5.5854 19.7227 42.8193 0.0000 7.1959 0.0000
# 4 0.0000 0.0000 0.0000 33.9141 0.0000 1.0546
# 5 6.3338 0.4877 7.1959 0.0000 33.0203 0.0000
# 6 0.0000 0.0000 0.0000 1.0546 0.0000 45.3150
#
#
#
# Elastic Compliance Matrix: (Units=1/GPa)
#
#
# Indices 1 2 3 4 5 6 
#
# 1 0.010907 -0.002852 0.000244 0.000000 -0.002103 0.000000
# 2 -0.002852 0.009106 -0.004040 0.000000 0.001293 0.000000
# 3 0.000244 -0.004040 0.026138 0.000000 -0.005683 0.000000
# 4 0.000000 0.000000 0.000000 0.029508 0.000000 -0.000687
# 5 -0.002103 0.001293 -0.005683 0.000000 0.031907 0.000000
# 6 0.000000 0.000000 0.000000 -0.000687 0.000000 0.022084
#
#
# Mechanical properties :
#
#
# Convention : Reuss Voigt Hill
#
# Bulk Modulus (GPa) = 30.43523 43.40234 36.91878
# Shear Modulus (GPa) = 32.48941 36.75611 34.62276
#
# Velocity S-wave (km/s) = 3.88375 4.13091 4.00923
# Velocity P-wave (km/s) = 5.85160 6.55000 6.21063
#
# Compressibility (1/GPa) = 0.03285666
#
# Stress axis : x y z
#
# Youngs Moduli (GPa) = 91.68466 109.81424 38.25873
#
# Poissons Ratio (x) = 0.31318 -0.00935
# Poissons Ratio (y) = 0.26147 0.15455
# Poissons Ratio (z) = -0.02240 0.44361
#
# Static dielectric constant tensor:
#      x y z
#    x 3.989030 0.000000 0.087220 
#    y 0.000000 4.089710 0.000000 
#    z 0.087220 0.000000 3.853510 
# 
# 
# High freq. dielectric constant tensor:
#      x y z
#    x 1.853520 0.000000 0.005380 
#    y 0.000000 1.866580 0.000000 
#    z 0.005380 0.000000 1.843770 
# 
# From -- ./inp_files/31779.got.cif
#   From: 2010.03.12/outbox.cif.g09.slc.cpg/sg14_16_cif.got.tgz:31779.got - 2010.03.31 13:35:05.
