data_PCOD8128079
_publ_section_title
;
Structure prediction by ZEFSAII (Michael W. Deem and Ramdas Pophale) SiO2 
 PCOD8128079
Probable space group: P 21/C
;
_chemical_formula_sum "Si O2"
_cell_formula_units_Z 20
_cell_length_a 7.165612
_cell_length_b 9.087394
_cell_length_c 17.643590
_cell_angle_alpha 90.000000
_cell_angle_beta 128.928246
_cell_angle_gamma 90.000000
_cell_volume 893.762368
_symmetry_space_group_name_H-M "P 21/C"
_symmetry_group_IT_number 14
_symmetry_cell_setting 'monoclinic'
loop_
_space_group_symop_operation_xyz
x,y,z
-x,1/2+y,1/2-z
-x,-y,-z
x,1/2-y,1/2+z
loop_
_atom_site_type_symbol
_atom_site_label
_atom_site_fract_x
_atom_site_fract_y
_atom_site_fract_z
Si Si1 0.921840 0.931104 0.401661
Si Si2 0.705629 0.885030 0.033385
Si Si3 0.081952 0.383799 0.643898
Si Si4 0.014519 0.169201 0.300072
Si Si5 0.522314 0.746462 0.335628
O O1 0.041134 0.769759 0.416979
O O2 0.632580 0.902332 0.334376
O O3 0.996697 0.031129 0.350954
O O4 0.000000 0.000000 0.500000
O O5 0.773774 0.780569 0.121948
O O6 0.618256 0.779358 0.944966
O O7 0.941949 0.978802 0.071250
O O8 0.500000 0.000000 0.000000
O O9 0.360440 0.384210 0.686739
O O10 0.067103 0.393664 0.730940
O O11 0.762053 0.255331 0.240644
#
# Coordination Sequence:
#
# PCOD8128079 Si02
#       5
#     4   4   4   4   4
#     4  10  23  47  67 102 138 184 239 290 361 413
#     4  12  24  46  72 103 146 190 235 295 361 434
#     4  10  24  42  70 103 139 187 239 292 360 420
#     4  12  23  47  72 101 146 183 244 298 350 434
#     4  10  25  43  70 101 140 186 240 291 363 417
#
# _framework density 22.377313000000001
#
# number of rings (size 3 to 8) (size 9 to 14) (size 15 to 20)
#    1.200    0.000    4.000    1.800    2.800    0.000 
#    7.200    2.000    0.000    0.000    0.000    0.000 
#    0.000    0.000    0.000    0.000    0.000    0.000 
#
# Total GULP energy -247783.083438 kJ/mol
# GULP energy per Si atom -12389.154172 kJ/mol
# Density = 2.232638 g / cm^3
# Si number density = 22.377313 Si / 1000 Ang^3
#
#
#
# Elastic Constant Matrix: (Units=GPa)
#
#
# Indices 1 2 3 4 5 6 
#
# 1 71.1750 -23.1732 21.1542 0.0000 -2.4449 0.0000
# 2 -23.1732 66.0833 20.8737 0.0000 -3.6764 0.0000
# 3 21.1542 20.8737 75.4955 0.0000 -1.3804 0.0000
# 4 0.0000 0.0000 0.0000 34.8839 0.0000 2.2573
# 5 -2.4449 -3.6764 -1.3804 0.0000 37.3483 0.0000
# 6 0.0000 0.0000 0.0000 2.2573 0.0000 46.3033
#
#
#
# Elastic Compliance Matrix: (Units=1/GPa)
#
#
# Indices 1 2 3 4 5 6 
#
# 1 0.019637 0.009554 -0.008109 0.000000 0.001926 0.000000
# 2 0.009554 0.021310 -0.008525 0.000000 0.002408 0.000000
# 3 -0.008109 -0.008525 0.017862 0.000000 -0.000710 0.000000
# 4 0.000000 0.000000 0.000000 0.028757 0.000000 -0.001402
# 5 0.001926 0.002408 -0.000710 0.000000 0.027112 0.000000
# 6 0.000000 0.000000 0.000000 -0.001402 0.000000 0.021665
#
#
# Mechanical properties :
#
#
# Convention : Reuss Voigt Hill
#
# Bulk Modulus (GPa) = 22.39656 27.82926 25.11291
# Shear Modulus (GPa) = 30.23251 36.63369 33.43310
#
# Velocity S-wave (km/s) = 3.67963 4.05049 3.86950
# Velocity P-wave (km/s) = 5.29936 5.85992 5.58667
#
# Compressibility (1/GPa) = 0.04464971
#
# Stress axis : x y z
#
# Youngs Moduli (GPa) = 50.92466 46.92713 55.98452
#
# Poissons Ratio (x) = -0.44836 0.45397
# Poissons Ratio (y) = -0.48656 0.47727
# Poissons Ratio (z) = 0.41294 0.40006
#
# Static dielectric constant tensor:
#      x y z
#    x 4.286730 0.000000 -0.114500 
#    y 0.000000 4.303820 0.000000 
#    z -0.114500 0.000000 3.980040 
# 
# 
# High freq. dielectric constant tensor:
#      x y z
#    x 1.880340 0.000000 -0.012000 
#    y 0.000000 1.884310 0.000000 
#    z -0.012000 0.000000 1.873450 
# 
# From -- ./inp_files/54974.got.cif
#   From: 2010.03.12/outbox.cif.g09.slc.cpg/sg14_28_cif.got.tgz:54974.got - 2010.03.31 13:35:05.
