data_PCOD8128768
_publ_section_title
;
Structure prediction by ZEFSAII (Michael W. Deem and Ramdas Pophale) SiO2 
 PCOD8128768
Probable space group: P 21/C
;
_chemical_formula_sum "Si O2"
_cell_formula_units_Z 28
_cell_length_a 8.861786
_cell_length_b 11.847237
_cell_length_c 12.983530
_cell_angle_alpha 90.000000
_cell_angle_beta 112.056829
_cell_angle_gamma 90.000000
_cell_volume 1263.347122
_symmetry_space_group_name_H-M "P 21/C"
_symmetry_group_IT_number 14
_symmetry_cell_setting 'monoclinic'
loop_
_space_group_symop_operation_xyz
x,y,z
-x,1/2+y,1/2-z
-x,-y,-z
x,1/2-y,1/2+z
loop_
_atom_site_type_symbol
_atom_site_label
_atom_site_fract_x
_atom_site_fract_y
_atom_site_fract_z
Si Si1 0.321440 0.048697 0.456097
Si Si2 0.507682 0.027308 0.843396
Si Si3 0.896651 0.345322 0.172390
Si Si4 0.683886 0.123090 0.069694
Si Si5 0.989483 0.509195 0.620414
Si Si6 0.241125 0.148664 0.653961
Si Si7 0.715343 0.621629 0.262106
O O1 0.257172 0.104362 0.543126
O O2 0.325491 0.144372 0.368216
O O3 0.500000 0.000000 0.500000
O O4 0.196851 0.951484 0.395797
O O5 0.336569 0.068129 0.755248
O O6 0.465731 0.912224 0.895020
O O7 0.624485 0.990543 0.779830
O O8 0.603909 0.123909 0.933972
O O9 0.774712 0.237798 0.128992
O O10 0.949827 0.374165 0.305874
O O11 0.055388 0.334103 0.141567
O O12 0.805104 0.015862 0.105018
O O13 0.000000 0.500000 0.500000
O O14 0.092538 0.402912 0.686649
O O15 0.328811 0.270319 0.680889
#
# Coordination Sequence:
#
# PCOD8128768 Si02
#       7
#     4   4   4   4   4   4   4
#     4  11  26  46  69 105 147 174 238 300 355 424
#     4  11  25  42  71 104 147 179 245 297 351 439
#     4  11  26  47  71 103 145 192 237 293 367 428
#     4  11  24  45  71 106 139 189 236 297 358 428
#     4  11  22  45  69 102 145 182 237 292 353 431
#     4  12  25  46  72 102 139 196 234 293 364 435
#     4  11  25  43  69 102 137 188 228 293 357 420
#
# _framework density 22.163345
#
# number of rings (size 3 to 8) (size 9 to 14) (size 15 to 20)
#    0.000    0.857    5.714    0.429    4.000    2.286 
#    2.571    0.000    0.000    0.000    0.000    0.000 
#    0.000    0.000    0.000    0.000    0.000    0.000 
#
# Total GULP energy -346866.766680 kJ/mol
# GULP energy per Si atom -12388.098810 kJ/mol
# Density = 2.211290 g / cm^3
# Si number density = 22.163345 Si / 1000 Ang^3
#
#
#
# Elastic Constant Matrix: (Units=GPa)
#
#
# Indices 1 2 3 4 5 6 
#
# 1 90.7282 26.9183 46.8595 0.0000 -7.0898 0.0000
# 2 26.9183 96.1456 58.6315 0.0000 -8.9706 0.0000
# 3 46.8595 58.6315 167.3757 0.0000 -17.5914 0.0000
# 4 0.0000 0.0000 0.0000 36.4695 0.0000 6.8682
# 5 -7.0898 -8.9706 -17.5914 0.0000 34.8587 0.0000
# 6 0.0000 0.0000 0.0000 6.8682 0.0000 36.4642
#
#
#
# Elastic Compliance Matrix: (Units=1/GPa)
#
#
# Indices 1 2 3 4 5 6 
#
# 1 0.013149 -0.001800 -0.002976 0.000000 0.000709 0.000000
# 2 -0.001800 0.013515 -0.004122 0.000000 0.001032 0.000000
# 3 -0.002976 -0.004122 0.008529 0.000000 0.002638 0.000000
# 4 0.000000 0.000000 0.000000 0.028429 0.000000 -0.005355
# 5 0.000709 0.001032 0.002638 0.000000 0.030428 0.000000
# 6 0.000000 0.000000 0.000000 -0.005355 0.000000 0.028433
#
#
# Mechanical properties :
#
#
# Convention : Reuss Voigt Hill
#
# Bulk Modulus (GPa) = 57.48413 68.78535 63.13474
# Shear Modulus (GPa) = 34.22867 36.34782 35.28825
#
# Velocity S-wave (km/s) = 3.93413 4.05408 3.99455
# Velocity P-wave (km/s) = 6.82857 7.28128 7.05856
#
# Compressibility (1/GPa) = 0.01739610
#
# Stress axis : x y z
#
# Youngs Moduli (GPa) = 76.05428 73.99343 117.24894
#
# Poissons Ratio (x) = 0.13321 0.34893
# Poissons Ratio (y) = 0.13692 0.48327
# Poissons Ratio (z) = 0.22633 0.30498
#
# Static dielectric constant tensor:
#      x y z
#    x 3.811080 0.000000 -0.256530 
#    y 0.000000 3.692870 0.000000 
#    z -0.256530 0.000000 3.685380 
# 
# 
# High freq. dielectric constant tensor:
#      x y z
#    x 1.888640 0.000000 0.008580 
#    y 0.000000 1.853860 0.000000 
#    z 0.008580 0.000000 1.887440 
# 
# From -- ./inp_files/40188.got.cif
#   From: 2010.03.12/outbox.cif.g09.slc.cpg/sg14_21_cif.got.tgz:40188.got - 2010.03.31 13:35:05.
