data_PCOD8128240
_publ_section_title
;
Structure prediction by ZEFSAII (Michael W. Deem and Ramdas Pophale) SiO2 
 PCOD8128240
Probable space group: P 21/C
;
_chemical_formula_sum "Si O2"
_cell_formula_units_Z 20
_cell_length_a 9.712164
_cell_length_b 10.106963
_cell_length_c 9.601018
_cell_angle_alpha 90.000000
_cell_angle_beta 69.490897
_cell_angle_gamma 90.000000
_cell_volume 882.705411
_symmetry_space_group_name_H-M "P 21/C"
_symmetry_group_IT_number 14
_symmetry_cell_setting 'monoclinic'
loop_
_space_group_symop_operation_xyz
x,y,z
-x,1/2+y,1/2-z
-x,-y,-z
x,1/2-y,1/2+z
loop_
_atom_site_type_symbol
_atom_site_label
_atom_site_fract_x
_atom_site_fract_y
_atom_site_fract_z
Si Si1 0.842550 0.382658 0.834612
Si Si2 0.567455 0.652058 0.271442
Si Si3 0.760676 0.142877 0.055141
Si Si4 0.316578 0.157005 0.565666
Si Si5 0.835770 0.588288 0.338742
O O1 0.828464 0.330066 0.682233
O O2 0.752724 0.516095 0.884694
O O3 0.014754 0.408302 0.803819
O O4 0.777882 0.276566 0.962862
O O5 0.409473 0.599167 0.374890
O O6 0.592464 0.799417 0.328244
O O7 0.698346 0.556529 0.283159
O O8 0.570965 0.655672 0.103445
O O9 0.848831 0.023704 0.951541
O O10 0.190471 0.267739 0.580110
#
# Coordination Sequence:
#
# PCOD8128240 Si02
#       5
#     4   4   4   4   4
#     4  12  27  43  71 100 138 173 228 275 336 395
#     4  10  24  43  72  94 137 174 227 267 337 392
#     4  12  26  44  69 102 134 178 224 277 331 400
#     4  10  24  44  70  97 135 177 220 279 332 390
#     4  10  25  45  70  95 138 176 222 276 332 394
#
# _framework density 22.657613999999999
#
# number of rings (size 3 to 8) (size 9 to 14) (size 15 to 20)
#    1.200    0.000    0.000    4.800    5.600    5.600 
#    0.000    0.000    0.000    0.000    0.000    0.000 
#    0.000    0.000    0.000    0.000    0.000    0.000 
#
# Total GULP energy -248004.180799 kJ/mol
# GULP energy per Si atom -12400.209040 kJ/mol
# Density = 2.260604 g / cm^3
# Si number density = 22.657614 Si / 1000 Ang^3
#
#
#
# Elastic Constant Matrix: (Units=GPa)
#
#
# Indices 1 2 3 4 5 6 
#
# 1 104.1141 -9.8699 15.9312 0.0000 -15.3319 0.0000
# 2 -9.8699 104.7936 18.4783 0.0000 -4.2224 0.0000
# 3 15.9312 18.4783 96.9095 0.0000 -13.1583 0.0000
# 4 0.0000 0.0000 0.0000 34.9637 0.0000 -1.7424
# 5 -15.3319 -4.2224 -13.1583 0.0000 33.1685 0.0000
# 6 0.0000 0.0000 0.0000 -1.7424 0.0000 14.6921
#
#
#
# Elastic Compliance Matrix: (Units=1/GPa)
#
#
# Indices 1 2 3 4 5 6 
#
# 1 0.010623 0.001431 -0.001403 0.000000 0.004536 0.000000
# 2 0.001431 0.010076 -0.002000 0.000000 0.001151 0.000000
# 3 -0.001403 -0.002000 0.011424 0.000000 0.003629 0.000000
# 4 0.000000 0.000000 0.000000 0.028771 0.000000 0.003412
# 5 0.004536 0.001151 0.003629 0.000000 0.033832 0.000000
# 6 0.000000 0.000000 0.000000 0.003412 0.000000 0.068468
#
#
# Mechanical properties :
#
#
# Convention : Reuss Voigt Hill
#
# Bulk Modulus (GPa) = 35.48925 39.43292 37.46109
# Shear Modulus (GPa) = 28.32338 35.31671 31.82004
#
# Velocity S-wave (km/s) = 3.53945 3.95234 3.75158
# Velocity P-wave (km/s) = 5.69218 6.18624 5.94435
#
# Compressibility (1/GPa) = 0.02817754
#
# Stress axis : x y z
#
# Youngs Moduli (GPa) = 94.13389 99.24180 87.53733
#
# Poissons Ratio (x) = -0.14199 0.12284
# Poissons Ratio (y) = -0.13468 0.17510
# Poissons Ratio (z) = 0.13210 0.19851
#
# Static dielectric constant tensor:
#      x y z
#    x 4.052360 0.000000 -0.084590 
#    y 0.000000 3.828990 0.000000 
#    z -0.084590 0.000000 4.058360 
# 
# 
# High freq. dielectric constant tensor:
#      x y z
#    x 1.894920 0.000000 -0.011830 
#    y 0.000000 1.885440 0.000000 
#    z -0.011830 0.000000 1.896930 
# 
# From -- ./inp_files/11813.got.cif
#   From: 2010.03.12/outbox.cif.g09.slc.cpg/sg14_6_cif.got.tgz:11813.got - 2010.03.31 13:35:05.
