data_PCOD8128384
_publ_section_title
;
Structure prediction by ZEFSAII (Michael W. Deem and Ramdas Pophale) SiO2 
 PCOD8128384
Probable space group: P 21/C
;
_chemical_formula_sum "Si O2"
_cell_formula_units_Z 20
_cell_length_a 6.584620
_cell_length_b 7.679452
_cell_length_c 18.195177
_cell_angle_alpha 90.000000
_cell_angle_beta 93.748356
_cell_angle_gamma 90.000000
_cell_volume 918.094094
_symmetry_space_group_name_H-M "P 21/C"
_symmetry_group_IT_number 14
_symmetry_cell_setting 'monoclinic'
loop_
_space_group_symop_operation_xyz
x,y,z
-x,1/2+y,1/2-z
-x,-y,-z
x,1/2-y,1/2+z
loop_
_atom_site_type_symbol
_atom_site_label
_atom_site_fract_x
_atom_site_fract_y
_atom_site_fract_z
Si Si1 0.439594 0.278077 0.331914
Si Si2 0.073550 0.821960 0.408322
Si Si3 0.054124 0.442089 0.371238
Si Si4 0.799645 0.133902 0.430804
Si Si5 0.759915 0.049085 0.734212
O O1 0.298368 0.416586 0.371600
O O2 0.578274 0.173624 0.393145
O O3 0.571853 0.374376 0.274460
O O4 0.285241 0.148800 0.287958
O O5 0.002921 0.621209 0.412694
O O6 0.213079 0.875490 0.481164
O O7 0.207522 0.837703 0.338056
O O8 0.877495 0.949386 0.400275
O O9 0.959514 0.283952 0.414387
O O10 0.963688 0.449604 0.287063
#
# Coordination Sequence:
#
# PCOD8128384 Si02
#       5
#     4   4   4   4   4
#     4  11  24  42  66  99 132 172 226 273 326 399
#     4  11  23  44  68  92 136 175 211 277 333 382
#     4  11  23  44  66  95 131 172 220 276 326 388
#     4  10  25  45  63  98 132 172 223 266 329 402
#     4  11  24  39  67  97 130 170 221 274 326 389
#
# _framework density 21.784257
#
# number of rings (size 3 to 8) (size 9 to 14) (size 15 to 20)
#    0.000    1.200    2.000    3.000    8.400    1.600 
#    0.000    0.000    0.000    0.000    0.000    0.000 
#    0.000    0.000    0.000    0.000    0.000    0.000 
#
# Total GULP energy -248113.879856 kJ/mol
# GULP energy per Si atom -12405.693993 kJ/mol
# Density = 2.173468 g / cm^3
# Si number density = 21.784257 Si / 1000 Ang^3
#
#
#
# Elastic Constant Matrix: (Units=GPa)
#
#
# Indices 1 2 3 4 5 6 
#
# 1 112.3634 44.6791 31.9494 0.0000 8.0818 0.0000
# 2 44.6791 138.9106 23.9426 0.0000 8.0254 0.0000
# 3 31.9494 23.9426 91.1447 0.0000 2.0384 0.0000
# 4 0.0000 0.0000 0.0000 29.0332 0.0000 2.7602
# 5 8.0818 8.0254 2.0384 0.0000 15.5126 0.0000
# 6 0.0000 0.0000 0.0000 2.7602 0.0000 29.1803
#
#
#
# Elastic Compliance Matrix: (Units=1/GPa)
#
#
# Indices 1 2 3 4 5 6 
#
# 1 0.011191 -0.002839 -0.003089 0.000000 -0.003956 0.000000
# 2 -0.002839 0.008472 -0.001169 0.000000 -0.002751 0.000000
# 3 -0.003089 -0.001169 0.012348 0.000000 0.000591 0.000000
# 4 0.000000 0.000000 0.000000 0.034756 0.000000 -0.003288
# 5 -0.003956 -0.002751 0.000591 0.000000 0.067870 0.000000
# 6 0.000000 0.000000 0.000000 -0.003288 0.000000 0.034581
#
#
# Mechanical properties :
#
#
# Convention : Reuss Voigt Hill
#
# Bulk Modulus (GPa) = 56.12030 60.39566 58.25798
# Shear Modulus (GPa) = 26.40603 30.86839 28.63721
#
# Velocity S-wave (km/s) = 3.48539 3.76840 3.62965
# Velocity P-wave (km/s) = 6.48190 6.83513 6.66086
#
# Compressibility (1/GPa) = 0.01781886
#
# Stress axis : x y z
#
# Youngs Moduli (GPa) = 89.35586 118.03184 80.98381
#
# Poissons Ratio (x) = 0.33505 0.25014
# Poissons Ratio (y) = 0.25365 0.09467
# Poissons Ratio (z) = 0.27600 0.13798
#
# Static dielectric constant tensor:
#      x y z
#    x 3.796230 0.000000 0.008560 
#    y 0.000000 4.072680 0.000000 
#    z 0.008560 0.000000 3.975750 
# 
# 
# High freq. dielectric constant tensor:
#      x y z
#    x 1.843190 0.000000 -0.001510 
#    y 0.000000 1.870250 0.000000 
#    z -0.001510 0.000000 1.863230 
# 
# From -- ./inp_files/52626.got.cif
#   From: 2010.03.12/outbox.cif.g09.slc.cpg/sg14_27_cif.got.tgz:52626.got - 2010.03.31 13:35:05.
