data_PCOD8128631
_publ_section_title
;
Structure prediction by ZEFSAII (Michael W. Deem and Ramdas Pophale) SiO2 
 PCOD8128631
Probable space group: P 21/C
;
_chemical_formula_sum "Si O2"
_cell_formula_units_Z 20
_cell_length_a 23.576836
_cell_length_b 7.674077
_cell_length_c 16.662438
_cell_angle_alpha 90.000000
_cell_angle_beta 163.786178
_cell_angle_gamma 90.000000
_cell_volume 841.784714
_symmetry_space_group_name_H-M "P 21/C"
_symmetry_group_IT_number 14
_symmetry_cell_setting 'monoclinic'
loop_
_space_group_symop_operation_xyz
x,y,z
-x,1/2+y,1/2-z
-x,-y,-z
x,1/2-y,1/2+z
loop_
_atom_site_type_symbol
_atom_site_label
_atom_site_fract_x
_atom_site_fract_y
_atom_site_fract_z
Si Si1 0.693697 0.620140 0.746613
Si Si2 0.429961 0.413681 0.823081
Si Si3 0.702669 0.372232 0.056039
Si Si4 0.300909 0.235665 0.922610
Si Si5 0.880495 0.049348 0.223970
O O1 0.500000 0.500000 0.500000
O O2 0.711002 0.749878 0.845787
O O3 0.672430 0.734501 0.636800
O O4 0.906235 0.516512 0.031405
O O5 0.303649 0.538695 0.591096
O O6 0.500000 0.500000 0.000000
O O7 0.631394 0.342300 0.051234
O O8 0.767331 0.575030 0.136065
O O9 0.880558 0.239915 0.268944
O O10 0.514740 0.328951 0.744832
O O11 0.135237 0.097470 0.728664
#
# Coordination Sequence:
#
# PCOD8128631 Si02
#       5
#     4   4   4   4   4
#     4  12  27  47  72 102 150 194 241 307 361 419
#     4  11  23  46  71 108 146 182 234 303 367 428
#     4  11  21  44  76 100 143 188 237 294 361 431
#     4  11  22  44  76 103 140 190 243 297 358 441
#     4  11  26  46  71 108 143 191 247 288 364 440
#
# _framework density 23.759046000000001
#
# number of rings (size 3 to 8) (size 9 to 14) (size 15 to 20)
#    0.000    0.800    6.000    1.800    2.800    4.000 
#    3.600    0.000    0.000    0.000    0.000    0.000 
#    0.000    0.000    0.000    0.000    0.000    0.000 
#
# Total GULP energy -247895.809589 kJ/mol
# GULP energy per Si atom -12394.790479 kJ/mol
# Density = 2.370497 g / cm^3
# Si number density = 23.759046 Si / 1000 Ang^3
#
#
#
# Elastic Constant Matrix: (Units=GPa)
#
#
# Indices 1 2 3 4 5 6 
#
# 1 132.8732 62.8745 46.3863 0.0000 8.9031 0.0000
# 2 62.8745 184.1310 39.8189 0.0000 14.8421 0.0000
# 3 46.3863 39.8189 66.2139 0.0000 25.4969 0.0000
# 4 0.0000 0.0000 0.0000 26.9089 0.0000 -1.6709
# 5 8.9031 14.8421 25.4969 0.0000 47.6890 0.0000
# 6 0.0000 0.0000 0.0000 -1.6709 0.0000 53.7729
#
#
#
# Elastic Compliance Matrix: (Units=1/GPa)
#
#
# Indices 1 2 3 4 5 6 
#
# 1 0.011029 -0.002400 -0.007276 0.000000 0.002578 0.000000
# 2 -0.002400 0.006765 -0.002202 0.000000 -0.000480 0.000000
# 3 -0.007276 -0.002202 0.026113 0.000000 -0.011918 0.000000
# 4 0.000000 0.000000 0.000000 0.037234 0.000000 0.001157
# 5 0.002578 -0.000480 -0.011918 0.000000 0.027009 0.000000
# 6 0.000000 0.000000 0.000000 0.001157 0.000000 0.018633
#
#
# Mechanical properties :
#
#
# Convention : Reuss Voigt Hill
#
# Bulk Modulus (GPa) = 49.62465 75.70862 62.66663
# Shear Modulus (GPa) = 31.79522 41.28337 36.53929
#
# Velocity S-wave (km/s) = 3.66216 4.17296 3.92587
# Velocity P-wave (km/s) = 6.23008 7.42647 6.85443
#
# Compressibility (1/GPa) = 0.02015128
#
# Stress axis : x y z
#
# Youngs Moduli (GPa) = 90.66990 147.80890 38.29551
#
# Poissons Ratio (x) = 0.35481 0.27862
# Poissons Ratio (y) = 0.21765 0.08433
# Poissons Ratio (z) = 0.65967 0.32547
#
# Static dielectric constant tensor:
#      x y z
#    x 4.888350 0.000000 0.114600 
#    y 0.000000 4.679230 0.000000 
#    z 0.114600 0.000000 4.165920 
# 
# 
# High freq. dielectric constant tensor:
#      x y z
#    x 1.955740 0.000000 0.000020 
#    y 0.000000 1.945170 0.000000 
#    z 0.000020 0.000000 1.934890 
# 
# From -- ./inp_files/50172.got.cif
#   From: 2010.03.12/outbox.cif.g09.slc.cpg/sg14_26_cif.got.tgz:50172.got - 2010.03.31 13:35:05.
