data_PCOD8128938
_publ_section_title
;
Structure prediction by ZEFSAII (Michael W. Deem and Ramdas Pophale) SiO2 
 PCOD8128938
Probable space group: P 21/C
;
_chemical_formula_sum "Si O2"
_cell_formula_units_Z 32
_cell_length_a 10.756170
_cell_length_b 21.578814
_cell_length_c 10.673132
_cell_angle_alpha 90.000000
_cell_angle_beta 36.246173
_cell_angle_gamma 90.000000
_cell_volume 1464.712913
_symmetry_space_group_name_H-M "P 21/C"
_symmetry_group_IT_number 14
_symmetry_cell_setting 'monoclinic'
loop_
_space_group_symop_operation_xyz
x,y,z
-x,1/2+y,1/2-z
-x,-y,-z
x,1/2-y,1/2+z
loop_
_atom_site_type_symbol
_atom_site_label
_atom_site_fract_x
_atom_site_fract_y
_atom_site_fract_z
Si Si1 0.893835 0.775600 0.645110
Si Si2 0.630754 0.754393 0.111148
Si Si3 0.266784 0.817257 0.806511
Si Si4 0.122579 0.943988 0.033868
Si Si5 0.260873 0.515531 0.673122
Si Si6 0.394882 0.646443 0.942421
Si Si7 0.315582 0.458612 0.203503
Si Si8 0.949503 0.409374 0.938800
O O1 0.760871 0.757487 0.631448
O O2 0.092738 0.730825 0.493469
O O3 0.967833 0.846053 0.566870
O O4 0.771058 0.769064 0.875873
O O5 0.484375 0.695164 0.202870
O O6 0.477307 0.812787 0.259469
O O7 0.308589 0.809886 0.624114
O O8 0.196583 0.887221 0.888500
O O9 0.221009 0.936993 0.091430
O O10 0.867869 0.945747 0.249534
O O11 0.208621 0.008180 0.908216
O O12 0.500000 0.500000 0.500000
O O13 0.144643 0.450941 0.735809
O O14 0.182678 0.549802 0.858716
O O15 0.201325 0.603730 0.056339
O O16 0.591780 0.606878 0.830535
O O17 0.500000 0.500000 0.000000
#
# Coordination Sequence:
#
# PCOD8128938 Si02
#       8
#     4   4   4   4   4   4   4   4
#     4  12  28  47  75 106 148 194 245 302 365 438
#     4  12  28  47  73 107 145 197 242 295 372 434
#     4  12  27  47  71 113 144 189 243 310 357 444
#     4  11  26  41  72 105 144 181 243 296 369 431
#     4  11  27  47  69 103 143 193 239 299 368 438
#     4  12  24  50  76 102 151 188 247 298 371 433
#     4  11  23  44  71 108 138 186 233 304 363 432
#     4  11  27  46  71 102 143 190 244 297 360 442
#
# _framework density 21.847283999999998
#
# number of rings (size 3 to 8) (size 9 to 14) (size 15 to 20)
#    0.000    0.500    3.750    3.000    8.750    1.000 
#    0.000    0.000    0.000    0.000    0.000    0.000 
#    0.000    0.000    0.000    0.000    0.000    0.000 
#
# Total GULP energy -396946.898822 kJ/mol
# GULP energy per Si atom -12404.590588 kJ/mol
# Density = 2.179756 g / cm^3
# Si number density = 21.847284 Si / 1000 Ang^3
#
#
#
# Elastic Constant Matrix: (Units=GPa)
#
#
# Indices 1 2 3 4 5 6 
#
# 1 140.5651 25.1640 58.0700 0.0000 -11.9321 0.0000
# 2 25.1640 99.0562 49.3818 0.0000 -4.2395 0.0000
# 3 58.0700 49.3818 138.9335 0.0000 -8.3048 0.0000
# 4 0.0000 0.0000 0.0000 37.3297 0.0000 -4.2888
# 5 -11.9321 -4.2395 -8.3048 0.0000 41.3041 0.0000
# 6 0.0000 0.0000 0.0000 -4.2888 0.0000 41.9426
#
#
#
# Elastic Compliance Matrix: (Units=1/GPa)
#
#
# Indices 1 2 3 4 5 6 
#
# 1 0.008748 -0.000457 -0.003386 0.000000 0.001799 0.000000
# 2 -0.000457 0.012299 -0.004163 0.000000 0.000293 0.000000
# 3 -0.003386 -0.004163 0.010130 0.000000 0.000631 0.000000
# 4 0.000000 0.000000 0.000000 0.027107 0.000000 0.002772
# 5 0.001799 0.000293 0.000631 0.000000 0.024887 0.000000
# 6 0.000000 0.000000 0.000000 0.002772 0.000000 0.024126
#
#
# Mechanical properties :
#
#
# Convention : Reuss Voigt Hill
#
# Bulk Modulus (GPa) = 65.94260 71.53182 68.73721
# Shear Modulus (GPa) = 38.95151 40.51122 39.73136
#
# Velocity S-wave (km/s) = 4.22702 4.31082 4.26913
# Velocity P-wave (km/s) = 7.35340 7.58883 7.47205
#
# Compressibility (1/GPa) = 0.01516470
#
# Stress axis : x y z
#
# Youngs Moduli (GPa) = 114.31692 81.30532 98.71243
#
# Poissons Ratio (x) = 0.03717 0.33426
# Poissons Ratio (y) = 0.05226 0.41094
# Poissons Ratio (z) = 0.38710 0.33847
#
# Static dielectric constant tensor:
#      x y z
#    x 4.093710 0.000000 -0.172020 
#    y 0.000000 4.124620 0.000000 
#    z -0.172020 0.000000 4.142950 
# 
# 
# High freq. dielectric constant tensor:
#      x y z
#    x 1.867900 0.000000 -0.009550 
#    y 0.000000 1.864830 0.000000 
#    z -0.009550 0.000000 1.873620 
# 
# From -- ./inp_files/30732.got.cif
#   From: 2010.03.12/outbox.cif.g09.slc.cpg/sg14_16_cif.got.tgz:30732.got - 2010.03.31 13:35:05.
