data_PCOD8128419
_publ_section_title
;
Structure prediction by ZEFSAII (Michael W. Deem and Ramdas Pophale) SiO2 
 PCOD8128419
Probable space group: P 21/C
;
_chemical_formula_sum "Si O2"
_cell_formula_units_Z 32
_cell_length_a 23.897427
_cell_length_b 5.201743
_cell_length_c 20.197529
_cell_angle_alpha 90.000000
_cell_angle_beta 32.618780
_cell_angle_gamma 90.000000
_cell_volume 1353.395784
_symmetry_space_group_name_H-M "P 21/C"
_symmetry_group_IT_number 14
_symmetry_cell_setting 'monoclinic'
loop_
_space_group_symop_operation_xyz
x,y,z
-x,1/2+y,1/2-z
-x,-y,-z
x,1/2-y,1/2+z
loop_
_atom_site_type_symbol
_atom_site_label
_atom_site_fract_x
_atom_site_fract_y
_atom_site_fract_z
Si Si1 0.308424 0.622396 0.750873
Si Si2 0.920180 0.301513 0.052697
Si Si3 0.727746 0.041202 0.425093
Si Si4 0.280258 0.068663 0.983351
Si Si5 0.567878 0.325399 0.980360
Si Si6 0.375764 0.359837 0.253285
Si Si7 0.049846 0.534052 0.346020
Si Si8 0.949925 0.720214 0.328688
O O1 0.192104 0.579002 0.843562
O O2 0.389154 0.585003 0.607751
O O3 0.317147 0.407870 0.798606
O O4 0.328536 0.912063 0.755762
O O5 0.910709 0.091377 0.119790
O O6 0.000000 0.500000 0.000000
O O7 0.965686 0.195598 0.937768
O O8 0.721353 0.309010 0.471992
O O9 0.671100 0.052754 0.410289
O O10 0.847119 0.956678 0.296643
O O11 0.677629 0.805067 0.514932
O O12 0.364093 0.048951 0.840487
O O13 0.168617 0.134247 0.062570
O O14 0.500000 0.500000 0.000000
O O15 0.494016 0.274294 0.117317
O O16 0.983735 0.753713 0.372485
O O17 0.025618 0.486251 0.231290
#
# Coordination Sequence:
#
# PCOD8128419 Si02
#       8
#     4   4   4   4   4   4   4   4
#     4  11  24  46  72 104 143 185 234 299 359 429
#     4  11  27  40  70 101 143 188 233 296 358 419
#     4  12  26  46  73 100 146 184 239 292 354 433
#     4  12  26  45  69 106 139 193 233 291 350 419
#     4  10  25  49  77 106 139 189 237 305 371 425
#     4  11  26  46  73 104 141 182 245 296 356 421
#     4  11  25  44  63 104 140 187 232 287 347 425
#     4  12  24  42  68  96 139 188 232 274 343 422
#
# _framework density 23.644227999999998
#
# number of rings (size 3 to 8) (size 9 to 14) (size 15 to 20)
#    0.000    0.750    3.750    1.875    8.750    5.000 
#    0.000    0.000    0.000    0.000    0.000    0.000 
#    0.000    0.000    0.000    0.000    0.000    0.000 
#
# Total GULP energy -396452.562322 kJ/mol
# GULP energy per Si atom -12389.142573 kJ/mol
# Density = 2.359041 g / cm^3
# Si number density = 23.644228 Si / 1000 Ang^3
#
#
#
# Elastic Constant Matrix: (Units=GPa)
#
#
# Indices 1 2 3 4 5 6 
#
# 1 96.2478 14.4531 26.7888 0.0000 2.6766 0.0000
# 2 14.4531 105.6740 31.9995 0.0000 7.2769 0.0000
# 3 26.7888 31.9995 122.0686 0.0000 14.0213 0.0000
# 4 0.0000 0.0000 0.0000 19.7211 0.0000 0.4541
# 5 2.6766 7.2769 14.0213 0.0000 37.0492 0.0000
# 6 0.0000 0.0000 0.0000 0.4541 0.0000 24.2976
#
#
#
# Elastic Compliance Matrix: (Units=1/GPa)
#
#
# Indices 1 2 3 4 5 6 
#
# 1 0.011137 -0.000859 -0.002244 0.000000 0.000213 0.000000
# 2 -0.000859 0.010384 -0.002411 0.000000 -0.001065 0.000000
# 3 -0.002244 -0.002411 0.009664 0.000000 -0.003022 0.000000
# 4 0.000000 0.000000 0.000000 0.050729 0.000000 -0.000948
# 5 0.000213 -0.001065 -0.003022 0.000000 0.028328 0.000000
# 6 0.000000 0.000000 0.000000 -0.000948 0.000000 0.041174
#
#
# Mechanical properties :
#
#
# Convention : Reuss Voigt Hill
#
# Bulk Modulus (GPa) = 49.60806 52.27481 50.94143
# Shear Modulus (GPa) = 29.55732 32.93016 31.24374
#
# Velocity S-wave (km/s) = 3.53949 3.73599 3.63907
# Velocity P-wave (km/s) = 6.14252 6.38491 6.26489
#
# Compressibility (1/GPa) = 0.02015802
#
# Stress axis : x y z
#
# Youngs Moduli (GPa) = 89.78829 96.30182 103.48031
#
# Poissons Ratio (x) = 0.08268 0.23217
# Poissons Ratio (y) = 0.07709 0.24953
# Poissons Ratio (z) = 0.20145 0.23222
#
# Static dielectric constant tensor:
#      x y z
#    x 3.196170 0.000000 -0.348090 
#    y 0.000000 3.981920 0.000000 
#    z -0.348090 0.000000 4.552020 
# 
# 
# High freq. dielectric constant tensor:
#      x y z
#    x 1.946680 0.000000 0.003290 
#    y 0.000000 1.921020 0.000000 
#    z 0.003290 0.000000 1.949940 
# 
# From -- ./inp_files/70096.got.cif
#   From: 2010.03.12/outbox.cif.g09.slc.cpg/sg14_36_cif.got.tgz:70096.got - 2010.03.31 13:35:05.
