data_PCOD8128452
_publ_section_title
;
Structure prediction by ZEFSAII (Michael W. Deem and Ramdas Pophale) SiO2 
 PCOD8128452
Probable space group: P 21/C
;
_chemical_formula_sum "Si O2"
_cell_formula_units_Z 32
_cell_length_a 13.580404
_cell_length_b 17.426022
_cell_length_c 10.594018
_cell_angle_alpha 90.000000
_cell_angle_beta 36.335859
_cell_angle_gamma 90.000000
_cell_volume 1485.500513
_symmetry_space_group_name_H-M "P 21/C"
_symmetry_group_IT_number 14
_symmetry_cell_setting 'monoclinic'
loop_
_space_group_symop_operation_xyz
x,y,z
-x,1/2+y,1/2-z
-x,-y,-z
x,1/2-y,1/2+z
loop_
_atom_site_type_symbol
_atom_site_label
_atom_site_fract_x
_atom_site_fract_y
_atom_site_fract_z
Si Si1 0.310406 0.990852 0.719994
Si Si2 0.138581 0.603174 0.194996
Si Si3 0.579997 0.762171 0.940325
Si Si4 0.083013 0.453160 0.142491
Si Si5 0.747050 0.393764 0.478845
Si Si6 0.141127 0.361630 0.341250
Si Si7 0.373188 0.765436 0.403785
Si Si8 0.427713 0.071415 0.148694
O O1 0.239656 0.962392 0.662103
O O2 0.257765 0.928758 0.876803
O O3 0.500000 0.000000 0.500000
O O4 0.238621 0.074983 0.823670
O O5 0.041076 0.544376 0.203936
O O6 0.025203 0.654493 0.405336
O O7 0.268580 0.657321 0.988123
O O8 0.755111 0.717365 0.770032
O O9 0.472887 0.729393 0.933395
O O10 0.604813 0.853392 0.902551
O O11 0.493867 0.748041 0.162970
O O12 0.097374 0.396133 0.249291
O O13 0.917085 0.424791 0.237842
O O14 0.251139 0.448107 0.890386
O O15 0.762509 0.302133 0.458198
O O16 0.569066 0.413550 0.604789
O O17 0.500000 0.000000 0.000000
#
# Coordination Sequence:
#
# PCOD8128452 Si02
#       8
#     4   4   4   4   4   4   4   4
#     4  11  19  36  66  95 126 168 217 278 344 403
#     4  11  21  38  63 101 134 166 220 280 338 415
#     4  11  25  45  66 100 132 176 229 279 341 410
#     4  11  22  43  67  96 135 171 226 284 348 410
#     4  11  22  41  65  94 131 178 221 280 342 402
#     4  11  21  38  64 101 130 162 219 291 337 402
#     4  11  24  43  67  94 135 176 225 279 347 402
#     4  11  26  45  66  90 135 186 230 277 338 416
#
# _framework density 21.541561000000002
#
# number of rings (size 3 to 8) (size 9 to 14) (size 15 to 20)
#    0.000    1.000    2.500    6.750    1.750    1.500 
#    0.000    0.000    0.000    0.000    0.000    0.000 
#    0.000    0.000    0.000    0.000    0.000    0.000 
#
# Total GULP energy -396515.152357 kJ/mol
# GULP energy per Si atom -12391.098511 kJ/mol
# Density = 2.149253 g / cm^3
# Si number density = 21.541561 Si / 1000 Ang^3
#
#
#
# Elastic Constant Matrix: (Units=GPa)
#
#
# Indices 1 2 3 4 5 6 
#
# 1 31.0397 9.3034 27.4172 0.0000 3.1789 0.0000
# 2 9.3034 121.4473 36.2453 0.0000 -4.9237 0.0000
# 3 27.4172 36.2453 157.3692 0.0000 -18.6505 0.0000
# 4 0.0000 0.0000 0.0000 43.5555 0.0000 -6.2984
# 5 3.1789 -4.9237 -18.6505 0.0000 30.5278 0.0000
# 6 0.0000 0.0000 0.0000 -6.2984 0.0000 26.9046
#
#
#
# Elastic Compliance Matrix: (Units=1/GPa)
#
#
# Indices 1 2 3 4 5 6 
#
# 1 0.040458 -0.001120 -0.007882 0.000000 -0.009209 0.000000
# 2 -0.001120 0.008874 -0.001795 0.000000 0.000451 0.000000
# 3 -0.007882 -0.001795 0.008845 0.000000 0.005935 0.000000
# 4 0.000000 0.000000 0.000000 0.023764 0.000000 0.005563
# 5 -0.009209 0.000451 0.005935 0.000000 0.037414 0.000000
# 6 0.000000 0.000000 0.000000 0.005563 0.000000 0.038471
#
#
# Mechanical properties :
#
#
# Convention : Reuss Voigt Hill
#
# Bulk Modulus (GPa) = 27.33639 50.64312 38.98975
# Shear Modulus (GPa) = 26.09416 35.99026 31.04221
#
# Velocity S-wave (km/s) = 3.48421 4.09190 3.80022
# Velocity P-wave (km/s) = 5.37623 6.77387 6.11511
#
# Compressibility (1/GPa) = 0.03658128
#
# Stress axis : x y z
#
# Youngs Moduli (GPa) = 24.71710 112.68999 113.06423
#
# Poissons Ratio (x) = 0.12624 0.89118
# Poissons Ratio (y) = 0.02769 0.20297
# Poissons Ratio (z) = 0.19482 0.20230
#
# Static dielectric constant tensor:
#      x y z
#    x 4.028220 0.000000 -0.387200 
#    y 0.000000 2.410560 0.000000 
#    z -0.387200 0.000000 3.957590 
# 
# 
# High freq. dielectric constant tensor:
#      x y z
#    x 1.825160 0.000000 -0.014200 
#    y 0.000000 1.857200 0.000000 
#    z -0.014200 0.000000 1.857520 
# 
# From -- ./inp_files/33044.got.cif
#   From: 2010.03.12/outbox.cif.g09.slc.cpg/sg14_17_cif.got.tgz:33044.got - 2010.03.31 13:35:05.
