data_PCOD8128322
_publ_section_title
;
Structure prediction by ZEFSAII (Michael W. Deem and Ramdas Pophale) SiO2 
 PCOD8128322
Probable space group: P 21/C
;
_chemical_formula_sum "Si O2"
_cell_formula_units_Z 28
_cell_length_a 7.120427
_cell_length_b 10.254361
_cell_length_c 19.061845
_cell_angle_alpha 90.000000
_cell_angle_beta 114.201654
_cell_angle_gamma 90.000000
_cell_volume 1269.480324
_symmetry_space_group_name_H-M "P 21/C"
_symmetry_group_IT_number 14
_symmetry_cell_setting 'monoclinic'
loop_
_space_group_symop_operation_xyz
x,y,z
-x,1/2+y,1/2-z
-x,-y,-z
x,1/2-y,1/2+z
loop_
_atom_site_type_symbol
_atom_site_label
_atom_site_fract_x
_atom_site_fract_y
_atom_site_fract_z
Si Si1 0.629075 0.581181 0.332043
Si Si2 0.011468 0.742584 0.419614
Si Si3 0.042761 0.284043 0.838955
Si Si4 0.272219 0.763848 0.330647
Si Si5 0.899706 0.391786 0.434271
Si Si6 0.404424 0.442987 0.835015
Si Si7 0.145478 0.988943 0.587591
O O1 0.867107 0.622983 0.375315
O O2 0.471247 0.672282 0.349786
O O3 0.667002 0.435378 0.372373
O O4 0.558187 0.582049 0.241451
O O5 0.860457 0.864824 0.382165
O O6 0.210942 0.739289 0.401242
O O7 0.102051 0.734523 0.513696
O O8 0.273290 0.328882 0.852704
O O9 0.917090 0.269524 0.748383
O O10 0.036382 0.153115 0.886737
O O11 0.934273 0.398357 0.863736
O O12 0.306277 0.916340 0.327630
O O13 0.000000 0.500000 0.500000
O O14 0.629309 0.445848 0.904178
O O15 0.000000 0.000000 0.500000
#
# Coordination Sequence:
#
# PCOD8128322 Si02
#       7
#     4   4   4   4   4   4   4
#     4  11  23  43  70 101 142 190 239 294 372 434
#     4  11  23  44  67  99 143 188 236 301 359 434
#     4  12  24  43  72 105 139 185 241 299 364 436
#     4  12  24  41  73 107 141 187 245 296 368 441
#     4  10  24  46  68  96 146 190 236 301 362 436
#     4  12  25  42  73 106 140 191 240 303 362 436
#     4  12  25  44  67 100 144 184 237 300 361 431
#
# _framework density 22.056270000000001
#
# number of rings (size 3 to 8) (size 9 to 14) (size 15 to 20)
#    0.000    0.571    8.571    0.000    0.000    1.143 
#    5.143    7.143    0.000    0.000    0.000    0.000 
#    0.000    0.000    0.000    0.000    0.000    0.000 
#
# Total GULP energy -346961.052124 kJ/mol
# GULP energy per Si atom -12391.466147 kJ/mol
# Density = 2.200607 g / cm^3
# Si number density = 22.056270 Si / 1000 Ang^3
#
#
#
# Elastic Constant Matrix: (Units=GPa)
#
#
# Indices 1 2 3 4 5 6 
#
# 1 130.6390 34.1073 53.7678 0.0000 -1.3302 0.0000
# 2 34.1073 64.0334 35.3045 0.0000 11.1845 0.0000
# 3 53.7678 35.3045 92.5177 0.0000 -4.4854 0.0000
# 4 0.0000 0.0000 0.0000 30.8756 0.0000 1.6064
# 5 -1.3302 11.1845 -4.4854 0.0000 31.0317 0.0000
# 6 0.0000 0.0000 0.0000 1.6064 0.0000 45.2591
#
#
#
# Elastic Compliance Matrix: (Units=1/GPa)
#
#
# Indices 1 2 3 4 5 6 
#
# 1 0.010464 -0.003025 -0.004887 0.000000 0.000832 0.000000
# 2 -0.003025 0.023016 -0.007486 0.000000 -0.009507 0.000000
# 3 -0.004887 -0.007486 0.016743 0.000000 0.004909 0.000000
# 4 0.000000 0.000000 0.000000 0.032448 0.000000 -0.001152
# 5 0.000832 -0.009507 0.004909 0.000000 0.036397 0.000000
# 6 0.000000 0.000000 0.000000 -0.001152 0.000000 0.022136
#
#
# Mechanical properties :
#
#
# Convention : Reuss Voigt Hill
#
# Bulk Modulus (GPa) = 51.47065 59.28325 55.37695
# Shear Modulus (GPa) = 28.01516 32.36731 30.19123
#
# Velocity S-wave (km/s) = 3.56781 3.83494 3.70378
# Velocity P-wave (km/s) = 6.35288 6.82243 6.59183
#
# Compressibility (1/GPa) = 0.01942855
#
# Stress axis : x y z
#
# Youngs Moduli (GPa) = 95.56438 43.44835 59.72546
#
# Poissons Ratio (x) = 0.13142 0.29186
# Poissons Ratio (y) = 0.28906 0.44709
# Poissons Ratio (z) = 0.46700 0.32525
#
# Static dielectric constant tensor:
#      x y z
#    x 3.933260 0.000000 -0.036080 
#    y 0.000000 5.492820 0.000000 
#    z -0.036080 0.000000 4.302200 
# 
# 
# High freq. dielectric constant tensor:
#      x y z
#    x 1.850010 0.000000 -0.005350 
#    y 0.000000 1.889810 0.000000 
#    z -0.005350 0.000000 1.879300 
# 
# From -- ./inp_files/63551.got.cif
#   From: 2010.03.12/outbox.cif.g09.slc.cpg/sg14_32_cif.got.tgz:63551.got - 2010.03.31 13:35:05.
