data_PCOD8128622
_publ_section_title
;
Structure prediction by ZEFSAII (Michael W. Deem and Ramdas Pophale) SiO2 
 PCOD8128622
Probable space group: P 21/C
;
_chemical_formula_sum "Si O2"
_cell_formula_units_Z 28
_cell_length_a 15.854650
_cell_length_b 10.767518
_cell_length_c 18.780850
_cell_angle_alpha 90.000000
_cell_angle_beta 158.703885
_cell_angle_gamma 90.000000
_cell_volume 1164.445231
_symmetry_space_group_name_H-M "P 21/C"
_symmetry_group_IT_number 14
_symmetry_cell_setting 'monoclinic'
loop_
_space_group_symop_operation_xyz
x,y,z
-x,1/2+y,1/2-z
-x,-y,-z
x,1/2-y,1/2+z
loop_
_atom_site_type_symbol
_atom_site_label
_atom_site_fract_x
_atom_site_fract_y
_atom_site_fract_z
Si Si1 0.908024 0.363550 0.923633
Si Si2 0.813210 0.688633 0.677195
Si Si3 0.220942 0.270180 0.508604
Si Si4 0.374752 0.260332 0.823309
Si Si5 0.797948 0.966696 0.895102
Si Si6 0.204883 0.895894 0.814225
Si Si7 0.279751 0.774422 0.095428
O O1 0.738826 0.353068 0.722525
O O2 0.760588 0.329586 0.876135
O O3 0.000000 0.500000 0.000000
O O4 0.139678 0.280123 0.096417
O O5 0.704453 0.698408 0.513752
O O6 0.678719 0.763541 0.633800
O O7 0.804493 0.543460 0.689727
O O8 0.072976 0.749795 0.876430
O O9 0.108587 0.384719 0.463843
O O10 0.467831 0.243319 0.742506
O O11 0.051770 0.152821 0.369868
O O12 0.405252 0.398065 0.812558
O O13 0.593941 0.169117 0.979847
O O14 0.703778 0.091454 0.855528
O O15 0.000000 0.000000 0.000000
#
# Coordination Sequence:
#
# PCOD8128622 Si02
#       7
#     4   4   4   4   4   4   4
#     4  11  21  43  74 102 134 182 245 298 361 444
#     4  11  26  44  71 105 144 182 243 314 368 442
#     4  12  30  42  69 107 146 190 240 299 379 437
#     4  11  24  44  75 100 140 186 247 302 367 440
#     4  12  25  51  76 102 147 206 248 303 369 459
#     4  12  25  42  71 106 138 186 245 297 375 438
#     4  11  26  47  71 102 150 188 245 303 381 434
#
# _framework density 24.045784999999999
#
# number of rings (size 3 to 8) (size 9 to 14) (size 15 to 20)
#    0.000    0.571    7.143    1.286    8.000    0.000 
#    0.000    2.143    0.000    0.000    0.000    0.000 
#    0.000    0.000    0.000    0.000    0.000    0.000 
#
# Total GULP energy -346986.089341 kJ/mol
# GULP energy per Si atom -12392.360334 kJ/mol
# Density = 2.399106 g / cm^3
# Si number density = 24.045785 Si / 1000 Ang^3
#
#
#
# Elastic Constant Matrix: (Units=GPa)
#
#
# Indices 1 2 3 4 5 6 
#
# 1 42.3945 36.0157 2.8627 0.0000 -12.8997 0.0000
# 2 36.0157 106.6003 19.8966 0.0000 -5.1591 0.0000
# 3 2.8627 19.8966 107.7012 0.0000 4.2458 0.0000
# 4 0.0000 0.0000 0.0000 36.3010 0.0000 -9.8029
# 5 -12.8997 -5.1591 4.2458 0.0000 45.3703 0.0000
# 6 0.0000 0.0000 0.0000 -9.8029 0.0000 34.4326
#
#
#
# Elastic Compliance Matrix: (Units=1/GPa)
#
#
# Indices 1 2 3 4 5 6 
#
# 1 0.036491 -0.012067 0.000908 0.000000 0.008918 0.000000
# 2 -0.012067 0.013780 -0.002160 0.000000 -0.001662 0.000000
# 3 0.000908 -0.002160 0.009695 0.000000 -0.000895 0.000000
# 4 0.000000 0.000000 0.000000 0.029842 0.000000 0.008496
# 5 0.008918 -0.001662 -0.000895 0.000000 0.024471 0.000000
# 6 0.000000 0.000000 0.000000 0.008496 0.000000 0.031461
#
#
# Mechanical properties :
#
#
# Convention : Reuss Voigt Hill
#
# Bulk Modulus (GPa) = 30.00330 41.58289 35.79310
# Shear Modulus (GPa) = 27.24977 36.41551 31.83264
#
# Velocity S-wave (km/s) = 3.37002 3.89578 3.64240
# Velocity P-wave (km/s) = 5.25808 6.12919 5.71027
#
# Compressibility (1/GPa) = 0.03332967
#
# Stress axis : x y z
#
# Youngs Moduli (GPa) = 27.40369 72.56728 103.14554
#
# Poissons Ratio (x) = 0.87565 -0.09362
# Poissons Ratio (y) = 0.33067 0.22274
# Poissons Ratio (z) = -0.02487 0.15671
#
# Static dielectric constant tensor:
#      x y z
#    x 3.628330 0.000000 -0.849670 
#    y 0.000000 4.705090 0.000000 
#    z -0.849670 0.000000 4.453230 
# 
# 
# High freq. dielectric constant tensor:
#      x y z
#    x 1.970790 0.000000 -0.007850 
#    y 0.000000 1.949600 0.000000 
#    z -0.007850 0.000000 1.948760 
# 
# From -- ./inp_files/69329.got.cif
#   From: 2010.03.12/outbox.cif.g09.slc.cpg/sg14_35_cif.got.tgz:69329.got - 2010.03.31 13:35:05.
