data_PCOD8128656
_publ_section_title
;
Structure prediction by ZEFSAII (Michael W. Deem and Ramdas Pophale) SiO2 
 PCOD8128656
Probable space group: P 21/C
;
_chemical_formula_sum "Si O2"
_cell_formula_units_Z 16
_cell_length_a 7.743856
_cell_length_b 17.551002
_cell_length_c 9.369752
_cell_angle_alpha 90.000000
_cell_angle_beta 33.420654
_cell_angle_gamma 90.000000
_cell_volume 701.401586
_symmetry_space_group_name_H-M "P 21/C"
_symmetry_group_IT_number 14
_symmetry_cell_setting 'monoclinic'
loop_
_space_group_symop_operation_xyz
x,y,z
-x,1/2+y,1/2-z
-x,-y,-z
x,1/2-y,1/2+z
loop_
_atom_site_type_symbol
_atom_site_label
_atom_site_fract_x
_atom_site_fract_y
_atom_site_fract_z
Si Si1 0.931403 0.934688 0.742389
Si Si2 0.816291 0.731267 0.256541
Si Si3 0.576501 0.186636 0.236749
Si Si4 0.481545 0.480108 0.743632
O O1 0.960635 0.843415 0.733962
O O2 0.732716 0.956484 0.741139
O O3 0.277682 0.970474 0.494806
O O4 0.770108 0.967693 0.995238
O O5 0.543070 0.706437 0.338537
O O6 0.669780 0.785912 0.475983
O O7 0.085450 0.774045 0.980730
O O8 0.612148 0.095658 0.230178
#
# Coordination Sequence:
#
# PCOD8128656 Si02
#       4
#     4   4   4   4
#     4   9  17  31  53  79 104 137 186 232 264 309
#     4  11  22  37  59  85 114 147 184 230 280 331
#     4  11  22  37  59  85 114 147 184 230 280 331
#     4   9  17  31  53  79 104 137 186 232 264 309
#
# _framework density 22.811465999999999
#
# number of rings (size 3 to 8) (size 9 to 14) (size 15 to 20)
#    0.000    2.000    0.000    4.500    0.000    8.000 
#    0.000    0.000    0.000   30.000    0.000    0.000 
#    0.000    0.000    0.000    0.000    0.000    0.000 
#
# Total GULP energy -198480.031805 kJ/mol
# GULP energy per Si atom -12405.001988 kJ/mol
# Density = 2.275955 g / cm^3
# Si number density = 22.811466 Si / 1000 Ang^3
#
#
#
# Elastic Constant Matrix: (Units=GPa)
#
#
# Indices 1 2 3 4 5 6 
#
# 1 8.3634 2.0804 -1.1672 0.0000 1.2147 0.0000
# 2 2.0804 69.4051 43.5641 0.0000 -6.8222 0.0000
# 3 -1.1672 43.5641 169.6120 0.0000 -19.9574 0.0000
# 4 0.0000 0.0000 0.0000 49.8467 0.0000 -0.7352
# 5 1.2147 -6.8222 -19.9574 0.0000 18.1047 0.0000
# 6 0.0000 0.0000 0.0000 -0.7352 0.0000 24.4788
#
#
#
# Elastic Compliance Matrix: (Units=1/GPa)
#
#
# Indices 1 2 3 4 5 6 
#
# 1 0.122334 -0.005262 0.001142 0.000000 -0.008931 0.000000
# 2 -0.005262 0.017458 -0.004257 0.000000 0.002239 0.000000
# 3 0.001142 -0.004257 0.007813 0.000000 0.006931 0.000000
# 4 0.000000 0.000000 0.000000 0.020070 0.000000 0.000603
# 5 -0.008931 0.002239 0.006931 0.000000 0.064318 0.000000
# 6 0.000000 0.000000 0.000000 0.000603 0.000000 0.040870
#
#
# Mechanical properties :
#
#
# Convention : Reuss Voigt Hill
#
# Bulk Modulus (GPa) = 7.64223 37.37056 22.50639
# Shear Modulus (GPa) = 15.00457 32.01292 23.50874
#
# Velocity S-wave (km/s) = 2.56747 3.75022 3.21373
# Velocity P-wave (km/s) = 3.48521 5.93044 4.86399
#
# Compressibility (1/GPa) = 0.13085188
#
# Stress axis : x y z
#
# Youngs Moduli (GPa) = 8.17435 57.28092 127.99890
#
# Poissons Ratio (x) = 0.30141 -0.14624
# Poissons Ratio (y) = 0.04301 0.54485
# Poissons Ratio (z) = -0.00934 0.24383
#
# Static dielectric constant tensor:
#      x y z
#    x 3.613410 0.000000 -0.080890 
#    y 0.000000 4.309710 0.000000 
#    z -0.080890 0.000000 4.048110 
# 
# 
# High freq. dielectric constant tensor:
#      x y z
#    x 1.867740 0.000000 -0.003940 
#    y 0.000000 1.913450 0.000000 
#    z -0.003940 0.000000 1.909670 
# 
# From -- ./inp_files/874.got.cif
#   From: 2010.03.12/outbox.cif.g09.slc.cpg/sg14_1_cif.got.tgz:874.got - 2010.03.31 13:35:05.
