data_PCOD8128986
_publ_section_title
;
Structure prediction by ZEFSAII (Michael W. Deem and Ramdas Pophale) SiO2 
 PCOD8128986
Probable space group: P 21/C
;
_chemical_formula_sum "Si O2"
_cell_formula_units_Z 24
_cell_length_a 6.769811
_cell_length_b 20.808890
_cell_length_c 9.198734
_cell_angle_alpha 90.000000
_cell_angle_beta 119.727027
_cell_angle_gamma 90.000000
_cell_volume 1125.310021
_symmetry_space_group_name_H-M "P 21/C"
_symmetry_group_IT_number 14
_symmetry_cell_setting 'monoclinic'
loop_
_space_group_symop_operation_xyz
x,y,z
-x,1/2+y,1/2-z
-x,-y,-z
x,1/2-y,1/2+z
loop_
_atom_site_type_symbol
_atom_site_label
_atom_site_fract_x
_atom_site_fract_y
_atom_site_fract_z
Si Si1 0.276074 0.483661 0.830429
Si Si2 0.356900 0.699807 0.936011
Si Si3 0.713934 0.176968 0.263875
Si Si4 0.043194 0.396821 0.244009
Si Si5 0.427805 0.058229 0.077088
Si Si6 0.192762 0.133142 0.487284
O O1 0.094998 0.538543 0.787723
O O2 0.328667 0.476608 0.681111
O O3 0.500000 0.500000 0.000000
O O4 0.171655 0.418250 0.851680
O O5 0.350532 0.773928 0.886772
O O6 0.123682 0.664361 0.803535
O O7 0.566510 0.668410 0.927910
O O8 0.402506 0.696100 0.125254
O O9 0.638783 0.104656 0.194098
O O10 0.984961 0.181786 0.384829
O O11 0.236500 0.395233 0.437769
O O12 0.168687 0.399983 0.135094
O O13 0.500000 0.000000 0.000000
#
# Coordination Sequence:
#
# PCOD8128986 Si02
#       6
#     4   4   4   4   4   4
#     4  12  21  44  72  98 142 180 229 284 345 415
#     4  11  26  46  70 100 137 187 233 290 346 423
#     4  11  27  45  69 100 137 184 237 282 356 415
#     4  11  25  42  69 106 135 182 229 282 355 408
#     4  12  26  44  69 108 143 184 233 295 350 415
#     4  11  23  46  69  99 137 180 228 285 346 413
#
# _framework density 21.327456000000002
#
# number of rings (size 3 to 8) (size 9 to 14) (size 15 to 20)
#    0.000    0.667    3.333    4.000    4.667    2.667 
#    0.000    0.000    0.000    0.000    0.000    0.000 
#    0.000    0.000    0.000    0.000    0.000    0.000 
#
# Total GULP energy -297714.104955 kJ/mol
# GULP energy per Si atom -12404.754373 kJ/mol
# Density = 2.127891 g / cm^3
# Si number density = 21.327456 Si / 1000 Ang^3
#
#
#
# Elastic Constant Matrix: (Units=GPa)
#
#
# Indices 1 2 3 4 5 6 
#
# 1 126.9763 35.8859 52.2613 0.0000 -19.1852 0.0000
# 2 35.8859 104.0246 36.9817 0.0000 -19.7712 0.0000
# 3 52.2613 36.9817 125.6953 0.0000 -18.5471 0.0000
# 4 0.0000 0.0000 0.0000 36.7131 0.0000 -9.6113
# 5 -19.1852 -19.7712 -18.5471 0.0000 42.0710 0.0000
# 6 0.0000 0.0000 0.0000 -9.6113 0.0000 20.0183
#
#
#
# Elastic Compliance Matrix: (Units=1/GPa)
#
#
# Indices 1 2 3 4 5 6 
#
# 1 0.010115 -0.001879 -0.003318 0.000000 0.002267 0.000000
# 2 -0.001879 0.011721 -0.002119 0.000000 0.003717 0.000000
# 3 -0.003318 -0.002119 0.010256 0.000000 0.002012 0.000000
# 4 0.000000 0.000000 0.000000 0.031154 0.000000 0.014958
# 5 0.002267 0.003717 0.002012 0.000000 0.027437 0.000000
# 6 0.000000 0.000000 0.000000 0.014958 0.000000 0.057136
#
#
# Mechanical properties :
#
#
# Convention : Reuss Voigt Hill
#
# Bulk Modulus (GPa) = 57.27476 67.43932 62.35704
# Shear Modulus (GPa) = 29.71406 35.19830 32.45618
#
# Velocity S-wave (km/s) = 3.73665 4.06689 3.90526
# Velocity P-wave (km/s) = 6.74759 7.33091 7.04529
#
# Compressibility (1/GPa) = 0.01745970
#
# Stress axis : x y z
#
# Youngs Moduli (GPa) = 98.86621 85.31645 97.50670
#
# Poissons Ratio (x) = 0.16030 0.32355
# Poissons Ratio (y) = 0.18575 0.20660
# Poissons Ratio (z) = 0.32806 0.18077
#
# Static dielectric constant tensor:
#      x y z
#    x 4.126260 0.000000 -0.156880 
#    y 0.000000 3.773840 0.000000 
#    z -0.156880 0.000000 3.978420 
# 
# 
# High freq. dielectric constant tensor:
#      x y z
#    x 1.854560 0.000000 -0.002600 
#    y 0.000000 1.835650 0.000000 
#    z -0.002600 0.000000 1.843020 
# 
# From -- ./inp_files/6321.got.cif
#   From: 2010.03.12/outbox.cif.g09.slc.cpg/sg14_4_cif.got.tgz:6321.got - 2010.03.31 13:35:05.
