data_PCOD8128389
_publ_section_title
;
Structure prediction by ZEFSAII (Michael W. Deem and Ramdas Pophale) SiO2 
 PCOD8128389
Probable space group: P 21/C
;
_chemical_formula_sum "Si O2"
_cell_formula_units_Z 24
_cell_length_a 11.129907
_cell_length_b 11.329863
_cell_length_c 22.722580
_cell_angle_alpha 90.000000
_cell_angle_beta 157.090084
_cell_angle_gamma 90.000000
_cell_volume 1115.423236
_symmetry_space_group_name_H-M "P 21/C"
_symmetry_group_IT_number 14
_symmetry_cell_setting 'monoclinic'
loop_
_space_group_symop_operation_xyz
x,y,z
-x,1/2+y,1/2-z
-x,-y,-z
x,1/2-y,1/2+z
loop_
_atom_site_type_symbol
_atom_site_label
_atom_site_fract_x
_atom_site_fract_y
_atom_site_fract_z
Si Si1 0.536658 0.548094 0.320370
Si Si2 0.152573 0.490237 0.657486
Si Si3 0.156336 0.365104 0.878313
Si Si4 0.396482 0.317892 0.860519
Si Si5 0.946000 0.595334 0.834332
Si Si6 0.377654 0.778435 0.316363
O O1 0.600294 0.552094 0.279638
O O2 0.220085 0.475928 0.187838
O O3 0.512065 0.681108 0.332738
O O4 0.808950 0.479135 0.477073
O O5 0.180034 0.405760 0.726050
O O6 0.209506 0.625052 0.700722
O O7 0.357874 0.345503 0.911716
O O8 0.048525 0.501299 0.830862
O O9 0.859484 0.279664 0.744142
O O10 0.351380 0.340042 0.025021
O O11 0.298511 0.184116 0.804704
O O12 0.755785 0.335839 0.005866
#
# Coordination Sequence:
#
# PCOD8128389 Si02
#       6
#     4   4   4   4   4   4
#     4  10  25  45  67  98 134 175 225 272 328 401
#     4  11  24  44  69  97 135 176 221 276 332 388
#     4  11  24  43  70  97 137 173 226 270 335 397
#     4  12  25  42  69  98 138 176 220 279 330 394
#     4  11  25  44  64 101 133 175 224 269 336 388
#     4  11  22  44  69  98 129 178 218 276 334 394
#
# _framework density 21.516496
#
# number of rings (size 3 to 8) (size 9 to 14) (size 15 to 20)
#    0.000    1.000    3.333    2.500    4.667    0.667 
#    0.000    4.167    0.000    0.000    0.000    0.000 
#    0.000    0.000    0.000    0.000    0.000    0.000 
#
# Total GULP energy -297753.061051 kJ/mol
# GULP energy per Si atom -12406.377544 kJ/mol
# Density = 2.146752 g / cm^3
# Si number density = 21.516496 Si / 1000 Ang^3
#
#
#
# Elastic Constant Matrix: (Units=GPa)
#
#
# Indices 1 2 3 4 5 6 
#
# 1 77.6004 44.9799 17.8203 0.0000 1.7214 0.0000
# 2 44.9799 128.2135 44.0332 0.0000 1.0852 0.0000
# 3 17.8203 44.0332 79.4198 0.0000 7.8422 0.0000
# 4 0.0000 0.0000 0.0000 43.5250 0.0000 3.7180
# 5 1.7214 1.0852 7.8422 0.0000 29.5897 0.0000
# 6 0.0000 0.0000 0.0000 3.7180 0.0000 24.9735
#
#
#
# Elastic Compliance Matrix: (Units=1/GPa)
#
#
# Indices 1 2 3 4 5 6 
#
# 1 0.016209 -0.005500 -0.000528 0.000000 -0.000601 0.000000
# 2 -0.005500 0.011535 -0.005289 0.000000 0.001299 0.000000
# 3 -0.000528 -0.005289 0.016040 0.000000 -0.004026 0.000000
# 4 0.000000 0.000000 0.000000 0.023271 0.000000 -0.003465
# 5 -0.000601 0.001299 -0.004026 0.000000 0.034850 0.000000
# 6 0.000000 0.000000 0.000000 -0.003465 0.000000 0.040558
#
#
# Mechanical properties :
#
#
# Convention : Reuss Voigt Hill
#
# Bulk Modulus (GPa) = 47.28452 55.43341 51.35897
# Shear Modulus (GPa) = 29.04480 31.51101 30.27790
#
# Velocity S-wave (km/s) = 3.67806 3.83104 3.75533
# Velocity P-wave (km/s) = 6.32939 6.73708 6.53642
#
# Compressibility (1/GPa) = 0.02114857
#
# Stress axis : x y z
#
# Youngs Moduli (GPa) = 61.69350 86.69599 62.34403
#
# Poissons Ratio (x) = 0.47683 0.03293
# Poissons Ratio (y) = 0.33931 0.32976
# Poissons Ratio (z) = 0.03259 0.45856
#
# Static dielectric constant tensor:
#      x y z
#    x 3.716920 0.000000 0.223630 
#    y 0.000000 3.974020 0.000000 
#    z 0.223630 0.000000 3.868260 
# 
# 
# High freq. dielectric constant tensor:
#      x y z
#    x 1.836900 0.000000 0.014500 
#    y 0.000000 1.858580 0.000000 
#    z 0.014500 0.000000 1.849240 
# 
# From -- ./inp_files/12358.got.cif
#   From: 2010.03.12/outbox.cif.g09.slc.cpg/sg14_7_cif.got.tgz:12358.got - 2010.03.31 13:35:05.
