data_PCOD8128315
_publ_section_title
;
Structure prediction by ZEFSAII (Michael W. Deem and Ramdas Pophale) SiO2 
 PCOD8128315
Probable space group: P 21/C
;
_chemical_formula_sum "Si O2"
_cell_formula_units_Z 20
_cell_length_a 9.243570
_cell_length_b 7.488688
_cell_length_c 12.965923
_cell_angle_alpha 90.000000
_cell_angle_beta 66.352023
_cell_angle_gamma 90.000000
_cell_volume 822.161747
_symmetry_space_group_name_H-M "P 21/C"
_symmetry_group_IT_number 14
_symmetry_cell_setting 'monoclinic'
loop_
_space_group_symop_operation_xyz
x,y,z
-x,1/2+y,1/2-z
-x,-y,-z
x,1/2-y,1/2+z
loop_
_atom_site_type_symbol
_atom_site_label
_atom_site_fract_x
_atom_site_fract_y
_atom_site_fract_z
Si Si1 0.771044 0.924372 0.140983
Si Si2 0.510670 0.864269 0.832851
Si Si3 0.255000 0.174349 0.619627
Si Si4 0.012369 0.738981 0.942001
Si Si5 0.696517 0.015026 0.600086
O O1 0.746626 0.926836 0.270447
O O2 0.603119 0.963393 0.131627
O O3 0.883949 0.086938 0.079253
O O4 0.859629 0.750382 0.065641
O O5 0.625784 0.845389 0.900288
O O6 0.407798 0.687801 0.848892
O O7 0.632093 0.865538 0.699567
O O8 0.074751 0.230296 0.644563
O O9 0.324973 0.043387 0.512485
O O10 0.118795 0.564897 0.933399
#
# Coordination Sequence:
#
# PCOD8128315 Si02
#       5
#     4   4   4   4   4
#     4  10  24  46  64 107 146 180 232 292 349 417
#     4  11  24  45  70 103 144 180 236 291 342 421
#     4  12  24  41  75 100 138 192 229 287 357 412
#     4  10  25  45  71 102 144 180 238 293 345 422
#     4  11  25  47  70 105 143 183 237 292 346 420
#
# _framework density 24.326112999999999
#
# number of rings (size 3 to 8) (size 9 to 14) (size 15 to 20)
#    0.000    1.200    2.000    2.400    5.600    0.800 
#    0.000    0.000    0.000    0.000    0.000    0.000 
#    0.000    0.000    0.000    0.000    0.000    0.000 
#
# Total GULP energy -247908.055729 kJ/mol
# GULP energy per Si atom -12395.402786 kJ/mol
# Density = 2.427075 g / cm^3
# Si number density = 24.326113 Si / 1000 Ang^3
#
#
#
# Elastic Constant Matrix: (Units=GPa)
#
#
# Indices 1 2 3 4 5 6 
#
# 1 193.6882 62.8521 78.8803 0.0000 4.1053 0.0000
# 2 62.8521 89.6203 63.8010 0.0000 -4.2709 0.0000
# 3 78.8803 63.8010 143.6381 0.0000 -0.0004 0.0000
# 4 0.0000 0.0000 0.0000 31.9770 0.0000 2.7734
# 5 4.1053 -4.2709 -0.0004 0.0000 47.1744 0.0000
# 6 0.0000 0.0000 0.0000 2.7734 0.0000 52.0408
#
#
#
# Elastic Compliance Matrix: (Units=1/GPa)
#
#
# Indices 1 2 3 4 5 6 
#
# 1 0.007301 -0.003380 -0.002508 0.000000 -0.000941 0.000000
# 2 -0.003380 0.017986 -0.006133 0.000000 0.001922 0.000000
# 3 -0.002508 -0.006133 0.011064 0.000000 -0.000337 0.000000
# 4 0.000000 0.000000 0.000000 0.031418 0.000000 -0.001674
# 5 -0.000941 0.001922 -0.000337 0.000000 0.021454 0.000000
# 6 0.000000 0.000000 0.000000 -0.001674 0.000000 0.019305
#
#
# Mechanical properties :
#
#
# Convention : Reuss Voigt Hill
#
# Bulk Modulus (GPa) = 81.24271 93.11260 87.17765
# Shear Modulus (GPa) = 36.58385 40.99932 38.79158
#
# Velocity S-wave (km/s) = 3.88221 4.10982 3.99764
# Velocity P-wave (km/s) = 7.31883 7.80261 7.56459
#
# Compressibility (1/GPa) = 0.01230880
#
# Stress axis : x y z
#
# Youngs Moduli (GPa) = 136.96590 55.59843 90.38599
#
# Poissons Ratio (x) = 0.18790 0.22672
# Poissons Ratio (y) = 0.46288 0.55435
# Poissons Ratio (z) = 0.34356 0.34099
#
# Static dielectric constant tensor:
#      x y z
#    x 5.268720 0.000000 -0.411000 
#    y 0.000000 4.615730 0.000000 
#    z -0.411000 0.000000 4.238320 
# 
# 
# High freq. dielectric constant tensor:
#      x y z
#    x 2.001800 0.000000 -0.028160 
#    y 0.000000 1.985930 0.000000 
#    z -0.028160 0.000000 1.958100 
# 
# From -- ./inp_files/23003.got.cif
#   From: 2010.03.12/outbox.cif.g09.slc.cpg/sg14_12_cif.got.tgz:23003.got - 2010.03.31 13:35:05.
