data_PCOD8128139
_publ_section_title
;
Structure prediction by ZEFSAII (Michael W. Deem and Ramdas Pophale) SiO2 
 PCOD8128139
Probable space group: P 21/C
;
_chemical_formula_sum "Si O2"
_cell_formula_units_Z 20
_cell_length_a 18.390201
_cell_length_b 4.829746
_cell_length_c 8.973244
_cell_angle_alpha 90.000000
_cell_angle_beta 76.292600
_cell_angle_gamma 90.000000
_cell_volume 774.303692
_symmetry_space_group_name_H-M "P 21/C"
_symmetry_group_IT_number 14
_symmetry_cell_setting 'monoclinic'
loop_
_space_group_symop_operation_xyz
x,y,z
-x,1/2+y,1/2-z
-x,-y,-z
x,1/2-y,1/2+z
loop_
_atom_site_type_symbol
_atom_site_label
_atom_site_fract_x
_atom_site_fract_y
_atom_site_fract_z
Si Si1 0.147353 0.459989 0.888852
Si Si2 0.448049 0.914009 0.266742
Si Si3 0.951930 0.713839 0.802914
Si Si4 0.652518 0.227084 0.427565
Si Si5 0.752598 0.470183 0.623602
O O1 0.119177 0.357811 0.741616
O O2 0.175658 0.776032 0.873343
O O3 0.219069 0.282991 0.905028
O O4 0.075987 0.419861 0.029747
O O5 0.479718 0.604700 0.266030
O O6 0.402659 0.938476 0.133571
O O7 0.393213 0.966132 0.434398
O O8 0.986791 0.454100 0.694403
O O9 0.715838 0.399579 0.482994
O O10 0.691352 0.035599 0.284355
#
# Coordination Sequence:
#
# PCOD8128139 Si02
#       5
#     4   4   4   4   4
#     4  12  24  42  64  90 124 160 202 250 302 360
#     4  11  24  41  64  91 124 161 202 250 302 357
#     4  12  24  41  64  91 122 160 202 250 302 360
#     4  10  24  41  64  91 124 160 204 250 300 360
#     4  11  24  41  62  91 122 161 202 250 302 357
#
# _framework density 25.829658999999999
#
# number of rings (size 3 to 8) (size 9 to 14) (size 15 to 20)
#    0.000    0.800    0.000    7.200    0.000    9.600 
#    0.000    0.000    0.000    0.000    0.000    0.000 
#    0.000    0.000    0.000    0.000    0.000    0.000 
#
# Total GULP energy -248134.065560 kJ/mol
# GULP energy per Si atom -12406.703278 kJ/mol
# Density = 2.577087 g / cm^3
# Si number density = 25.829659 Si / 1000 Ang^3
#
#
#
# Elastic Constant Matrix: (Units=GPa)
#
#
# Indices 1 2 3 4 5 6 
#
# 1 96.1330 1.9014 11.8348 0.0000 -5.0205 0.0000
# 2 1.9014 56.3205 -3.1043 0.0000 -11.0816 0.0000
# 3 11.8348 -3.1043 83.5434 0.0000 2.6245 0.0000
# 4 0.0000 0.0000 0.0000 17.4421 0.0000 -1.4394
# 5 -5.0205 -11.0816 2.6245 0.0000 27.7720 0.0000
# 6 0.0000 0.0000 0.0000 -1.4394 0.0000 21.6682
#
#
#
# Elastic Compliance Matrix: (Units=1/GPa)
#
#
# Indices 1 2 3 4 5 6 
#
# 1 0.010706 -0.000042 -0.001583 0.000000 0.002068 0.000000
# 2 -0.000042 0.019287 0.000482 0.000000 0.007643 0.000000
# 3 -0.001583 0.000482 0.012251 0.000000 -0.001251 0.000000
# 4 0.000000 0.000000 0.000000 0.057648 0.000000 0.003830
# 5 0.002068 0.007643 -0.001251 0.000000 0.039549 0.000000
# 6 0.000000 0.000000 0.000000 0.003830 0.000000 0.046405
#
#
# Mechanical properties :
#
#
# Convention : Reuss Voigt Hill
#
# Bulk Modulus (GPa) = 25.02507 28.58451 26.80479
# Shear Modulus (GPa) = 24.81978 28.40080 26.61029
#
# Velocity S-wave (km/s) = 3.10321 3.31953 3.21319
# Velocity P-wave (km/s) = 4.74862 5.07769 4.91591
#
# Compressibility (1/GPa) = 0.03995992
#
# Stress axis : x y z
#
# Youngs Moduli (GPa) = 93.40556 51.84742 81.62368
#
# Poissons Ratio (x) = 0.00216 0.12922
# Poissons Ratio (y) = 0.00390 -0.03938
# Poissons Ratio (z) = 0.14788 -0.02502
#
# Static dielectric constant tensor:
#      x y z
#    x 4.688890 0.000000 -0.003070 
#    y 0.000000 4.267040 0.000000 
#    z -0.003070 0.000000 4.608500 
# 
# 
# High freq. dielectric constant tensor:
#      x y z
#    x 2.051400 0.000000 -0.003990 
#    y 0.000000 2.015540 0.000000 
#    z -0.003990 0.000000 2.038900 
# 
# From -- ./inp_files/17135.got.cif
#   From: 2010.03.12/outbox.cif.g09.slc.cpg/sg14_9_cif.got.tgz:17135.got - 2010.03.31 13:35:05.
