data_PCOD8128153
_publ_section_title
;
Structure prediction by ZEFSAII (Michael W. Deem and Ramdas Pophale) SiO2 
 PCOD8128153
Probable space group: P 21/C
;
_chemical_formula_sum "Si O2"
_cell_formula_units_Z 28
_cell_length_a 10.880749
_cell_length_b 14.660440
_cell_length_c 8.947765
_cell_angle_alpha 90.000000
_cell_angle_beta 123.527457
_cell_angle_gamma 90.000000
_cell_volume 1189.841555
_symmetry_space_group_name_H-M "P 21/C"
_symmetry_group_IT_number 14
_symmetry_cell_setting 'monoclinic'
loop_
_space_group_symop_operation_xyz
x,y,z
-x,1/2+y,1/2-z
-x,-y,-z
x,1/2-y,1/2+z
loop_
_atom_site_type_symbol
_atom_site_label
_atom_site_fract_x
_atom_site_fract_y
_atom_site_fract_z
Si Si1 0.149004 0.654464 0.846635
Si Si2 0.246002 0.317341 0.692310
Si Si3 0.574864 0.558217 0.769564
Si Si4 0.005803 0.805794 0.549594
Si Si5 0.542180 0.196877 0.581521
Si Si6 0.567562 0.880615 0.933388
Si Si7 0.130761 0.049437 0.346123
O O1 0.321187 0.662087 0.923547
O O2 0.083242 0.553257 0.774088
O O3 0.054450 0.721911 0.683475
O O4 0.128478 0.678985 0.006416
O O5 0.153663 0.222819 0.625546
O O6 0.285630 0.342306 0.548219
O O7 0.149874 0.396393 0.704341
O O8 0.395258 0.302366 0.883700
O O9 0.472442 0.633197 0.782033
O O10 0.488895 0.462914 0.707599
O O11 0.614416 0.587605 0.628936
O O12 0.719784 0.542439 0.961213
O O13 0.991870 0.898630 0.636538
O O14 0.559556 0.302153 0.645431
#
# Coordination Sequence:
#
# PCOD8128153 Si02
#       7
#     4   4   4   4   4   4   4
#     4  12  29  46  72 105 145 184 237 290 362 409
#     4  11  23  46  75 101 139 188 239 279 351 420
#     4  10  24  41  71 106 137 178 241 284 353 412
#     4  12  27  50  69 104 143 190 233 287 353 431
#     4  11  24  45  73 102 142 187 228 300 343 413
#     4  11  22  39  70 109 137 176 233 297 340 413
#     4  11  24  49  72  99 141 195 232 290 346 431
#
# _framework density 23.532544000000001
#
# number of rings (size 3 to 8) (size 9 to 14) (size 15 to 20)
#    0.000    0.857    1.429    5.571    8.000    2.857 
#    0.000    0.000    0.000    0.000    0.000    0.000 
#    0.000    0.000    0.000    0.000    0.000    0.000 
#
# Total GULP energy -347316.716982 kJ/mol
# GULP energy per Si atom -12404.168464 kJ/mol
# Density = 2.347898 g / cm^3
# Si number density = 23.532544 Si / 1000 Ang^3
#
#
#
# Elastic Constant Matrix: (Units=GPa)
#
#
# Indices 1 2 3 4 5 6 
#
# 1 95.2467 -1.7743 21.8606 0.0000 -28.2209 0.0000
# 2 -1.7743 122.8523 2.7460 0.0000 -4.8711 0.0000
# 3 21.8606 2.7460 38.5094 0.0000 -10.3152 0.0000
# 4 0.0000 0.0000 0.0000 31.4478 0.0000 -4.9794
# 5 -28.2209 -4.8711 -10.3152 0.0000 36.5430 0.0000
# 6 0.0000 0.0000 0.0000 -4.9794 0.0000 32.9040
#
#
#
# Elastic Compliance Matrix: (Units=1/GPa)
#
#
# Indices 1 2 3 4 5 6 
#
# 1 0.014765 0.000734 -0.005791 0.000000 0.009866 0.000000
# 2 0.000734 0.008223 -0.000603 0.000000 0.001493 0.000000
# 3 -0.005791 -0.000603 0.030375 0.000000 0.004021 0.000000
# 4 0.000000 0.000000 0.000000 0.032579 0.000000 0.004930
# 5 0.009866 0.001493 0.004021 0.000000 0.036318 0.000000
# 6 0.000000 0.000000 0.000000 0.004930 0.000000 0.031138
#
#
# Mechanical properties :
#
#
# Convention : Reuss Voigt Hill
#
# Bulk Modulus (GPa) = 23.78557 33.58590 28.68573
# Shear Modulus (GPa) = 27.97453 35.76403 31.86928
#
# Velocity S-wave (km/s) = 3.45158 3.90265 3.68403
# Velocity P-wave (km/s) = 5.10039 5.88308 5.50566
#
# Compressibility (1/GPa) = 0.04204229
#
# Stress axis : x y z
#
# Youngs Moduli (GPa) = 67.72752 121.60837 32.92134
#
# Poissons Ratio (x) = -0.08924 0.19066
# Poissons Ratio (y) = -0.04970 0.01986
# Poissons Ratio (z) = 0.39224 0.07335
#
# Static dielectric constant tensor:
#      x y z
#    x 4.300940 0.000000 -0.316330 
#    y 0.000000 4.743580 0.000000 
#    z -0.316330 0.000000 4.024950 
# 
# 
# High freq. dielectric constant tensor:
#      x y z
#    x 1.931730 0.000000 -0.022610 
#    y 0.000000 1.950380 0.000000 
#    z -0.022610 0.000000 1.926290 
# 
# From -- ./inp_files/13205.got.cif
#   From: 2010.03.12/outbox.cif.g09.slc.cpg/sg14_7_cif.got.tgz:13205.got - 2010.03.31 13:35:05.
