data_PCOD8128299
_publ_section_title
;
Structure prediction by ZEFSAII (Michael W. Deem and Ramdas Pophale) SiO2 
 PCOD8128299
Probable space group: P 21/C
;
_chemical_formula_sum "Si O2"
_cell_formula_units_Z 28
_cell_length_a 8.706215
_cell_length_b 21.939912
_cell_length_c 8.726492
_cell_angle_alpha 90.000000
_cell_angle_beta 53.198891
_cell_angle_gamma 90.000000
_cell_volume 1334.702638
_symmetry_space_group_name_H-M "P 21/C"
_symmetry_group_IT_number 14
_symmetry_cell_setting 'monoclinic'
loop_
_space_group_symop_operation_xyz
x,y,z
-x,1/2+y,1/2-z
-x,-y,-z
x,1/2-y,1/2+z
loop_
_atom_site_type_symbol
_atom_site_label
_atom_site_fract_x
_atom_site_fract_y
_atom_site_fract_z
Si Si1 0.874503 0.187047 0.531273
Si Si2 0.848261 0.086740 0.083484
Si Si3 0.508640 0.835943 0.782164
Si Si4 0.951564 0.801839 0.904239
Si Si5 0.036142 0.501738 0.232344
Si Si6 0.484018 0.279993 0.401004
Si Si7 0.868015 0.918553 0.584274
O O1 0.993763 0.238845 0.548276
O O2 0.922505 0.192707 0.323687
O O3 0.936752 0.120436 0.555568
O O4 0.646682 0.191214 0.694172
O O5 0.643436 0.111716 0.157591
O O6 0.996326 0.142379 0.015131
O O7 0.829537 0.046935 0.249943
O O8 0.918226 0.043664 0.907503
O O9 0.521123 0.792907 0.624903
O O10 0.704721 0.869064 0.702990
O O11 0.457776 0.793152 0.958100
O O12 0.724494 0.807097 0.012532
O O13 0.881438 0.541080 0.229505
O O14 0.169143 0.462665 0.037891
#
# Coordination Sequence:
#
# PCOD8128299 Si02
#       7
#     4   4   4   4   4   4   4
#     4  12  24  41  70 100 140 174 216 279 339 406
#     4  11  24  45  66  99 134 179 231 282 330 403
#     4  12  25  41  68 100 139 174 227 271 347 407
#     4  12  24  43  68 101 139 172 221 275 342 406
#     4  10  24  45  68  89 135 186 230 284 329 382
#     4  12  24  42  66 106 138 178 209 275 348 415
#     4  11  23  45  68  98 133 183 230 278 334 406
#
# _framework density 20.978455
#
# number of rings (size 3 to 8) (size 9 to 14) (size 15 to 20)
#    0.000    0.571    5.714    1.714    2.000    2.286 
#    0.000    5.714    0.000    0.000    0.000    0.000 
#    0.000    0.000    0.000    0.000    0.000    0.000 
#
# Total GULP energy -347260.218597 kJ/mol
# GULP energy per Si atom -12402.150664 kJ/mol
# Density = 2.093071 g / cm^3
# Si number density = 20.978455 Si / 1000 Ang^3
#
#
#
# Elastic Constant Matrix: (Units=GPa)
#
#
# Indices 1 2 3 4 5 6 
#
# 1 80.1875 41.5411 60.5182 0.0000 5.6190 0.0000
# 2 41.5411 113.9318 50.8064 0.0000 21.2873 0.0000
# 3 60.5182 50.8064 107.0687 0.0000 3.4859 0.0000
# 4 0.0000 0.0000 0.0000 27.6877 0.0000 4.3377
# 5 5.6190 21.2873 3.4859 0.0000 37.4580 0.0000
# 6 0.0000 0.0000 0.0000 4.3377 0.0000 45.5716
#
#
#
# Elastic Compliance Matrix: (Units=1/GPa)
#
#
# Indices 1 2 3 4 5 6 
#
# 1 0.022661 -0.003109 -0.011315 0.000000 -0.000580 0.000000
# 2 -0.003109 0.013005 -0.004201 0.000000 -0.006533 0.000000
# 3 -0.011315 -0.004201 0.017649 0.000000 0.002442 0.000000
# 4 0.000000 0.000000 0.000000 0.036664 0.000000 -0.003490
# 5 -0.000580 -0.006533 0.002442 0.000000 0.030269 0.000000
# 6 0.000000 0.000000 0.000000 -0.003490 0.000000 0.022276
#
#
# Mechanical properties :
#
#
# Convention : Reuss Voigt Hill
#
# Bulk Modulus (GPa) = 62.24319 67.43549 64.83934
# Shear Modulus (GPa) = 27.00824 32.03160 29.51992
#
# Velocity S-wave (km/s) = 3.59197 3.91177 3.75528
# Velocity P-wave (km/s) = 6.85109 7.25379 7.05532
#
# Compressibility (1/GPa) = 0.01606601
#
# Stress axis : x y z
#
# Youngs Moduli (GPa) = 44.12838 76.89446 56.65940
#
# Poissons Ratio (x) = 0.23903 0.64109
# Poissons Ratio (y) = 0.13718 0.23804
# Poissons Ratio (z) = 0.49930 0.32306
#
# Static dielectric constant tensor:
#      x y z
#    x 3.862830 0.000000 0.172960 
#    y 0.000000 4.156380 0.000000 
#    z 0.172960 0.000000 3.811960 
# 
# 
# High freq. dielectric constant tensor:
#      x y z
#    x 1.827810 0.000000 0.015040 
#    y 0.000000 1.839850 0.000000 
#    z 0.015040 0.000000 1.814230 
# 
# From -- ./inp_files/10395.got.cif
#   From: 2010.03.12/outbox.cif.g09.slc.cpg/sg14_6_cif.got.tgz:10395.got - 2010.03.31 13:35:05.
