data_PCOD8128657
_publ_section_title
;
Structure prediction by ZEFSAII (Michael W. Deem and Ramdas Pophale) SiO2 
 PCOD8128657
Probable space group: P 21/C
;
_chemical_formula_sum "Si O2"
_cell_formula_units_Z 32
_cell_length_a 20.049767
_cell_length_b 8.693873
_cell_length_c 9.191414
_cell_angle_alpha 90.000000
_cell_angle_beta 83.869938
_cell_angle_gamma 90.000000
_cell_volume 1592.995504
_symmetry_space_group_name_H-M "P 21/C"
_symmetry_group_IT_number 14
_symmetry_cell_setting 'monoclinic'
loop_
_space_group_symop_operation_xyz
x,y,z
-x,1/2+y,1/2-z
-x,-y,-z
x,1/2-y,1/2+z
loop_
_atom_site_type_symbol
_atom_site_label
_atom_site_fract_x
_atom_site_fract_y
_atom_site_fract_z
Si Si1 0.180285 0.414552 0.923272
Si Si2 0.446129 0.156903 0.144628
Si Si3 0.835057 0.905698 0.236363
Si Si4 0.434818 0.051260 0.826835
Si Si5 0.949640 0.430344 0.124786
Si Si6 0.288974 0.066582 0.889524
Si Si7 0.698800 0.614095 0.277327
Si Si8 0.026299 0.571205 0.349076
O O1 0.157800 0.258434 0.846128
O O2 0.126336 0.548347 0.909766
O O3 0.250028 0.482203 0.837289
O O4 0.188521 0.381317 0.092150
O O5 0.442703 0.335623 0.188090
O O6 0.379476 0.064445 0.215703
O O7 0.511879 0.084601 0.202672
O O8 0.449324 0.149855 0.969257
O O9 0.778713 0.010104 0.162050
O O10 0.905327 0.992963 0.220366
O O11 0.359633 0.976057 0.851415
O O12 0.963738 0.252217 0.146640
O O13 0.963263 0.531525 0.263052
O O14 0.000000 0.500000 0.000000
O O15 0.296085 0.215586 0.786766
O O16 0.277045 0.106842 0.060967
O O17 0.000000 0.500000 0.500000
#
# Coordination Sequence:
#
# PCOD8128657 Si02
#       8
#     4   4   4   4   4   4   4   4
#     4  11  22  37  61  85 119 146 192 238 288 349
#     4   9  18  33  53  79 113 146 193 233 286 332
#     4  11  22  38  59  89 114 151 188 237 291 347
#     4   9  18  33  53  79 112 149 187 241 278 340
#     4  12  25  46  61  91 118 152 197 238 292 347
#     4   9  17  31  53  80 112 147 194 231 287 339
#     4   9  17  31  53  81 110 151 188 238 280 341
#     4  12  27  42  67  87 120 156 191 242 290 346
#
# _framework density 20.08794
#
# number of rings (size 3 to 8) (size 9 to 14) (size 15 to 20)
#    0.000    1.750    1.250    5.250    3.500    1.500 
#    0.000    1.250    0.000    3.000    0.000    0.000 
#    0.000    0.000    0.000    0.000    0.000    0.000 
#
# Total GULP energy -396445.703242 kJ/mol
# GULP energy per Si atom -12388.928226 kJ/mol
# Density = 2.004222 g / cm^3
# Si number density = 20.087940 Si / 1000 Ang^3
#
#
#
# Elastic Constant Matrix: (Units=GPa)
#
#
# Indices 1 2 3 4 5 6 
#
# 1 120.7026 11.9700 32.1383 0.0000 -5.3471 0.0000
# 2 11.9700 60.0150 16.4519 0.0000 -2.0220 0.0000
# 3 32.1383 16.4519 126.6901 0.0000 -0.5812 0.0000
# 4 0.0000 0.0000 0.0000 19.0071 0.0000 1.8585
# 5 -5.3471 -2.0220 -0.5812 0.0000 35.3797 0.0000
# 6 0.0000 0.0000 0.0000 1.8585 0.0000 30.7654
#
#
#
# Elastic Compliance Matrix: (Units=1/GPa)
#
#
# Indices 1 2 3 4 5 6 
#
# 1 0.009025 -0.001173 -0.002131 0.000000 0.001262 0.000000
# 2 -0.001173 0.017462 -0.001966 0.000000 0.000788 0.000000
# 3 -0.002131 -0.001966 0.008688 0.000000 -0.000292 0.000000
# 4 0.000000 0.000000 0.000000 0.052925 0.000000 -0.003197
# 5 0.001262 0.000788 -0.000292 0.000000 0.028496 0.000000
# 6 0.000000 0.000000 0.000000 -0.003197 0.000000 0.032697
#
#
# Mechanical properties :
#
#
# Convention : Reuss Voigt Hill
#
# Bulk Modulus (GPa) = 40.59595 47.61424 44.10509
# Shear Modulus (GPa) = 29.75401 33.48694 31.62047
#
# Velocity S-wave (km/s) = 3.85280 4.08734 3.97180
# Velocity P-wave (km/s) = 6.32811 6.78450 6.56028
#
# Compressibility (1/GPa) = 0.02463300
#
# Stress axis : x y z
#
# Youngs Moduli (GPa) = 110.80925 57.26689 115.10238
#
# Poissons Ratio (x) = 0.06719 0.24530
# Poissons Ratio (y) = 0.13000 0.22634
# Poissons Ratio (z) = 0.23615 0.11261
#
# Static dielectric constant tensor:
#      x y z
#    x -3.101580 0.000000 -3.165420 
#    y 0.000000 3.410940 0.000000 
#    z -3.165420 0.000000 2.628210 
# 
# 
# High freq. dielectric constant tensor:
#      x y z
#    x 1.813330 0.000000 -0.001740 
#    y 0.000000 1.724850 0.000000 
#    z -0.001740 0.000000 1.802390 
# 
# From -- ./inp_files/18600.got.cif
#   From: 2010.03.12/outbox.cif.g09.slc.cpg/sg14_10_cif.got.tgz:18600.got - 2010.03.31 13:35:05.
