data_PCOD8128568
_publ_section_title
;
Structure prediction by ZEFSAII (Michael W. Deem and Ramdas Pophale) SiO2 
 PCOD8128568
Probable space group: P 21/C
;
_chemical_formula_sum "Si O2"
_cell_formula_units_Z 32
_cell_length_a 11.202205
_cell_length_b 14.491184
_cell_length_c 9.965438
_cell_angle_alpha 90.000000
_cell_angle_beta 67.376222
_cell_angle_gamma 90.000000
_cell_volume 1493.238960
_symmetry_space_group_name_H-M "P 21/C"
_symmetry_group_IT_number 14
_symmetry_cell_setting 'monoclinic'
loop_
_space_group_symop_operation_xyz
x,y,z
-x,1/2+y,1/2-z
-x,-y,-z
x,1/2-y,1/2+z
loop_
_atom_site_type_symbol
_atom_site_label
_atom_site_fract_x
_atom_site_fract_y
_atom_site_fract_z
Si Si1 0.771231 0.838562 0.531616
Si Si2 0.009362 0.210504 0.013125
Si Si3 0.354615 0.357195 0.434240
Si Si4 0.801071 0.584098 0.730073
Si Si5 0.213985 0.038586 0.229685
Si Si6 0.350038 0.655463 0.679006
Si Si7 0.239432 0.784744 0.499025
Si Si8 0.938151 0.084090 0.274842
O O1 0.676334 0.750579 0.577238
O O2 0.756495 0.887120 0.396098
O O3 0.731072 0.914531 0.658983
O O4 0.919830 0.808861 0.497006
O O5 0.867734 0.216708 0.013580
O O6 0.093193 0.153051 0.873284
O O7 0.999230 0.167705 0.164939
O O8 0.324942 0.414578 0.310947
O O9 0.261621 0.397663 0.587750
O O10 0.502122 0.371366 0.412081
O O11 0.865196 0.483631 0.704026
O O12 0.057227 0.033727 0.298495
O O13 0.263403 0.934496 0.192946
O O14 0.311053 0.735666 0.591661
O O15 0.338801 0.691906 0.836498
O O16 0.168206 0.878750 0.574744
#
# Coordination Sequence:
#
# PCOD8128568 Si02
#       8
#     4   4   4   4   4   4   4   4
#     4  11  23  42  72 103 135 180 230 291 342 413
#     4  11  21  40  66 102 137 175 221 280 355 416
#     4  11  26  48  69  96 137 190 237 274 343 421
#     4  11  24  39  70 101 136 176 229 289 341 410
#     4  12  25  46  73 105 139 182 232 292 351 413
#     4  12  30  47  69  99 143 189 237 284 343 418
#     4  12  26  45  69 102 139 183 224 291 356 407
#     4  12  23  41  71 107 137 171 229 294 358 412
#
# _framework density 21.429926999999999
#
# number of rings (size 3 to 8) (size 9 to 14) (size 15 to 20)
#    0.000    0.500    5.000    4.500    7.000    1.000 
#    2.250    1.250    0.000    0.000    0.000    0.000 
#    0.000    0.000    0.000    0.000    0.000    0.000 
#
# Total GULP energy -396916.487757 kJ/mol
# GULP energy per Si atom -12403.640242 kJ/mol
# Density = 2.138115 g / cm^3
# Si number density = 21.429927 Si / 1000 Ang^3
#
#
#
# Elastic Constant Matrix: (Units=GPa)
#
#
# Indices 1 2 3 4 5 6 
#
# 1 84.6848 12.0785 14.5254 0.0000 -8.7951 0.0000
# 2 12.0785 62.4063 10.1647 0.0000 -3.2259 0.0000
# 3 14.5254 10.1647 102.9545 0.0000 14.8426 0.0000
# 4 0.0000 0.0000 0.0000 27.6812 0.0000 6.0638
# 5 -8.7951 -3.2259 14.8426 0.0000 21.1685 0.0000
# 6 0.0000 0.0000 0.0000 6.0638 0.0000 26.9327
#
#
#
# Elastic Compliance Matrix: (Units=1/GPa)
#
#
# Indices 1 2 3 4 5 6 
#
# 1 0.013271 -0.001753 -0.002732 0.000000 0.007162 0.000000
# 2 -0.001753 0.016830 -0.001868 0.000000 0.003146 0.000000
# 3 -0.002732 -0.001868 0.011667 0.000000 -0.009600 0.000000
# 4 0.000000 0.000000 0.000000 0.038000 0.000000 -0.008556
# 5 0.007162 0.003146 -0.009600 0.000000 0.057426 0.000000
# 6 0.000000 0.000000 0.000000 -0.008556 0.000000 0.039056
#
#
# Mechanical properties :
#
#
# Convention : Reuss Voigt Hill
#
# Bulk Modulus (GPa) = 34.40902 35.95365 35.18134
# Shear Modulus (GPa) = 25.17077 29.37495 27.27286
#
# Velocity S-wave (km/s) = 3.43091 3.70637 3.57130
# Velocity P-wave (km/s) = 5.63793 5.92706 5.78430
#
# Compressibility (1/GPa) = 0.02906214
#
# Stress axis : x y z
#
# Youngs Moduli (GPa) = 75.35251 59.41690 85.71299
#
# Poissons Ratio (x) = 0.10418 0.23415
# Poissons Ratio (y) = 0.13212 0.16010
# Poissons Ratio (z) = 0.20584 0.11098
#
# Static dielectric constant tensor:
#      x y z
#    x 3.886040 0.000000 0.134650 
#    y 0.000000 3.851480 0.000000 
#    z 0.134650 0.000000 3.952070 
# 
# 
# High freq. dielectric constant tensor:
#      x y z
#    x 1.832660 0.000000 0.010610 
#    y 0.000000 1.841520 0.000000 
#    z 0.010610 0.000000 1.853000 
# 
# From -- ./inp_files/13294.got.cif
#   From: 2010.03.12/outbox.cif.g09.slc.cpg/sg14_7_cif.got.tgz:13294.got - 2010.03.31 13:35:05.
