data_PCOD8128311
_publ_section_title
;
Structure prediction by ZEFSAII (Michael W. Deem and Ramdas Pophale) SiO2 
 PCOD8128311
Probable space group: P 21/C
;
_chemical_formula_sum "Si O2"
_cell_formula_units_Z 28
_cell_length_a 5.177522
_cell_length_b 17.853545
_cell_length_c 14.112549
_cell_angle_alpha 90.000000
_cell_angle_beta 117.205792
_cell_angle_gamma 90.000000
_cell_volume 1160.204199
_symmetry_space_group_name_H-M "P 21/C"
_symmetry_group_IT_number 14
_symmetry_cell_setting 'monoclinic'
loop_
_space_group_symop_operation_xyz
x,y,z
-x,1/2+y,1/2-z
-x,-y,-z
x,1/2-y,1/2+z
loop_
_atom_site_type_symbol
_atom_site_label
_atom_site_fract_x
_atom_site_fract_y
_atom_site_fract_z
Si Si1 0.565648 0.811423 0.020703
Si Si2 0.857482 0.277569 0.927997
Si Si3 0.765548 0.556747 0.670949
Si Si4 0.314267 0.036652 0.206069
Si Si5 0.488181 0.307374 0.694479
Si Si6 0.660351 0.512795 0.930736
Si Si7 0.821187 0.848396 0.360850
O O1 0.369011 0.785034 0.075254
O O2 0.681734 0.893726 0.065999
O O3 0.835844 0.757055 0.048233
O O4 0.384278 0.810022 0.891460
O O5 0.745501 0.317374 0.813662
O O6 0.899503 0.335622 0.023031
O O7 0.474943 0.514076 0.654599
O O8 0.905082 0.609201 0.777289
O O9 0.002046 0.496510 0.678735
O O10 0.267271 0.122101 0.163709
O O11 0.522913 0.043943 0.332346
O O12 0.324133 0.230270 0.689217
O O13 0.602481 0.597337 0.882328
O O14 0.500000 0.500000 0.000000
O O15 0.000000 0.500000 0.000000
#
# Coordination Sequence:
#
# PCOD8128311 Si02
#       7
#     4   4   4   4   4   4   4
#     4  11  26  43  72 101 137 192 228 294 352 423
#     4  11  25  44  71 107 143 177 239 301 352 418
#     4  11  24  47  68 101 141 191 234 279 359 431
#     4  11  26  42  70 100 142 186 233 292 347 424
#     4  11  26  46  71 109 140 184 241 294 355 419
#     4  11  23  43  68 102 139 185 235 289 357 419
#     4  10  24  45  75 103 143 188 234 298 361 424
#
# _framework density 24.133680999999999
#
# number of rings (size 3 to 8) (size 9 to 14) (size 15 to 20)
#    0.000    1.143    1.429    3.429    4.000   11.429 
#    0.000    0.000    0.000    0.000    0.000    0.000 
#    0.000    0.000    0.000    0.000    0.000    0.000 
#
# Total GULP energy -347173.991416 kJ/mol
# GULP energy per Si atom -12399.071122 kJ/mol
# Density = 2.407875 g / cm^3
# Si number density = 24.133681 Si / 1000 Ang^3
#
#
#
# Elastic Constant Matrix: (Units=GPa)
#
#
# Indices 1 2 3 4 5 6 
#
# 1 98.0913 24.0644 19.8718 0.0000 -7.1982 0.0000
# 2 24.0644 130.3089 33.2331 0.0000 -14.1702 0.0000
# 3 19.8718 33.2331 117.4389 0.0000 -14.5516 0.0000
# 4 0.0000 0.0000 0.0000 32.9929 0.0000 -2.9192
# 5 -7.1982 -14.1702 -14.5516 0.0000 24.2266 0.0000
# 6 0.0000 0.0000 0.0000 -2.9192 0.0000 31.4840
#
#
#
# Elastic Compliance Matrix: (Units=1/GPa)
#
#
# Indices 1 2 3 4 5 6 
#
# 1 0.010936 -0.001533 -0.001216 0.000000 0.001622 0.000000
# 2 -0.001533 0.008806 -0.001784 0.000000 0.003624 0.000000
# 3 -0.001216 -0.001784 0.009779 0.000000 0.004470 0.000000
# 4 0.000000 0.000000 0.000000 0.030560 0.000000 0.002834
# 5 0.001622 0.003624 0.004470 0.000000 0.046563 0.000000
# 6 0.000000 0.000000 0.000000 0.002834 0.000000 0.032025
#
#
# Mechanical properties :
#
#
# Convention : Reuss Voigt Hill
#
# Bulk Modulus (GPa) = 48.88323 55.57532 52.22927
# Shear Modulus (GPa) = 32.35131 35.65203 34.00167
#
# Velocity S-wave (km/s) = 3.66526 3.84770 3.75759
# Velocity P-wave (km/s) = 6.18153 6.54353 6.36511
#
# Compressibility (1/GPa) = 0.02045692
#
# Stress axis : x y z
#
# Youngs Moduli (GPa) = 91.44094 113.55724 102.25715
#
# Poissons Ratio (x) = 0.17410 0.12430
# Poissons Ratio (y) = 0.14019 0.18238
# Poissons Ratio (z) = 0.11116 0.20253
#
# Static dielectric constant tensor:
#      x y z
#    x 4.085650 0.000000 -0.244740 
#    y 0.000000 4.521470 0.000000 
#    z -0.244740 0.000000 4.858280 
# 
# 
# High freq. dielectric constant tensor:
#      x y z
#    x 1.936630 0.000000 -0.010910 
#    y 0.000000 1.969490 0.000000 
#    z -0.010910 0.000000 1.975120 
# 
# From -- ./inp_files/37783.got.cif
#   From: 2010.03.12/outbox.cif.g09.slc.cpg/sg14_19_cif.got.tgz:37783.got - 2010.03.31 13:35:05.
