data_PCOD8128170
_publ_section_title
;
Structure prediction by ZEFSAII (Michael W. Deem and Ramdas Pophale) SiO2 
 PCOD8128170
Probable space group: P 21/C
;
_chemical_formula_sum "Si O2"
_cell_formula_units_Z 28
_cell_length_a 24.442812
_cell_length_b 7.799042
_cell_length_c 11.622889
_cell_angle_alpha 90.000000
_cell_angle_beta 33.041601
_cell_angle_gamma 90.000000
_cell_volume 1208.093261
_symmetry_space_group_name_H-M "P 21/C"
_symmetry_group_IT_number 14
_symmetry_cell_setting 'monoclinic'
loop_
_space_group_symop_operation_xyz
x,y,z
-x,1/2+y,1/2-z
-x,-y,-z
x,1/2-y,1/2+z
loop_
_atom_site_type_symbol
_atom_site_label
_atom_site_fract_x
_atom_site_fract_y
_atom_site_fract_z
Si Si1 0.610792 0.817792 0.768834
Si Si2 0.109601 0.927427 0.002466
Si Si3 0.574186 0.046830 0.031340
Si Si4 0.823170 0.574973 0.844769
Si Si5 0.253090 0.780405 0.393331
Si Si6 0.024384 0.366347 0.853257
Si Si7 0.401836 0.962273 0.747503
O O1 0.515467 0.831070 0.852807
O O2 0.701810 0.936129 0.567067
O O3 0.662694 0.631308 0.668732
O O4 0.570034 0.865522 0.968875
O O5 0.066700 0.763417 0.009410
O O6 0.032288 0.023236 0.222724
O O7 0.202905 0.878223 0.917185
O O8 0.142453 0.062301 0.847240
O O9 0.560846 0.027644 0.188680
O O10 0.684758 0.120337 0.813243
O O11 0.877506 0.744352 0.799354
O O12 0.838332 0.396429 0.890271
O O13 0.334929 0.705156 0.340545
O O14 0.000000 0.500000 0.000000
O O15 0.500000 0.000000 0.500000
#
# Coordination Sequence:
#
# PCOD8128170 Si02
#       7
#     4   4   4   4   4   4   4
#     4  10  24  42  65  97 135 186 234 289 359 421
#     4  12  25  44  75  99 142 178 230 298 362 429
#     4  10  24  43  63  94 144 181 235 294 345 430
#     4  11  25  44  70 100 140 178 239 292 360 431
#     4  11  24  44  66 105 137 188 237 291 359 427
#     4  12  26  48  74 106 139 180 236 292 377 445
#     4  12  25  38  67  95 137 189 243 288 356 417
#
# _framework density 23.177016999999999
#
# number of rings (size 3 to 8) (size 9 to 14) (size 15 to 20)
#    0.000    0.857    1.429    4.714    4.000    3.429 
#    0.000    0.000    0.000    0.000    0.000    0.000 
#    0.000    0.000    0.000    0.000    0.000    0.000 
#
# Total GULP energy -346893.807172 kJ/mol
# GULP energy per Si atom -12389.064542 kJ/mol
# Density = 2.312427 g / cm^3
# Si number density = 23.177017 Si / 1000 Ang^3
#
#
#
# Elastic Constant Matrix: (Units=GPa)
#
#
# Indices 1 2 3 4 5 6 
#
# 1 109.1311 42.2764 54.3897 0.0000 18.8041 0.0000
# 2 42.2764 114.2397 32.1384 0.0000 14.5244 0.0000
# 3 54.3897 32.1384 116.5803 0.0000 26.0364 0.0000
# 4 0.0000 0.0000 0.0000 40.4106 0.0000 -2.5143
# 5 18.8041 14.5244 26.0364 0.0000 46.3696 0.0000
# 6 0.0000 0.0000 0.0000 -2.5143 0.0000 27.0064
#
#
#
# Elastic Compliance Matrix: (Units=1/GPa)
#
#
# Indices 1 2 3 4 5 6 
#
# 1 0.013136 -0.003292 -0.004872 0.000000 -0.001560 0.000000
# 2 -0.003292 0.010436 -0.001040 0.000000 -0.001350 0.000000
# 3 -0.004872 -0.001040 0.012147 0.000000 -0.004519 0.000000
# 4 0.000000 0.000000 0.000000 0.024890 0.000000 0.002317
# 5 -0.001560 -0.001350 -0.004519 0.000000 0.025159 0.000000
# 6 0.000000 0.000000 0.000000 0.002317 0.000000 0.037244
#
#
# Mechanical properties :
#
#
# Convention : Reuss Voigt Hill
#
# Bulk Modulus (GPa) = 57.76893 66.39558 62.08225
# Shear Modulus (GPa) = 33.96982 36.83377 35.40179
#
# Velocity S-wave (km/s) = 3.83256 3.99085 3.91250
# Velocity P-wave (km/s) = 6.67562 7.06719 6.87419
#
# Compressibility (1/GPa) = 0.01731034
#
# Stress axis : x y z
#
# Youngs Moduli (GPa) = 76.12799 95.82299 82.32623
#
# Poissons Ratio (x) = 0.31545 0.40113
# Poissons Ratio (y) = 0.25062 0.08558
# Poissons Ratio (z) = 0.37093 0.09961
#
# Static dielectric constant tensor:
#      x y z
#    x 3.821600 0.000000 0.169040 
#    y 0.000000 3.877510 0.000000 
#    z 0.169040 0.000000 4.023230 
# 
# 
# High freq. dielectric constant tensor:
#      x y z
#    x 1.909090 0.000000 0.002930 
#    y 0.000000 1.932850 0.000000 
#    z 0.002930 0.000000 1.921090 
# 
# From -- ./inp_files/36140.got.cif
#   From: 2010.03.12/outbox.cif.g09.slc.cpg/sg14_19_cif.got.tgz:36140.got - 2010.03.31 13:35:05.
