data_PCOD8128323
_publ_section_title
;
Structure prediction by ZEFSAII (Michael W. Deem and Ramdas Pophale) SiO2 
 PCOD8128323
Probable space group: P 21/C
;
_chemical_formula_sum "Si O2"
_cell_formula_units_Z 24
_cell_length_a 18.314703
_cell_length_b 6.360989
_cell_length_c 9.911791
_cell_angle_alpha 90.000000
_cell_angle_beta 67.304257
_cell_angle_gamma 90.000000
_cell_volume 1065.306222
_symmetry_space_group_name_H-M "P 21/C"
_symmetry_group_IT_number 14
_symmetry_cell_setting 'monoclinic'
loop_
_space_group_symop_operation_xyz
x,y,z
-x,1/2+y,1/2-z
-x,-y,-z
x,1/2-y,1/2+z
loop_
_atom_site_type_symbol
_atom_site_label
_atom_site_fract_x
_atom_site_fract_y
_atom_site_fract_z
Si Si1 0.332592 0.631071 0.762619
Si Si2 0.840045 0.994875 0.656449
Si Si3 0.553382 0.692537 0.416101
Si Si4 0.956543 0.150361 0.136511
Si Si5 0.111426 0.193411 0.649351
Si Si6 0.597406 0.410262 0.016417
O O1 0.241237 0.622299 0.788301
O O2 0.374018 0.402154 0.719679
O O3 0.375342 0.810544 0.645258
O O4 0.341736 0.677380 0.915341
O O5 0.843053 0.867933 0.794964
O O6 0.845217 0.835998 0.525372
O O7 0.912897 0.157849 0.592099
O O8 0.500000 0.500000 0.500000
O O9 0.492391 0.841878 0.377484
O O10 0.594076 0.835911 0.504159
O O11 0.020618 0.239250 0.194961
O O12 0.889681 0.024693 0.267261
O O13 0.000000 0.000000 0.000000
#
# Coordination Sequence:
#
# PCOD8128323 Si02
#       6
#     4   4   4   4   4   4
#     4  11  27  43  70 106 141 185 231 293 361 406
#     4  12  29  44  71 106 145 184 237 299 361 419
#     4   9  22  43  72 102 134 186 237 280 347 418
#     4  12  24  45  74 103 137 184 239 287 355 435
#     4  12  25  47  71 103 136 187 237 294 353 429
#     4  10  24  46  70 100 144 184 236 289 344 428
#
# _framework density 22.528735999999999
#
# number of rings (size 3 to 8) (size 9 to 14) (size 15 to 20)
#    0.000    1.000    3.333    1.500   11.667    1.333 
#    0.000    0.000    0.000    0.000    0.000    0.000 
#    0.000    0.000    0.000    0.000    0.000    0.000 
#
# Total GULP energy -297551.399318 kJ/mol
# GULP energy per Si atom -12397.974972 kJ/mol
# Density = 2.247746 g / cm^3
# Si number density = 22.528736 Si / 1000 Ang^3
#
#
#
# Elastic Constant Matrix: (Units=GPa)
#
#
# Indices 1 2 3 4 5 6 
#
# 1 113.2666 28.8458 37.1792 0.0000 11.6838 0.0000
# 2 28.8458 106.8373 42.4305 0.0000 10.6558 0.0000
# 3 37.1792 42.4305 91.9143 0.0000 18.3908 0.0000
# 4 0.0000 0.0000 0.0000 33.5384 0.0000 2.5695
# 5 11.6838 10.6558 18.3908 0.0000 35.9667 0.0000
# 6 0.0000 0.0000 0.0000 2.5695 0.0000 31.9366
#
#
#
# Elastic Compliance Matrix: (Units=1/GPa)
#
#
# Indices 1 2 3 4 5 6 
#
# 1 0.010397 -0.001361 -0.003322 0.000000 -0.001276 0.000000
# 2 -0.001361 0.011658 -0.004711 0.000000 -0.000603 0.000000
# 3 -0.003322 -0.004711 0.015488 0.000000 -0.005444 0.000000
# 4 0.000000 0.000000 0.000000 0.030001 0.000000 -0.002414
# 5 -0.001276 -0.000603 -0.005444 0.000000 0.031180 0.000000
# 6 0.000000 0.000000 0.000000 -0.002414 0.000000 0.031506
#
#
# Mechanical properties :
#
#
# Convention : Reuss Voigt Hill
#
# Bulk Modulus (GPa) = 53.31679 58.76993 56.04336
# Shear Modulus (GPa) = 32.20172 33.85920 33.03046
#
# Velocity S-wave (km/s) = 3.78479 3.88097 3.83319
# Velocity P-wave (km/s) = 6.54347 6.79896 6.67244
#
# Compressibility (1/GPa) = 0.01875582
#
# Stress axis : x y z
#
# Youngs Moduli (GPa) = 96.17818 85.77464 64.56760
#
# Poissons Ratio (x) = 0.11670 0.21452
# Poissons Ratio (y) = 0.13085 0.30417
# Poissons Ratio (z) = 0.31954 0.40407
#
# Static dielectric constant tensor:
#      x y z
#    x 4.091520 0.000000 0.049140 
#    y 0.000000 4.379390 0.000000 
#    z 0.049140 0.000000 3.885500 
# 
# 
# High freq. dielectric constant tensor:
#      x y z
#    x 1.885480 0.000000 0.008000 
#    y 0.000000 1.896480 0.000000 
#    z 0.008000 0.000000 1.874900 
# 
# From -- ./inp_files/33356.got.cif
#   From: 2010.03.12/outbox.cif.g09.slc.cpg/sg14_17_cif.got.tgz:33356.got - 2010.03.31 13:35:05.
