data_PCOD8128423
_publ_section_title
;
Structure prediction by ZEFSAII (Michael W. Deem and Ramdas Pophale) SiO2 
 PCOD8128423
Probable space group: P 21/C
;
_chemical_formula_sum "Si O2"
_cell_formula_units_Z 20
_cell_length_a 5.214967
_cell_length_b 15.475571
_cell_length_c 9.089081
_cell_angle_alpha 90.000000
_cell_angle_beta 80.646512
_cell_angle_gamma 90.000000
_cell_volume 723.777862
_symmetry_space_group_name_H-M "P 21/C"
_symmetry_group_IT_number 14
_symmetry_cell_setting 'monoclinic'
loop_
_space_group_symop_operation_xyz
x,y,z
-x,1/2+y,1/2-z
-x,-y,-z
x,1/2-y,1/2+z
loop_
_atom_site_type_symbol
_atom_site_label
_atom_site_fract_x
_atom_site_fract_y
_atom_site_fract_z
Si Si1 0.590144 0.285832 0.848463
Si Si2 0.526092 0.916202 0.398154
Si Si3 0.266798 0.528120 0.627869
Si Si4 0.944374 0.128403 0.109428
Si Si5 0.106462 0.289222 0.236929
O O1 0.665077 0.358296 0.717301
O O2 0.822189 0.214952 0.840983
O O3 0.583233 0.331751 0.008229
O O4 0.325863 0.237423 0.834510
O O5 0.363786 0.926809 0.266065
O O6 0.824561 0.886349 0.330779
O O7 0.500000 0.000000 0.500000
O O8 0.500000 0.500000 0.500000
O O9 0.082348 0.596086 0.556053
O O10 0.096729 0.444952 0.687889
O O11 0.107410 0.218063 0.104027
#
# Coordination Sequence:
#
# PCOD8128423 Si02
#       5
#     4   4   4   4   4
#     4  10  25  53  80 118 161 213 279 346 420 509
#     4  12  27  51  88 127 172 221 297 357 433 521
#     4  11  23  47  78 124 166 223 273 352 430 506
#     4   9  22  47  80 111 174 211 276 336 443 501
#     4  10  25  52  79 117 165 218 274 356 424 505
#
# _framework density 27.632785999999999
#
# number of rings (size 3 to 8) (size 9 to 14) (size 15 to 20)
#    1.200    0.400    0.000    3.600    0.000    5.600 
#   25.200    0.000    0.000    0.000    0.000    0.000 
#    0.000    0.000    0.000    0.000    0.000    0.000 
#
# Total GULP energy -247867.325619 kJ/mol
# GULP energy per Si atom -12393.366281 kJ/mol
# Density = 2.756989 g / cm^3
# Si number density = 27.632786 Si / 1000 Ang^3
#
#
#
# Elastic Constant Matrix: (Units=GPa)
#
#
# Indices 1 2 3 4 5 6 
#
# 1 143.6613 37.6475 36.3030 0.0000 23.9947 0.0000
# 2 37.6475 135.1960 37.7903 0.0000 26.6970 0.0000
# 3 36.3030 37.7903 127.4009 0.0000 16.9964 0.0000
# 4 0.0000 0.0000 0.0000 51.8561 0.0000 -3.7066
# 5 23.9947 26.6970 16.9964 0.0000 34.9816 0.0000
# 6 0.0000 0.0000 0.0000 -3.7066 0.0000 60.5461
#
#
#
# Elastic Compliance Matrix: (Units=1/GPa)
#
#
# Indices 1 2 3 4 5 6 
#
# 1 0.008315 -0.001077 -0.001496 0.000000 -0.004155 0.000000
# 2 -0.001077 0.009259 -0.001706 0.000000 -0.005499 0.000000
# 3 -0.001496 -0.001706 0.009058 0.000000 -0.002073 0.000000
# 4 0.000000 0.000000 0.000000 0.019369 0.000000 0.001186
# 5 -0.004155 -0.005499 -0.002073 0.000000 0.036640 0.000000
# 6 0.000000 0.000000 0.000000 0.001186 0.000000 0.016589
#
#
# Mechanical properties :
#
#
# Convention : Reuss Voigt Hill
#
# Bulk Modulus (GPa) = 55.32486 69.97108 62.64797
# Shear Modulus (GPa) = 43.93194 49.11127 46.52161
#
# Velocity S-wave (km/s) = 3.99162 4.22036 4.10758
# Velocity P-wave (km/s) = 6.42720 7.00894 6.72437
#
# Compressibility (1/GPa) = 0.01807506
#
# Stress axis : x y z
#
# Youngs Moduli (GPa) = 120.26572 107.99974 110.39906
#
# Poissons Ratio (x) = 0.11631 0.16511
# Poissons Ratio (y) = 0.12952 0.18835
# Poissons Ratio (z) = 0.17987 0.18426
#
# Static dielectric constant tensor:
#      x y z
#    x 5.051000 0.000000 -0.085220 
#    y 0.000000 5.452080 0.000000 
#    z -0.085220 0.000000 4.876730 
# 
# 
# High freq. dielectric constant tensor:
#      x y z
#    x 2.111430 0.000000 -0.002170 
#    y 0.000000 2.138550 0.000000 
#    z -0.002170 0.000000 2.120700 
# 
# From -- ./inp_files/5464.got.cif
#   From: 2010.03.12/outbox.cif.g09.slc.cpg/sg14_3_cif.got.tgz:5464.got - 2010.03.31 13:35:05.
