data_PCOD8128979
_publ_section_title
;
Structure prediction by ZEFSAII (Michael W. Deem and Ramdas Pophale) SiO2 
 PCOD8128979
Probable space group: P 21/C
;
_chemical_formula_sum "Si O2"
_cell_formula_units_Z 32
_cell_length_a 17.356700
_cell_length_b 11.618499
_cell_length_c 14.227157
_cell_angle_alpha 90.000000
_cell_angle_beta 148.475300
_cell_angle_gamma 90.000000
_cell_volume 1500.119235
_symmetry_space_group_name_H-M "P 21/C"
_symmetry_group_IT_number 14
_symmetry_cell_setting 'monoclinic'
loop_
_space_group_symop_operation_xyz
x,y,z
-x,1/2+y,1/2-z
-x,-y,-z
x,1/2-y,1/2+z
loop_
_atom_site_type_symbol
_atom_site_label
_atom_site_fract_x
_atom_site_fract_y
_atom_site_fract_z
Si Si1 0.393178 0.182964 0.396576
Si Si2 0.005988 0.996331 0.616531
Si Si3 0.941254 0.754431 0.248501
Si Si4 0.639263 0.123141 0.513988
Si Si5 0.739284 0.844530 0.389210
Si Si6 0.859186 0.950116 0.805625
Si Si7 0.486796 0.097243 0.689814
Si Si8 0.780305 0.328824 0.558726
O O1 0.550183 0.149099 0.516867
O O2 0.322100 0.297937 0.275523
O O3 0.264882 0.087341 0.247474
O O4 0.421593 0.181720 0.539501
O O5 0.129516 0.904248 0.773317
O O6 0.844068 0.956841 0.484860
O O7 0.060800 0.118563 0.711320
O O8 0.000000 0.000000 0.500000
O O9 0.892113 0.657106 0.271528
O O10 0.110568 0.732635 0.399353
O O11 0.837016 0.749856 0.047773
O O12 0.671364 0.241285 0.496970
O O13 0.796381 0.060439 0.686384
O O14 0.536614 0.038355 0.348487
O O15 0.593890 0.871650 0.297121
O O16 0.000000 0.000000 0.000000
O O17 0.663382 0.099176 0.877219
#
# Coordination Sequence:
#
# PCOD8128979 Si02
#       8
#     4   4   4   4   4   4   4   4
#     4  11  24  42  72 100 138 179 230 293 347 419
#     4  11  27  46  70 104 144 186 243 287 361 422
#     4  11  25  44  70 101 142 188 235 296 353 424
#     4  11  24  45  67 103 137 178 238 290 341 430
#     4  11  23  46  70  97 145 184 231 289 356 419
#     4  11  25  40  72 101 135 177 238 290 349 406
#     4  11  23  46  67 104 138 181 237 285 354 420
#     4  11  27  43  73 100 139 187 229 293 354 418
#
# _framework density 21.331638999999999
#
# number of rings (size 3 to 8) (size 9 to 14) (size 15 to 20)
#    0.000    1.000    3.750    3.000   12.250    0.000 
#    0.000    0.625    0.000    0.000    0.000    0.000 
#    0.000    0.000    0.000    0.000    0.000    0.000 
#
# Total GULP energy -396503.637558 kJ/mol
# GULP energy per Si atom -12390.738674 kJ/mol
# Density = 2.128309 g / cm^3
# Si number density = 21.331639 Si / 1000 Ang^3
#
#
#
# Elastic Constant Matrix: (Units=GPa)
#
#
# Indices 1 2 3 4 5 6 
#
# 1 98.6037 27.8549 38.9833 0.0000 8.1493 0.0000
# 2 27.8549 88.7293 44.7864 0.0000 -6.9824 0.0000
# 3 38.9833 44.7864 91.7992 0.0000 3.1696 0.0000
# 4 0.0000 0.0000 0.0000 31.2125 0.0000 0.7050
# 5 8.1493 -6.9824 3.1696 0.0000 34.6805 0.0000
# 6 0.0000 0.0000 0.0000 0.7050 0.0000 39.1139
#
#
#
# Elastic Compliance Matrix: (Units=1/GPa)
#
#
# Indices 1 2 3 4 5 6 
#
# 1 0.012658 -0.002055 -0.004269 0.000000 -0.002998 0.000000
# 2 -0.002055 0.015772 -0.006970 0.000000 0.004295 0.000000
# 3 -0.004269 -0.006970 0.016172 0.000000 -0.001878 0.000000
# 4 0.000000 0.000000 0.000000 0.032052 0.000000 -0.000578
# 5 -0.002998 0.004295 -0.001878 0.000000 0.030576 0.000000
# 6 0.000000 0.000000 0.000000 -0.000578 0.000000 0.025577
#
#
# Mechanical properties :
#
#
# Convention : Reuss Voigt Hill
#
# Bulk Modulus (GPa) = 55.51671 55.82015 55.66843
# Shear Modulus (GPa) = 30.23021 32.16854 31.19938
#
# Velocity S-wave (km/s) = 3.76859 3.88754 3.82853
# Velocity P-wave (km/s) = 6.70958 6.80993 6.75994
#
# Compressibility (1/GPa) = 0.01801260
#
# Stress axis : x y z
#
# Youngs Moduli (GPa) = 79.00356 63.40537 61.83606
#
# Poissons Ratio (x) = 0.13027 0.26400
# Poissons Ratio (y) = 0.16232 0.43102
# Poissons Ratio (z) = 0.33729 0.44195
#
# Static dielectric constant tensor:
#      x y z
#    x 4.358120 0.000000 -0.043190 
#    y 0.000000 4.023310 0.000000 
#    z -0.043190 0.000000 4.171460 
# 
# 
# High freq. dielectric constant tensor:
#      x y z
#    x 1.845200 0.000000 0.018400 
#    y 0.000000 1.829050 0.000000 
#    z 0.018400 0.000000 1.847930 
# 
# From -- ./inp_files/49015.got.cif
#   From: 2010.03.12/outbox.cif.g09.slc.cpg/sg14_25_cif.got.tgz:49015.got - 2010.03.31 13:35:05.
