data_PCOD8128462
_publ_section_title
;
Structure prediction by ZEFSAII (Michael W. Deem and Ramdas Pophale) SiO2 
 PCOD8128462
Probable space group: P 21/C
;
_chemical_formula_sum "Si O2"
_cell_formula_units_Z 24
_cell_length_a 6.513253
_cell_length_b 14.934943
_cell_length_c 14.965160
_cell_angle_alpha 90.000000
_cell_angle_beta 124.943907
_cell_angle_gamma 90.000000
_cell_volume 1193.286711
_symmetry_space_group_name_H-M "P 21/C"
_symmetry_group_IT_number 14
_symmetry_cell_setting 'monoclinic'
loop_
_space_group_symop_operation_xyz
x,y,z
-x,1/2+y,1/2-z
-x,-y,-z
x,1/2-y,1/2+z
loop_
_atom_site_type_symbol
_atom_site_label
_atom_site_fract_x
_atom_site_fract_y
_atom_site_fract_z
Si Si1 0.302167 0.915512 0.175879
Si Si2 0.213696 0.023025 0.429755
Si Si3 0.830895 0.881173 0.396649
Si Si4 0.514789 0.558336 0.415376
Si Si5 0.961497 0.563153 0.294436
Si Si6 0.925398 0.820889 0.960243
O O1 0.546920 0.878311 0.287690
O O2 0.380454 0.999020 0.137040
O O3 0.094264 0.958883 0.191103
O O4 0.177576 0.840870 0.080476
O O5 0.154109 0.080891 0.500721
O O6 0.193571 0.081931 0.334302
O O7 0.500000 0.000000 0.500000
O O8 0.022349 0.937280 0.381141
O O9 0.927900 0.781173 0.432300
O O10 0.500000 0.500000 0.500000
O O11 0.235027 0.586084 0.325445
O O12 0.690366 0.647128 0.463424
O O13 0.904673 0.628340 0.361302
#
# Coordination Sequence:
#
# PCOD8128462 Si02
#       6
#     4   4   4   4   4   4
#     4  11  21  41  65  92 131 166 213 268 321 379
#     4  11  24  45  67  86 131 182 214 246 329 406
#     4  11  26  43  63  98 133 171 212 271 321 388
#     4  11  19  39  67  93 123 169 210 257 330 383
#     4  11  21  41  68  94 122 173 216 260 322 387
#     4  11  25  39  66 103 130 158 221 282 315 375
#
# _framework density 20.112518999999999
#
# number of rings (size 3 to 8) (size 9 to 14) (size 15 to 20)
#    0.000    1.000    6.667    1.000    0.000    4.000 
#    6.000    0.000    0.000    0.000    0.000    0.000 
#    0.000    0.000    0.000    0.000    0.000    0.000 
#
# Total GULP energy -297326.711905 kJ/mol
# GULP energy per Si atom -12388.612996 kJ/mol
# Density = 2.006674 g / cm^3
# Si number density = 20.112519 Si / 1000 Ang^3
#
#
#
# Elastic Constant Matrix: (Units=GPa)
#
#
# Indices 1 2 3 4 5 6 
#
# 1 149.7640 55.2181 -28.3455 0.0000 -52.8374 0.0000
# 2 55.2181 117.5832 19.0450 0.0000 -20.7514 0.0000
# 3 -28.3455 19.0450 268.0039 0.0000 112.4534 0.0000
# 4 0.0000 0.0000 0.0000 -28.9477 0.0000 2.3597
# 5 -52.8374 -20.7514 112.4534 0.0000 141.1662 0.0000
# 6 0.0000 0.0000 0.0000 2.3597 0.0000 18.8472
#
#
#
# Elastic Compliance Matrix: (Units=1/GPa)
#
#
# Indices 1 2 3 4 5 6 
#
# 1 0.009064 -0.003772 0.000054 0.000000 0.002795 0.000000
# 2 -0.003772 0.010877 -0.001878 0.000000 0.001683 0.000000
# 3 0.000054 -0.001878 0.005975 0.000000 -0.005016 0.000000
# 4 0.000000 0.000000 0.000000 -0.034196 0.000000 0.004281
# 5 0.002795 0.001683 -0.005016 0.000000 0.012373 0.000000
# 6 0.000000 0.000000 0.000000 0.004281 0.000000 0.052522
#
#
# Mechanical properties :
#
#
# Convention : Reuss Voigt Hill
#
# Bulk Modulus (GPa) = 67.91776 69.68738 68.80257
# Shear Modulus (GPa) = 68.75998 58.84204 63.80101
#
# Velocity S-wave (km/s) = 5.85336 5.41479 5.63834
# Velocity P-wave (km/s) = 8.91766 8.59170 8.75620
#
# Compressibility (1/GPa) = 0.01472369
#
# Stress axis : x y z
#
# Youngs Moduli (GPa) = 110.32242 91.93446 167.36396
#
# Poissons Ratio (x) = 0.34678 -0.00901
# Poissons Ratio (y) = 0.41615 0.31435
# Poissons Ratio (z) = -0.00594 0.17267
#
# Static dielectric constant tensor:
#      x y z
#    x 4.460130 0.000000 0.456720 
#    y 0.000000 3.439550 0.000000 
#    z 0.456720 0.000000 3.643780 
# 
# 
# High freq. dielectric constant tensor:
#      x y z
#    x 1.801510 0.000000 0.000060 
#    y 0.000000 1.751680 0.000000 
#    z 0.000060 0.000000 1.804420 
# 
# From -- ./inp_files/37400.got.cif
#   From: 2010.03.12/outbox.cif.g09.slc.cpg/sg14_19_cif.got.tgz:37400.got - 2010.03.31 13:35:05.
