data_PCOD8128601
_publ_section_title
;
Structure prediction by ZEFSAII (Michael W. Deem and Ramdas Pophale) SiO2 
 PCOD8128601
Probable space group: P 21/C
;
_chemical_formula_sum "Si O2"
_cell_formula_units_Z 32
_cell_length_a 18.302513
_cell_length_b 8.616433
_cell_length_c 22.391661
_cell_angle_alpha 90.000000
_cell_angle_beta 24.993182
_cell_angle_gamma 90.000000
_cell_volume 1491.976439
_symmetry_space_group_name_H-M "P 21/C"
_symmetry_group_IT_number 14
_symmetry_cell_setting 'monoclinic'
loop_
_space_group_symop_operation_xyz
x,y,z
-x,1/2+y,1/2-z
-x,-y,-z
x,1/2-y,1/2+z
loop_
_atom_site_type_symbol
_atom_site_label
_atom_site_fract_x
_atom_site_fract_y
_atom_site_fract_z
Si Si1 0.890648 0.237483 0.116818
Si Si2 0.855392 0.137871 0.373691
Si Si3 0.032425 0.566368 0.650902
Si Si4 0.539259 0.722328 0.836730
Si Si5 0.150934 0.376340 0.329122
Si Si6 0.892247 0.917345 0.453966
Si Si7 0.330682 0.139705 0.886175
Si Si8 0.644111 0.444361 0.230121
O O1 0.714093 0.323238 0.227360
O O2 0.856107 0.058833 0.154653
O O3 0.041532 0.235371 0.954835
O O4 0.946408 0.323000 0.137168
O O5 0.925131 0.311923 0.328600
O O6 0.648317 0.144648 0.523501
O O7 0.927994 0.075499 0.257416
O O8 0.932964 0.037670 0.371122
O O9 0.211482 0.509487 0.487930
O O10 0.917004 0.653960 0.687181
O O11 0.648338 0.674196 0.814537
O O12 0.644377 0.648930 0.703284
O O13 0.537963 0.909955 0.835879
O O14 0.759166 0.795501 0.523639
O O15 0.811761 0.006875 0.569407
O O16 0.514719 0.141662 0.781497
#
# Coordination Sequence:
#
# PCOD8128601 Si02
#       8
#     4   4   4   4   4   4   4   4
#     4  11  22  38  64 104 138 171 218 278 339 394
#     4  12  27  45  70  93 135 181 225 275 326 407
#     4  12  26  46  68  94 134 182 223 267 338 401
#     4  11  24  41  67 104 133 169 227 281 334 389
#     4  11  23  40  67  97 137 175 218 277 338 397
#     4  11  22  39  66  97 134 173 223 269 333 395
#     4  11  21  42  67 101 132 167 224 286 322 394
#     4  11  22  36  65 102 137 168 216 284 336 388
#
# _framework density 21.448060000000002
#
# number of rings (size 3 to 8) (size 9 to 14) (size 15 to 20)
#    0.000    0.750    6.250    2.625    3.500    0.500 
#    0.000    0.000    0.000    2.250    0.000    0.000 
#    0.000    0.000    0.000    0.000    0.000    0.000 
#
# Total GULP energy -396788.274045 kJ/mol
# GULP energy per Si atom -12399.633564 kJ/mol
# Density = 2.139924 g / cm^3
# Si number density = 21.448060 Si / 1000 Ang^3
#
#
#
# Elastic Constant Matrix: (Units=GPa)
#
#
# Indices 1 2 3 4 5 6 
#
# 1 111.6680 34.1583 30.3276 0.0000 -29.4596 0.0000
# 2 34.1583 74.1723 23.8431 0.0000 -14.4785 0.0000
# 3 30.3276 23.8431 60.5733 0.0000 -5.2726 0.0000
# 4 0.0000 0.0000 0.0000 30.0206 0.0000 -2.5382
# 5 -29.4596 -14.4785 -5.2726 0.0000 24.5047 0.0000
# 6 0.0000 0.0000 0.0000 -2.5382 0.0000 46.7898
#
#
#
# Elastic Compliance Matrix: (Units=1/GPa)
#
#
# Indices 1 2 3 4 5 6 
#
# 1 0.015299 -0.002197 -0.005408 0.000000 0.015930 0.000000
# 2 -0.002197 0.017442 -0.005196 0.000000 0.006546 0.000000
# 3 -0.005408 -0.005196 0.020818 0.000000 -0.005092 0.000000
# 4 0.000000 0.000000 0.000000 0.033464 0.000000 0.001815
# 5 0.015930 0.006546 -0.005092 0.000000 0.062732 0.000000
# 6 0.000000 0.000000 0.000000 0.001815 0.000000 0.021471
#
#
# Mechanical properties :
#
#
# Convention : Reuss Voigt Hill
#
# Bulk Modulus (GPa) = 35.76932 47.00799 41.38866
# Shear Modulus (GPa) = 24.25460 30.80200 27.52830
#
# Velocity S-wave (km/s) = 3.36646 3.79373 3.58646
# Velocity P-wave (km/s) = 5.64129 6.41518 6.04064
#
# Compressibility (1/GPa) = 0.02795692
#
# Stress axis : x y z
#
# Youngs Moduli (GPa) = 65.36537 57.33285 48.03421
#
# Poissons Ratio (x) = 0.12598 0.25977
# Poissons Ratio (y) = 0.14363 0.24957
# Poissons Ratio (z) = 0.35350 0.29788
#
# Static dielectric constant tensor:
#      x y z
#    x 3.909430 0.000000 -0.147040 
#    y 0.000000 4.007100 0.000000 
#    z -0.147040 0.000000 3.519170 
# 
# 
# High freq. dielectric constant tensor:
#      x y z
#    x 1.849640 0.000000 -0.018460 
#    y 0.000000 1.856060 0.000000 
#    z -0.018460 0.000000 1.801650 
# 
# From -- ./inp_files/69155.got.cif
#   From: 2010.03.12/outbox.cif.g09.slc.cpg/sg14_35_cif.got.tgz:69155.got - 2010.03.31 13:35:05.
