data_PCOD8128774
_publ_section_title
;
Structure prediction by ZEFSAII (Michael W. Deem and Ramdas Pophale) SiO2 
 PCOD8128774
Probable space group: P 21/C
;
_chemical_formula_sum "Si O2"
_cell_formula_units_Z 32
_cell_length_a 12.931202
_cell_length_b 13.415519
_cell_length_c 18.614145
_cell_angle_alpha 90.000000
_cell_angle_beta 28.044287
_cell_angle_gamma 90.000000
_cell_volume 1518.201830
_symmetry_space_group_name_H-M "P 21/C"
_symmetry_group_IT_number 14
_symmetry_cell_setting 'monoclinic'
loop_
_space_group_symop_operation_xyz
x,y,z
-x,1/2+y,1/2-z
-x,-y,-z
x,1/2-y,1/2+z
loop_
_atom_site_type_symbol
_atom_site_label
_atom_site_fract_x
_atom_site_fract_y
_atom_site_fract_z
Si Si1 0.634139 0.307605 0.101519
Si Si2 0.583305 0.811100 0.646986
Si Si3 0.651865 0.384083 0.845788
Si Si4 0.353078 0.115010 0.655863
Si Si5 0.061105 0.670838 0.670642
Si Si6 0.101830 0.000569 0.517006
Si Si7 0.888509 0.681423 0.380683
Si Si8 0.244767 0.491053 0.640055
O O1 0.572870 0.216794 0.191057
O O2 0.411837 0.340026 0.197079
O O3 0.796007 0.263421 0.942857
O O4 0.749460 0.401778 0.068268
O O5 0.414106 0.831637 0.686950
O O6 0.712314 0.708161 0.550099
O O7 0.743982 0.902872 0.567080
O O8 0.596082 0.499027 0.871298
O O9 0.907160 0.369373 0.705426
O O10 0.507915 0.337943 0.998834
O O11 0.100904 0.138319 0.793923
O O12 0.198576 0.575248 0.609455
O O13 0.936716 0.709594 0.817693
O O14 0.000000 0.000000 0.500000
O O15 0.907202 0.000484 0.695802
O O16 0.796350 0.613956 0.373033
O O17 0.500000 0.500000 0.500000
#
# Coordination Sequence:
#
# PCOD8128774 Si02
#       8
#     4   4   4   4   4   4   4   4
#     4  12  29  46  73 104 145 190 233 287 362 423
#     4  12  29  46  73 104 145 190 233 287 362 423
#     4  11  22  45  74  98 135 182 236 293 343 405
#     4  11  22  45  74  98 135 182 236 293 343 405
#     4  12  25  44  73 106 136 183 240 287 348 421
#     4  12  28  51  69 102 152 189 235 297 361 425
#     4  12  25  44  73 106 136 183 240 287 348 421
#     4  12  28  47  73 110 144 183 241 303 350 424
#
# _framework density 21.077566000000001
#
# number of rings (size 3 to 8) (size 9 to 14) (size 15 to 20)
#    0.000    0.250    7.500    0.000   10.500    0.000 
#    0.000    1.250    0.000    0.000    0.000    0.000 
#    0.000    0.000    0.000    0.000    0.000    0.000 
#
# Total GULP energy -396872.433508 kJ/mol
# GULP energy per Si atom -12402.263547 kJ/mol
# Density = 2.102959 g / cm^3
# Si number density = 21.077566 Si / 1000 Ang^3
#
#
#
# Elastic Constant Matrix: (Units=GPa)
#
#
# Indices 1 2 3 4 5 6 
#
# 1 159.7255 44.6759 49.6971 0.0000 -19.1347 0.0000
# 2 44.6759 92.0408 32.8843 0.0000 -0.7068 0.0000
# 3 49.6971 32.8843 82.5017 0.0000 -15.3022 0.0000
# 4 0.0000 0.0000 0.0000 34.0211 0.0000 2.4299
# 5 -19.1347 -0.7068 -15.3022 0.0000 36.3397 0.0000
# 6 0.0000 0.0000 0.0000 2.4299 0.0000 41.0478
#
#
#
# Elastic Compliance Matrix: (Units=1/GPa)
#
#
# Indices 1 2 3 4 5 6 
#
# 1 0.008483 -0.002876 -0.003412 0.000000 0.002974 0.000000
# 2 -0.002876 0.013785 -0.004332 0.000000 -0.003070 0.000000
# 3 -0.003412 -0.004332 0.016872 0.000000 0.005224 0.000000
# 4 0.000000 0.000000 0.000000 0.029518 0.000000 -0.001747
# 5 0.002974 -0.003070 0.005224 0.000000 0.031224 0.000000
# 6 0.000000 0.000000 0.000000 -0.001747 0.000000 0.024465
#
#
# Mechanical properties :
#
#
# Convention : Reuss Voigt Hill
#
# Bulk Modulus (GPa) = 55.86425 65.42030 60.64228
# Shear Modulus (GPa) = 32.99187 36.08243 34.53715
#
# Velocity S-wave (km/s) = 3.96063 4.14199 4.05232
# Velocity P-wave (km/s) = 6.89036 7.34711 7.12240
#
# Compressibility (1/GPa) = 0.01790054
#
# Stress axis : x y z
#
# Youngs Moduli (GPa) = 117.88267 72.54484 59.27076
#
# Poissons Ratio (x) = 0.20861 0.20224
# Poissons Ratio (y) = 0.33899 0.25674
# Poissons Ratio (z) = 0.40223 0.31423
#
# Static dielectric constant tensor:
#      x y z
#    x 3.889310 0.000000 -0.067560 
#    y 0.000000 3.890160 0.000000 
#    z -0.067560 0.000000 3.719780 
# 
# 
# High freq. dielectric constant tensor:
#      x y z
#    x 1.841050 0.000000 -0.008590 
#    y 0.000000 1.836880 0.000000 
#    z -0.008590 0.000000 1.820300 
# 
# From -- ./inp_files/57972.got.cif
#   From: 2010.03.12/outbox.cif.g09.slc.cpg/sg14_29_cif.got.tgz:57972.got - 2010.03.31 13:35:05.
