data_PCOD8128375
_publ_section_title
;
Structure prediction by ZEFSAII (Michael W. Deem and Ramdas Pophale) SiO2 
 PCOD8128375
Probable space group: P 21/C
;
_chemical_formula_sum "Si O2"
_cell_formula_units_Z 16
_cell_length_a 8.268221
_cell_length_b 9.112099
_cell_length_c 17.073899
_cell_angle_alpha 90.000000
_cell_angle_beta 33.997204
_cell_angle_gamma 90.000000
_cell_volume 719.272478
_symmetry_space_group_name_H-M "P 21/C"
_symmetry_group_IT_number 14
_symmetry_cell_setting 'monoclinic'
loop_
_space_group_symop_operation_xyz
x,y,z
-x,1/2+y,1/2-z
-x,-y,-z
x,1/2-y,1/2+z
loop_
_atom_site_type_symbol
_atom_site_label
_atom_site_fract_x
_atom_site_fract_y
_atom_site_fract_z
Si Si1 0.397735 0.182483 0.582109
Si Si2 0.198660 0.915561 0.860277
Si Si3 0.895405 0.394695 0.781846
Si Si4 0.282009 0.903513 0.388866
O O1 0.621568 0.208184 0.419428
O O2 0.599522 0.132024 0.572534
O O3 0.207042 0.325957 0.680787
O O4 0.166647 0.053352 0.652781
O O5 0.081393 0.922913 0.819512
O O6 0.222603 0.746259 0.869179
O O7 0.498999 0.998819 0.748495
O O8 0.000000 0.000000 0.000000
O O9 0.000000 0.000000 0.500000
#
# Coordination Sequence:
#
# PCOD8128375 Si02
#       4
#     4   4   4   4
#     4  10  25  45  69 102 136 183 233 288 342 415
#     4  11  26  44  70 102 137 187 231 290 355 415
#     4  10  25  44  68 101 135 180 236 282 348 407
#     4  11  26  45  70 101 143 182 232 290 351 425
#
# _framework density 22.244696999999999
#
# number of rings (size 3 to 8) (size 9 to 14) (size 15 to 20)
#    0.000    1.500    0.000    1.500   24.500    1.000 
#    0.000    0.000    0.000    0.000    0.000    0.000 
#    0.000    0.000    0.000    0.000    0.000    0.000 
#
# Total GULP energy -198296.794032 kJ/mol
# GULP energy per Si atom -12393.549627 kJ/mol
# Density = 2.219407 g / cm^3
# Si number density = 22.244697 Si / 1000 Ang^3
#
#
#
# Elastic Constant Matrix: (Units=GPa)
#
#
# Indices 1 2 3 4 5 6 
#
# 1 86.5954 39.3556 66.1143 0.0000 -6.9273 0.0000
# 2 39.3556 103.0559 54.3470 0.0000 -10.2487 0.0000
# 3 66.1143 54.3470 190.2767 0.0000 -1.0309 0.0000
# 4 0.0000 0.0000 0.0000 56.7537 0.0000 -5.5552
# 5 -6.9273 -10.2487 -1.0309 0.0000 35.4636 0.0000
# 6 0.0000 0.0000 0.0000 -5.5552 0.0000 23.8414
#
#
#
# Elastic Compliance Matrix: (Units=1/GPa)
#
#
# Indices 1 2 3 4 5 6 
#
# 1 0.017149 -0.003770 -0.004871 0.000000 0.002119 0.000000
# 2 -0.003770 0.012630 -0.002282 0.000000 0.002847 0.000000
# 3 -0.004871 -0.002282 0.007592 0.000000 -0.001390 0.000000
# 4 0.000000 0.000000 0.000000 0.018031 0.000000 0.004201
# 5 0.002119 0.002847 -0.001390 0.000000 0.029394 0.000000
# 6 0.000000 0.000000 0.000000 0.004201 0.000000 0.042923
#
#
# Mechanical properties :
#
#
# Convention : Reuss Voigt Hill
#
# Bulk Modulus (GPa) = 64.40671 77.72909 71.06790
# Shear Modulus (GPa) = 32.31232 37.88579 35.09906
#
# Velocity S-wave (km/s) = 3.81541 4.13139 3.97654
# Velocity P-wave (km/s) = 6.95891 7.60108 7.28707
#
# Compressibility (1/GPa) = 0.01552633
#
# Stress axis : x y z
#
# Youngs Moduli (GPa) = 58.31118 79.17851 131.71593
#
# Poissons Ratio (x) = 0.29849 0.64153
# Poissons Ratio (y) = 0.21983 0.30057
# Poissons Ratio (z) = 0.28401 0.18068
#
# Static dielectric constant tensor:
#      x y z
#    x 3.838050 0.000000 0.047100 
#    y 0.000000 4.242690 0.000000 
#    z 0.047100 0.000000 4.990930 
# 
# 
# High freq. dielectric constant tensor:
#      x y z
#    x 1.859710 0.000000 0.005410 
#    y 0.000000 1.881070 0.000000 
#    z 0.005410 0.000000 1.899880 
# 
# From -- ./inp_files/7221.got.cif
#   From: 2010.03.12/outbox.cif.g09.slc.cpg/sg14_4_cif.got.tgz:7221.got - 2010.03.31 13:35:05.
