data_PCOD8128092
_publ_section_title
;
Structure prediction by ZEFSAII (Michael W. Deem and Ramdas Pophale) SiO2 
 PCOD8128092
Probable space group: P 21/C
;
_chemical_formula_sum "Si O2"
_cell_formula_units_Z 20
_cell_length_a 9.895046
_cell_length_b 5.162023
_cell_length_c 24.759095
_cell_angle_alpha 90.000000
_cell_angle_beta 142.575401
_cell_angle_gamma 90.000000
_cell_volume 768.552959
_symmetry_space_group_name_H-M "P 21/C"
_symmetry_group_IT_number 14
_symmetry_cell_setting 'monoclinic'
loop_
_space_group_symop_operation_xyz
x,y,z
-x,1/2+y,1/2-z
-x,-y,-z
x,1/2-y,1/2+z
loop_
_atom_site_type_symbol
_atom_site_label
_atom_site_fract_x
_atom_site_fract_y
_atom_site_fract_z
Si Si1 0.500960 0.862249 0.327550
Si Si2 0.854070 0.020708 0.697308
Si Si3 0.806188 0.206348 0.363740
Si Si4 0.790881 0.029526 0.555930
Si Si5 0.245598 0.039374 0.017226
O O1 0.387378 0.829834 0.233546
O O2 0.609145 0.588268 0.382094
O O3 0.329741 0.984125 0.315022
O O4 0.703706 0.066021 0.383922
O O5 0.968006 0.740939 0.732465
O O6 0.741872 0.070613 0.603458
O O7 0.977895 0.424857 0.440894
O O8 0.942432 0.999667 0.369717
O O9 0.693548 0.269162 0.490904
O O10 0.669767 0.770811 0.495875
#
# Coordination Sequence:
#
# PCOD8128092 Si02
#       5
#     4   4   4   4   4
#     4  12  26  45  79 105 144 201 235 291 377 417
#     4  12  25  46  72 109 143 192 241 301 352 432
#     4  10  26  46  67 112 141 186 241 297 343 441
#     4  10  23  48  69  99 155 173 237 307 345 418
#     4  10  25  48  73 108 143 187 237 307 349 428
#
# _framework density 26.022932999999998
#
# number of rings (size 3 to 8) (size 9 to 14) (size 15 to 20)
#    1.200    0.000    2.000    3.000    5.600    5.600 
#    0.000    0.000    0.000    0.000    0.000    0.000 
#    0.000    0.000    0.000    0.000    0.000    0.000 
#
# Total GULP energy -248013.311097 kJ/mol
# GULP energy per Si atom -12400.665555 kJ/mol
# Density = 2.596370 g / cm^3
# Si number density = 26.022933 Si / 1000 Ang^3
#
#
#
# Elastic Constant Matrix: (Units=GPa)
#
#
# Indices 1 2 3 4 5 6 
#
# 1 107.7357 7.4795 -21.2774 0.0000 -10.3588 0.0000
# 2 7.4795 84.1874 -11.8025 0.0000 -5.8428 0.0000
# 3 -21.2774 -11.8025 101.4241 0.0000 -24.9821 0.0000
# 4 0.0000 0.0000 0.0000 33.6781 0.0000 -11.3126
# 5 -10.3588 -5.8428 -24.9821 0.0000 31.0081 0.0000
# 6 0.0000 0.0000 0.0000 -11.3126 0.0000 14.8209
#
#
#
# Elastic Compliance Matrix: (Units=1/GPa)
#
#
# Indices 1 2 3 4 5 6 
#
# 1 0.010698 0.000066 0.003911 0.000000 0.006737 0.000000
# 2 0.000066 0.012542 0.002571 0.000000 0.004456 0.000000
# 3 0.003911 0.002571 0.014248 0.000000 0.013270 0.000000
# 4 0.000000 0.000000 0.000000 0.039931 0.000000 0.030479
# 5 0.006737 0.004456 0.013270 0.000000 0.046031 0.000000
# 6 0.000000 0.000000 0.000000 0.030479 0.000000 0.090737
#
#
# Mechanical properties :
#
#
# Convention : Reuss Voigt Hill
#
# Bulk Modulus (GPa) = 19.76933 26.90515 23.33724
# Shear Modulus (GPa) = 22.94082 37.16459 30.05270
#
# Velocity S-wave (km/s) = 2.97233 3.78318 3.40200
# Velocity P-wave (km/s) = 4.40375 5.42630 4.94155
#
# Compressibility (1/GPa) = 0.05058339
#
# Stress axis : x y z
#
# Youngs Moduli (GPa) = 93.47802 79.73107 70.18564
#
# Poissons Ratio (x) = -0.00522 -0.27452
# Poissons Ratio (y) = -0.00612 -0.18044
# Poissons Ratio (z) = -0.36563 -0.20498
#
# Static dielectric constant tensor:
#      x y z
#    x 4.588860 0.000000 0.077420 
#    y 0.000000 4.456110 0.000000 
#    z 0.077420 0.000000 4.683460 
# 
# 
# High freq. dielectric constant tensor:
#      x y z
#    x 2.048420 0.000000 -0.003600 
#    y 0.000000 2.036010 0.000000 
#    z -0.003600 0.000000 2.048270 
# 
# From -- ./inp_files/71697.got.cif
#   From: 2010.03.12/outbox.cif.g09.slc.cpg/sg14_36_cif.got.tgz:71697.got - 2010.03.31 13:35:05.
