data_PCOD8128012
_publ_section_title
;
Structure prediction by ZEFSAII (Michael W. Deem and Ramdas Pophale) SiO2 
 PCOD8128012
Probable space group: P 21/C
;
_chemical_formula_sum "Si O2"
_cell_formula_units_Z 32
_cell_length_a 21.313358
_cell_length_b 6.412490
_cell_length_c 25.652814
_cell_angle_alpha 90.000000
_cell_angle_beta 154.145823
_cell_angle_gamma 90.000000
_cell_volume 1528.910169
_symmetry_space_group_name_H-M "P 21/C"
_symmetry_group_IT_number 14
_symmetry_cell_setting 'monoclinic'
loop_
_space_group_symop_operation_xyz
x,y,z
-x,1/2+y,1/2-z
-x,-y,-z
x,1/2-y,1/2+z
loop_
_atom_site_type_symbol
_atom_site_label
_atom_site_fract_x
_atom_site_fract_y
_atom_site_fract_z
Si Si1 0.641617 0.882409 0.808813
Si Si2 0.872318 0.641426 0.338387
Si Si3 0.166742 0.704187 0.893249
Si Si4 0.872272 0.635019 0.218139
Si Si5 0.647243 0.604517 0.906688
Si Si6 0.832018 0.305357 0.391989
Si Si7 0.647081 0.909308 0.000108
Si Si8 0.650038 0.580300 0.721580
O O1 0.708112 0.744202 0.905041
O O2 0.602205 0.744281 0.729512
O O3 0.495544 0.988220 0.719961
O O4 0.760337 0.053028 0.883028
O O5 0.904188 0.592524 0.302229
O O6 0.835934 0.423629 0.339451
O O7 0.739960 0.803301 0.243890
O O8 0.008295 0.747935 0.468530
O O9 0.164979 0.584720 0.836658
O O10 0.006463 0.764223 0.789044
O O11 0.264169 0.906555 0.960321
O O12 0.228602 0.558152 0.985288
O O13 0.739455 0.796062 0.113857
O O14 0.604672 0.744495 0.924084
O O15 0.745773 0.093898 0.320909
O O16 0.497039 0.988785 0.913025
#
# Coordination Sequence:
#
# PCOD8128012 Si02
#       8
#     4   4   4   4   4   4   4   4
#     4  11  23  36  63  99 130 171 211 269 330 400
#     4  10  25  42  66  95 127 173 218 267 330 392
#     4  11  24  43  64  97 135 169 217 275 329 391
#     4  11  25  43  66  95 129 172 220 271 328 394
#     4  11  24  37  63 100 132 172 215 265 335 399
#     4  10  23  45  62  94 135 166 215 278 326 390
#     4  11  23  43  65  92 131 172 216 274 325 384
#     4  11  22  43  67  91 131 172 217 269 325 387
#
# _framework density 20.929942
#
# number of rings (size 3 to 8) (size 9 to 14) (size 15 to 20)
#    0.000    1.250    3.750    1.125    3.500    1.500 
#    0.000    1.250    0.000    0.000    0.000    0.000 
#    0.000    0.000    0.000    0.000    0.000    0.000 
#
# Total GULP energy -396980.484602 kJ/mol
# GULP energy per Si atom -12405.640144 kJ/mol
# Density = 2.088230 g / cm^3
# Si number density = 20.929942 Si / 1000 Ang^3
#
#
#
# Elastic Constant Matrix: (Units=GPa)
#
#
# Indices 1 2 3 4 5 6 
#
# 1 69.2711 14.1491 13.7677 0.0000 -6.8418 0.0000
# 2 14.1491 69.8984 16.8449 0.0000 -1.2536 0.0000
# 3 13.7677 16.8449 85.3546 0.0000 10.5010 0.0000
# 4 0.0000 0.0000 0.0000 30.0560 0.0000 2.0944
# 5 -6.8418 -1.2536 10.5010 0.0000 34.1583 0.0000
# 6 0.0000 0.0000 0.0000 2.0944 0.0000 16.2197
#
#
#
# Elastic Compliance Matrix: (Units=1/GPa)
#
#
# Indices 1 2 3 4 5 6 
#
# 1 0.015836 -0.002527 -0.002530 0.000000 0.003857 0.000000
# 2 -0.002527 0.015500 -0.002764 0.000000 0.000912 0.000000
# 3 -0.002530 -0.002764 0.013245 0.000000 -0.004680 0.000000
# 4 0.000000 0.000000 0.000000 0.033573 0.000000 -0.004335
# 5 0.003857 0.000912 -0.004680 0.000000 0.031520 0.000000
# 6 0.000000 0.000000 0.000000 -0.004335 0.000000 0.062213
#
#
# Mechanical properties :
#
#
# Convention : Reuss Voigt Hill
#
# Bulk Modulus (GPa) = 34.55391 34.89415 34.72403
# Shear Modulus (GPa) = 25.35804 28.07096 26.71450
#
# Velocity S-wave (km/s) = 3.48453 3.66619 3.57652
# Velocity P-wave (km/s) = 5.72140 5.88467 5.80361
#
# Compressibility (1/GPa) = 0.02894028
#
# Stress axis : x y z
#
# Youngs Moduli (GPa) = 63.14743 64.51475 75.49925
#
# Poissons Ratio (x) = 0.16301 0.19103
# Poissons Ratio (y) = 0.15955 0.20866
# Poissons Ratio (z) = 0.15978 0.17830
#
# Static dielectric constant tensor:
#      x y z
#    x 3.544980 0.000000 0.153870 
#    y 0.000000 3.947070 0.000000 
#    z 0.153870 0.000000 3.813200 
# 
# 
# High freq. dielectric constant tensor:
#      x y z
#    x 1.803130 0.000000 0.010860 
#    y 0.000000 1.832170 0.000000 
#    z 0.010860 0.000000 1.826470 
# 
# From -- ./inp_files/77876.got.cif
#   From: 2010.03.12/outbox.cif.g09.slc.cpg/sg14_39_cif.got.tgz:77876.got - 2010.03.31 13:35:05.
