data_PCOD8128972
_publ_section_title
;
Structure prediction by ZEFSAII (Michael W. Deem and Ramdas Pophale) SiO2 
 PCOD8128972
Probable space group: P 21/C
;
_chemical_formula_sum "Si O2"
_cell_formula_units_Z 24
_cell_length_a 7.694715
_cell_length_b 9.188906
_cell_length_c 23.677109
_cell_angle_alpha 90.000000
_cell_angle_beta 34.371973
_cell_angle_gamma 90.000000
_cell_volume 945.143343
_symmetry_space_group_name_H-M "P 21/C"
_symmetry_group_IT_number 14
_symmetry_cell_setting 'monoclinic'
loop_
_space_group_symop_operation_xyz
x,y,z
-x,1/2+y,1/2-z
-x,-y,-z
x,1/2-y,1/2+z
loop_
_atom_site_type_symbol
_atom_site_label
_atom_site_fract_x
_atom_site_fract_y
_atom_site_fract_z
Si Si1 0.541792 0.716114 0.601894
Si Si2 0.183445 0.417516 0.577716
Si Si3 0.103081 0.450277 0.839620
Si Si4 0.343872 0.146607 0.799016
Si Si5 0.692472 0.030989 0.549033
Si Si6 0.102903 0.166468 0.692665
O O1 0.789823 0.656185 0.490965
O O2 0.660505 0.674254 0.632356
O O3 0.184277 0.671019 0.687163
O O4 0.504421 0.884812 0.601520
O O5 0.500000 0.500000 0.500000
O O6 0.111661 0.299561 0.645738
O O7 0.911988 0.532609 0.650375
O O8 0.294206 0.299983 0.779700
O O9 0.329019 0.574561 0.806209
O O10 0.959092 0.511537 0.821148
O O11 0.806463 0.417030 0.957363
O O12 0.434405 0.152840 0.636443
O O13 0.000000 0.000000 0.500000
#
# Coordination Sequence:
#
# PCOD8128972 Si02
#       6
#     4   4   4   4   4   4
#     4  11  26  46  72 108 146 190 249 307 368 442
#     4  12  27  45  72 103 149 193 247 306 366 441
#     4  11  23  45  74 107 145 195 245 303 370 444
#     4  11  24  46  72 109 147 196 244 307 375 437
#     4  12  25  46  75 103 147 191 247 305 372 438
#     4  11  27  49  72 110 146 194 253 303 374 440
#
# _framework density 25.392973000000001
#
# number of rings (size 3 to 8) (size 9 to 14) (size 15 to 20)
#    0.000    0.667    3.333    4.000    4.667    0.000 
#    0.000    0.000    0.000    0.000    0.000    0.000 
#    0.000    0.000    0.000    0.000    0.000    0.000 
#
# Total GULP energy -297355.935858 kJ/mol
# GULP energy per Si atom -12389.830661 kJ/mol
# Density = 2.533518 g / cm^3
# Si number density = 25.392973 Si / 1000 Ang^3
#
#
#
# Elastic Constant Matrix: (Units=GPa)
#
#
# Indices 1 2 3 4 5 6 
#
# 1 54.8444 27.8520 12.5074 0.0000 -30.4389 0.0000
# 2 27.8520 124.5871 21.4006 0.0000 -16.2149 0.0000
# 3 12.5074 21.4006 88.9800 0.0000 -25.3304 0.0000
# 4 0.0000 0.0000 0.0000 54.7424 0.0000 -14.8143
# 5 -30.4389 -16.2149 -25.3304 0.0000 40.1460 0.0000
# 6 0.0000 0.0000 0.0000 -14.8143 0.0000 18.8914
#
#
#
# Elastic Compliance Matrix: (Units=1/GPa)
#
#
# Indices 1 2 3 4 5 6 
#
# 1 0.034738 -0.004952 0.003945 0.000000 0.026828 0.000000
# 2 -0.004952 0.009302 -0.001878 0.000000 -0.001182 0.000000
# 3 0.003945 -0.001878 0.014348 0.000000 0.011286 0.000000
# 4 0.000000 0.000000 0.000000 0.023188 0.000000 0.018184
# 5 0.026828 -0.001182 0.011286 0.000000 0.051893 0.000000
# 6 0.000000 0.000000 0.000000 0.018184 0.000000 0.067194
#
#
# Mechanical properties :
#
#
# Convention : Reuss Voigt Hill
#
# Bulk Modulus (GPa) = 19.00431 43.54795 31.27613
# Shear Modulus (GPa) = 22.32418 36.53274 29.42846
#
# Velocity S-wave (km/s) = 2.96826 3.79713 3.40799
# Velocity P-wave (km/s) = 4.38723 6.03416 5.27536
#
# Compressibility (1/GPa) = 0.05261964
#
# Stress axis : x y z
#
# Youngs Moduli (GPa) = 28.78703 107.50121 69.69413
#
# Poissons Ratio (x) = 0.53234 -0.27496
# Poissons Ratio (y) = 0.14255 0.13087
# Poissons Ratio (z) = -0.11357 0.20186
#
# Static dielectric constant tensor:
#      x y z
#    x 4.568480 0.000000 -0.082050 
#    y 0.000000 4.943340 0.000000 
#    z -0.082050 0.000000 5.406060 
# 
# 
# High freq. dielectric constant tensor:
#      x y z
#    x 2.006930 0.000000 -0.016510 
#    y 0.000000 2.021860 0.000000 
#    z -0.016510 0.000000 2.033450 
# 
# From -- ./inp_files/79442.got.cif
#   From: 2010.03.12/outbox.cif.g09.slc.cpg/sg14_40_cif.got.tgz:79442.got - 2010.03.31 13:35:05.
