data_PCOD8128705
_publ_section_title
;
Structure prediction by ZEFSAII (Michael W. Deem and Ramdas Pophale) SiO2 
 PCOD8128705
Probable space group: P 21/C
;
_chemical_formula_sum "Si O2"
_cell_formula_units_Z 32
_cell_length_a 9.343178
_cell_length_b 12.365715
_cell_length_c 22.273760
_cell_angle_alpha 90.000000
_cell_angle_beta 38.813614
_cell_angle_gamma 90.000000
_cell_volume 1612.979091
_symmetry_space_group_name_H-M "P 21/C"
_symmetry_group_IT_number 14
_symmetry_cell_setting 'monoclinic'
loop_
_space_group_symop_operation_xyz
x,y,z
-x,1/2+y,1/2-z
-x,-y,-z
x,1/2-y,1/2+z
loop_
_atom_site_type_symbol
_atom_site_label
_atom_site_fract_x
_atom_site_fract_y
_atom_site_fract_z
Si Si1 0.588852 0.166368 0.140351
Si Si2 0.626104 0.564108 0.404875
Si Si3 0.351335 0.597527 0.251255
Si Si4 0.087019 0.238548 0.124312
Si Si5 0.758685 0.641548 0.728338
Si Si6 0.072096 0.378904 0.460446
Si Si7 0.129448 0.859499 0.203448
Si Si8 0.416540 0.250858 0.916908
O O1 0.532265 0.095985 0.099615
O O2 0.549208 0.093269 0.213357
O O3 0.449729 0.276491 0.194499
O O4 0.856560 0.197893 0.047060
O O5 0.500000 0.500000 0.500000
O O6 0.736503 0.673339 0.392341
O O7 0.826223 0.487052 0.314793
O O8 0.330788 0.479042 0.229295
O O9 0.526466 0.659187 0.150725
O O10 0.106248 0.656434 0.335990
O O11 0.975804 0.336668 0.196980
O O12 0.230106 0.296129 0.024711
O O13 0.869588 0.641588 0.627211
O O14 0.956603 0.678568 0.708752
O O15 0.298527 0.352307 0.424153
O O16 0.000000 0.500000 0.500000
O O17 0.361171 0.790325 0.120082
#
# Coordination Sequence:
#
# PCOD8128705 Si02
#       8
#     4   4   4   4   4   4   4   4
#     4  12  25  41  67 103 130 167 222 275 323 382
#     4  12  23  40  67  99 126 168 223 271 323 382
#     4  11  24  42  67  94 133 177 210 267 335 385
#     4  11  22  41  64  93 132 168 218 266 322 388
#     4  12  24  43  65  97 135 167 222 269 320 395
#     4  12  23  40  68  98 125 168 222 273 322 377
#     4  11  24  39  66  94 129 173 212 272 323 385
#     4  11  23  42  62  96 129 169 213 265 326 389
#
# _framework density 19.839067
#
# number of rings (size 3 to 8) (size 9 to 14) (size 15 to 20)
#    0.000    0.500    7.500    1.500    0.000    0.000 
#    0.000    2.500    0.000    0.000    0.000    0.000 
#    0.000    0.000    0.000    0.000    0.000    0.000 
#
# Total GULP energy -396781.497102 kJ/mol
# GULP energy per Si atom -12399.421784 kJ/mol
# Density = 1.979391 g / cm^3
# Si number density = 19.839067 Si / 1000 Ang^3
#
#
#
# Elastic Constant Matrix: (Units=GPa)
#
#
# Indices 1 2 3 4 5 6 
#
# 1 120.0345 38.8948 46.1802 0.0000 2.4997 0.0000
# 2 38.8948 80.4994 60.8223 0.0000 -0.6631 0.0000
# 3 46.1802 60.8223 148.1870 0.0000 3.0264 0.0000
# 4 0.0000 0.0000 0.0000 37.8578 0.0000 -1.0300
# 5 2.4997 -0.6631 3.0264 0.0000 33.7615 0.0000
# 6 0.0000 0.0000 0.0000 -1.0300 0.0000 29.2903
#
#
#
# Elastic Compliance Matrix: (Units=1/GPa)
#
#
# Indices 1 2 3 4 5 6 
#
# 1 0.010169 -0.003675 -0.001647 0.000000 -0.000677 0.000000
# 2 -0.003675 0.019369 -0.006831 0.000000 0.001265 0.000000
# 3 -0.001647 -0.006831 0.010084 0.000000 -0.000916 0.000000
# 4 0.000000 0.000000 0.000000 0.026440 0.000000 0.000930
# 5 -0.000677 0.001265 -0.000916 0.000000 0.029777 0.000000
# 6 0.000000 0.000000 0.000000 0.000930 0.000000 0.034174
#
#
# Mechanical properties :
#
#
# Convention : Reuss Voigt Hill
#
# Bulk Modulus (GPa) = 65.28371 71.16841 68.22606
# Shear Modulus (GPa) = 31.36296 33.70348 32.53322
#
# Velocity S-wave (km/s) = 3.98033 4.12617 4.05391
# Velocity P-wave (km/s) = 7.35541 7.65840 7.50844
#
# Compressibility (1/GPa) = 0.01531776
#
# Stress axis : x y z
#
# Youngs Moduli (GPa) = 98.33405 51.62796 99.16872
#
# Poissons Ratio (x) = 0.18972 0.16334
# Poissons Ratio (y) = 0.36134 0.67739
# Poissons Ratio (z) = 0.16196 0.35265
#
# Static dielectric constant tensor:
#      x y z
#    x 3.923460 0.000000 -0.020770 
#    y 0.000000 3.596410 0.000000 
#    z -0.020770 0.000000 3.909260 
# 
# 
# High freq. dielectric constant tensor:
#      x y z
#    x 1.794010 0.000000 0.003650 
#    y 0.000000 1.748430 0.000000 
#    z 0.003650 0.000000 1.784440 
# 
# From -- ./inp_files/65825.got.cif
#   From: 2010.03.12/outbox.cif.g09.slc.cpg/sg14_33_cif.got.tgz:65825.got - 2010.03.31 13:35:05.
