data_PCOD8128752
_publ_section_title
;
Structure prediction by ZEFSAII (Michael W. Deem and Ramdas Pophale) SiO2 
 PCOD8128752
Probable space group: P 21/C
;
_chemical_formula_sum "Si O2"
_cell_formula_units_Z 28
_cell_length_a 9.468154
_cell_length_b 10.802285
_cell_length_c 27.019098
_cell_angle_alpha 90.000000
_cell_angle_beta 151.791052
_cell_angle_gamma 90.000000
_cell_volume 1306.251283
_symmetry_space_group_name_H-M "P 21/C"
_symmetry_group_IT_number 14
_symmetry_cell_setting 'monoclinic'
loop_
_space_group_symop_operation_xyz
x,y,z
-x,1/2+y,1/2-z
-x,-y,-z
x,1/2-y,1/2+z
loop_
_atom_site_type_symbol
_atom_site_label
_atom_site_fract_x
_atom_site_fract_y
_atom_site_fract_z
Si Si1 0.206792 0.576319 0.919343
Si Si2 0.239732 0.803891 0.259177
Si Si3 0.872355 0.727697 0.739379
Si Si4 0.758004 0.388031 0.826177
Si Si5 0.903580 0.858335 0.478006
Si Si6 0.242656 0.789944 0.003014
Si Si7 0.862468 0.943274 0.816824
O O1 0.326185 0.693229 0.986318
O O2 0.051306 0.616518 0.820325
O O3 0.963658 0.503711 0.875975
O O4 0.500000 0.500000 0.000000
O O5 0.307843 0.699938 0.239928
O O6 0.549742 0.853106 0.377414
O O7 0.039839 0.740689 0.239932
O O8 0.063937 0.920505 0.181189
O O9 0.538539 0.677891 0.625402
O O10 0.858629 0.847585 0.769996
O O11 0.456116 0.445104 0.754701
O O12 0.930037 0.308985 0.921382
O O13 0.989633 0.768985 0.459651
O O14 0.000000 0.000000 0.500000
O O15 0.111493 0.910996 0.935058
#
# Coordination Sequence:
#
# PCOD8128752 Si02
#       7
#     4   4   4   4   4   4   4
#     4  11  24  42  71 101 135 178 238 291 338 419
#     4  12  26  44  69 104 139 182 233 293 352 415
#     4  11  26  43  70 100 142 184 231 283 361 400
#     4  12  24  41  72 104 133 178 243 283 345 417
#     4  12  21  41  74  97 129 180 233 287 343 407
#     4  11  22  44  67  97 137 183 225 290 352 404
#     4  11  25  45  68 100 144 178 234 294 339 419
#
# _framework density 21.435385
#
# number of rings (size 3 to 8) (size 9 to 14) (size 15 to 20)
#    0.000    0.571    5.714    1.714    6.000    1.714 
#    2.571    1.429    0.000    0.000    0.000    0.000 
#    0.000    0.000    0.000    0.000    0.000    0.000 
#
# Total GULP energy -347318.329247 kJ/mol
# GULP energy per Si atom -12404.226045 kJ/mol
# Density = 2.138660 g / cm^3
# Si number density = 21.435385 Si / 1000 Ang^3
#
#
#
# Elastic Constant Matrix: (Units=GPa)
#
#
# Indices 1 2 3 4 5 6 
#
# 1 116.3691 23.4792 22.6062 0.0000 6.4515 0.0000
# 2 23.4792 50.9595 23.6111 0.0000 4.8705 0.0000
# 3 22.6062 23.6111 108.8373 0.0000 -3.4802 0.0000
# 4 0.0000 0.0000 0.0000 30.0301 0.0000 -1.7541
# 5 6.4515 4.8705 -3.4802 0.0000 38.7368 0.0000
# 6 0.0000 0.0000 0.0000 -1.7541 0.0000 28.2000
#
#
#
# Elastic Compliance Matrix: (Units=1/GPa)
#
#
# Indices 1 2 3 4 5 6 
#
# 1 0.009660 -0.003762 -0.001230 0.000000 -0.001246 0.000000
# 2 -0.003762 0.023678 -0.004443 0.000000 -0.002750 0.000000
# 3 -0.001230 -0.004443 0.010462 0.000000 0.001703 0.000000
# 4 0.000000 0.000000 0.000000 0.033421 0.000000 0.002079
# 5 -0.001246 -0.002750 0.001703 0.000000 0.026522 0.000000
# 6 0.000000 0.000000 0.000000 0.002079 0.000000 0.035590
#
#
# Mechanical properties :
#
#
# Convention : Reuss Voigt Hill
#
# Bulk Modulus (GPa) = 40.11272 46.17321 43.14297
# Shear Modulus (GPa) = 30.02739 33.15801 31.59270
#
# Velocity S-wave (km/s) = 3.74683 3.93731 3.84325
# Velocity P-wave (km/s) = 6.12146 6.50056 6.31386
#
# Compressibility (1/GPa) = 0.02492975
#
# Stress axis : x y z
#
# Youngs Moduli (GPa) = 103.51478 42.23297 95.58430
#
# Poissons Ratio (x) = 0.15887 0.11760
# Poissons Ratio (y) = 0.38940 0.42471
# Poissons Ratio (z) = 0.12735 0.18765
#
# Static dielectric constant tensor:
#      x y z
#    x 4.032340 0.000000 -0.223950 
#    y 0.000000 3.660090 0.000000 
#    z -0.223950 0.000000 4.131840 
# 
# 
# High freq. dielectric constant tensor:
#      x y z
#    x 1.856510 0.000000 -0.005730 
#    y 0.000000 1.821930 0.000000 
#    z -0.005730 0.000000 1.855090 
# 
# From -- ./inp_files/76663.got.cif
#   From: 2010.03.12/outbox.cif.g09.slc.cpg/sg14_39_cif.got.tgz:76663.got - 2010.03.31 13:35:05.
