data_PCOD8128717
_publ_section_title
;
Structure prediction by ZEFSAII (Michael W. Deem and Ramdas Pophale) SiO2 
 PCOD8128717
Probable space group: P 21/C
;
_chemical_formula_sum "Si O2"
_cell_formula_units_Z 28
_cell_length_a 16.814902
_cell_length_b 10.282373
_cell_length_c 9.359826
_cell_angle_alpha 90.000000
_cell_angle_beta 122.193393
_cell_angle_gamma 90.000000
_cell_volume 1369.482594
_symmetry_space_group_name_H-M "P 21/C"
_symmetry_group_IT_number 14
_symmetry_cell_setting 'monoclinic'
loop_
_space_group_symop_operation_xyz
x,y,z
-x,1/2+y,1/2-z
-x,-y,-z
x,1/2-y,1/2+z
loop_
_atom_site_type_symbol
_atom_site_label
_atom_site_fract_x
_atom_site_fract_y
_atom_site_fract_z
Si Si1 0.087978 0.778980 0.351517
Si Si2 0.570083 0.881825 0.545488
Si Si3 0.354519 0.526397 0.433116
Si Si4 0.049197 0.012935 0.896426
Si Si5 0.219104 0.750437 0.717689
Si Si6 0.548622 0.864932 0.197206
Si Si7 0.259104 0.018311 0.125013
O O1 0.053003 0.627996 0.321455
O O2 0.137165 0.819591 0.547179
O O3 0.168176 0.801373 0.310105
O O4 0.002497 0.879149 0.249200
O O5 0.578729 0.840727 0.388738
O O6 0.524354 0.768898 0.595789
O O7 0.500000 0.000000 0.500000
O O8 0.675934 0.906771 0.700331
O O9 0.305815 0.657817 0.335305
O O10 0.366123 0.435086 0.305577
O O11 0.455109 0.548859 0.603298
O O12 0.292892 0.456945 0.495256
O O13 0.152696 0.069189 0.028665
O O14 0.000000 0.000000 0.000000
O O15 0.262870 0.634223 0.666358
#
# Coordination Sequence:
#
# PCOD8128717 Si02
#       7
#     4   4   4   4   4   4   4
#     4  11  23  44  70 100 136 178 230 285 352 405
#     4  12  25  46  70 100 139 181 223 281 344 404
#     4  11  23  44  65 101 131 177 233 279 334 409
#     4  11  23  47  68 101 142 174 231 292 336 421
#     4  11  22  41  72 100 126 179 239 276 332 424
#     4  11  27  42  68  98 141 175 228 283 341 404
#     4  11  23  44  68  96 140 178 226 283 344 404
#
# _framework density 20.445678999999998
#
# number of rings (size 3 to 8) (size 9 to 14) (size 15 to 20)
#    0.000    0.857    7.143    1.714    4.000    0.571 
#    7.714    0.000    0.000    0.000    0.000    0.000 
#    0.000    0.000    0.000    0.000    0.000    0.000 
#
# Total GULP energy -347240.442320 kJ/mol
# GULP energy per Si atom -12401.444369 kJ/mol
# Density = 2.039914 g / cm^3
# Si number density = 20.445679 Si / 1000 Ang^3
#
#
#
# Elastic Constant Matrix: (Units=GPa)
#
#
# Indices 1 2 3 4 5 6 
#
# 1 116.3499 26.6054 33.8873 0.0000 -9.0991 0.0000
# 2 26.6054 56.9532 24.0239 0.0000 -3.1001 0.0000
# 3 33.8873 24.0239 107.9617 0.0000 -10.1703 0.0000
# 4 0.0000 0.0000 0.0000 42.7053 0.0000 5.1395
# 5 -9.0991 -3.1001 -10.1703 0.0000 41.4921 0.0000
# 6 0.0000 0.0000 0.0000 5.1395 0.0000 38.9253
#
#
#
# Elastic Compliance Matrix: (Units=1/GPa)
#
#
# Indices 1 2 3 4 5 6 
#
# 1 0.010215 -0.003751 -0.002239 0.000000 0.001411 0.000000
# 2 -0.003751 0.020761 -0.003454 0.000000 -0.000118 0.000000
# 3 -0.002239 -0.003454 0.010915 0.000000 0.001927 0.000000
# 4 0.000000 0.000000 0.000000 0.023794 0.000000 -0.003142
# 5 0.001411 -0.000118 0.001927 0.000000 0.024874 0.000000
# 6 0.000000 0.000000 0.000000 -0.003142 0.000000 0.026105
#
#
# Mechanical properties :
#
#
# Convention : Reuss Voigt Hill
#
# Bulk Modulus (GPa) = 43.46906 50.03313 46.75109
# Shear Modulus (GPa) = 34.91176 37.74109 36.32642
#
# Velocity S-wave (km/s) = 4.13672 4.30108 4.21970
# Velocity P-wave (km/s) = 6.64255 7.01356 6.83058
#
# Compressibility (1/GPa) = 0.02300487
#
# Stress axis : x y z
#
# Youngs Moduli (GPa) = 97.89705 48.16785 91.61521
#
# Poissons Ratio (x) = 0.18066 0.20510
# Poissons Ratio (y) = 0.36718 0.31640
# Poissons Ratio (z) = 0.21916 0.16635
#
# Static dielectric constant tensor:
#      x y z
#    x 3.912300 0.000000 0.048990 
#    y 0.000000 3.695610 0.000000 
#    z 0.048990 0.000000 3.983660 
# 
# 
# High freq. dielectric constant tensor:
#      x y z
#    x 1.809130 0.000000 -0.005710 
#    y 0.000000 1.785860 0.000000 
#    z -0.005710 0.000000 1.810230 
# 
# From -- ./inp_files/15630.got.cif
#   From: 2010.03.12/outbox.cif.g09.slc.cpg/sg14_8_cif.got.tgz:15630.got - 2010.03.31 13:35:05.
