data_PCOD8128512
_publ_section_title
;
Structure prediction by ZEFSAII (Michael W. Deem and Ramdas Pophale) SiO2 
 PCOD8128512
Probable space group: P 21/C
;
_chemical_formula_sum "Si O2"
_cell_formula_units_Z 28
_cell_length_a 9.805649
_cell_length_b 18.295239
_cell_length_c 12.548961
_cell_angle_alpha 90.000000
_cell_angle_beta 35.773918
_cell_angle_gamma 90.000000
_cell_volume 1316.050022
_symmetry_space_group_name_H-M "P 21/C"
_symmetry_group_IT_number 14
_symmetry_cell_setting 'monoclinic'
loop_
_space_group_symop_operation_xyz
x,y,z
-x,1/2+y,1/2-z
-x,-y,-z
x,1/2-y,1/2+z
loop_
_atom_site_type_symbol
_atom_site_label
_atom_site_fract_x
_atom_site_fract_y
_atom_site_fract_z
Si Si1 0.175832 0.490183 0.294000
Si Si2 0.553746 0.424866 0.408510
Si Si3 0.193322 0.315459 0.733673
Si Si4 0.400162 0.524494 0.839432
Si Si5 0.694380 0.843297 0.396864
Si Si6 0.089808 0.113085 0.523949
Si Si7 0.204743 0.619278 0.129903
O O1 0.432841 0.510024 0.175919
O O2 0.174166 0.408689 0.248054
O O3 0.104177 0.546031 0.247779
O O4 0.000000 0.500000 0.500000
O O5 0.500000 0.500000 0.500000
O O6 0.423410 0.359449 0.551523
O O7 0.458767 0.441973 0.349788
O O8 0.826363 0.403319 0.228022
O O9 0.241583 0.229760 0.707085
O O10 0.002114 0.324051 0.760398
O O11 0.105901 0.339457 0.906013
O O12 0.214107 0.464141 0.921331
O O13 0.278385 0.595772 0.964856
O O14 0.775131 0.842755 0.468543
O O15 0.412921 0.848031 0.568956
#
# Coordination Sequence:
#
# PCOD8128512 Si02
#       7
#     4   4   4   4   4   4   4
#     4  11  23  41  73 102 136 187 245 289 338 431
#     4  12  25  40  75 109 134 185 243 279 350 431
#     4  12  28  46  71 106 147 186 228 299 362 421
#     4  11  20  42  70 104 134 181 235 296 340 401
#     4  11  27  47  69 101 142 189 232 287 368 413
#     4  12  24  47  71 103 146 183 232 298 349 414
#     4  11  22  48  70  98 139 186 237 288 343 418
#
# _framework density 21.275786
#
# number of rings (size 3 to 8) (size 9 to 14) (size 15 to 20)
#    0.000    0.571    5.714    3.000    4.000    3.429 
#    0.000    0.000    0.000    0.000    0.000    0.000 
#    0.000    0.000    0.000    0.000    0.000    0.000 
#
# Total GULP energy -347125.225464 kJ/mol
# GULP energy per Si atom -12397.329481 kJ/mol
# Density = 2.122736 g / cm^3
# Si number density = 21.275786 Si / 1000 Ang^3
#
#
#
# Elastic Constant Matrix: (Units=GPa)
#
#
# Indices 1 2 3 4 5 6 
#
# 1 121.0326 55.3699 45.1967 0.0000 8.1405 0.0000
# 2 55.3699 123.4426 53.5539 0.0000 -4.5689 0.0000
# 3 45.1967 53.5539 123.1671 0.0000 7.3837 0.0000
# 4 0.0000 0.0000 0.0000 25.2583 0.0000 2.2942
# 5 8.1405 -4.5689 7.3837 0.0000 35.0413 0.0000
# 6 0.0000 0.0000 0.0000 2.2942 0.0000 27.0906
#
#
#
# Elastic Compliance Matrix: (Units=1/GPa)
#
#
# Indices 1 2 3 4 5 6 
#
# 1 0.011145 -0.004183 -0.002109 0.000000 -0.002690 0.000000
# 2 -0.004183 0.011732 -0.003764 0.000000 0.003295 0.000000
# 3 -0.002109 -0.003764 0.010664 0.000000 -0.002248 0.000000
# 4 0.000000 0.000000 0.000000 0.039898 0.000000 -0.003379
# 5 -0.002690 0.003295 -0.002248 0.000000 0.030066 0.000000
# 6 0.000000 0.000000 0.000000 -0.003379 0.000000 0.037199
#
#
# Mechanical properties :
#
#
# Convention : Reuss Voigt Hill
#
# Bulk Modulus (GPa) = 74.46908 75.09813 74.78361
# Shear Modulus (GPa) = 30.24936 31.71284 30.98110
#
# Velocity S-wave (km/s) = 3.77473 3.86497 3.82012
# Velocity P-wave (km/s) = 7.35363 7.43582 7.39484
#
# Compressibility (1/GPa) = 0.01342839
#
# Stress axis : x y z
#
# Youngs Moduli (GPa) = 89.72915 85.23631 93.77091
#
# Poissons Ratio (x) = 0.35657 0.19780
# Poissons Ratio (y) = 0.37537 0.35292
# Poissons Ratio (z) = 0.18927 0.32080
#
# Static dielectric constant tensor:
#      x y z
#    x 4.361490 0.000000 -0.066980 
#    y 0.000000 3.692840 0.000000 
#    z -0.066980 0.000000 3.588370 
# 
# 
# High freq. dielectric constant tensor:
#      x y z
#    x 1.852910 0.000000 0.004660 
#    y 0.000000 1.821270 0.000000 
#    z 0.004660 0.000000 1.839120 
# 
# From -- ./inp_files/26727.got.cif
#   From: 2010.03.12/outbox.cif.g09.slc.cpg/sg14_14_cif.got.tgz:26727.got - 2010.03.31 13:35:05.
