data_PCOD8128285
_publ_section_title
;
Structure prediction by ZEFSAII (Michael W. Deem and Ramdas Pophale) SiO2 
 PCOD8128285
Probable space group: P 21/C
;
_chemical_formula_sum "Si O2"
_cell_formula_units_Z 16
_cell_length_a 7.235918
_cell_length_b 17.320346
_cell_length_c 5.589221
_cell_angle_alpha 90.000000
_cell_angle_beta 123.170629
_cell_angle_gamma 90.000000
_cell_volume 586.340961
_symmetry_space_group_name_H-M "P 21/C"
_symmetry_group_IT_number 14
_symmetry_cell_setting 'monoclinic'
loop_
_space_group_symop_operation_xyz
x,y,z
-x,1/2+y,1/2-z
-x,-y,-z
x,1/2-y,1/2+z
loop_
_atom_site_type_symbol
_atom_site_label
_atom_site_fract_x
_atom_site_fract_y
_atom_site_fract_z
Si Si1 0.336256 0.454155 0.217099
Si Si2 0.407893 0.217115 0.624317
Si Si3 0.068460 0.939885 0.237222
Si Si4 0.904973 0.223177 0.966306
O O1 0.500000 0.500000 0.500000
O O2 0.428130 0.375932 0.160714
O O3 0.114406 0.425403 0.190900
O O4 0.290101 0.523089 0.999245
O O5 0.295489 0.241818 0.283391
O O6 0.653884 0.255132 0.808580
O O7 0.116190 0.864105 0.124166
O O8 0.000000 0.000000 0.000000
O O9 0.016202 0.270051 0.816447
#
# Coordination Sequence:
#
# PCOD8128285 Si02
#       4
#     4   4   4   4
#     4  11  27  46  74 105 145 191 240 300 357 430
#     4  10  24  44  71 107 141 188 241 293 361 429
#     4  11  27  46  72 107 143 191 243 294 363 427
#     4  10  24  44  73 104 145 188 236 300 357 426
#
# _framework density 27.287876000000001
#
# number of rings (size 3 to 8) (size 9 to 14) (size 15 to 20)
#    0.000    1.500    0.000    1.500   21.000    4.000 
#    0.000    0.000    0.000    0.000    0.000    0.000 
#    0.000    0.000    0.000    0.000    0.000    0.000 
#
# Total GULP energy -198318.482079 kJ/mol
# GULP energy per Si atom -12394.905130 kJ/mol
# Density = 2.722577 g / cm^3
# Si number density = 27.287876 Si / 1000 Ang^3
#
#
#
# Elastic Constant Matrix: (Units=GPa)
#
#
# Indices 1 2 3 4 5 6 
#
# 1 80.5353 20.7027 35.0450 0.0000 -28.6965 0.0000
# 2 20.7027 201.7206 103.3131 0.0000 -17.6363 0.0000
# 3 35.0450 103.3131 286.6866 0.0000 -7.3799 0.0000
# 4 0.0000 0.0000 0.0000 63.1728 0.0000 -15.7900
# 5 -28.6965 -17.6363 -7.3799 0.0000 30.2999 0.0000
# 6 0.0000 0.0000 0.0000 -15.7900 0.0000 39.3270
#
#
#
# Elastic Compliance Matrix: (Units=1/GPa)
#
#
# Indices 1 2 3 4 5 6 
#
# 1 0.019848 0.000727 -0.002207 0.000000 0.018683 0.000000
# 2 0.000727 0.006394 -0.002294 0.000000 0.003852 0.000000
# 3 -0.002207 -0.002294 0.004525 0.000000 -0.002324 0.000000
# 4 0.000000 0.000000 0.000000 0.017595 0.000000 0.007065
# 5 0.018683 0.003852 -0.002324 0.000000 0.052373 0.000000
# 6 0.000000 0.000000 0.000000 0.007065 0.000000 0.028264
#
#
# Mechanical properties :
#
#
# Convention : Reuss Voigt Hill
#
# Bulk Modulus (GPa) = 43.06983 98.56268 70.81626
# Shear Modulus (GPa) = 34.65288 53.88540 44.26914
#
# Velocity S-wave (km/s) = 3.56743 4.44858 4.03215
# Velocity P-wave (km/s) = 5.72595 7.91104 6.90547
#
# Compressibility (1/GPa) = 0.02321811
#
# Stress axis : x y z
#
# Youngs Moduli (GPa) = 50.38389 156.38638 221.00244
#
# Poissons Ratio (x) = -0.11368 0.48780
# Poissons Ratio (y) = -0.03662 0.50699
# Poissons Ratio (z) = 0.11121 0.35876
#
# Static dielectric constant tensor:
#      x y z
#    x 5.498400 0.000000 -0.205420 
#    y 0.000000 4.492610 0.000000 
#    z -0.205420 0.000000 5.559300 
# 
# 
# High freq. dielectric constant tensor:
#      x y z
#    x 2.149610 0.000000 -0.000320 
#    y 0.000000 2.085930 0.000000 
#    z -0.000320 0.000000 2.135920 
# 
# From -- ./inp_files/917.got.cif
#   From: 2010.03.12/outbox.cif.g09.slc.cpg/sg14_1_cif.got.tgz:917.got - 2010.03.31 13:35:05.
