data_PCOD8128246
_publ_section_title
;
Structure prediction by ZEFSAII (Michael W. Deem and Ramdas Pophale) SiO2 
 PCOD8128246
Probable space group: P 21/C
;
_chemical_formula_sum "Si O2"
_cell_formula_units_Z 28
_cell_length_a 11.781414
_cell_length_b 9.421103
_cell_length_c 22.058790
_cell_angle_alpha 90.000000
_cell_angle_beta 148.098533
_cell_angle_gamma 90.000000
_cell_volume 1293.877125
_symmetry_space_group_name_H-M "P 21/C"
_symmetry_group_IT_number 14
_symmetry_cell_setting 'monoclinic'
loop_
_space_group_symop_operation_xyz
x,y,z
-x,1/2+y,1/2-z
-x,-y,-z
x,1/2-y,1/2+z
loop_
_atom_site_type_symbol
_atom_site_label
_atom_site_fract_x
_atom_site_fract_y
_atom_site_fract_z
Si Si1 0.775731 0.970610 0.303271
Si Si2 0.126327 0.765653 0.486820
Si Si3 0.396974 0.638161 0.386201
Si Si4 0.794877 0.457339 0.577994
Si Si5 0.052032 0.278645 0.970437
Si Si6 0.805283 0.397608 0.266684
Si Si7 0.412245 0.024433 0.659320
O O1 0.580095 0.958470 0.263397
O O2 0.919378 0.830707 0.357423
O O3 0.705657 0.025311 0.206430
O O4 0.926904 0.073951 0.410121
O O5 0.228930 0.641451 0.492469
O O6 0.029063 0.701094 0.504995
O O7 0.309166 0.881966 0.584563
O O8 0.649109 0.599923 0.504070
O O9 0.287342 0.628791 0.401720
O O10 0.348777 0.798544 0.343464
O O11 0.046832 0.494894 0.705151
O O12 0.997662 0.183923 0.888309
O O13 0.301004 0.327901 0.085268
O O14 0.657248 0.478568 0.247707
#
# Coordination Sequence:
#
# PCOD8128246 Si02
#       7
#     4   4   4   4   4   4   4
#     4   8  17  37  65  82 121 164 184 237 304 347
#     4   9  19  37  60  93 121 149 198 242 293 354
#     4  10  24  44  58  81 127 160 194 248 299 341
#     4  11  25  40  60  89 117 159 204 246 286 351
#     4   8  17  36  59  89 124 150 184 248 298 344
#     4  11  22  39  62  89 116 156 202 238 298 365
#     4   9  18  37  62  93 119 153 195 239 305 351
#
# _framework density 21.640385999999999
#
# number of rings (size 3 to 8) (size 9 to 14) (size 15 to 20)
#    0.000    2.571    0.000    2.571    4.000    1.714 
#   15.429    0.714    0.000    0.000    0.000    0.000 
#    0.000    0.000    0.000    0.000    0.000    0.000 
#
# Total GULP energy -346910.494183 kJ/mol
# GULP energy per Si atom -12389.660507 kJ/mol
# Density = 2.159113 g / cm^3
# Si number density = 21.640386 Si / 1000 Ang^3
#
#
#
# Elastic Constant Matrix: (Units=GPa)
#
#
# Indices 1 2 3 4 5 6 
#
# 1 123.6925 31.0763 38.8798 0.0000 20.2578 0.0000
# 2 31.0763 55.8770 9.4684 0.0000 9.6996 0.0000
# 3 38.8798 9.4684 48.9525 0.0000 8.9751 0.0000
# 4 0.0000 0.0000 0.0000 20.4714 0.0000 -2.9967
# 5 20.2578 9.6996 8.9751 0.0000 39.0106 0.0000
# 6 0.0000 0.0000 0.0000 -2.9967 0.0000 20.6348
#
#
#
# Elastic Compliance Matrix: (Units=1/GPa)
#
#
# Indices 1 2 3 4 5 6 
#
# 1 0.012505 -0.004959 -0.008361 0.000000 -0.003337 0.000000
# 2 -0.004959 0.021069 0.000367 0.000000 -0.002748 0.000000
# 3 -0.008361 0.000367 0.027373 0.000000 -0.002047 0.000000
# 4 0.000000 0.000000 0.000000 0.049910 0.000000 0.007248
# 5 -0.003337 -0.002748 -0.002047 0.000000 0.028521 0.000000
# 6 0.000000 0.000000 0.000000 0.007248 0.000000 0.049515
#
#
# Mechanical properties :
#
#
# Convention : Reuss Voigt Hill
#
# Bulk Modulus (GPa) = 28.53743 43.04123 35.78933
# Shear Modulus (GPa) = 22.07718 25.96319 24.02019
#
# Velocity S-wave (km/s) = 3.19750 3.46751 3.33524
# Velocity P-wave (km/s) = 5.18148 5.99700 5.60409
#
# Compressibility (1/GPa) = 0.03504170
#
# Stress axis : x y z
#
# Youngs Moduli (GPa) = 79.96828 47.46296 36.53257
#
# Poissons Ratio (x) = 0.23535 0.30545
# Poissons Ratio (y) = 0.39653 -0.01341
# Poissons Ratio (z) = 0.66861 -0.01742
#
# Static dielectric constant tensor:
#      x y z
#    x 3.828610 0.000000 0.102840 
#    y 0.000000 3.725310 0.000000 
#    z 0.102840 0.000000 3.735930 
# 
# 
# High freq. dielectric constant tensor:
#      x y z
#    x 1.853070 0.000000 0.012790 
#    y 0.000000 1.830210 0.000000 
#    z 0.012790 0.000000 1.839240 
# 
# From -- ./inp_files/73252.got.cif
#   From: 2010.03.12/outbox.cif.g09.slc.cpg/sg14_37_cif.got.tgz:73252.got - 2010.03.31 13:35:05.
