data_PCOD8128620
_publ_section_title
;
Structure prediction by ZEFSAII (Michael W. Deem and Ramdas Pophale) SiO2 
 PCOD8128620
Probable space group: P 21/C
;
_chemical_formula_sum "Si O2"
_cell_formula_units_Z 24
_cell_length_a 11.531618
_cell_length_b 12.441499
_cell_length_c 14.109572
_cell_angle_alpha 90.000000
_cell_angle_beta 149.374744
_cell_angle_gamma 90.000000
_cell_volume 1031.225050
_symmetry_space_group_name_H-M "P 21/C"
_symmetry_group_IT_number 14
_symmetry_cell_setting 'monoclinic'
loop_
_space_group_symop_operation_xyz
x,y,z
-x,1/2+y,1/2-z
-x,-y,-z
x,1/2-y,1/2+z
loop_
_atom_site_type_symbol
_atom_site_label
_atom_site_fract_x
_atom_site_fract_y
_atom_site_fract_z
Si Si1 0.235828 0.851849 0.577317
Si Si2 0.182186 0.561110 0.838023
Si Si3 0.600515 0.660545 0.034487
Si Si4 0.571737 0.136055 0.789181
Si Si5 0.222683 0.292028 0.180175
Si Si6 0.721169 0.593286 0.417919
O O1 0.213299 0.932245 0.472823
O O2 0.245624 0.726539 0.551286
O O3 0.477288 0.881743 0.796890
O O4 0.018056 0.855821 0.493435
O O5 0.233646 0.441787 0.836874
O O6 0.923060 0.594637 0.635280
O O7 0.353757 0.642952 0.908104
O O8 0.712568 0.764061 0.165121
O O9 0.565796 0.681562 0.898724
O O10 0.395513 0.124055 0.752825
O O11 0.701058 0.025432 0.856465
O O12 0.226019 0.178208 0.127564
#
# Coordination Sequence:
#
# PCOD8128620 Si02
#       6
#     4   4   4   4   4   4
#     4  11  24  44  65 106 141 172 239 283 338 417
#     4  11  22  42  74 101 134 180 233 286 342 409
#     4  11  21  43  73 100 134 183 233 283 342 409
#     4  11  23  44  70 103 140 179 233 286 343 410
#     4  11  25  43  72 103 139 181 232 288 338 417
#     4  11  23  46  68 103 141 183 224 285 351 403
#
# _framework density 23.273289999999999
#
# number of rings (size 3 to 8) (size 9 to 14) (size 15 to 20)
#    0.000    1.000    5.000    3.000    4.667    2.667 
#    0.000    0.833    0.000    0.000    0.000    0.000 
#    0.000    0.000    0.000    0.000    0.000    0.000 
#
# Total GULP energy -297520.295558 kJ/mol
# GULP energy per Si atom -12396.678982 kJ/mol
# Density = 2.322032 g / cm^3
# Si number density = 23.273290 Si / 1000 Ang^3
#
#
#
# Elastic Constant Matrix: (Units=GPa)
#
#
# Indices 1 2 3 4 5 6 
#
# 1 91.2969 10.0489 30.0491 0.0000 16.1522 0.0000
# 2 10.0489 51.6390 17.4314 0.0000 -4.6539 0.0000
# 3 30.0491 17.4314 127.1234 0.0000 14.4512 0.0000
# 4 0.0000 0.0000 0.0000 30.0987 0.0000 -3.8338
# 5 16.1522 -4.6539 14.4512 0.0000 30.4441 0.0000
# 6 0.0000 0.0000 0.0000 -3.8338 0.0000 35.4750
#
#
#
# Elastic Compliance Matrix: (Units=1/GPa)
#
#
# Indices 1 2 3 4 5 6 
#
# 1 0.013001 -0.002415 -0.002025 0.000000 -0.006306 0.000000
# 2 -0.002415 0.021404 -0.003046 0.000000 0.005999 0.000000
# 3 -0.002025 -0.003046 0.009189 0.000000 -0.003753 0.000000
# 4 0.000000 0.000000 0.000000 0.033688 0.000000 0.003641
# 5 -0.006306 0.005999 -0.003753 0.000000 0.038891 0.000000
# 6 0.000000 0.000000 0.000000 0.003641 0.000000 0.028582
#
#
# Mechanical properties :
#
#
# Convention : Reuss Voigt Hill
#
# Bulk Modulus (GPa) = 34.93751 42.79088 38.86420
# Shear Modulus (GPa) = 29.53879 33.37222 31.45551
#
# Velocity S-wave (km/s) = 3.56647 3.79083 3.68036
# Velocity P-wave (km/s) = 5.65721 6.13080 5.89876
#
# Compressibility (1/GPa) = 0.02862253
#
# Stress axis : x y z
#
# Youngs Moduli (GPa) = 76.91586 46.72020 108.82041
#
# Poissons Ratio (x) = 0.11281 0.22039
# Poissons Ratio (y) = 0.18573 0.33148
# Poissons Ratio (z) = 0.15578 0.14232
#
# Static dielectric constant tensor:
#      x y z
#    x 3.969180 0.000000 0.211270 
#    y 0.000000 4.187450 0.000000 
#    z 0.211270 0.000000 4.235260 
# 
# 
# High freq. dielectric constant tensor:
#      x y z
#    x 1.903100 0.000000 0.016460 
#    y 0.000000 1.915990 0.000000 
#    z 0.016460 0.000000 1.918320 
# 
# From -- ./inp_files/45156.got.cif
#   From: 2010.03.12/outbox.cif.g09.slc.cpg/sg14_23_cif.got.tgz:45156.got - 2010.03.31 13:35:05.
