data_PCOD8128922
_publ_section_title
;
Structure prediction by ZEFSAII (Michael W. Deem and Ramdas Pophale) SiO2 
 PCOD8128922
Probable space group: P 21/C
;
_chemical_formula_sum "Si O2"
_cell_formula_units_Z 24
_cell_length_a 28.323001
_cell_length_b 9.316896
_cell_length_c 8.946114
_cell_angle_alpha 90.000000
_cell_angle_beta 151.030992
_cell_angle_gamma 90.000000
_cell_volume 1143.383982
_symmetry_space_group_name_H-M "P 21/C"
_symmetry_group_IT_number 14
_symmetry_cell_setting 'monoclinic'
loop_
_space_group_symop_operation_xyz
x,y,z
-x,1/2+y,1/2-z
-x,-y,-z
x,1/2-y,1/2+z
loop_
_atom_site_type_symbol
_atom_site_label
_atom_site_fract_x
_atom_site_fract_y
_atom_site_fract_z
Si Si1 0.585721 0.408632 0.166118
Si Si2 0.947034 0.595053 0.238198
Si Si3 0.273008 0.116404 0.793123
Si Si4 0.414682 0.903353 0.695432
Si Si5 0.261765 0.407195 0.915241
Si Si6 0.969530 0.584632 0.773632
O O1 0.685320 0.484408 0.495462
O O2 0.575124 0.254020 0.209675
O O3 0.500000 0.500000 0.000000
O O4 0.580542 0.401541 0.971828
O O5 0.999390 0.748656 0.361035
O O6 0.000000 0.500000 0.500000
O O7 0.952154 0.497297 0.109196
O O8 0.841183 0.621824 0.005540
O O9 0.306576 0.268601 0.954321
O O10 0.298971 0.102650 0.689837
O O11 0.310041 0.959159 0.463856
O O12 0.500000 0.000000 0.000000
O O13 0.144786 0.428110 0.586561
O O14 0.000000 0.500000 0.000000
#
# Coordination Sequence:
#
# PCOD8128922 Si02
#       6
#     4   4   4   4   4   4
#     4  12  26  46  71 101 134 174 219 274 333 399
#     4  11  23  44  64  97 134 180 228 282 341 405
#     4  11  24  43  69  95 136 176 225 274 335 400
#     4  12  26  46  71 100 136 172 221 272 335 399
#     4  11  24  44  67  98 132 179 223 275 336 399
#     4  11  25  40  68  95 136 180 230 282 344 404
#
# _framework density 20.990324000000001
#
# number of rings (size 3 to 8) (size 9 to 14) (size 15 to 20)
#    0.000    0.667    1.667    6.000    9.333    2.667 
#    0.000    0.000    0.000    0.000    0.000    0.000 
#    0.000    0.000    0.000    0.000    0.000    0.000 
#
# Total GULP energy -297407.223507 kJ/mol
# GULP energy per Si atom -12391.967646 kJ/mol
# Density = 2.094255 g / cm^3
# Si number density = 20.990324 Si / 1000 Ang^3
#
#
#
# Elastic Constant Matrix: (Units=GPa)
#
#
# Indices 1 2 3 4 5 6 
#
# 1 154.5466 64.6335 30.8758 0.0000 -43.1144 0.0000
# 2 64.6335 191.4021 46.5426 0.0000 -15.5741 0.0000
# 3 30.8758 46.5426 75.0415 0.0000 -35.2680 0.0000
# 4 0.0000 0.0000 0.0000 41.6768 0.0000 -3.9997
# 5 -43.1144 -15.5741 -35.2680 0.0000 48.0068 0.0000
# 6 0.0000 0.0000 0.0000 -3.9997 0.0000 44.3535
#
#
#
# Elastic Compliance Matrix: (Units=1/GPa)
#
#
# Indices 1 2 3 4 5 6 
#
# 1 0.010045 -0.003190 0.002442 0.000000 0.009781 0.000000
# 2 -0.003190 0.007214 -0.005206 0.000000 -0.004349 0.000000
# 3 0.002442 -0.005206 0.024112 0.000000 0.018218 0.000000
# 4 0.000000 0.000000 0.000000 0.024204 0.000000 0.002183
# 5 0.009781 -0.004349 0.018218 0.000000 0.041588 0.000000
# 6 0.000000 0.000000 0.000000 0.002183 0.000000 0.022743
#
#
# Mechanical properties :
#
#
# Convention : Reuss Voigt Hill
#
# Bulk Modulus (GPa) = 33.93937 78.34378 56.14157
# Shear Modulus (GPa) = 32.97417 45.40331 39.18874
#
# Velocity S-wave (km/s) = 3.96779 4.65592 4.32556
# Velocity P-wave (km/s) = 6.09879 8.14298 7.19387
#
# Compressibility (1/GPa) = 0.02946431
#
# Stress axis : x y z
#
# Youngs Moduli (GPa) = 99.54779 138.62259 41.47320
#
# Poissons Ratio (x) = 0.44224 -0.10129
# Poissons Ratio (y) = 0.31758 0.21589
# Poissons Ratio (z) = -0.24313 0.72161
#
# Static dielectric constant tensor:
#      x y z
#    x 3.887280 0.000000 -0.188560 
#    y 0.000000 3.975320 0.000000 
#    z -0.188560 0.000000 3.894910 
# 
# 
# High freq. dielectric constant tensor:
#      x y z
#    x 1.844040 0.000000 -0.010900 
#    y 0.000000 1.840760 0.000000 
#    z -0.010900 0.000000 1.827240 
# 
# From -- ./inp_files/19967.got.cif
#   From: 2010.03.12/outbox.cif.g09.slc.cpg/sg14_10_cif.got.tgz:19967.got - 2010.03.31 13:35:05.
