data_PCOD8128537
_publ_section_title
;
Structure prediction by ZEFSAII (Michael W. Deem and Ramdas Pophale) SiO2 
 PCOD8128537
Probable space group: P 21/C
;
_chemical_formula_sum "Si O2"
_cell_formula_units_Z 24
_cell_length_a 8.780871
_cell_length_b 14.421215
_cell_length_c 9.659550
_cell_angle_alpha 90.000000
_cell_angle_beta 88.669819
_cell_angle_gamma 90.000000
_cell_volume 1222.867193
_symmetry_space_group_name_H-M "P 21/C"
_symmetry_group_IT_number 14
_symmetry_cell_setting 'monoclinic'
loop_
_space_group_symop_operation_xyz
x,y,z
-x,1/2+y,1/2-z
-x,-y,-z
x,1/2-y,1/2+z
loop_
_atom_site_type_symbol
_atom_site_label
_atom_site_fract_x
_atom_site_fract_y
_atom_site_fract_z
Si Si1 0.657846 0.813144 0.533544
Si Si2 0.140182 0.688625 0.291697
Si Si3 0.838892 0.703788 0.755293
Si Si4 0.319146 0.704944 0.008228
Si Si5 0.766737 0.008217 0.568369
Si Si6 0.941552 0.507921 0.778438
O O1 0.777031 0.758346 0.625229
O O2 0.709044 0.802088 0.374187
O O3 0.489474 0.770627 0.554119
O O4 0.652986 0.920733 0.582355
O O5 0.264899 0.717441 0.401634
O O6 0.105413 0.579746 0.313893
O O7 0.986735 0.746821 0.316787
O O8 0.202782 0.706528 0.137162
O O9 0.887754 0.601299 0.702541
O O10 0.325435 0.604456 0.933346
O O11 0.876537 0.008970 0.700343
O O12 0.864147 0.995538 0.428988
#
# Coordination Sequence:
#
# PCOD8128537 Si02
#       6
#     4   4   4   4   4   4
#     4  11  22  37  58  87 116 145 183 234 285 329
#     4  11  21  38  60  83 112 150 191 228 274 333
#     4  11  21  38  60  83 112 150 191 228 274 333
#     4  11  22  37  58  87 116 145 183 234 285 329
#     4   9  17  34  59  82 107 145 192 230 268 325
#     4   9  18  34  57  83 108 144 192 232 265 327
#
# _framework density 19.626007000000001
#
# number of rings (size 3 to 8) (size 9 to 14) (size 15 to 20)
#    0.000    1.667    3.333    2.500    0.000    0.000 
#    0.000    5.833    0.000    0.000    0.000    0.000 
#    0.000    0.000    0.000    0.000    0.000    0.000 
#
# Total GULP energy -297662.961642 kJ/mol
# GULP energy per Si atom -12402.623402 kJ/mol
# Density = 1.958134 g / cm^3
# Si number density = 19.626007 Si / 1000 Ang^3
#
#
#
# Elastic Constant Matrix: (Units=GPa)
#
#
# Indices 1 2 3 4 5 6 
#
# 1 83.2859 2.6996 -1.2508 0.0000 9.9690 0.0000
# 2 2.6996 70.2850 2.9855 0.0000 -6.8966 0.0000
# 3 -1.2508 2.9855 36.5358 0.0000 5.0763 0.0000
# 4 0.0000 0.0000 0.0000 27.2677 0.0000 6.3198
# 5 9.9690 -6.8966 5.0763 0.0000 22.6976 0.0000
# 6 0.0000 0.0000 0.0000 6.3198 0.0000 28.9545
#
#
#
# Elastic Compliance Matrix: (Units=1/GPa)
#
#
# Indices 1 2 3 4 5 6 
#
# 1 0.012820 -0.001171 0.001410 0.000000 -0.006302 0.000000
# 2 -0.001171 0.014898 -0.002021 0.000000 0.005493 0.000000
# 3 0.001410 -0.002021 0.028645 0.000000 -0.007640 0.000000
# 4 0.000000 0.000000 0.000000 0.038627 0.000000 -0.008431
# 5 -0.006302 0.005493 -0.007640 0.000000 0.050203 0.000000
# 6 0.000000 0.000000 0.000000 -0.008431 0.000000 0.036377
#
#
# Mechanical properties :
#
#
# Convention : Reuss Voigt Hill
#
# Bulk Modulus (GPa) = 18.93908 22.10837 20.52372
# Shear Modulus (GPa) = 24.66295 28.16212 26.41253
#
# Velocity S-wave (km/s) = 3.54877 3.79217 3.67248
# Velocity P-wave (km/s) = 5.14418 5.51936 5.33507
#
# Compressibility (1/GPa) = 0.05280089
#
# Stress axis : x y z
#
# Youngs Moduli (GPa) = 78.00144 67.12520 34.90973
#
# Poissons Ratio (x) = 0.07858 -0.04923
# Poissons Ratio (y) = 0.09131 0.07054
# Poissons Ratio (z) = -0.10999 0.13563
#
# Static dielectric constant tensor:
#      x y z
#    x 3.444580 0.000000 0.087550 
#    y 0.000000 3.855130 0.000000 
#    z 0.087550 0.000000 3.199620 
# 
# 
# High freq. dielectric constant tensor:
#      x y z
#    x 1.764680 0.000000 0.011280 
#    y 0.000000 1.774060 0.000000 
#    z 0.011280 0.000000 1.734750 
# 
# From -- ./inp_files/8408.got.cif
#   From: 2010.03.12/outbox.cif.g09.slc.cpg/sg14_5_cif.got.tgz:8408.got - 2010.03.31 13:35:05.
