data_PCOD8128908
_publ_section_title
;
Structure prediction by ZEFSAII (Michael W. Deem and Ramdas Pophale) SiO2 
 PCOD8128908
Probable space group: P 21/C
;
_chemical_formula_sum "Si O2"
_cell_formula_units_Z 32
_cell_length_a 8.863922
_cell_length_b 10.945611
_cell_length_c 15.385987
_cell_angle_alpha 90.000000
_cell_angle_beta 110.996129
_cell_angle_gamma 90.000000
_cell_volume 1393.651852
_symmetry_space_group_name_H-M "P 21/C"
_symmetry_group_IT_number 14
_symmetry_cell_setting 'monoclinic'
loop_
_space_group_symop_operation_xyz
x,y,z
-x,1/2+y,1/2-z
-x,-y,-z
x,1/2-y,1/2+z
loop_
_atom_site_type_symbol
_atom_site_label
_atom_site_fract_x
_atom_site_fract_y
_atom_site_fract_z
Si Si1 0.304189 0.697484 0.832836
Si Si2 0.798154 0.761161 0.804507
Si Si3 0.459557 0.087506 0.070514
Si Si4 0.449886 0.473981 0.759338
Si Si5 0.881515 0.497383 0.098154
Si Si6 0.242393 0.462548 0.106076
Si Si7 0.087462 0.128180 0.005993
Si Si8 0.991374 0.736146 0.185092
O O1 0.429240 0.790326 0.904584
O O2 0.390351 0.599697 0.789203
O O3 0.198370 0.625121 0.882394
O O4 0.179036 0.775936 0.749277
O O5 0.677205 0.866802 0.748637
O O6 0.691827 0.660735 0.833639
O O7 0.891370 0.696705 0.742173
O O8 0.931235 0.807075 0.903676
O O9 0.477969 0.009494 0.162398
O O10 0.274442 0.123165 0.020181
O O11 0.500000 0.000000 0.000000
O O12 0.622972 0.437005 0.838670
O O13 0.901779 0.605077 0.172014
O O14 0.061854 0.482196 0.100591
O O15 0.761598 0.546996 0.998507
O O16 0.008297 0.201938 0.909746
O O17 0.000000 0.000000 0.000000
#
# Coordination Sequence:
#
# PCOD8128908 Si02
#       8
#     4   4   4   4   4   4   4   4
#     4  12  26  47  75 112 149 198 260 303 390 459
#     4  11  23  43  71 105 143 192 244 309 372 449
#     4  11  28  49  70 111 151 194 248 312 381 450
#     4  11  24  47  72 104 147 194 247 317 377 446
#     4  11  25  44  71 107 140 199 247 306 376 454
#     4  11  24  45  68 102 149 184 245 307 375 442
#     4  11  26  46  74 104 143 197 254 305 379 457
#     4  12  24  43  75 103 143 198 244 314 366 452
#
# _framework density 22.961258000000001
#
# number of rings (size 3 to 8) (size 9 to 14) (size 15 to 20)
#    0.000    0.750    3.750    3.750    3.500    1.500 
#    6.750    0.000    0.000    0.000    0.000    0.000 
#    0.000    0.000    0.000    0.000    0.000    0.000 
#
# Total GULP energy -396490.972945 kJ/mol
# GULP energy per Si atom -12390.342905 kJ/mol
# Density = 2.290900 g / cm^3
# Si number density = 22.961258 Si / 1000 Ang^3
#
#
#
# Elastic Constant Matrix: (Units=GPa)
#
#
# Indices 1 2 3 4 5 6 
#
# 1 114.6076 42.2078 58.9961 0.0000 13.1036 0.0000
# 2 42.2078 99.4775 52.2262 0.0000 7.0995 0.0000
# 3 58.9961 52.2262 97.7890 0.0000 10.1799 0.0000
# 4 0.0000 0.0000 0.0000 44.4622 0.0000 -0.1676
# 5 13.1036 7.0995 10.1799 0.0000 35.8480 0.0000
# 6 0.0000 0.0000 0.0000 -0.1676 0.0000 29.8599
#
#
#
# Elastic Compliance Matrix: (Units=1/GPa)
#
#
# Indices 1 2 3 4 5 6 
#
# 1 0.013137 -0.001905 -0.006644 0.000000 -0.002538 0.000000
# 2 -0.001905 0.014261 -0.006436 0.000000 -0.000300 0.000000
# 3 -0.006644 -0.006436 0.017813 0.000000 -0.001355 0.000000
# 4 0.000000 0.000000 0.000000 0.022491 0.000000 0.000126
# 5 -0.002538 -0.000300 -0.001355 0.000000 0.029268 0.000000
# 6 0.000000 0.000000 0.000000 0.000126 0.000000 0.033490
#
#
# Mechanical properties :
#
#
# Convention : Reuss Voigt Hill
#
# Bulk Modulus (GPa) = 65.61108 68.74825 67.17967
# Shear Modulus (GPa) = 30.20940 32.59696 31.40318
#
# Velocity S-wave (km/s) = 3.63115 3.77191 3.70220
# Velocity P-wave (km/s) = 6.79831 6.99827 6.89901
#
# Compressibility (1/GPa) = 0.01524133
#
# Stress axis : x y z
#
# Youngs Moduli (GPa) = 76.11901 70.12091 56.13887
#
# Poissons Ratio (x) = 0.13356 0.37300
# Poissons Ratio (y) = 0.14498 0.36131
# Poissons Ratio (z) = 0.50576 0.45130
#
# Static dielectric constant tensor:
#      x y z
#    x 4.181550 0.000000 0.083940 
#    y 0.000000 4.381390 0.000000 
#    z 0.083940 0.000000 4.654170 
# 
# 
# High freq. dielectric constant tensor:
#      x y z
#    x 1.920020 0.000000 0.003200 
#    y 0.000000 1.899100 0.000000 
#    z 0.003200 0.000000 1.920730 
# 
# From -- ./inp_files/40381.got.cif
#   From: 2010.03.12/outbox.cif.g09.slc.cpg/sg14_21_cif.got.tgz:40381.got - 2010.03.31 13:35:05.
