data_PCOD8128815
_publ_section_title
;
Structure prediction by ZEFSAII (Michael W. Deem and Ramdas Pophale) SiO2 
 PCOD8128815
Probable space group: P 21/C
;
_chemical_formula_sum "Si O2"
_cell_formula_units_Z 24
_cell_length_a 24.754597
_cell_length_b 5.196802
_cell_length_c 8.836788
_cell_angle_alpha 90.000000
_cell_angle_beta 112.194847
_cell_angle_gamma 90.000000
_cell_volume 1052.574129
_symmetry_space_group_name_H-M "P 21/C"
_symmetry_group_IT_number 14
_symmetry_cell_setting 'monoclinic'
loop_
_space_group_symop_operation_xyz
x,y,z
-x,1/2+y,1/2-z
-x,-y,-z
x,1/2-y,1/2+z
loop_
_atom_site_type_symbol
_atom_site_label
_atom_site_fract_x
_atom_site_fract_y
_atom_site_fract_z
Si Si1 0.973848 0.720029 0.072959
Si Si2 0.917478 0.466576 0.257855
Si Si3 0.213643 0.550785 0.823161
Si Si4 0.432780 0.982293 0.888453
Si Si5 0.610347 0.527008 0.324411
Si Si6 0.255310 0.035519 0.034558
O O1 0.917439 0.666383 0.119786
O O2 0.944785 0.944130 0.944759
O O3 0.030795 0.772661 0.240886
O O4 0.000000 0.500000 0.000000
O O5 0.852732 0.361523 0.213744
O O6 0.220125 0.513172 0.651213
O O7 0.230819 0.289449 0.927145
O O8 0.252041 0.789545 0.920412
O O9 0.421785 0.216138 0.762915
O O10 0.417813 0.717698 0.787933
O O11 0.500000 0.000000 0.000000
O O12 0.394565 0.001889 0.999909
O O13 0.677417 0.566205 0.350455
#
# Coordination Sequence:
#
# PCOD8128815 Si02
#       6
#     4   4   4   4   4   4
#     4  11  23  40  61  88 121 155 204 245 340 380
#     4  11  25  40  65  90 122 164 202 273 312 408
#     4  12  27  44  72  96 137 168 236 271 337 388
#     4  12  24  42  69 104 137 180 224 277 331 394
#     4  12  24  44  69  96 143 177 227 274 334 391
#     4  12  26  47  68 102 130 186 221 280 328 397
#
# _framework density 22.801244000000001
#
# number of rings (size 3 to 8) (size 9 to 14) (size 15 to 20)
#    0.000    0.333    1.667    7.500    4.667    0.000 
#    0.000    0.000    0.000    0.000    0.000    0.000 
#    0.000    0.000    0.000    0.000    0.000    0.000 
#
# Total GULP energy -297464.349467 kJ/mol
# GULP energy per Si atom -12394.347894 kJ/mol
# Density = 2.274935 g / cm^3
# Si number density = 22.801244 Si / 1000 Ang^3
#
#
#
# Elastic Constant Matrix: (Units=GPa)
#
#
# Indices 1 2 3 4 5 6 
#
# 1 97.1314 0.4242 4.8446 0.0000 7.7049 0.0000
# 2 0.4242 106.5834 22.0138 0.0000 12.1739 0.0000
# 3 4.8446 22.0138 79.3110 0.0000 -2.6841 0.0000
# 4 0.0000 0.0000 0.0000 28.3016 0.0000 8.2029
# 5 7.7049 12.1739 -2.6841 0.0000 43.5479 0.0000
# 6 0.0000 0.0000 0.0000 8.2029 0.0000 28.3577
#
#
#
# Elastic Compliance Matrix: (Units=1/GPa)
#
#
# Indices 1 2 3 4 5 6 
#
# 1 0.010493 0.000354 -0.000807 0.000000 -0.002005 0.000000
# 2 0.000354 0.010360 -0.003004 0.000000 -0.003144 0.000000
# 3 -0.000807 -0.003004 0.013553 0.000000 0.001818 0.000000
# 4 0.000000 0.000000 0.000000 0.038567 0.000000 -0.011156
# 5 -0.002005 -0.003144 0.001818 0.000000 0.024309 0.000000
# 6 0.000000 0.000000 0.000000 -0.011156 0.000000 0.038491
#
#
# Mechanical properties :
#
#
# Convention : Reuss Voigt Hill
#
# Bulk Modulus (GPa) = 36.37282 37.51012 36.94147
# Shear Modulus (GPa) = 32.92689 37.09100 35.00894
#
# Velocity S-wave (km/s) = 3.80423 4.03762 3.92266
# Velocity P-wave (km/s) = 5.93995 6.18249 6.06243
#
# Compressibility (1/GPa) = 0.02749306
#
# Stress axis : x y z
#
# Youngs Moduli (GPa) = 95.30071 96.52123 73.78378
#
# Poissons Ratio (x) = -0.03416 0.05955
# Poissons Ratio (y) = -0.03373 0.22162
# Poissons Ratio (z) = 0.07691 0.28992
#
# Static dielectric constant tensor:
#      x y z
#    x 4.336840 0.000000 0.028250 
#    y 0.000000 5.796120 0.000000 
#    z 0.028250 0.000000 4.047120 
# 
# 
# High freq. dielectric constant tensor:
#      x y z
#    x 1.913830 0.000000 -0.006860 
#    y 0.000000 1.908060 0.000000 
#    z -0.006860 0.000000 1.919360 
# 
# From -- ./inp_files/19279.got.cif
#   From: 2010.03.12/outbox.cif.g09.slc.cpg/sg14_10_cif.got.tgz:19279.got - 2010.03.31 13:35:05.
