data_PCOD8128661
_publ_section_title
;
Structure prediction by ZEFSAII (Michael W. Deem and Ramdas Pophale) SiO2 
 PCOD8128661
Probable space group: P 21/C
;
_chemical_formula_sum "Si O2"
_cell_formula_units_Z 32
_cell_length_a 14.383259
_cell_length_b 20.023071
_cell_length_c 9.293795
_cell_angle_alpha 90.000000
_cell_angle_beta 143.517970
_cell_angle_gamma 90.000000
_cell_volume 1591.418991
_symmetry_space_group_name_H-M "P 21/C"
_symmetry_group_IT_number 14
_symmetry_cell_setting 'monoclinic'
loop_
_space_group_symop_operation_xyz
x,y,z
-x,1/2+y,1/2-z
-x,-y,-z
x,1/2-y,1/2+z
loop_
_atom_site_type_symbol
_atom_site_label
_atom_site_fract_x
_atom_site_fract_y
_atom_site_fract_z
Si Si1 0.416167 0.812674 0.306352
Si Si2 0.406052 0.813256 0.967885
Si Si3 0.958245 0.316229 0.663382
Si Si4 0.963054 0.309948 0.990778
Si Si5 0.574001 0.061203 0.510068
Si Si6 0.077362 0.957878 0.975503
Si Si7 0.964782 0.456429 0.093519
Si Si8 0.600981 0.446238 0.707581
O O1 0.477489 0.746713 0.462958
O O2 0.491362 0.872206 0.494589
O O3 0.479130 0.815258 0.219973
O O4 0.228853 0.814801 0.067671
O O5 0.221795 0.804587 0.750345
O O6 0.447006 0.879007 0.931735
O O7 0.030089 0.308752 0.912564
O O8 0.027515 0.254801 0.656215
O O9 0.014611 0.388533 0.673536
O O10 0.011241 0.378861 0.129900
O O11 0.544212 0.058752 0.302230
O O12 0.500000 0.000000 0.500000
O O13 0.756119 0.063085 0.762421
O O14 0.084328 0.009113 0.852022
O O15 0.000000 0.000000 0.000000
O O16 0.785404 0.462515 0.923849
O O17 0.000000 0.500000 0.000000
O O18 0.500000 0.500000 0.500000
#
# Coordination Sequence:
#
# PCOD8128661 Si02
#       8
#     4   4   4   4   4   4   4   4
#     4   9  17  31  53  79 110 145 186 234 278 329
#     4   9  17  31  53  79 110 144 188 233 278 330
#     4   9  18  30  50  78 111 143 187 231 277 329
#     4   9  18  30  50  79 109 146 184 232 278 328
#     4  11  23  37  57  85 117 149 190 236 286 339
#     4  11  22  38  58  86 115 151 192 237 286 338
#     4  11  22  38  60  84 117 151 191 236 288 341
#     4  11  23  37  57  86 115 150 190 235 287 340
#
# _framework density 20.107841000000001
#
# number of rings (size 3 to 8) (size 9 to 14) (size 15 to 20)
#    0.000    2.000    2.500    1.500    5.250    3.000 
#    0.000    0.000    0.000    3.000    0.000    0.000 
#    0.000    0.000    0.000    0.000    0.000    0.000 
#
# Total GULP energy -396589.696720 kJ/mol
# GULP energy per Si atom -12393.428022 kJ/mol
# Density = 2.006207 g / cm^3
# Si number density = 20.107841 Si / 1000 Ang^3
#
#
#
# Elastic Constant Matrix: (Units=GPa)
#
#
# Indices 1 2 3 4 5 6 
#
# 1 96.0580 63.8106 33.4089 0.0000 -52.0137 0.0000
# 2 63.8106 197.8701 50.5121 0.0000 -42.3258 0.0000
# 3 33.4089 50.5121 68.4504 0.0000 -45.3473 0.0000
# 4 0.0000 0.0000 0.0000 33.4218 0.0000 -11.4419
# 5 -52.0137 -42.3258 -45.3473 0.0000 47.2424 0.0000
# 6 0.0000 0.0000 0.0000 -11.4419 0.0000 38.7188
#
#
#
# Elastic Compliance Matrix: (Units=1/GPa)
#
#
# Indices 1 2 3 4 5 6 
#
# 1 0.041281 -0.006287 0.029855 0.000000 0.068475 0.000000
# 2 -0.006287 0.007366 -0.007088 0.000000 -0.007126 0.000000
# 3 0.029855 -0.007088 0.062724 0.000000 0.086727 0.000000
# 4 0.000000 0.000000 0.000000 0.033288 0.000000 0.009837
# 5 0.068475 -0.007126 0.086727 0.000000 0.173423 0.000000
# 6 0.000000 0.000000 0.000000 0.009837 0.000000 0.028734
#
#
# Mechanical properties :
#
#
# Convention : Reuss Voigt Hill
#
# Bulk Modulus (GPa) = 6.92851 73.09352 40.01101
# Shear Modulus (GPa) = 13.81338 38.18639 25.99988
#
# Velocity S-wave (km/s) = 2.62384 4.36257 3.59976
# Velocity P-wave (km/s) = 3.55423 7.86166 6.10075
#
# Compressibility (1/GPa) = 0.14433116
#
# Stress axis : x y z
#
# Youngs Moduli (GPa) = 24.22401 135.75099 15.94287
#
# Poissons Ratio (x) = 0.85341 -0.47597
# Poissons Ratio (y) = 0.15229 0.11301
# Poissons Ratio (z) = -0.72320 0.96225
#
# Static dielectric constant tensor:
#      x y z
#    x 3.316110 0.000000 -0.408560 
#    y 0.000000 4.324300 0.000000 
#    z -0.408560 0.000000 3.493410 
# 
# 
# High freq. dielectric constant tensor:
#      x y z
#    x 1.768170 0.000000 -0.044570 
#    y 0.000000 1.807440 0.000000 
#    z -0.044570 0.000000 1.759270 
# 
# From -- ./inp_files/16861.got.cif
#   From: 2010.03.12/outbox.cif.g09.slc.cpg/sg14_9_cif.got.tgz:16861.got - 2010.03.31 13:35:05.
