data_PCOD8128125
_publ_section_title
;
Structure prediction by ZEFSAII (Michael W. Deem and Ramdas Pophale) SiO2 
 PCOD8128125
Probable space group: P 21/C
;
_chemical_formula_sum "Si O2"
_cell_formula_units_Z 12
_cell_length_a 7.270882
_cell_length_b 6.906992
_cell_length_c 15.013530
_cell_angle_alpha 90.000000
_cell_angle_beta 140.122022
_cell_angle_gamma 90.000000
_cell_volume 483.416766
_symmetry_space_group_name_H-M "P 21/C"
_symmetry_group_IT_number 14
_symmetry_cell_setting 'monoclinic'
loop_
_space_group_symop_operation_xyz
x,y,z
-x,1/2+y,1/2-z
-x,-y,-z
x,1/2-y,1/2+z
loop_
_atom_site_type_symbol
_atom_site_label
_atom_site_fract_x
_atom_site_fract_y
_atom_site_fract_z
Si Si1 0.870962 0.614765 0.604306
Si Si2 0.486931 0.798486 0.322508
Si Si3 0.300338 0.302281 0.784084
O O1 0.665062 0.639655 0.443010
O O2 0.691971 0.666607 0.626541
O O3 0.147651 0.757106 0.696221
O O4 0.978335 0.391314 0.648089
O O5 0.604710 0.820800 0.266022
O O6 0.516292 0.013793 0.377146
#
# Coordination Sequence:
#
# PCOD8128125 Si02
#       3
#     4   4   4
#     4  10  24  42  64  92 124 162 204 252 304 362
#     4  10  24  42  64  92 124 162 204 252 304 362
#     4  10  24  40  66  90 124 160 206 250 304 360
#
# _framework density 24.823301000000001
#
# number of rings (size 3 to 8) (size 9 to 14) (size 15 to 20)
#    2.000    0.000    0.000    2.000    4.667    5.333 
#    0.000    0.000    0.000    0.000    0.000    0.000 
#    0.000    0.000    0.000    0.000    0.000    0.000 
#
# Total GULP energy -148727.204062 kJ/mol
# GULP energy per Si atom -12393.933672 kJ/mol
# Density = 2.476680 g / cm^3
# Si number density = 24.823301 Si / 1000 Ang^3
#
#
#
# Elastic Constant Matrix: (Units=GPa)
#
#
# Indices 1 2 3 4 5 6 
#
# 1 179.7281 11.4870 26.8378 0.0000 -27.4409 0.0000
# 2 11.4870 23.3909 -23.9769 0.0000 2.1131 0.0000
# 3 26.8378 -23.9769 82.4282 0.0000 -2.9738 0.0000
# 4 0.0000 0.0000 0.0000 5.6404 0.0000 -5.2012
# 5 -27.4409 2.1131 -2.9738 0.0000 37.8475 0.0000
# 6 0.0000 0.0000 0.0000 -5.2012 0.0000 53.0360
#
#
#
# Elastic Compliance Matrix: (Units=1/GPa)
#
#
# Indices 1 2 3 4 5 6 
#
# 1 0.007838 -0.009654 -0.005150 0.000000 0.005817 0.000000
# 2 -0.009654 0.072959 0.024034 0.000000 -0.009185 0.000000
# 3 -0.005150 0.024034 0.020675 0.000000 -0.003452 0.000000
# 4 0.000000 0.000000 0.000000 0.194919 0.000000 0.019116
# 5 0.005817 -0.009185 -0.003452 0.000000 0.030881 0.000000
# 6 0.000000 0.000000 0.000000 0.019116 0.000000 0.020730
#
#
# Mechanical properties :
#
#
# Convention : Reuss Voigt Hill
#
# Bulk Modulus (GPa) = 8.33805 34.91588 21.62696
# Shear Modulus (GPa) = 13.53105 37.38475 25.45790
#
# Velocity S-wave (km/s) = 2.33726 3.88498 3.20592
# Velocity P-wave (km/s) = 3.26343 5.84982 4.73658
#
# Compressibility (1/GPa) = 0.11993217
#
# Stress axis : x y z
#
# Youngs Moduli (GPa) = 127.57907 13.70633 48.36669
#
# Poissons Ratio (x) = 0.13232 0.24911
# Poissons Ratio (y) = 1.23168 -1.16247
# Poissons Ratio (z) = 0.65709 -0.32942
#
# Static dielectric constant tensor:
#      x y z
#    x 4.534790 0.000000 0.134390 
#    y 0.000000 3.929580 0.000000 
#    z 0.134390 0.000000 3.922750 
# 
# 
# High freq. dielectric constant tensor:
#      x y z
#    x 2.008240 0.000000 0.002800 
#    y 0.000000 1.970030 0.000000 
#    z 0.002800 0.000000 1.957120 
# 
# From -- ./inp_files/4837.got.cif
#   From: 2010.03.12/outbox.cif.g09.slc.cpg/sg14_3_cif.got.tgz:4837.got - 2010.03.31 13:35:05.
