data_PCOD8128577
_publ_section_title
;
Structure prediction by ZEFSAII (Michael W. Deem and Ramdas Pophale) SiO2 
 PCOD8128577
Probable space group: P 21/C
;
_chemical_formula_sum "Si O2"
_cell_formula_units_Z 32
_cell_length_a 25.695059
_cell_length_b 12.344991
_cell_length_c 25.443158
_cell_angle_alpha 90.000000
_cell_angle_beta 168.713154
_cell_angle_gamma 90.000000
_cell_volume 1579.606302
_symmetry_space_group_name_H-M "P 21/C"
_symmetry_group_IT_number 14
_symmetry_cell_setting 'monoclinic'
loop_
_space_group_symop_operation_xyz
x,y,z
-x,1/2+y,1/2-z
-x,-y,-z
x,1/2-y,1/2+z
loop_
_atom_site_type_symbol
_atom_site_label
_atom_site_fract_x
_atom_site_fract_y
_atom_site_fract_z
Si Si1 0.448721 0.603753 0.880097
Si Si2 0.177368 0.055933 0.981297
Si Si3 0.034128 0.142103 0.172132
Si Si4 0.073604 0.281504 0.466764
Si Si5 0.087869 0.876974 0.777224
Si Si6 0.535664 0.144630 0.485682
Si Si7 0.889603 0.301711 0.115732
Si Si8 0.437119 0.503424 0.216517
O O1 0.213500 0.647443 0.611854
O O2 0.427816 0.474412 0.864486
O O3 0.429154 0.659452 0.917444
O O4 0.712861 0.643643 0.113959
O O5 0.454198 0.999379 0.236887
O O6 0.217908 0.146542 0.065101
O O7 0.076391 0.108139 0.827053
O O8 0.974554 0.965070 0.800659
O O9 0.034558 0.246895 0.209965
O O10 0.976827 0.169073 0.345035
O O11 0.310883 0.268410 0.744357
O O12 0.820076 0.340122 0.240483
O O13 0.194487 0.784427 0.922849
O O14 0.819141 0.926851 0.534324
O O15 0.331612 0.962019 0.014424
O O16 0.635418 0.370500 0.842778
#
# Coordination Sequence:
#
# PCOD8128577 Si02
#       8
#     4   4   4   4   4   4   4   4
#     4  11  24  38  61  93 124 161 199 255 314 376
#     4  11  24  37  59  88 131 165 205 241 297 364
#     4  12  24  39  60  91 126 168 201 242 308 369
#     4  11  23  37  64  89 118 169 200 249 307 369
#     4  11  26  38  61  90 125 162 220 244 302 369
#     4  11  21  41  61  90 126 155 202 257 317 372
#     4  11  26  38  62  87 128 172 208 247 301 361
#     4  12  24  42  55  88 130 166 204 261 282 356
#
# _framework density 20.258213000000001
#
# number of rings (size 3 to 8) (size 9 to 14) (size 15 to 20)
#    0.000    0.750    5.000    1.500   12.250    2.000 
#    0.000    0.000    0.000    0.000    0.000   17.500 
#    0.000    0.000    0.000    0.000    0.000    0.000 
#
# Total GULP energy -396715.109685 kJ/mol
# GULP energy per Si atom -12397.347178 kJ/mol
# Density = 2.021210 g / cm^3
# Si number density = 20.258213 Si / 1000 Ang^3
#
#
#
# Elastic Constant Matrix: (Units=GPa)
#
#
# Indices 1 2 3 4 5 6 
#
# 1 116.9466 45.0797 48.3651 0.0000 -8.8832 0.0000
# 2 45.0797 57.0228 34.5220 0.0000 -4.1458 0.0000
# 3 48.3651 34.5220 129.9557 0.0000 -7.2898 0.0000
# 4 0.0000 0.0000 0.0000 38.3173 0.0000 -0.7278
# 5 -8.8832 -4.1458 -7.2898 0.0000 35.9736 0.0000
# 6 0.0000 0.0000 0.0000 -0.7278 0.0000 23.3554
#
#
#
# Elastic Compliance Matrix: (Units=1/GPa)
#
#
# Indices 1 2 3 4 5 6 
#
# 1 0.013052 -0.008712 -0.002447 0.000000 0.001723 0.000000
# 2 -0.008712 0.026773 -0.003861 0.000000 0.000152 0.000000
# 3 -0.002447 -0.003861 0.009682 0.000000 0.000913 0.000000
# 4 0.000000 0.000000 0.000000 0.026113 0.000000 0.000814
# 5 0.001723 0.000152 0.000913 0.000000 0.028426 0.000000
# 6 0.000000 0.000000 0.000000 0.000814 0.000000 0.042842
#
#
# Mechanical properties :
#
#
# Convention : Reuss Voigt Hill
#
# Bulk Modulus (GPa) = 51.36715 62.20652 56.78683
# Shear Modulus (GPa) = 27.26035 31.25979 29.26007
#
# Velocity S-wave (km/s) = 3.67228 3.93245 3.80459
# Velocity P-wave (km/s) = 6.58727 7.16885 6.88420
#
# Compressibility (1/GPa) = 0.01946770
#
# Stress axis : x y z
#
# Youngs Moduli (GPa) = 76.61826 37.35161 103.28028
#
# Poissons Ratio (x) = 0.32540 0.25268
# Poissons Ratio (y) = 0.66747 0.39880
# Poissons Ratio (z) = 0.18745 0.14423
#
# Static dielectric constant tensor:
#      x y z
#    x 3.773230 0.000000 -0.052690 
#    y 0.000000 3.699100 0.000000 
#    z -0.052690 0.000000 3.779660 
# 
# 
# High freq. dielectric constant tensor:
#      x y z
#    x 1.779220 0.000000 0.003410 
#    y 0.000000 1.768480 0.000000 
#    z 0.003410 0.000000 1.808110 
# 
# From -- ./inp_files/78346.got.cif
#   From: 2010.03.12/outbox.cif.g09.slc.cpg/sg14_40_cif.got.tgz:78346.got - 2010.03.31 13:35:05.
