data_PCOD8128923
_publ_section_title
;
Structure prediction by ZEFSAII (Michael W. Deem and Ramdas Pophale) SiO2 
 PCOD8128923
Probable space group: P 21/C
;
_chemical_formula_sum "Si O2"
_cell_formula_units_Z 20
_cell_length_a 5.773701
_cell_length_b 6.686227
_cell_length_c 23.601439
_cell_angle_alpha 90.000000
_cell_angle_beta 107.269549
_cell_angle_gamma 90.000000
_cell_volume 870.042149
_symmetry_space_group_name_H-M "P 21/C"
_symmetry_group_IT_number 14
_symmetry_cell_setting 'monoclinic'
loop_
_space_group_symop_operation_xyz
x,y,z
-x,1/2+y,1/2-z
-x,-y,-z
x,1/2-y,1/2+z
loop_
_atom_site_type_symbol
_atom_site_label
_atom_site_fract_x
_atom_site_fract_y
_atom_site_fract_z
Si Si1 0.853271 0.092273 0.606418
Si Si2 0.743800 0.115036 0.996675
Si Si3 0.213357 0.127764 0.189651
Si Si4 0.569341 0.456247 0.189917
Si Si5 0.789431 0.255817 0.881455
O O1 0.801332 0.224544 0.548606
O O2 0.618690 0.044242 0.626220
O O3 0.011081 0.204582 0.666603
O O4 0.965898 0.884489 0.592799
O O5 0.664455 0.228740 0.933757
O O6 0.500000 0.000000 0.000000
O O7 0.000000 0.000000 0.000000
O O8 0.473082 0.236300 0.199591
O O9 0.214003 0.026205 0.252187
O O10 0.154770 0.963611 0.138097
O O11 0.370212 0.632027 0.177404
#
# Coordination Sequence:
#
# PCOD8128923 Si02
#       5
#     4   4   4   4   4
#     4  11  27  43  72 105 138 190 246 299 369 433
#     4  12  27  50  78 106 148 194 246 306 366 437
#     4  11  23  44  65 104 144 185 241 297 371 433
#     4  11  25  42  69 102 143 190 237 304 363 443
#     4  11  25  46  72 102 143 188 243 300 364 435
#
# _framework density 22.987393000000001
#
# number of rings (size 3 to 8) (size 9 to 14) (size 15 to 20)
#    0.000    0.800    4.000    1.800    8.400    2.400 
#    0.000    0.000    0.000    0.000    0.000    0.000 
#    0.000    0.000    0.000    0.000    0.000    0.000 
#
# Total GULP energy -247768.449824 kJ/mol
# GULP energy per Si atom -12388.422491 kJ/mol
# Density = 2.293507 g / cm^3
# Si number density = 22.987393 Si / 1000 Ang^3
#
#
#
# Elastic Constant Matrix: (Units=GPa)
#
#
# Indices 1 2 3 4 5 6 
#
# 1 79.9753 30.6398 13.7063 0.0000 -11.1211 0.0000
# 2 30.6398 119.5333 34.5588 0.0000 -3.2844 0.0000
# 3 13.7063 34.5588 115.9392 0.0000 -11.9272 0.0000
# 4 0.0000 0.0000 0.0000 50.7335 0.0000 -3.8485
# 5 -11.1211 -3.2844 -11.9272 0.0000 37.2965 0.0000
# 6 0.0000 0.0000 0.0000 -3.8485 0.0000 34.6213
#
#
#
# Elastic Compliance Matrix: (Units=1/GPa)
#
#
# Indices 1 2 3 4 5 6 
#
# 1 0.014441 -0.003520 -0.000255 0.000000 0.003914 0.000000
# 2 -0.003520 0.010013 -0.002674 0.000000 -0.001023 0.000000
# 3 -0.000255 -0.002674 0.009741 0.000000 0.002804 0.000000
# 4 0.000000 0.000000 0.000000 0.019878 0.000000 0.002210
# 5 0.003914 -0.001023 0.002804 0.000000 0.028786 0.000000
# 6 0.000000 0.000000 0.000000 0.002210 0.000000 0.029130
#
#
# Mechanical properties :
#
#
# Convention : Reuss Voigt Hill
#
# Bulk Modulus (GPa) = 46.95682 52.58416 49.77049
# Shear Modulus (GPa) = 37.88301 40.29978 39.09140
#
# Velocity S-wave (km/s) = 4.06395 4.19158 4.12826
# Velocity P-wave (km/s) = 6.51862 6.80813 6.66495
#
# Compressibility (1/GPa) = 0.02129616
#
# Stress axis : x y z
#
# Youngs Moduli (GPa) = 69.24947 99.86910 102.66129
#
# Poissons Ratio (x) = 0.35156 0.02620
# Poissons Ratio (y) = 0.24377 0.27449
# Poissons Ratio (z) = 0.01767 0.26703
#
# Static dielectric constant tensor:
#      x y z
#    x 4.117410 0.000000 0.032030 
#    y 0.000000 4.207410 0.000000 
#    z 0.032030 0.000000 4.098820 
# 
# 
# High freq. dielectric constant tensor:
#      x y z
#    x 1.889500 0.000000 -0.000230 
#    y 0.000000 1.922480 0.000000 
#    z -0.000230 0.000000 1.926260 
# 
# From -- ./inp_files/75449.got.cif
#   From: 2010.03.12/outbox.cif.g09.slc.cpg/sg14_38_cif.got.tgz:75449.got - 2010.03.31 13:35:05.
