data_PCOD8128451
_publ_section_title
;
Structure prediction by ZEFSAII (Michael W. Deem and Ramdas Pophale) SiO2 
 PCOD8128451
Probable space group: P 21/C
;
_chemical_formula_sum "Si O2"
_cell_formula_units_Z 28
_cell_length_a 8.782812
_cell_length_b 8.003670
_cell_length_c 26.793767
_cell_angle_alpha 90.000000
_cell_angle_beta 41.523919
_cell_angle_gamma 90.000000
_cell_volume 1248.607525
_symmetry_space_group_name_H-M "P 21/C"
_symmetry_group_IT_number 14
_symmetry_cell_setting 'monoclinic'
loop_
_space_group_symop_operation_xyz
x,y,z
-x,1/2+y,1/2-z
-x,-y,-z
x,1/2-y,1/2+z
loop_
_atom_site_type_symbol
_atom_site_label
_atom_site_fract_x
_atom_site_fract_y
_atom_site_fract_z
Si Si1 0.571082 0.736587 0.829349
Si Si2 0.633883 0.924440 0.092299
Si Si3 0.224682 0.828340 0.780400
Si Si4 0.014363 0.998926 0.078481
Si Si5 0.312884 0.604585 0.156059
Si Si6 0.330153 0.546222 0.813260
Si Si7 0.985722 0.800176 0.651874
O O1 0.538694 0.915630 0.863785
O O2 0.599820 0.587131 0.862754
O O3 0.337181 0.687068 0.855571
O O4 0.782364 0.741497 0.738556
O O5 0.795753 0.931794 0.101006
O O6 0.509470 0.744225 0.118442
O O7 0.781398 0.940198 0.006069
O O8 0.036661 0.851525 0.869801
O O9 0.134015 0.863514 0.746413
O O10 0.318413 0.638296 0.761867
O O11 0.433038 0.951301 0.740857
O O12 0.097626 0.850265 0.094105
O O13 0.191507 0.620110 0.133050
O O14 0.109070 0.426403 0.867541
#
# Coordination Sequence:
#
# PCOD8128451 Si02
#       7
#     4   4   4   4   4   4   4
#     4  11  23  42  68  97 132 174 222 283 330 392
#     4  11  25  45  71  99 141 172 226 282 340 393
#     4  11  19  37  66  96 128 167 221 279 329 385
#     4  11  22  44  69 102 129 180 223 279 339 396
#     4  11  26  41  65 100 137 173 221 277 331 408
#     4  11  19  36  65  94 125 165 225 278 318 384
#     4  12  24  41  66 100 133 176 227 273 335 403
#
# _framework density 22.424980000000001
#
# number of rings (size 3 to 8) (size 9 to 14) (size 15 to 20)
#    0.000    0.857    5.714    3.429    4.000    0.571 
#    2.571    2.857    0.000    0.000    0.000    0.000 
#    0.000    0.000    0.000    0.000    0.000    0.000 
#
# Total GULP energy -346912.570162 kJ/mol
# GULP energy per Si atom -12389.734649 kJ/mol
# Density = 2.237394 g / cm^3
# Si number density = 22.424980 Si / 1000 Ang^3
#
#
#
# Elastic Constant Matrix: (Units=GPa)
#
#
# Indices 1 2 3 4 5 6 
#
# 1 78.0287 3.3848 3.9657 0.0000 8.1544 0.0000
# 2 3.3848 90.2667 3.3816 0.0000 -1.9601 0.0000
# 3 3.9657 3.3816 73.7769 0.0000 15.1032 0.0000
# 4 0.0000 0.0000 0.0000 24.0660 0.0000 9.8091
# 5 8.1544 -1.9601 15.1032 0.0000 20.6951 0.0000
# 6 0.0000 0.0000 0.0000 9.8091 0.0000 33.6916
#
#
#
# Elastic Compliance Matrix: (Units=1/GPa)
#
#
# Indices 1 2 3 4 5 6 
#
# 1 0.013415 -0.000644 0.000474 0.000000 -0.005692 0.000000
# 2 -0.000644 0.011178 -0.000877 0.000000 0.001953 0.000000
# 3 0.000474 -0.000877 0.016017 0.000000 -0.011959 0.000000
# 4 0.000000 0.000000 0.000000 0.047147 0.000000 -0.013727
# 5 -0.005692 0.001953 -0.011959 0.000000 0.059476 0.000000
# 6 0.000000 0.000000 0.000000 -0.013727 0.000000 0.033677
#
#
# Mechanical properties :
#
#
# Convention : Reuss Voigt Hill
#
# Bulk Modulus (GPa) = 25.96489 29.28182 27.62336
# Shear Modulus (GPa) = 25.53043 31.11322 28.32183
#
# Velocity S-wave (km/s) = 3.37780 3.72887 3.55767
# Velocity P-wave (km/s) = 5.17846 5.62364 5.40563
#
# Compressibility (1/GPa) = 0.03851354
#
# Stress axis : x y z
#
# Youngs Moduli (GPa) = 74.54589 89.46360 62.43223
#
# Poissons Ratio (x) = 0.05765 -0.02958
# Poissons Ratio (y) = 0.04804 0.05478
# Poissons Ratio (z) = -0.03532 0.07850
#
# Static dielectric constant tensor:
#      x y z
#    x 4.190490 0.000000 0.328500 
#    y 0.000000 4.455560 0.000000 
#    z 0.328500 0.000000 3.767320 
# 
# 
# High freq. dielectric constant tensor:
#      x y z
#    x 1.876270 0.000000 0.019820 
#    y 0.000000 1.911010 0.000000 
#    z 0.019820 0.000000 1.837160 
# 
# From -- ./inp_files/76306.got.cif
#   From: 2010.03.12/outbox.cif.g09.slc.cpg/sg14_39_cif.got.tgz:76306.got - 2010.03.31 13:35:05.
