data_PCOD8128223
_publ_section_title
;
Structure prediction by ZEFSAII (Michael W. Deem and Ramdas Pophale) SiO2 
 PCOD8128223
Probable space group: P 21/C
;
_chemical_formula_sum "Si O2"
_cell_formula_units_Z 32
_cell_length_a 15.157203
_cell_length_b 11.759928
_cell_length_c 26.196555
_cell_angle_alpha 90.000000
_cell_angle_beta 161.005612
_cell_angle_gamma 90.000000
_cell_volume 1519.799407
_symmetry_space_group_name_H-M "P 21/C"
_symmetry_group_IT_number 14
_symmetry_cell_setting 'monoclinic'
loop_
_space_group_symop_operation_xyz
x,y,z
-x,1/2+y,1/2-z
-x,-y,-z
x,1/2-y,1/2+z
loop_
_atom_site_type_symbol
_atom_site_label
_atom_site_fract_x
_atom_site_fract_y
_atom_site_fract_z
Si Si1 0.713174 0.189256 0.609543
Si Si2 0.573283 0.859361 0.450913
Si Si3 0.236758 0.376307 0.456686
Si Si4 0.478887 0.893418 0.058533
Si Si5 0.063230 0.926263 0.110384
Si Si6 0.884100 0.432505 0.102676
Si Si7 0.416166 0.753551 0.622814
Si Si8 0.990119 0.831153 0.966404
O O1 0.469049 0.139114 0.510661
O O2 0.641525 0.318999 0.553909
O O3 0.743970 0.111187 0.577482
O O4 0.985018 0.185736 0.791557
O O5 0.557230 0.728208 0.424401
O O6 0.332960 0.922129 0.290712
O O7 0.842733 0.930363 0.581792
O O8 0.354433 0.479667 0.487049
O O9 0.183185 0.420301 0.484416
O O10 0.383677 0.836867 0.059342
O O11 0.802885 0.899018 0.230951
O O12 0.067365 0.043163 0.083393
O O13 0.034549 0.827468 0.051958
O O14 0.714700 0.374673 0.964259
O O15 0.731066 0.756678 0.809403
O O16 0.260005 0.714632 0.587738
#
# Coordination Sequence:
#
# PCOD8128223 Si02
#       8
#     4   4   4   4   4   4   4   4
#     4  10  25  42  66  89 128 176 223 271 331 396
#     4  11  24  42  61  96 130 176 215 273 331 400
#     4  11  25  43  65  94 133 173 218 275 333 396
#     4  11  24  43  67  97 130 173 226 279 330 393
#     4  10  24  43  68  91 136 176 218 267 335 403
#     4  11  23  41  67  96 129 172 221 279 326 393
#     4  11  22  42  71 100 133 169 226 279 328 398
#     4  11  22  44  69 101 131 178 223 273 335 396
#
# _framework density 21.055409000000001
#
# number of rings (size 3 to 8) (size 9 to 14) (size 15 to 20)
#    0.000    1.250    3.750    1.125    7.000    1.000 
#    2.250    0.000    0.000    4.500    0.000    0.000 
#    0.000    0.000    0.000    0.000    0.000    0.000 
#
# Total GULP energy -396747.434966 kJ/mol
# GULP energy per Si atom -12398.357343 kJ/mol
# Density = 2.100749 g / cm^3
# Si number density = 21.055409 Si / 1000 Ang^3
#
#
#
# Elastic Constant Matrix: (Units=GPa)
#
#
# Indices 1 2 3 4 5 6 
#
# 1 77.6741 29.9745 45.1014 0.0000 -13.0266 0.0000
# 2 29.9745 118.9525 25.7194 0.0000 6.1547 0.0000
# 3 45.1014 25.7194 57.9546 0.0000 20.0683 0.0000
# 4 0.0000 0.0000 0.0000 31.1083 0.0000 4.9512
# 5 -13.0266 6.1547 20.0683 0.0000 26.5618 0.0000
# 6 0.0000 0.0000 0.0000 4.9512 0.0000 31.9876
#
#
#
# Elastic Compliance Matrix: (Units=1/GPa)
#
#
# Indices 1 2 3 4 5 6 
#
# 1 2.429896 -0.134722 -3.053532 0.000000 3.529934 0.000000
# 2 -0.134722 0.016802 0.164704 0.000000 -0.194403 0.000000
# 3 -3.053532 0.164704 3.862857 0.000000 -4.454198 0.000000
# 4 0.000000 0.000000 0.000000 0.032958 0.000000 -0.005101
# 5 3.529934 -0.194403 -4.454198 0.000000 5.179143 0.000000
# 6 0.000000 0.000000 0.000000 -0.005101 0.000000 0.032052
#
#
# Mechanical properties :
#
#
# Convention : Reuss Voigt Hill
#
# Bulk Modulus (GPa) = 3.81020 50.68574 27.24797
# Shear Modulus (GPa) = 0.28267 28.18394 14.23331
#
# Velocity S-wave (km/s) = 0.36680 3.66260 2.60281
# Velocity P-wave (km/s) = 1.41171 6.48159 4.69063
#
# Compressibility (1/GPa) = 0.26245354
#
# Stress axis : x y z
#
# Youngs Moduli (GPa) = 0.41154 59.51684 0.25888
#
# Poissons Ratio (x) = 8.01824 0.79049
# Poissons Ratio (y) = 0.05544 -0.04264
# Poissons Ratio (z) = 1.25665 -9.80265
#
# Static dielectric constant tensor:
#      x y z
#    x 4.039080 0.000000 0.004770 
#    y 0.000000 3.854680 0.000000 
#    z 0.004770 0.000000 3.685340 
# 
# 
# High freq. dielectric constant tensor:
#      x y z
#    x 1.832330 0.000000 0.006540 
#    y 0.000000 1.826180 0.000000 
#    z 0.006540 0.000000 1.816650 
# 
# From -- ./inp_files/77599.got.cif
#   From: 2010.03.12/outbox.cif.g09.slc.cpg/sg14_39_cif.got.tgz:77599.got - 2010.03.31 13:35:05.
