data_PCOD8128578
_publ_section_title
;
Structure prediction by ZEFSAII (Michael W. Deem and Ramdas Pophale) SiO2 
 PCOD8128578
Probable space group: P 21/C
;
_chemical_formula_sum "Si O2"
_cell_formula_units_Z 24
_cell_length_a 30.301660
_cell_length_b 4.955511
_cell_length_c 16.759506
_cell_angle_alpha 90.000000
_cell_angle_beta 27.457184
_cell_angle_gamma 90.000000
_cell_volume 1160.373159
_symmetry_space_group_name_H-M "P 21/C"
_symmetry_group_IT_number 14
_symmetry_cell_setting 'monoclinic'
loop_
_space_group_symop_operation_xyz
x,y,z
-x,1/2+y,1/2-z
-x,-y,-z
x,1/2-y,1/2+z
loop_
_atom_site_type_symbol
_atom_site_label
_atom_site_fract_x
_atom_site_fract_y
_atom_site_fract_z
Si Si1 0.775195 0.861487 0.730917
Si Si2 0.727319 0.671884 0.483184
Si Si3 0.234782 0.683221 0.975718
Si Si4 0.063663 0.004089 0.642484
Si Si5 0.515287 0.638389 0.778471
Si Si6 0.328891 0.852624 0.667644
O O1 0.881187 0.909603 0.526490
O O2 0.723948 0.637024 0.759058
O O3 0.714481 0.136809 0.824731
O O4 0.781245 0.772043 0.813117
O O5 0.785776 0.445862 0.437781
O O6 0.619860 0.563470 0.642570
O O7 0.722163 0.947971 0.539729
O O8 0.135539 0.593136 0.095715
O O9 0.313475 0.754390 0.782541
O O10 0.005773 0.258552 0.769146
O O11 0.481760 0.437211 0.762725
O O12 0.441620 0.618735 0.970380
#
# Coordination Sequence:
#
# PCOD8128578 Si02
#       6
#     4   4   4   4   4   4
#     4  11  22  40  68  91 123 171 212 248 319 378
#     4  12  23  40  62  97 133 164 203 270 311 351
#     4  11  25  40  63  95 131 160 205 268 328 354
#     4  11  23  45  69  91 118 164 215 258 313 402
#     4  12  22  38  63  94 128 171 225 245 287 372
#     4  11  21  41  62  91 127 178 215 246 295 382
#
# _framework density 20.683002999999999
#
# number of rings (size 3 to 8) (size 9 to 14) (size 15 to 20)
#    0.000    0.667    3.333    7.000    0.000    1.333 
#    0.000    5.000    0.000    0.000    0.000    0.000 
#    0.000    0.000    0.000    0.000    0.000    0.000 
#
# Total GULP energy -297775.010655 kJ/mol
# GULP energy per Si atom -12407.292111 kJ/mol
# Density = 2.063593 g / cm^3
# Si number density = 20.683003 Si / 1000 Ang^3
#
#
#
# Elastic Constant Matrix: (Units=GPa)
#
#
# Indices 1 2 3 4 5 6 
#
# 1 84.9495 18.0801 62.6603 0.0000 22.7289 0.0000
# 2 18.0801 102.5408 48.1144 0.0000 7.3166 0.0000
# 3 62.6603 48.1144 145.9654 0.0000 5.4088 0.0000
# 4 0.0000 0.0000 0.0000 29.5266 0.0000 -1.4233
# 5 22.7289 7.3166 5.4088 0.0000 26.0981 0.0000
# 6 0.0000 0.0000 0.0000 -1.4233 0.0000 43.6708
#
#
#
# Elastic Compliance Matrix: (Units=1/GPa)
#
#
# Indices 1 2 3 4 5 6 
#
# 1 0.024150 0.001959 -0.010292 0.000000 -0.019448 0.000000
# 2 0.001959 0.011855 -0.004598 0.000000 -0.004077 0.000000
# 3 -0.010292 -0.004598 0.012501 0.000000 0.007662 0.000000
# 4 0.000000 0.000000 0.000000 0.033921 0.000000 0.001106
# 5 -0.019448 -0.004077 0.007662 0.000000 0.054810 0.000000
# 6 0.000000 0.000000 0.000000 0.001106 0.000000 0.022935
#
#
# Mechanical properties :
#
#
# Convention : Reuss Voigt Hill
#
# Bulk Modulus (GPa) = 44.16180 65.68502 54.92341
# Shear Modulus (GPa) = 25.82896 33.49916 29.66406
#
# Velocity S-wave (km/s) = 3.53767 4.02885 3.79122
# Velocity P-wave (km/s) = 6.17130 7.31226 6.76587
#
# Compressibility (1/GPa) = 0.02264401
#
# Stress axis : x y z
#
# Youngs Moduli (GPa) = 41.40770 84.35258 79.99484
#
# Poissons Ratio (x) = -0.16524 0.82333
# Poissons Ratio (y) = -0.08111 0.36778
# Poissons Ratio (z) = 0.42618 0.38782
#
# Static dielectric constant tensor:
#      x y z
#    x 3.562260 0.000000 0.081190 
#    y 0.000000 3.964080 0.000000 
#    z 0.081190 0.000000 3.820110 
# 
# 
# High freq. dielectric constant tensor:
#      x y z
#    x 1.791990 0.000000 0.009750 
#    y 0.000000 1.833450 0.000000 
#    z 0.009750 0.000000 1.812080 
# 
# From -- ./inp_files/51697.got.cif
#   From: 2010.03.12/outbox.cif.g09.slc.cpg/sg14_26_cif.got.tgz:51697.got - 2010.03.31 13:35:05.
