data_PCOD8128639
_publ_section_title
;
Structure prediction by ZEFSAII (Michael W. Deem and Ramdas Pophale) SiO2 
 PCOD8128639
Probable space group: P 21/C
;
_chemical_formula_sum "Si O2"
_cell_formula_units_Z 32
_cell_length_a 18.286458
_cell_length_b 9.029063
_cell_length_c 22.917608
_cell_angle_alpha 90.000000
_cell_angle_beta 157.316079
_cell_angle_gamma 90.000000
_cell_volume 1459.256616
_symmetry_space_group_name_H-M "P 21/C"
_symmetry_group_IT_number 14
_symmetry_cell_setting 'monoclinic'
loop_
_space_group_symop_operation_xyz
x,y,z
-x,1/2+y,1/2-z
-x,-y,-z
x,1/2-y,1/2+z
loop_
_atom_site_type_symbol
_atom_site_label
_atom_site_fract_x
_atom_site_fract_y
_atom_site_fract_z
Si Si1 0.140382 0.529431 0.821901
Si Si2 0.008935 0.215274 0.889290
Si Si3 0.292493 0.832481 0.241729
Si Si4 0.711395 0.347453 0.878471
Si Si5 0.057577 0.470657 0.201192
Si Si6 0.454393 0.355237 0.868582
Si Si7 0.402942 0.178447 0.721580
Si Si8 0.645746 0.766749 0.576511
O O1 0.004906 0.599027 0.673350
O O2 0.209749 0.368236 0.853376
O O3 0.022084 0.508207 0.792971
O O4 0.318448 0.636581 0.963900
O O5 0.907640 0.150406 0.872306
O O6 0.905511 0.369335 0.798786
O O7 0.230131 0.243251 0.061379
O O8 0.258582 0.731143 0.160958
O O9 0.444503 0.755801 0.396494
O O10 0.367103 0.993935 0.277413
O O11 0.594880 0.240844 0.835228
O O12 0.602113 0.502320 0.789476
O O13 0.916641 0.373445 0.057684
O O14 0.263499 0.395291 0.353554
O O15 0.394138 0.217922 0.783748
O O16 0.378783 0.337483 0.878024
#
# Coordination Sequence:
#
# PCOD8128639 Si02
#       8
#     4   4   4   4   4   4   4   4
#     4  11  21  46  65  95 128 175 218 272 321 388
#     4  11  25  43  65  97 131 173 214 271 330 384
#     4  11  24  44  66  96 135 168 217 271 320 394
#     4  11  26  45  65  95 132 174 215 270 327 388
#     4  11  26  41  66  95 136 168 220 271 324 390
#     4  11  22  45  69  94 133 172 221 268 323 385
#     4  11  26  44  68  94 132 173 216 269 327 389
#     4  11  24  42  70  98 128 177 218 269 332 382
#
# _framework density 21.928974
#
# number of rings (size 3 to 8) (size 9 to 14) (size 15 to 20)
#    0.000    1.000    3.750    2.250   10.500    5.000 
#    0.000    0.000    0.000    0.000    0.000    0.000 
#    0.000    0.000    0.000    0.000    0.000    0.000 
#
# Total GULP energy -397024.482879 kJ/mol
# GULP energy per Si atom -12407.015090 kJ/mol
# Density = 2.187906 g / cm^3
# Si number density = 21.928974 Si / 1000 Ang^3
#
#
#
# Elastic Constant Matrix: (Units=GPa)
#
#
# Indices 1 2 3 4 5 6 
#
# 1 99.4924 12.4324 12.3275 0.0000 -20.1122 0.0000
# 2 12.4324 19.4316 -6.6998 0.0000 -4.4958 0.0000
# 3 12.3275 -6.6998 15.1365 0.0000 -1.7405 0.0000
# 4 0.0000 0.0000 0.0000 36.0061 0.0000 -1.4387
# 5 -20.1122 -4.4958 -1.7405 0.0000 32.1070 0.0000
# 6 0.0000 0.0000 0.0000 -1.4387 0.0000 34.9810
#
#
#
# Elastic Compliance Matrix: (Units=1/GPa)
#
#
# Indices 1 2 3 4 5 6 
#
# 1 0.015516 -0.014727 -0.018389 0.000000 0.006661 0.000000
# 2 -0.014727 0.078093 0.047050 0.000000 0.004260 0.000000
# 3 -0.018389 0.047050 0.101936 0.000000 0.000595 0.000000
# 4 0.000000 0.000000 0.000000 0.027819 0.000000 0.001144
# 5 0.006661 0.004260 0.000595 0.000000 0.035947 0.000000
# 6 0.000000 0.000000 0.000000 0.001144 0.000000 0.028634
#
#
# Mechanical properties :
#
#
# Convention : Reuss Voigt Hill
#
# Bulk Modulus (GPa) = 4.47601 18.90895 11.69248
# Shear Modulus (GPa) = 14.94551 28.35218 21.64884
#
# Velocity S-wave (km/s) = 2.61347 3.59961 3.14542
# Velocity P-wave (km/s) = 3.33954 5.09095 4.30525
#
# Compressibility (1/GPa) = 0.22341325
#
# Stress axis : x y z
#
# Youngs Moduli (GPa) = 64.44887 12.80525 9.81004
#
# Poissons Ratio (x) = 0.18858 0.18040
# Poissons Ratio (y) = 0.94912 -0.46156
# Poissons Ratio (z) = 1.18517 -0.60249
#
# Static dielectric constant tensor:
#      x y z
#    x 3.959880 0.000000 -0.102670 
#    y 0.000000 3.961340 0.000000 
#    z -0.102670 0.000000 3.973750 
# 
# 
# High freq. dielectric constant tensor:
#      x y z
#    x 1.872800 0.000000 -0.004130 
#    y 0.000000 1.863060 0.000000 
#    z -0.004130 0.000000 1.863720 
# 
# From -- ./inp_files/78009.got.cif
#   From: 2010.03.12/outbox.cif.g09.slc.cpg/sg14_40_cif.got.tgz:78009.got - 2010.03.31 13:35:05.
