data_PCOD8128603
_publ_section_title
;
Structure prediction by ZEFSAII (Michael W. Deem and Ramdas Pophale) SiO2 
 PCOD8128603
Probable space group: P 21/C
;
_chemical_formula_sum "Si O2"
_cell_formula_units_Z 32
_cell_length_a 9.073434
_cell_length_b 21.006630
_cell_length_c 11.973025
_cell_angle_alpha 90.000000
_cell_angle_beta 143.867515
_cell_angle_gamma 90.000000
_cell_volume 1345.641835
_symmetry_space_group_name_H-M "P 21/C"
_symmetry_group_IT_number 14
_symmetry_cell_setting 'monoclinic'
loop_
_space_group_symop_operation_xyz
x,y,z
-x,1/2+y,1/2-z
-x,-y,-z
x,1/2-y,1/2+z
loop_
_atom_site_type_symbol
_atom_site_label
_atom_site_fract_x
_atom_site_fract_y
_atom_site_fract_z
Si Si1 0.069496 0.289228 0.931838
Si Si2 0.071743 0.424775 0.843337
Si Si3 0.745699 0.960180 0.158861
Si Si4 0.891079 0.398983 0.490905
Si Si5 0.475032 0.783653 0.888555
Si Si6 0.421164 0.343734 0.315603
Si Si7 0.333090 0.397061 0.618964
Si Si8 0.548761 0.487905 0.160399
O O1 0.276088 0.259899 0.973357
O O2 0.217186 0.297321 0.137337
O O3 0.970327 0.357530 0.824794
O O4 0.805248 0.250905 0.790990
O O5 0.952833 0.488984 0.821128
O O6 0.028916 0.429055 0.683539
O O7 0.351796 0.430863 0.062388
O O8 0.713434 0.910345 0.239518
O O9 0.793232 0.926147 0.069592
O O10 0.500000 0.000000 0.000000
O O11 0.663462 0.352858 0.384213
O O12 0.808836 0.457719 0.360270
O O13 0.108745 0.364207 0.553387
O O14 0.480380 0.840114 0.799914
O O15 0.481279 0.810107 0.015712
O O16 0.487872 0.447770 0.788895
O O17 0.500000 0.500000 0.000000
#
# Coordination Sequence:
#
# PCOD8128603 Si02
#       8
#     4   4   4   4   4   4   4   4
#     4  12  28  50  76 110 140 198 252 312 371 453
#     4  12  23  40  72 104 150 186 244 302 381 440
#     4  11  21  42  68 104 150 195 231 301 372 444
#     4  12  22  44  67 106 156 188 234 313 372 436
#     4  11  29  52  74 104 147 190 258 304 376 450
#     4  11  25  47  76 105 145 195 250 308 377 443
#     4  11  24  43  71 105 151 196 238 305 375 441
#     4  12  23  37  66 113 148 194 239 293 367 450
#
# _framework density 23.780474000000002
#
# number of rings (size 3 to 8) (size 9 to 14) (size 15 to 20)
#    0.000    0.500    6.250    1.875    3.500    2.500 
#    0.000    0.000    0.000    0.000    0.000    0.000 
#    0.000    0.000    0.000    0.000    0.000    0.000 
#
# Total GULP energy -396470.175574 kJ/mol
# GULP energy per Si atom -12389.692987 kJ/mol
# Density = 2.372635 g / cm^3
# Si number density = 23.780474 Si / 1000 Ang^3
#
#
#
# Elastic Constant Matrix: (Units=GPa)
#
#
# Indices 1 2 3 4 5 6 
#
# 1 141.1786 23.1791 48.7319 0.0000 20.7333 0.0000
# 2 23.1791 46.9556 17.7755 0.0000 10.6667 0.0000
# 3 48.7319 17.7755 117.6579 0.0000 14.5989 0.0000
# 4 0.0000 0.0000 0.0000 32.8425 0.0000 4.4566
# 5 20.7333 10.6667 14.5989 0.0000 44.4992 0.0000
# 6 0.0000 0.0000 0.0000 4.4566 0.0000 32.5541
#
#
#
# Elastic Compliance Matrix: (Units=1/GPa)
#
#
# Indices 1 2 3 4 5 6 
#
# 1 0.008926 -0.002705 -0.002974 0.000000 -0.002535 0.000000
# 2 -0.002705 0.024298 -0.002069 0.000000 -0.003886 0.000000
# 3 -0.002974 -0.002069 0.010226 0.000000 -0.001473 0.000000
# 4 0.000000 0.000000 0.000000 0.031025 0.000000 -0.004247
# 5 -0.002535 -0.003886 -0.001473 0.000000 0.025068 0.000000
# 6 0.000000 0.000000 0.000000 -0.004247 0.000000 0.031300
#
#
# Mechanical properties :
#
#
# Convention : Reuss Voigt Hill
#
# Bulk Modulus (GPa) = 35.77067 53.90725 44.83896
# Shear Modulus (GPa) = 32.12235 36.38621 34.25428
#
# Velocity S-wave (km/s) = 3.67929 3.91588 3.79943
# Velocity P-wave (km/s) = 5.75537 6.56988 6.17607
#
# Compressibility (1/GPa) = 0.02795586
#
# Stress axis : x y z
#
# Youngs Moduli (GPa) = 112.03126 41.15649 97.78715
#
# Poissons Ratio (x) = 0.11131 0.29081
# Poissons Ratio (y) = 0.30300 0.20227
# Poissons Ratio (z) = 0.33317 0.08513
#
# Static dielectric constant tensor:
#      x y z
#    x 4.392220 0.000000 0.052860 
#    y 0.000000 4.192270 0.000000 
#    z 0.052860 0.000000 4.085610 
# 
# 
# High freq. dielectric constant tensor:
#      x y z
#    x 1.952310 0.000000 0.001050 
#    y 0.000000 1.924310 0.000000 
#    z 0.001050 0.000000 1.952270 
# 
# From -- ./inp_files/27033.got.cif
#   From: 2010.03.12/outbox.cif.g09.slc.cpg/sg14_14_cif.got.tgz:27033.got - 2010.03.31 13:35:05.
