data_PCOD8128560
_publ_section_title
;
Structure prediction by ZEFSAII (Michael W. Deem and Ramdas Pophale) SiO2 
 PCOD8128560
Probable space group: P 21/C
;
_chemical_formula_sum "Si O2"
_cell_formula_units_Z 32
_cell_length_a 11.149874
_cell_length_b 11.949772
_cell_length_c 14.688044
_cell_angle_alpha 90.000000
_cell_angle_beta 128.082986
_cell_angle_gamma 90.000000
_cell_volume 1540.399989
_symmetry_space_group_name_H-M "P 21/C"
_symmetry_group_IT_number 14
_symmetry_cell_setting 'monoclinic'
loop_
_space_group_symop_operation_xyz
x,y,z
-x,1/2+y,1/2-z
-x,-y,-z
x,1/2-y,1/2+z
loop_
_atom_site_type_symbol
_atom_site_label
_atom_site_fract_x
_atom_site_fract_y
_atom_site_fract_z
Si Si1 0.945790 0.823880 0.105859
Si Si2 0.741446 0.067180 0.683961
Si Si3 0.132193 0.171087 0.272073
Si Si4 0.664205 0.350448 0.953296
Si Si5 0.909791 0.321205 0.510157
Si Si6 0.280337 0.036363 0.088433
Si Si7 0.353857 0.239331 0.246385
Si Si8 0.469342 0.442176 0.200406
O O1 0.916774 0.714264 0.151937
O O2 0.094616 0.887127 0.210033
O O3 0.968279 0.787984 0.010717
O O4 0.791924 0.902904 0.034362
O O5 0.687859 0.136118 0.571391
O O6 0.609668 0.084408 0.697594
O O7 0.761914 0.937812 0.665314
O O8 0.231750 0.268905 0.268295
O O9 0.983585 0.147577 0.141587
O O10 0.802313 0.285483 0.971152
O O11 0.516114 0.275612 0.869462
O O12 0.648524 0.470042 0.896755
O O13 0.826974 0.432567 0.434565
O O14 0.287076 0.122880 0.175918
O O15 0.455019 0.989045 0.168109
O O16 0.369177 0.332761 0.175219
#
# Coordination Sequence:
#
# PCOD8128560 Si02
#       8
#     4   4   4   4   4   4   4   4
#     4  12  23  39  68  98 123 174 221 263 331 384
#     4  12  22  41  67  94 129 175 218 267 323 397
#     4  12  25  41  65 100 133 169 222 267 326 390
#     4  11  24  39  65  99 131 168 218 268 322 384
#     4  12  21  45  66  93 136 168 217 270 320 394
#     4  11  21  39  71  90 119 171 216 263 318 386
#     4  11  23  42  65  96 129 168 216 270 318 385
#     4  11  23  42  68  90 126 175 221 259 331 389
#
# _framework density 20.773824999999999
#
# number of rings (size 3 to 8) (size 9 to 14) (size 15 to 20)
#    0.000    0.500    8.750    0.750    1.750    0.000 
#    2.250    1.875    2.750    0.000    0.000    0.000 
#    0.000    0.000    0.000    0.000    0.000    0.000 
#
# Total GULP energy -396538.972478 kJ/mol
# GULP energy per Si atom -12391.842890 kJ/mol
# Density = 2.072654 g / cm^3
# Si number density = 20.773825 Si / 1000 Ang^3
#
#
#
# Elastic Constant Matrix: (Units=GPa)
#
#
# Indices 1 2 3 4 5 6 
#
# 1 60.6815 34.9070 12.9184 0.0000 -0.9718 0.0000
# 2 34.9070 76.3470 23.5811 0.0000 -5.9770 0.0000
# 3 12.9184 23.5811 87.4944 0.0000 -6.5457 0.0000
# 4 0.0000 0.0000 0.0000 34.1563 0.0000 4.5439
# 5 -0.9718 -5.9770 -6.5457 0.0000 22.6059 0.0000
# 6 0.0000 0.0000 0.0000 4.5439 0.0000 20.9966
#
#
#
# Elastic Compliance Matrix: (Units=1/GPa)
#
#
# Indices 1 2 3 4 5 6 
#
# 1 0.022471 -0.010206 -0.000712 0.000000 -0.001939 0.000000
# 2 -0.010206 0.019088 -0.003366 0.000000 0.003634 0.000000
# 3 -0.000712 -0.003366 0.012647 0.000000 0.002741 0.000000
# 4 0.000000 0.000000 0.000000 0.030145 0.000000 -0.006524
# 5 -0.001939 0.003634 0.002741 0.000000 0.045907 0.000000
# 6 0.000000 0.000000 0.000000 -0.006524 0.000000 0.049038
#
#
# Mechanical properties :
#
#
# Convention : Reuss Voigt Hill
#
# Bulk Modulus (GPa) = 39.00431 40.81508 39.90969
# Shear Modulus (GPa) = 23.10419 25.75954 24.43186
#
# Velocity S-wave (km/s) = 3.33855 3.52518 3.43314
# Velocity P-wave (km/s) = 5.80325 6.02156 5.91341
#
# Compressibility (1/GPa) = 0.02563820
#
# Stress axis : x y z
#
# Youngs Moduli (GPa) = 44.50185 52.38769 79.07196
#
# Poissons Ratio (x) = 0.53466 0.05631
# Poissons Ratio (y) = 0.45418 0.26615
# Poissons Ratio (z) = 0.03169 0.17633
#
# Static dielectric constant tensor:
#      x y z
#    x 3.622470 0.000000 0.234170 
#    y 0.000000 3.748630 0.000000 
#    z 0.234170 0.000000 4.093730 
# 
# 
# High freq. dielectric constant tensor:
#      x y z
#    x 1.784650 0.000000 0.019070 
#    y 0.000000 1.803580 0.000000 
#    z 0.019070 0.000000 1.838850 
# 
# From -- ./inp_files/44648.got.cif
#   From: 2010.03.12/outbox.cif.g09.slc.cpg/sg14_23_cif.got.tgz:44648.got - 2010.03.31 13:35:05.
