data_PCOD8128966
_publ_section_title
;
Structure prediction by ZEFSAII (Michael W. Deem and Ramdas Pophale) SiO2 
 PCOD8128966
Probable space group: P 21/C
;
_chemical_formula_sum "Si O2"
_cell_formula_units_Z 32
_cell_length_a 14.073288
_cell_length_b 18.052223
_cell_length_c 11.952118
_cell_angle_alpha 90.000000
_cell_angle_beta 29.832786
_cell_angle_gamma 90.000000
_cell_volume 1510.561505
_symmetry_space_group_name_H-M "P 21/C"
_symmetry_group_IT_number 14
_symmetry_cell_setting 'monoclinic'
loop_
_space_group_symop_operation_xyz
x,y,z
-x,1/2+y,1/2-z
-x,-y,-z
x,1/2-y,1/2+z
loop_
_atom_site_type_symbol
_atom_site_label
_atom_site_fract_x
_atom_site_fract_y
_atom_site_fract_z
Si Si1 0.429030 0.799341 0.878737
Si Si2 0.657392 0.662052 0.358341
Si Si3 0.624007 0.141512 0.486549
Si Si4 0.670398 0.676715 0.911035
Si Si5 0.128060 0.465375 0.964216
Si Si6 0.203709 0.929157 0.052768
Si Si7 0.484104 0.953524 0.202201
Si Si8 0.953148 0.417322 0.515084
O O1 0.496633 0.819600 0.932993
O O2 0.574660 0.825635 0.631944
O O3 0.381894 0.712306 0.924494
O O4 0.234102 0.845140 0.063504
O O5 0.741285 0.739343 0.318192
O O6 0.821751 0.616378 0.129469
O O7 0.572702 0.615932 0.547706
O O8 0.476576 0.149523 0.534379
O O9 0.571083 0.070698 0.616276
O O10 0.842996 0.129205 0.223439
O O11 0.856284 0.624879 0.718947
O O12 0.309678 0.516011 0.806228
O O13 0.000000 0.500000 0.000000
O O14 0.005184 0.458187 0.201579
O O15 0.207081 0.926529 0.916318
O O16 0.365441 0.980603 0.941031
O O17 0.000000 0.500000 0.500000
#
# Coordination Sequence:
#
# PCOD8128966 Si02
#       8
#     4   4   4   4   4   4   4   4
#     4  11  23  46  71  96 137 180 234 285 352 419
#     4  11  23  45  71  98 139 180 226 291 350 419
#     4  11  26  46  71 101 139 188 229 293 350 416
#     4  11  25  49  69 100 139 184 233 288 350 418
#     4  12  24  41  68 105 140 179 231 288 352 413
#     4  12  25  42  71 100 138 184 230 293 351 416
#     4  12  24  46  69 105 141 183 234 288 354 426
#     4  12  27  45  70 106 138 185 238 283 352 422
#
# _framework density 21.184176000000001
#
# number of rings (size 3 to 8) (size 9 to 14) (size 15 to 20)
#    0.000    0.500    5.000    3.375    3.500    1.000 
#    2.250    0.000    0.000    0.000    0.000    0.000 
#    0.000    0.000    0.000    0.000    0.000    0.000 
#
# Total GULP energy -396779.973056 kJ/mol
# GULP energy per Si atom -12399.374158 kJ/mol
# Density = 2.113596 g / cm^3
# Si number density = 21.184176 Si / 1000 Ang^3
#
#
#
# Elastic Constant Matrix: (Units=GPa)
#
#
# Indices 1 2 3 4 5 6 
#
# 1 99.2969 43.8162 24.2439 0.0000 -3.1698 0.0000
# 2 43.8162 123.2243 48.0063 0.0000 -10.7526 0.0000
# 3 24.2439 48.0063 119.5826 0.0000 1.1704 0.0000
# 4 0.0000 0.0000 0.0000 37.1168 0.0000 7.2337
# 5 -3.1698 -10.7526 1.1704 0.0000 35.1360 0.0000
# 6 0.0000 0.0000 0.0000 7.2337 0.0000 31.4654
#
#
#
# Elastic Compliance Matrix: (Units=1/GPa)
#
#
# Indices 1 2 3 4 5 6 
#
# 1 0.012019 -0.003951 -0.000850 0.000000 -0.000097 0.000000
# 2 -0.003951 0.011262 -0.003752 0.000000 0.003215 0.000000
# 3 -0.000850 -0.003752 0.010056 0.000000 -0.001560 0.000000
# 4 0.000000 0.000000 0.000000 0.028206 0.000000 -0.006484
# 5 -0.000097 0.003215 -0.001560 0.000000 0.029488 0.000000
# 6 0.000000 0.000000 0.000000 -0.006484 0.000000 0.033272
#
#
# Mechanical properties :
#
#
# Convention : Reuss Voigt Hill
#
# Bulk Modulus (GPa) = 61.60508 63.80406 62.70457
# Shear Modulus (GPa) = 34.05582 35.81279 34.93430
#
# Velocity S-wave (km/s) = 4.01385 4.11608 4.06529
# Velocity P-wave (km/s) = 7.11513 7.26455 7.19023
#
# Compressibility (1/GPa) = 0.01623243
#
# Stress axis : x y z
#
# Youngs Moduli (GPa) = 83.20440 88.79134 99.44274
#
# Poissons Ratio (x) = 0.35082 0.08448
# Poissons Ratio (y) = 0.32874 0.37308
# Poissons Ratio (z) = 0.07069 0.33312
#
# Static dielectric constant tensor:
#      x y z
#    x 4.084950 0.000000 0.134980 
#    y 0.000000 4.340960 0.000000 
#    z 0.134980 0.000000 3.891860 
# 
# 
# High freq. dielectric constant tensor:
#      x y z
#    x 1.836190 0.000000 0.013580 
#    y 0.000000 1.846060 0.000000 
#    z 0.013580 0.000000 1.834210 
# 
# From -- ./inp_files/33040.got.cif
#   From: 2010.03.12/outbox.cif.g09.slc.cpg/sg14_17_cif.got.tgz:33040.got - 2010.03.31 13:35:05.
