data_PCOD8128937
_publ_section_title
;
Structure prediction by ZEFSAII (Michael W. Deem and Ramdas Pophale) SiO2 
 PCOD8128937
Probable space group: P 21/C
;
_chemical_formula_sum "Si O2"
_cell_formula_units_Z 20
_cell_length_a 7.960317
_cell_length_b 18.060491
_cell_length_c 8.803516
_cell_angle_alpha 90.000000
_cell_angle_beta 134.065556
_cell_angle_gamma 90.000000
_cell_volume 909.431007
_symmetry_space_group_name_H-M "P 21/C"
_symmetry_group_IT_number 14
_symmetry_cell_setting 'monoclinic'
loop_
_space_group_symop_operation_xyz
x,y,z
-x,1/2+y,1/2-z
-x,-y,-z
x,1/2-y,1/2+z
loop_
_atom_site_type_symbol
_atom_site_label
_atom_site_fract_x
_atom_site_fract_y
_atom_site_fract_z
Si Si1 0.363073 0.612506 0.049347
Si Si2 0.092100 0.007053 0.225852
Si Si3 0.763769 0.671099 0.122082
Si Si4 0.120628 0.184028 0.651715
Si Si5 0.641789 0.934170 0.017943
O O1 0.497551 0.669848 0.021338
O O2 0.551249 0.584450 0.292499
O O3 0.318266 0.541344 0.913261
O O4 0.137234 0.647685 0.989727
O O5 0.115349 0.092326 0.280055
O O6 0.896195 0.967981 0.201003
O O7 0.000000 0.000000 0.000000
O O8 0.907047 0.733103 0.303085
O O9 0.785929 0.690086 0.959882
O O10 0.333536 0.142201 0.872776
O O11 0.500000 0.000000 0.000000
#
# Coordination Sequence:
#
# PCOD8128937 Si02
#       5
#     4   4   4   4   4
#     4  11  25  47  70 101 139 180 232 286 347 408
#     4  11  24  42  72 103 133 179 241 282 335 423
#     4  12  25  47  71  98 143 185 226 287 357 404
#     4  11  28  45  67 107 139 179 235 285 344 427
#     4  11  23  44  71 101 137 180 232 285 347 408
#
# _framework density 21.991772000000001
#
# number of rings (size 3 to 8) (size 9 to 14) (size 15 to 20)
#    0.000    0.800    2.000    4.200    5.600    8.000 
#    0.000    0.000    0.000    0.000    0.000    0.000 
#    0.000    0.000    0.000    0.000    0.000    0.000 
#
# Total GULP energy -247778.782955 kJ/mol
# GULP energy per Si atom -12388.939148 kJ/mol
# Density = 2.194172 g / cm^3
# Si number density = 21.991772 Si / 1000 Ang^3
#
#
#
# Elastic Constant Matrix: (Units=GPa)
#
#
# Indices 1 2 3 4 5 6 
#
# 1 124.0061 29.9611 42.1342 0.0000 -14.9454 0.0000
# 2 29.9611 139.5249 50.4459 0.0000 -6.8139 0.0000
# 3 42.1342 50.4459 122.0555 0.0000 -19.6182 0.0000
# 4 0.0000 0.0000 0.0000 42.1258 0.0000 -2.6752
# 5 -14.9454 -6.8139 -19.6182 0.0000 40.1353 0.0000
# 6 0.0000 0.0000 0.0000 -2.6752 0.0000 33.5515
#
#
#
# Elastic Compliance Matrix: (Units=1/GPa)
#
#
# Indices 1 2 3 4 5 6 
#
# 1 0.009410 -0.001018 -0.002488 0.000000 0.002115 0.000000
# 2 -0.001018 0.008540 -0.003262 0.000000 -0.000524 0.000000
# 3 -0.002488 -0.003262 0.011029 0.000000 0.003911 0.000000
# 4 0.000000 0.000000 0.000000 0.023859 0.000000 0.001902
# 5 0.002115 -0.000524 0.003911 0.000000 0.027526 0.000000
# 6 0.000000 0.000000 0.000000 0.001902 0.000000 0.029957
#
#
# Mechanical properties :
#
#
# Convention : Reuss Voigt Hill
#
# Bulk Modulus (GPa) = 64.75581 70.07433 67.41507
# Shear Modulus (GPa) = 38.75850 40.69887 39.72868
#
# Velocity S-wave (km/s) = 4.20266 4.30657 4.25493
# Velocity P-wave (km/s) = 7.28417 7.52741 7.40679
#
# Compressibility (1/GPa) = 0.01544263
#
# Stress axis : x y z
#
# Youngs Moduli (GPa) = 106.26666 117.10046 90.67300
#
# Poissons Ratio (x) = 0.11921 0.22557
# Poissons Ratio (y) = 0.10818 0.29580
# Poissons Ratio (z) = 0.26437 0.38201
#
# Static dielectric constant tensor:
#      x y z
#    x 4.317150 0.000000 -0.181870 
#    y 0.000000 3.976790 0.000000 
#    z -0.181870 0.000000 3.842060 
# 
# 
# High freq. dielectric constant tensor:
#      x y z
#    x 1.876540 0.000000 -0.001600 
#    y 0.000000 1.881030 0.000000 
#    z -0.001600 0.000000 1.870030 
# 
# From -- ./inp_files/6053.got.cif
#   From: 2010.03.12/outbox.cif.g09.slc.cpg/sg14_4_cif.got.tgz:6053.got - 2010.03.31 13:35:05.
