data_PCOD8128199
_publ_section_title
;
Structure prediction by ZEFSAII (Michael W. Deem and Ramdas Pophale) SiO2 
 PCOD8128199
Probable space group: P 21/C
;
_chemical_formula_sum "Si O2"
_cell_formula_units_Z 28
_cell_length_a 7.832224
_cell_length_b 14.048437
_cell_length_c 12.417519
_cell_angle_alpha 90.000000
_cell_angle_beta 115.691638
_cell_angle_gamma 90.000000
_cell_volume 1231.233304
_symmetry_space_group_name_H-M "P 21/C"
_symmetry_group_IT_number 14
_symmetry_cell_setting 'monoclinic'
loop_
_space_group_symop_operation_xyz
x,y,z
-x,1/2+y,1/2-z
-x,-y,-z
x,1/2-y,1/2+z
loop_
_atom_site_type_symbol
_atom_site_label
_atom_site_fract_x
_atom_site_fract_y
_atom_site_fract_z
Si Si1 0.121586 0.949026 0.444074
Si Si2 0.986588 0.892698 0.729469
Si Si3 0.830736 0.711906 0.811470
Si Si4 0.617039 0.823656 0.920006
Si Si5 0.818767 0.007879 0.024675
Si Si6 0.316382 0.846422 0.665746
Si Si7 0.538011 0.331185 0.404370
O O1 0.312510 0.915651 0.558954
O O2 0.014224 0.854541 0.370433
O O3 0.000000 0.000000 0.500000
O O4 0.157369 0.026703 0.359065
O O5 0.115757 0.848483 0.671461
O O6 0.872214 0.809763 0.757997
O O7 0.127297 0.947788 0.847000
O O8 0.753774 0.741715 0.909441
O O9 0.667649 0.653905 0.705688
O O10 0.494001 0.871455 0.790440
O O11 0.740542 0.902096 0.016053
O O12 0.482003 0.786358 0.979745
O O13 0.647764 0.069471 0.928889
O O14 0.000000 0.000000 0.000000
O O15 0.335309 0.738943 0.631326
#
# Coordination Sequence:
#
# PCOD8128199 Si02
#       7
#     4   4   4   4   4   4   4
#     4  10  24  42  71  99 138 189 231 293 361 425
#     4  11  23  46  71 101 139 186 243 294 358 437
#     4  11  25  45  68 106 145 186 240 297 362 432
#     4  11  24  43  69 101 142 180 238 302 359 427
#     4  12  24  43  73 100 134 184 248 296 355 430
#     4  10  24  44  66  99 141 182 235 288 361 432
#     4  11  25  42  69 100 138 186 228 299 360 424
#
# _framework density 22.741423999999999
#
# number of rings (size 3 to 8) (size 9 to 14) (size 15 to 20)
#    0.000    1.143    2.857    2.143    8.000    1.143 
#    2.571    2.857    0.000    0.000    0.000    0.000 
#    0.000    0.000    0.000    0.000    0.000    0.000 
#
# Total GULP energy -347063.380765 kJ/mol
# GULP energy per Si atom -12395.120742 kJ/mol
# Density = 2.268966 g / cm^3
# Si number density = 22.741424 Si / 1000 Ang^3
#
#
#
# Elastic Constant Matrix: (Units=GPa)
#
#
# Indices 1 2 3 4 5 6 
#
# 1 73.7375 16.2628 27.2541 0.0000 -14.0062 0.0000
# 2 16.2628 69.6936 37.5596 0.0000 -9.8175 0.0000
# 3 27.2541 37.5596 108.2294 0.0000 2.9145 0.0000
# 4 0.0000 0.0000 0.0000 43.0781 0.0000 0.7324
# 5 -14.0062 -9.8175 2.9145 0.0000 35.6785 0.0000
# 6 0.0000 0.0000 0.0000 0.7324 0.0000 39.1425
#
#
#
# Elastic Compliance Matrix: (Units=1/GPa)
#
#
# Indices 1 2 3 4 5 6 
#
# 1 0.016483 -0.000717 -0.004080 0.000000 0.006607 0.000000
# 2 -0.000717 0.018770 -0.006479 0.000000 0.005413 0.000000
# 3 -0.004080 -0.006479 0.012634 0.000000 -0.004416 0.000000
# 4 0.000000 0.000000 0.000000 0.023221 0.000000 -0.000434
# 5 0.006607 0.005413 -0.004416 0.000000 0.032472 0.000000
# 6 0.000000 0.000000 0.000000 -0.000434 0.000000 0.025556
#
#
# Mechanical properties :
#
#
# Convention : Reuss Voigt Hill
#
# Bulk Modulus (GPa) = 39.47024 45.97928 42.72476
# Shear Modulus (GPa) = 31.22420 34.95207 33.08813
#
# Velocity S-wave (km/s) = 3.70943 3.92463 3.81855
# Velocity P-wave (km/s) = 5.97832 6.38742 6.18625
#
# Compressibility (1/GPa) = 0.02533554
#
# Stress axis : x y z
#
# Youngs Moduli (GPa) = 60.67029 53.27642 79.14893
#
# Poissons Ratio (x) = 0.03819 0.32291
# Poissons Ratio (y) = 0.04349 0.51282
# Poissons Ratio (z) = 0.24752 0.34518
#
# Static dielectric constant tensor:
#      x y z
#    x 4.507740 0.000000 -0.145860 
#    y 0.000000 4.117240 0.000000 
#    z -0.145860 0.000000 5.069730 
# 
# 
# High freq. dielectric constant tensor:
#      x y z
#    x 1.880340 0.000000 -0.001660 
#    y 0.000000 1.893300 0.000000 
#    z -0.001660 0.000000 1.917150 
# 
# From -- ./inp_files/25294.got.cif
#   From: 2010.03.12/outbox.cif.g09.slc.cpg/sg14_13_cif.got.tgz:25294.got - 2010.03.31 13:35:05.
