data_PCOD8128026
_publ_section_title
;
Structure prediction by ZEFSAII (Michael W. Deem and Ramdas Pophale) SiO2 
 PCOD8128026
Probable space group: P 21/C
;
_chemical_formula_sum "Si O2"
_cell_formula_units_Z 20
_cell_length_a 11.362525
_cell_length_b 11.534625
_cell_length_c 14.955672
_cell_angle_alpha 90.000000
_cell_angle_beta 150.527523
_cell_angle_gamma 90.000000
_cell_volume 964.393211
_symmetry_space_group_name_H-M "P 21/C"
_symmetry_group_IT_number 14
_symmetry_cell_setting 'monoclinic'
loop_
_space_group_symop_operation_xyz
x,y,z
-x,1/2+y,1/2-z
-x,-y,-z
x,1/2-y,1/2+z
loop_
_atom_site_type_symbol
_atom_site_label
_atom_site_fract_x
_atom_site_fract_y
_atom_site_fract_z
Si Si1 0.547960 0.677941 0.242259
Si Si2 0.922613 0.274693 0.619069
Si Si3 0.022300 0.712658 0.644108
Si Si4 0.256639 0.026929 0.287054
Si Si5 0.869400 0.381202 0.927354
O O1 0.750346 0.737663 0.435299
O O2 0.671123 0.595644 0.252456
O O3 0.391718 0.594544 0.203771
O O4 0.369528 0.778617 0.084612
O O5 0.965879 0.211161 0.741517
O O6 0.060906 0.397279 0.713017
O O7 0.020769 0.198272 0.599435
O O8 0.125151 0.591871 0.674247
O O9 0.168786 0.815642 0.692781
O O10 0.500000 0.000000 0.500000
O O11 0.000000 0.500000 0.000000
#
# Coordination Sequence:
#
# PCOD8128026 Si02
#       5
#     4   4   4   4   4
#     4  10  23  45  67  99 137 182 235 293 342 424
#     4  10  26  44  67 106 134 182 239 287 358 421
#     4  12  25  43  75  99 139 195 230 293 359 421
#     4  12  24  46  73 103 145 187 238 287 360 432
#     4  10  25  45  66 103 141 177 239 300 349 418
#
# _framework density 20.738427999999999
#
# number of rings (size 3 to 8) (size 9 to 14) (size 15 to 20)
#    1.200    0.000    4.000    0.600    8.400    1.600 
#    0.000    1.000    0.000    0.000    0.000    0.000 
#    0.000    0.000    0.000    0.000    0.000    0.000 
#
# Total GULP energy -247800.960368 kJ/mol
# GULP energy per Si atom -12390.048018 kJ/mol
# Density = 2.069123 g / cm^3
# Si number density = 20.738428 Si / 1000 Ang^3
#
#
#
# Elastic Constant Matrix: (Units=GPa)
#
#
# Indices 1 2 3 4 5 6 
#
# 1 90.0854 34.1968 25.5899 0.0000 -0.1158 0.0000
# 2 34.1968 107.1580 26.1978 0.0000 11.5218 0.0000
# 3 25.5899 26.1978 141.9050 0.0000 7.2465 0.0000
# 4 0.0000 0.0000 0.0000 32.8981 0.0000 7.5627
# 5 -0.1158 11.5218 7.2465 0.0000 39.1511 0.0000
# 6 0.0000 0.0000 0.0000 7.5627 0.0000 27.0867
#
#
#
# Elastic Compliance Matrix: (Units=1/GPa)
#
#
# Indices 1 2 3 4 5 6 
#
# 1 0.013075 -0.003916 -0.001712 0.000000 0.001508 0.000000
# 2 -0.003916 0.011208 -0.001205 0.000000 -0.003087 0.000000
# 3 -0.001712 -0.001205 0.007632 0.000000 -0.001063 0.000000
# 4 0.000000 0.000000 0.000000 0.032482 0.000000 -0.009069
# 5 0.001508 -0.003087 -0.001063 0.000000 0.026652 0.000000
# 6 0.000000 0.000000 0.000000 -0.009069 0.000000 0.039450
#
#
# Mechanical properties :
#
#
# Convention : Reuss Voigt Hill
#
# Bulk Modulus (GPa) = 54.79706 56.79084 55.79395
# Shear Modulus (GPa) = 33.27774 36.70478 34.99126
#
# Velocity S-wave (km/s) = 4.01014 4.21157 4.11209
# Velocity P-wave (km/s) = 6.92257 7.14798 7.03618
#
# Compressibility (1/GPa) = 0.01824915
#
# Stress axis : x y z
#
# Youngs Moduli (GPa) = 76.47907 89.21862 131.01882
#
# Poissons Ratio (x) = 0.34941 0.22429
# Poissons Ratio (y) = 0.29952 0.15793
# Poissons Ratio (z) = 0.13093 0.10754
#
# Static dielectric constant tensor:
#      x y z
#    x 3.981400 0.000000 0.090480 
#    y 0.000000 3.727830 0.000000 
#    z 0.090480 0.000000 4.165880 
# 
# 
# High freq. dielectric constant tensor:
#      x y z
#    x 1.824810 0.000000 0.002780 
#    y 0.000000 1.792210 0.000000 
#    z 0.002780 0.000000 1.811560 
# 
# From -- ./inp_files/44523.got.cif
#   From: 2010.03.12/outbox.cif.g09.slc.cpg/sg14_23_cif.got.tgz:44523.got - 2010.03.31 13:35:05.
