data_PCOD8128215
_publ_section_title
;
Structure prediction by ZEFSAII (Michael W. Deem and Ramdas Pophale) SiO2 
 PCOD8128215
Probable space group: P 21/C
;
_chemical_formula_sum "Si O2"
_cell_formula_units_Z 28
_cell_length_a 8.903917
_cell_length_b 9.240094
_cell_length_c 22.357265
_cell_angle_alpha 90.000000
_cell_angle_beta 134.765938
_cell_angle_gamma 90.000000
_cell_volume 1305.954662
_symmetry_space_group_name_H-M "P 21/C"
_symmetry_group_IT_number 14
_symmetry_cell_setting 'monoclinic'
loop_
_space_group_symop_operation_xyz
x,y,z
-x,1/2+y,1/2-z
-x,-y,-z
x,1/2-y,1/2+z
loop_
_atom_site_type_symbol
_atom_site_label
_atom_site_fract_x
_atom_site_fract_y
_atom_site_fract_z
Si Si1 0.688241 0.185748 0.342438
Si Si2 0.260021 0.025181 0.421374
Si Si3 0.968485 0.695797 0.643941
Si Si4 0.636937 0.645477 0.826466
Si Si5 0.293180 0.687506 0.830994
Si Si6 0.288008 0.916560 0.930003
Si Si7 0.884818 0.192478 0.527085
O O1 0.472120 0.268000 0.260053
O O2 0.739819 0.179461 0.427424
O O3 0.885360 0.276626 0.372462
O O4 0.667366 0.020597 0.313476
O O5 0.209586 0.953194 0.343281
O O6 0.126240 0.955735 0.437882
O O7 0.500000 0.000000 0.500000
O O8 0.231081 0.197278 0.413146
O O9 0.901673 0.530138 0.632148
O O10 0.100572 0.743990 0.738113
O O11 0.493741 0.650495 0.845836
O O12 0.862103 0.716595 0.909502
O O13 0.341444 0.819049 0.888280
O O14 0.220761 0.823558 0.967719
O O15 0.500000 0.000000 0.000000
#
# Coordination Sequence:
#
# PCOD8128215 Si02
#       7
#     4   4   4   4   4   4   4
#     4  11  26  44  71 106 135 183 225 286 340 414
#     4  11  22  42  68  97 126 182 225 270 339 407
#     4  11  23  43  67  97 137 171 228 282 336 401
#     4  11  25  46  71 103 138 177 236 274 348 412
#     4  10  24  43  66  96 133 177 222 281 336 404
#     4  11  26  45  65 102 133 178 230 281 340 400
#     4  11  25  45  72  96 142 183 223 281 344 410
#
# _framework density 21.440252000000001
#
# number of rings (size 3 to 8) (size 9 to 14) (size 15 to 20)
#    0.000    1.143    1.429    3.857    8.000    2.857 
#   10.286    0.000    0.000    0.000    0.000    0.000 
#    0.000    0.000    0.000    0.000    0.000    0.000 
#
# Total GULP energy -347077.374585 kJ/mol
# GULP energy per Si atom -12395.620521 kJ/mol
# Density = 2.139145 g / cm^3
# Si number density = 21.440252 Si / 1000 Ang^3
#
#
#
# Elastic Constant Matrix: (Units=GPa)
#
#
# Indices 1 2 3 4 5 6 
#
# 1 80.0551 23.4159 41.2282 0.0000 -1.5779 0.0000
# 2 23.4159 99.2820 23.9927 0.0000 3.0540 0.0000
# 3 41.2282 23.9927 116.8249 0.0000 -0.4244 0.0000
# 4 0.0000 0.0000 0.0000 31.5988 0.0000 14.7275
# 5 -1.5779 3.0540 -0.4244 0.0000 38.6924 0.0000
# 6 0.0000 0.0000 0.0000 14.7275 0.0000 26.4061
#
#
#
# Elastic Compliance Matrix: (Units=1/GPa)
#
#
# Indices 1 2 3 4 5 6 
#
# 1 0.015863 -0.002540 -0.005074 0.000000 0.000792 0.000000
# 2 -0.002540 0.011034 -0.001373 0.000000 -0.000989 0.000000
# 3 -0.005074 -0.001373 0.010632 0.000000 0.000018 0.000000
# 4 0.000000 0.000000 0.000000 0.042763 0.000000 -0.023850
# 5 0.000792 -0.000989 0.000018 0.000000 0.025955 0.000000
# 6 0.000000 0.000000 0.000000 -0.023850 0.000000 0.051172
#
#
# Mechanical properties :
#
#
# Convention : Reuss Voigt Hill
#
# Bulk Modulus (GPa) = 51.13594 52.60395 51.86995
# Shear Modulus (GPa) = 27.48608 33.17448 30.33028
#
# Velocity S-wave (km/s) = 3.58437 3.93784 3.76525
# Velocity P-wave (km/s) = 6.40566 6.72784 6.56872
#
# Compressibility (1/GPa) = 0.01955572
#
# Stress axis : x y z
#
# Youngs Moduli (GPa) = 63.04098 90.63227 94.05171
#
# Poissons Ratio (x) = 0.23016 0.47718
# Poissons Ratio (y) = 0.16009 0.12917
# Poissons Ratio (z) = 0.31985 0.12447
#
# Static dielectric constant tensor:
#      x y z
#    x 3.742680 0.000000 0.226520 
#    y 0.000000 4.071200 0.000000 
#    z 0.226520 0.000000 3.997310 
# 
# 
# High freq. dielectric constant tensor:
#      x y z
#    x 1.846370 0.000000 0.006850 
#    y 0.000000 1.848670 0.000000 
#    z 0.006850 0.000000 1.852790 
# 
# From -- ./inp_files/64971.got.cif
#   From: 2010.03.12/outbox.cif.g09.slc.cpg/sg14_33_cif.got.tgz:64971.got - 2010.03.31 13:35:05.
