data_PCOD8128049
_publ_section_title
;
Structure prediction by ZEFSAII (Michael W. Deem and Ramdas Pophale) SiO2 
 PCOD8128049
Probable space group: P 21/C
;
_chemical_formula_sum "Si O2"
_cell_formula_units_Z 32
_cell_length_a 20.599297
_cell_length_b 8.380904
_cell_length_c 10.920181
_cell_angle_alpha 90.000000
_cell_angle_beta 129.229362
_cell_angle_gamma 90.000000
_cell_volume 1460.367252
_symmetry_space_group_name_H-M "P 21/C"
_symmetry_group_IT_number 14
_symmetry_cell_setting 'monoclinic'
loop_
_space_group_symop_operation_xyz
x,y,z
-x,1/2+y,1/2-z
-x,-y,-z
x,1/2-y,1/2+z
loop_
_atom_site_type_symbol
_atom_site_label
_atom_site_fract_x
_atom_site_fract_y
_atom_site_fract_z
Si Si1 0.432383 0.887706 0.772398
Si Si2 0.145237 0.337127 0.686271
Si Si3 0.880296 0.453731 0.554915
Si Si4 0.758741 0.137816 0.102801
Si Si5 0.995233 0.680652 0.830080
Si Si6 0.143727 0.009578 0.575412
Si Si7 0.258301 0.516821 0.991120
Si Si8 0.580299 0.368158 0.460930
O O1 0.353009 0.006709 0.653816
O O2 0.438574 0.762413 0.667567
O O3 0.516104 0.988865 0.867542
O O4 0.423505 0.808139 0.899609
O O5 0.135410 0.507060 0.606275
O O6 0.169556 0.193903 0.624040
O O7 0.220848 0.363601 0.874195
O O8 0.055739 0.288191 0.635133
O O9 0.788717 0.426281 0.505949
O O10 0.935689 0.297025 0.646303
O O11 0.926486 0.614763 0.654986
O O12 0.742227 0.325987 0.093169
O O13 0.835684 0.091956 0.280435
O O14 0.671968 0.056342 0.042560
O O15 0.044525 0.524355 0.939702
O O16 0.196172 0.940955 0.526743
#
# Coordination Sequence:
#
# PCOD8128049 Si02
#       8
#     4   4   4   4   4   4   4   4
#     4  10  23  45  74 106 141 180 228 281 350 413
#     4  12  26  41  63  95 136 171 232 285 344 399
#     4  12  25  42  63  95 126 183 225 284 338 406
#     4  11  24  43  69  92 132 179 223 273 342 403
#     4  12  25  41  64  91 134 176 232 282 340 398
#     4  12  24  43  64  95 131 176 222 285 332 403
#     4  11  24  45  68  96 132 176 222 276 337 410
#     4  10  23  46  73 106 142 180 227 285 344 423
#
# _framework density 21.912295
#
# number of rings (size 3 to 8) (size 9 to 14) (size 15 to 20)
#    0.000    0.750    3.750    3.750    1.750    2.500 
#    0.000    0.000    0.000    0.000    0.000    0.000 
#    0.000    0.000    0.000    0.000    0.000    0.000 
#
# Total GULP energy -396531.883376 kJ/mol
# GULP energy per Si atom -12391.621355 kJ/mol
# Density = 2.186242 g / cm^3
# Si number density = 21.912295 Si / 1000 Ang^3
#
#
#
# Elastic Constant Matrix: (Units=GPa)
#
#
# Indices 1 2 3 4 5 6 
#
# 1 130.9637 34.8522 48.9520 0.0000 5.5511 0.0000
# 2 34.8522 73.5642 34.3029 0.0000 -3.9848 0.0000
# 3 48.9520 34.3029 100.0008 0.0000 -2.8035 0.0000
# 4 0.0000 0.0000 0.0000 17.3678 0.0000 2.2690
# 5 5.5511 -3.9848 -2.8035 0.0000 33.5437 0.0000
# 6 0.0000 0.0000 0.0000 2.2690 0.0000 30.3184
#
#
#
# Elastic Compliance Matrix: (Units=1/GPa)
#
#
# Indices 1 2 3 4 5 6 
#
# 1 0.010011 -0.003040 -0.003923 0.000000 -0.002346 0.000000
# 2 -0.003040 0.017177 -0.004343 0.000000 0.002181 0.000000
# 3 -0.003923 -0.004343 0.013445 0.000000 0.001257 0.000000
# 4 0.000000 0.000000 0.000000 0.058146 0.000000 -0.004352
# 5 -0.002346 0.002181 0.001257 0.000000 0.030564 0.000000
# 6 0.000000 0.000000 0.000000 -0.004352 0.000000 0.033309
#
#
# Mechanical properties :
#
#
# Convention : Reuss Voigt Hill
#
# Bulk Modulus (GPa) = 55.49261 60.08254 57.78758
# Shear Modulus (GPa) = 26.14078 28.67409 27.40743
#
# Velocity S-wave (km/s) = 3.45769 3.62136 3.54047
# Velocity P-wave (km/s) = 6.42812 6.70558 6.56831
#
# Compressibility (1/GPa) = 0.01802042
#
# Stress axis : x y z
#
# Youngs Moduli (GPa) = 99.89331 58.21687 74.37529
#
# Poissons Ratio (x) = 0.17700 0.29179
# Poissons Ratio (y) = 0.30372 0.32299
# Poissons Ratio (z) = 0.39190 0.25282
#
# Static dielectric constant tensor:
#      x y z
#    x 4.163170 0.000000 -0.011540 
#    y 0.000000 3.767000 0.000000 
#    z -0.011540 0.000000 4.185380 
# 
# 
# High freq. dielectric constant tensor:
#      x y z
#    x 1.867990 0.000000 -0.002800 
#    y 0.000000 1.846600 0.000000 
#    z -0.002800 0.000000 1.870000 
# 
# From -- ./inp_files/34978.got.cif
#   From: 2010.03.12/outbox.cif.g09.slc.cpg/sg14_18_cif.got.tgz:34978.got - 2010.03.31 13:35:05.
