data_PCOD8128269
_publ_section_title
;
Structure prediction by ZEFSAII (Michael W. Deem and Ramdas Pophale) SiO2 
 PCOD8128269
Probable space group: P 21/C
;
_chemical_formula_sum "Si O2"
_cell_formula_units_Z 28
_cell_length_a 14.316828
_cell_length_b 10.925010
_cell_length_c 8.560158
_cell_angle_alpha 90.000000
_cell_angle_beta 113.520486
_cell_angle_gamma 90.000000
_cell_volume 1227.667238
_symmetry_space_group_name_H-M "P 21/C"
_symmetry_group_IT_number 14
_symmetry_cell_setting 'monoclinic'
loop_
_space_group_symop_operation_xyz
x,y,z
-x,1/2+y,1/2-z
-x,-y,-z
x,1/2-y,1/2+z
loop_
_atom_site_type_symbol
_atom_site_label
_atom_site_fract_x
_atom_site_fract_y
_atom_site_fract_z
Si Si1 0.817878 0.368578 0.574392
Si Si2 0.950348 0.792087 0.750997
Si Si3 0.364723 0.292813 0.778777
Si Si4 0.083368 0.415505 0.476912
Si Si5 0.248441 0.396800 0.989798
Si Si6 0.489666 0.128298 0.081842
Si Si7 0.286454 0.851812 0.670147
O O1 0.816445 0.501271 0.485499
O O2 0.756875 0.386015 0.690913
O O3 0.768131 0.269407 0.428772
O O4 0.935430 0.340917 0.693320
O O5 0.949692 0.647878 0.707596
O O6 0.872524 0.871070 0.592814
O O7 0.904342 0.802524 0.895334
O O8 0.298137 0.185669 0.657150
O O9 0.409031 0.380260 0.671234
O O10 0.296929 0.371888 0.851830
O O11 0.456932 0.230431 0.935368
O O12 0.000000 0.500000 0.500000
O O13 0.266415 0.539150 0.036292
O O14 0.594485 0.172498 0.229624
O O15 0.500000 0.000000 0.000000
#
# Coordination Sequence:
#
# PCOD8128269 Si02
#       7
#     4   4   4   4   4   4   4
#     4  11  27  45  67 103 148 184 236 288 347 427
#     4  11  24  44  72  98 144 187 235 286 347 406
#     4  10  24  47  71 104 137 176 241 295 357 423
#     4  10  24  44  67  99 138 190 237 286 341 407
#     4  11  25  43  74 104 133 186 238 286 356 423
#     4  11  23  48  72 103 140 180 232 297 358 422
#     4  12  27  46  70 104 141 190 235 288 363 424
#
# _framework density 22.807483000000001
#
# number of rings (size 3 to 8) (size 9 to 14) (size 15 to 20)
#    0.000    1.143    1.429    3.429   10.000    2.286 
#    2.571    0.000    0.000    0.000    0.000    0.000 
#    0.000    0.000    0.000    0.000    0.000    0.000 
#
# Total GULP energy -347100.801879 kJ/mol
# GULP energy per Si atom -12396.457210 kJ/mol
# Density = 2.275557 g / cm^3
# Si number density = 22.807483 Si / 1000 Ang^3
#
#
#
# Elastic Constant Matrix: (Units=GPa)
#
#
# Indices 1 2 3 4 5 6 
#
# 1 90.5338 26.5206 36.8443 0.0000 -4.8923 0.0000
# 2 26.5206 89.7630 28.7033 0.0000 -28.5279 0.0000
# 3 36.8443 28.7033 92.3686 0.0000 -4.0345 0.0000
# 4 0.0000 0.0000 0.0000 44.7984 0.0000 -10.4370
# 5 -4.8923 -28.5279 -4.0345 0.0000 61.3360 0.0000
# 6 0.0000 0.0000 0.0000 -10.4370 0.0000 40.1437
#
#
#
# Elastic Compliance Matrix: (Units=1/GPa)
#
#
# Indices 1 2 3 4 5 6 
#
# 1 0.013705 -0.002715 -0.004644 0.000000 -0.000475 0.000000
# 2 -0.002715 0.015098 -0.003321 0.000000 0.006587 0.000000
# 3 -0.004644 -0.003321 0.013666 0.000000 -0.001016 0.000000
# 4 0.000000 0.000000 0.000000 0.023761 0.000000 0.006178
# 5 -0.000475 0.006587 -0.001016 0.000000 0.019263 0.000000
# 6 0.000000 0.000000 0.000000 0.006178 0.000000 0.026517
#
#
# Mechanical properties :
#
#
# Convention : Reuss Voigt Hill
#
# Bulk Modulus (GPa) = 47.37210 50.75576 49.06393
# Shear Modulus (GPa) = 35.61084 41.29544 38.45314
#
# Velocity S-wave (km/s) = 3.95570 4.25974 4.11053
# Velocity P-wave (km/s) = 6.45592 6.81881 6.63985
#
# Compressibility (1/GPa) = 0.02110947
#
# Stress axis : x y z
#
# Youngs Moduli (GPa) = 72.96505 66.23337 73.17388
#
# Poissons Ratio (x) = 0.17985 0.33980
# Poissons Ratio (y) = 0.19812 0.24300
# Poissons Ratio (z) = 0.33883 0.21995
#
# Static dielectric constant tensor:
#      x y z
#    x 4.391510 0.000000 -0.182780 
#    y 0.000000 4.458060 0.000000 
#    z -0.182780 0.000000 4.650240 
# 
# 
# High freq. dielectric constant tensor:
#      x y z
#    x 1.912970 0.000000 -0.004300 
#    y 0.000000 1.898120 0.000000 
#    z -0.004300 0.000000 1.913370 
# 
# From -- ./inp_files/15864.got.cif
#   From: 2010.03.12/outbox.cif.g09.slc.cpg/sg14_8_cif.got.tgz:15864.got - 2010.03.31 13:35:05.
