data_PCOD8128448
_publ_section_title
;
Structure prediction by ZEFSAII (Michael W. Deem and Ramdas Pophale) SiO2 
 PCOD8128448
Probable space group: P 21/C
;
_chemical_formula_sum "Si O2"
_cell_formula_units_Z 32
_cell_length_a 14.070461
_cell_length_b 9.430593
_cell_length_c 13.971458
_cell_angle_alpha 90.000000
_cell_angle_beta 102.679826
_cell_angle_gamma 90.000000
_cell_volume 1808.698356
_symmetry_space_group_name_H-M "P 21/C"
_symmetry_group_IT_number 14
_symmetry_cell_setting 'monoclinic'
loop_
_space_group_symop_operation_xyz
x,y,z
-x,1/2+y,1/2-z
-x,-y,-z
x,1/2-y,1/2+z
loop_
_atom_site_type_symbol
_atom_site_label
_atom_site_fract_x
_atom_site_fract_y
_atom_site_fract_z
Si Si1 0.491855 0.644532 0.884462
Si Si2 0.358312 0.697991 0.218192
Si Si3 0.130658 0.092666 0.695968
Si Si4 0.001180 0.706937 0.449333
Si Si5 0.520773 0.815174 0.604198
Si Si6 0.649893 0.869695 0.264070
Si Si7 0.860081 0.227526 0.364128
Si Si8 0.027011 0.081810 0.865172
O O1 0.399369 0.715991 0.815945
O O2 0.459096 0.481816 0.882568
O O3 0.591022 0.671098 0.846873
O O4 0.508672 0.719704 0.989911
O O5 0.421992 0.723094 0.137588
O O6 0.359770 0.536988 0.255531
O O7 0.253661 0.761707 0.167966
O O8 0.053448 0.161796 0.608265
O O9 0.235716 0.162549 0.697992
O O10 0.104608 0.120568 0.801027
O O11 0.122659 0.927024 0.674655
O O12 0.936859 0.642087 0.523484
O O13 0.104151 0.762857 0.516658
O O14 0.016386 0.588004 0.371279
O O15 0.609106 0.721378 0.665965
O O16 0.922516 0.343520 0.317005
#
# Coordination Sequence:
#
# PCOD8128448 Si02
#       8
#     4   4   4   4   4   4   4   4
#     4   9  18  35  55  72 105 135 167 215 256 311
#     4   9  18  35  52  77 104 133 170 212 260 302
#     4  11  19  34  57  78 103 146 174 215 264 315
#     4   9  20  37  52  75 109 139 174 221 259 302
#     4   9  18  35  53  77 100 135 172 208 261 312
#     4   9  20  33  52  75 108 129 170 216 253 307
#     4   9  19  36  53  76 109 137 175 220 256 310
#     4   9  20  36  52  75 108 140 173 221 256 310
#
# _framework density 17.692283
#
# number of rings (size 3 to 8) (size 9 to 14) (size 15 to 20)
#    0.750    2.000    0.000    1.125    0.000    2.500 
#    6.750    0.000    0.000    0.000    0.000    0.000 
#    0.000    0.000    0.000    0.000    0.000    0.000 
#
# Total GULP energy -396602.317922 kJ/mol
# GULP energy per Si atom -12393.822435 kJ/mol
# Density = 1.765201 g / cm^3
# Si number density = 17.692283 Si / 1000 Ang^3
#
#
#
# Elastic Constant Matrix: (Units=GPa)
#
#
# Indices 1 2 3 4 5 6 
#
# 1 84.3232 35.2883 63.8327 0.0000 13.1091 0.0000
# 2 35.2883 48.5386 44.2868 0.0000 7.1804 0.0000
# 3 63.8327 44.2868 123.5751 0.0000 8.6784 0.0000
# 4 0.0000 0.0000 0.0000 32.4402 0.0000 7.4396
# 5 13.1091 7.1804 8.6784 0.0000 23.8374 0.0000
# 6 0.0000 0.0000 0.0000 7.4396 0.0000 20.9261
#
#
#
# Elastic Compliance Matrix: (Units=1/GPa)
#
#
# Indices 1 2 3 4 5 6 
#
# 1 0.022508 -0.007678 -0.008382 0.000000 -0.007014 0.000000
# 2 -0.007678 0.033914 -0.007971 0.000000 -0.003091 0.000000
# 3 -0.008382 -0.007971 0.015174 0.000000 0.001486 0.000000
# 4 0.000000 0.000000 0.000000 0.033562 0.000000 -0.011932
# 5 -0.007014 -0.003091 0.001486 0.000000 0.046198 0.000000
# 6 0.000000 0.000000 0.000000 -0.011932 0.000000 0.052029
#
#
# Mechanical properties :
#
#
# Convention : Reuss Voigt Hill
#
# Bulk Modulus (GPa) = 42.49180 60.36140 51.42660
# Shear Modulus (GPa) = 19.28314 22.97601 21.12957
#
# Velocity S-wave (km/s) = 3.30497 3.60758 3.45959
# Velocity P-wave (km/s) = 6.21555 7.17944 6.71481
#
# Compressibility (1/GPa) = 0.02353395
#
# Stress axis : x y z
#
# Youngs Moduli (GPa) = 44.42844 29.48603 65.90053
#
# Poissons Ratio (x) = 0.22640 0.55240
# Poissons Ratio (y) = 0.34113 0.52529
# Poissons Ratio (z) = 0.37241 0.23503
#
# Static dielectric constant tensor:
#      x y z
#    x 3.234560 0.000000 0.001920 
#    y 0.000000 3.241040 0.000000 
#    z 0.001920 0.000000 3.238680 
# 
# 
# High freq. dielectric constant tensor:
#      x y z
#    x 1.672300 0.000000 -0.002330 
#    y 0.000000 1.685910 0.000000 
#    z -0.002330 0.000000 1.680170 
# 
# From -- ./inp_files/44066.got.cif
#   From: 2010.03.12/outbox.cif.g09.slc.cpg/sg14_23_cif.got.tgz:44066.got - 2010.03.31 13:35:05.
