data_PCOD8128903
_publ_section_title
;
Structure prediction by ZEFSAII (Michael W. Deem and Ramdas Pophale) SiO2 
 PCOD8128903
Probable space group: P 21/C
;
_chemical_formula_sum "Si O2"
_cell_formula_units_Z 28
_cell_length_a 21.555591
_cell_length_b 8.421374
_cell_length_c 13.969160
_cell_angle_alpha 90.000000
_cell_angle_beta 31.975938
_cell_angle_gamma 90.000000
_cell_volume 1342.860418
_symmetry_space_group_name_H-M "P 21/C"
_symmetry_group_IT_number 14
_symmetry_cell_setting 'monoclinic'
loop_
_space_group_symop_operation_xyz
x,y,z
-x,1/2+y,1/2-z
-x,-y,-z
x,1/2-y,1/2+z
loop_
_atom_site_type_symbol
_atom_site_label
_atom_site_fract_x
_atom_site_fract_y
_atom_site_fract_z
Si Si1 0.025264 0.116433 0.154980
Si Si2 0.286283 0.309195 0.255166
Si Si3 0.365613 0.967409 0.482323
Si Si4 0.589162 0.739646 0.710260
Si Si5 0.852037 0.252028 0.740727
Si Si6 0.771108 0.895435 0.835763
Si Si7 0.983720 0.778487 0.141870
O O1 0.956315 0.244591 0.181542
O O2 0.000049 0.145749 0.299046
O O3 0.964477 0.948433 0.214712
O O4 0.163712 0.121612 0.954175
O O5 0.369301 0.260711 0.234263
O O6 0.271119 0.145606 0.215954
O O7 0.347636 0.438171 0.105356
O O8 0.458372 0.827792 0.378138
O O9 0.248128 0.878036 0.602413
O O10 0.404846 0.085013 0.345059
O O11 0.669124 0.619323 0.546435
O O12 0.900705 0.294630 0.572821
O O13 0.811297 0.073222 0.790390
O O14 0.871691 0.765109 0.724710
#
# Coordination Sequence:
#
# PCOD8128903 Si02
#       7
#     4   4   4   4   4   4   4
#     4  12  24  39  66 100 134 182 218 271 336 398
#     4  11  23  43  69  97 134 174 223 276 337 391
#     4  11  25  47  70  97 131 180 221 285 337 394
#     4  11  24  47  71  96 132 173 231 279 334 401
#     4  12  25  41  65  99 139 177 221 273 337 401
#     4  11  24  41  66 101 134 180 220 273 333 399
#     4  12  24  41  62  97 141 173 224 267 332 398
#
# _framework density 20.851012000000001
#
# number of rings (size 3 to 8) (size 9 to 14) (size 15 to 20)
#    0.000    0.571    4.286    4.714    2.000    0.000 
#    0.000    9.286    0.000    0.000    0.000    0.000 
#    0.000    0.000    0.000    0.000    0.000    0.000 
#
# Total GULP energy -347282.971378 kJ/mol
# GULP energy per Si atom -12402.963263 kJ/mol
# Density = 2.080355 g / cm^3
# Si number density = 20.851012 Si / 1000 Ang^3
#
#
#
# Elastic Constant Matrix: (Units=GPa)
#
#
# Indices 1 2 3 4 5 6 
#
# 1 129.7423 21.4243 43.1884 0.0000 2.6180 0.0000
# 2 21.4243 99.5646 24.4431 0.0000 11.2765 0.0000
# 3 43.1884 24.4431 96.5962 0.0000 -9.8569 0.0000
# 4 0.0000 0.0000 0.0000 37.6875 0.0000 -4.4844
# 5 2.6180 11.2765 -9.8569 0.0000 39.9860 0.0000
# 6 0.0000 0.0000 0.0000 -4.4844 0.0000 29.7254
#
#
#
# Elastic Compliance Matrix: (Units=1/GPa)
#
#
# Indices 1 2 3 4 5 6 
#
# 1 0.009222 -0.000835 -0.004051 0.000000 -0.001367 0.000000
# 2 -0.000835 0.011373 -0.002899 0.000000 -0.003867 0.000000
# 3 -0.004051 -0.002899 0.013343 0.000000 0.004372 0.000000
# 4 0.000000 0.000000 0.000000 0.027019 0.000000 0.004076
# 5 -0.001367 -0.003867 0.004372 0.000000 0.027267 0.000000
# 6 0.000000 0.000000 0.000000 0.004076 0.000000 0.034256
#
#
# Mechanical properties :
#
#
# Convention : Reuss Voigt Hill
#
# Bulk Modulus (GPa) = 54.44413 56.00165 55.22289
# Shear Modulus (GPa) = 34.68047 37.26961 35.97504
#
# Velocity S-wave (km/s) = 4.08272 4.23238 4.15822
# Velocity P-wave (km/s) = 6.95647 7.12744 7.04247
#
# Compressibility (1/GPa) = 0.01836745
#
# Stress axis : x y z
#
# Youngs Moduli (GPa) = 108.44111 87.92627 74.94301
#
# Poissons Ratio (x) = 0.07341 0.30361
# Poissons Ratio (y) = 0.09054 0.21728
# Poissons Ratio (z) = 0.43932 0.25492
#
# Static dielectric constant tensor:
#      x y z
#    x 3.928080 0.000000 0.094810 
#    y 0.000000 3.852650 0.000000 
#    z 0.094810 0.000000 3.887800 
# 
# 
# High freq. dielectric constant tensor:
#      x y z
#    x 1.823190 0.000000 0.003710 
#    y 0.000000 1.821660 0.000000 
#    z 0.003710 0.000000 1.821100 
# 
# From -- ./inp_files/43191.got.cif
#   From: 2010.03.12/outbox.cif.g09.slc.cpg/sg14_22_cif.got.tgz:43191.got - 2010.03.31 13:35:05.
