data_PCOD8128241
_publ_section_title
;
Structure prediction by ZEFSAII (Michael W. Deem and Ramdas Pophale) SiO2 
 PCOD8128241
Probable space group: P 21/C
;
_chemical_formula_sum "Si O2"
_cell_formula_units_Z 20
_cell_length_a 16.304564
_cell_length_b 8.750090
_cell_length_c 10.084697
_cell_angle_alpha 90.000000
_cell_angle_beta 145.944329
_cell_angle_gamma 90.000000
_cell_volume 805.695930
_symmetry_space_group_name_H-M "P 21/C"
_symmetry_group_IT_number 14
_symmetry_cell_setting 'monoclinic'
loop_
_space_group_symop_operation_xyz
x,y,z
-x,1/2+y,1/2-z
-x,-y,-z
x,1/2-y,1/2+z
loop_
_atom_site_type_symbol
_atom_site_label
_atom_site_fract_x
_atom_site_fract_y
_atom_site_fract_z
Si Si1 0.704215 0.655333 0.599045
Si Si2 0.530251 0.668209 0.093025
Si Si3 0.225823 0.808068 0.746795
Si Si4 0.051719 0.896264 0.190760
Si Si5 0.067893 0.291058 0.776862
O O1 0.593004 0.659261 0.325793
O O2 0.636143 0.735249 0.637765
O O3 0.760469 0.486214 0.703963
O O4 0.846462 0.747750 0.740840
O O5 0.500000 0.500000 0.000000
O O6 0.379153 0.757075 0.893669
O O7 0.183551 0.716322 0.825431
O O8 0.102951 0.761127 0.474170
O O9 0.907103 0.806222 0.055001
O O10 0.099362 0.031593 0.357161
O O11 0.000000 0.000000 0.000000
#
# Coordination Sequence:
#
# PCOD8128241 Si02
#       5
#     4   4   4   4   4
#     4  12  28  48  77 110 152 201 256 315 382 454
#     4  12  29  49  75 108 156 203 255 313 385 454
#     4  11  26  47  76 107 149 199 252 310 384 452
#     4  10  24  43  73 109 149 192 245 308 380 446
#     4  11  25  43  78 107 154 185 256 306 382 443
#
# _framework density 24.823262
#
# number of rings (size 3 to 8) (size 9 to 14) (size 15 to 20)
#    0.000    0.800    0.000    4.800   19.600    0.000 
#    0.000    0.000    0.000    0.000    0.000    0.000 
#    0.000    0.000    0.000    0.000    0.000    0.000 
#
# Total GULP energy -247798.393158 kJ/mol
# GULP energy per Si atom -12389.919658 kJ/mol
# Density = 2.476676 g / cm^3
# Si number density = 24.823262 Si / 1000 Ang^3
#
#
#
# Elastic Constant Matrix: (Units=GPa)
#
#
# Indices 1 2 3 4 5 6 
#
# 1 134.6973 53.7286 3.8689 0.0000 32.7844 0.0000
# 2 53.7286 188.5253 -33.6721 0.0000 22.2823 0.0000
# 3 3.8689 -33.6721 51.9569 0.0000 1.2481 0.0000
# 4 0.0000 0.0000 0.0000 31.2547 0.0000 10.9435
# 5 32.7844 22.2823 1.2481 0.0000 46.1841 0.0000
# 6 0.0000 0.0000 0.0000 10.9435 0.0000 64.3148
#
#
#
# Elastic Compliance Matrix: (Units=1/GPa)
#
#
# Indices 1 2 3 4 5 6 
#
# 1 0.009901 -0.002545 -0.002249 0.000000 -0.005740 0.000000
# 2 -0.002545 0.007099 0.004833 0.000000 -0.001749 0.000000
# 3 -0.002249 0.004833 0.022578 0.000000 -0.001345 0.000000
# 4 0.000000 0.000000 0.000000 0.034022 0.000000 -0.005789
# 5 -0.005740 -0.001749 -0.001345 0.000000 0.026607 0.000000
# 6 0.000000 0.000000 0.000000 -0.005789 0.000000 0.016534
#
#
# Mechanical properties :
#
#
# Convention : Reuss Voigt Hill
#
# Bulk Modulus (GPa) = 25.21650 47.00336 36.10993
# Shear Modulus (GPa) = 38.49636 51.76766 45.13201
#
# Velocity S-wave (km/s) = 3.94231 4.57163 4.26858
# Velocity P-wave (km/s) = 5.55904 6.84417 6.23481
#
# Compressibility (1/GPa) = 0.03965657
#
# Stress axis : x y z
#
# Youngs Moduli (GPa) = 101.00258 140.85502 44.29017
#
# Poissons Ratio (x) = 0.35846 0.09959
# Poissons Ratio (y) = 0.25704 -0.21403
# Poissons Ratio (z) = 0.22712 -0.68069
#
# Static dielectric constant tensor:
#      x y z
#    x 4.619470 0.000000 -0.328200 
#    y 0.000000 7.896480 0.000000 
#    z -0.328200 0.000000 4.777090 
# 
# 
# High freq. dielectric constant tensor:
#      x y z
#    x 2.018510 0.000000 -0.015710 
#    y 0.000000 2.019140 0.000000 
#    z -0.015710 0.000000 1.990290 
# 
# From -- ./inp_files/22980.got.cif
#   From: 2010.03.12/outbox.cif.g09.slc.cpg/sg14_12_cif.got.tgz:22980.got - 2010.03.31 13:35:05.
