data_PCOD8128477
_publ_section_title
;
Structure prediction by ZEFSAII (Michael W. Deem and Ramdas Pophale) SiO2 
 PCOD8128477
Probable space group: P 21/C
;
_chemical_formula_sum "Si O2"
_cell_formula_units_Z 28
_cell_length_a 14.553949
_cell_length_b 16.831886
_cell_length_c 11.682950
_cell_angle_alpha 90.000000
_cell_angle_beta 151.658568
_cell_angle_gamma 90.000000
_cell_volume 1358.651429
_symmetry_space_group_name_H-M "P 21/C"
_symmetry_group_IT_number 14
_symmetry_cell_setting 'monoclinic'
loop_
_space_group_symop_operation_xyz
x,y,z
-x,1/2+y,1/2-z
-x,-y,-z
x,1/2-y,1/2+z
loop_
_atom_site_type_symbol
_atom_site_label
_atom_site_fract_x
_atom_site_fract_y
_atom_site_fract_z
Si Si1 0.062671 0.115501 0.969775
Si Si2 0.088542 0.749458 0.857274
Si Si3 0.725411 0.695305 0.101650
Si Si4 0.348521 0.493314 0.675156
Si Si5 0.659162 0.395360 0.122784
Si Si6 0.409517 0.780943 0.874833
Si Si7 0.612198 0.367447 0.423299
O O1 0.010738 0.196132 0.847229
O O2 0.874699 0.079468 0.823894
O O3 0.229935 0.133213 0.246734
O O4 0.143320 0.049540 0.970611
O O5 0.927272 0.781259 0.766923
O O6 0.242899 0.698802 0.100159
O O7 0.200250 0.822147 0.920432
O O8 0.616145 0.771771 0.037219
O O9 0.587172 0.656554 0.856386
O O10 0.389182 0.564658 0.809336
O O11 0.351694 0.537859 0.555890
O O12 0.515806 0.426866 0.866647
O O13 0.640628 0.300773 0.113235
O O14 0.415766 0.852054 0.972716
#
# Coordination Sequence:
#
# PCOD8128477 Si02
#       7
#     4   4   4   4   4   4   4
#     4  12  22  37  62  89 123 156 191 250 302 347
#     4  11  22  37  61  89 117 160 202 238 293 356
#     4  11  20  35  61  89 113 155 201 245 290 345
#     4  11  22  36  58  93 121 149 194 250 305 347
#     4  11  20  38  59  89 121 153 190 247 302 344
#     4  11  21  39  60  86 122 158 199 243 286 357
#     4  11  22  39  59  87 123 156 199 246 293 353
#
# _framework density 20.60867
#
# number of rings (size 3 to 8) (size 9 to 14) (size 15 to 20)
#    0.000    0.857    7.143    2.143    0.000    1.143 
#    0.000    0.714    0.000    1.714    0.000    0.000 
#    0.000    0.000    0.000    0.000    0.000    0.000 
#
# Total GULP energy -347256.741743 kJ/mol
# GULP energy per Si atom -12402.026491 kJ/mol
# Density = 2.056176 g / cm^3
# Si number density = 20.608670 Si / 1000 Ang^3
#
#
#
# Elastic Constant Matrix: (Units=GPa)
#
#
# Indices 1 2 3 4 5 6 
#
# 1 53.8780 -11.9214 14.6956 0.0000 14.1869 0.0000
# 2 -11.9214 28.9442 4.3318 0.0000 -0.6412 0.0000
# 3 14.6956 4.3318 71.4815 0.0000 9.5337 0.0000
# 4 0.0000 0.0000 0.0000 20.3758 0.0000 -0.6721
# 5 14.1869 -0.6412 9.5337 0.0000 29.0427 0.0000
# 6 0.0000 0.0000 0.0000 -0.6721 0.0000 26.5204
#
#
#
# Elastic Compliance Matrix: (Units=1/GPa)
#
#
# Indices 1 2 3 4 5 6 
#
# 1 0.024869 0.010664 -0.004361 0.000000 -0.010481 0.000000
# 2 0.010664 0.039503 -0.004191 0.000000 -0.002961 0.000000
# 3 -0.004361 -0.004191 0.015549 0.000000 -0.003066 0.000000
# 4 0.000000 0.000000 0.000000 0.049119 0.000000 0.001245
# 5 -0.010481 -0.002961 -0.003066 0.000000 0.040493 0.000000
# 6 0.000000 0.000000 0.000000 0.001245 0.000000 0.037738
#
#
# Mechanical properties :
#
#
# Convention : Reuss Voigt Hill
#
# Bulk Modulus (GPa) = 11.88439 18.72397 15.30418
# Shear Modulus (GPa) = 21.63589 25.00096 23.31842
#
# Velocity S-wave (km/s) = 3.24364 3.48678 3.36741
# Velocity P-wave (km/s) = 4.45056 5.03144 4.74989
#
# Compressibility (1/GPa) = 0.08414396
#
# Stress axis : x y z
#
# Youngs Moduli (GPa) = 40.21014 25.31458 64.31204
#
# Poissons Ratio (x) = -0.26994 0.28047
# Poissons Ratio (y) = -0.42878 0.26955
# Poissons Ratio (z) = 0.17536 0.10610
#
# Static dielectric constant tensor:
#      x y z
#    x 3.806090 0.000000 0.153470 
#    y 0.000000 3.524790 0.000000 
#    z 0.153470 0.000000 3.833620 
# 
# 
# High freq. dielectric constant tensor:
#      x y z
#    x 1.804180 0.000000 0.021470 
#    y 0.000000 1.777440 0.000000 
#    z 0.021470 0.000000 1.810970 
# 
# From -- ./inp_files/32932.got.cif
#   From: 2010.03.12/outbox.cif.g09.slc.cpg/sg14_17_cif.got.tgz:32932.got - 2010.03.31 13:35:05.
