data_PCOD8128864
_publ_section_title
;
Structure prediction by ZEFSAII (Michael W. Deem and Ramdas Pophale) SiO2 
 PCOD8128864
Probable space group: P 21/C
;
_chemical_formula_sum "Si O2"
_cell_formula_units_Z 24
_cell_length_a 18.586083
_cell_length_b 11.229600
_cell_length_c 24.203127
_cell_angle_alpha 90.000000
_cell_angle_beta 12.400519
_cell_angle_gamma 90.000000
_cell_volume 1084.788392
_symmetry_space_group_name_H-M "P 21/C"
_symmetry_group_IT_number 14
_symmetry_cell_setting 'monoclinic'
loop_
_space_group_symop_operation_xyz
x,y,z
-x,1/2+y,1/2-z
-x,-y,-z
x,1/2-y,1/2+z
loop_
_atom_site_type_symbol
_atom_site_label
_atom_site_fract_x
_atom_site_fract_y
_atom_site_fract_z
Si Si1 0.388744 0.507369 0.221236
Si Si2 0.793219 0.571027 0.110047
Si Si3 0.311079 0.756826 0.516447
Si Si4 0.250149 0.338880 0.134026
Si Si5 0.866004 0.232755 0.730341
Si Si6 0.763571 0.525177 0.544988
O O1 0.427725 0.525256 0.257655
O O2 0.000000 0.500000 0.500000
O O3 0.594917 0.393703 0.044859
O O4 0.538069 0.620411 0.077983
O O5 0.646085 0.685738 0.250972
O O6 0.495736 0.485134 0.311327
O O7 0.000000 0.500000 0.000000
O O8 0.022484 0.616360 0.887407
O O9 0.146891 0.702620 0.695081
O O10 0.047815 0.746290 0.663542
O O11 0.098567 0.449800 0.281713
O O12 0.489378 0.266147 0.995058
O O13 0.132223 0.339185 0.521077
#
# Coordination Sequence:
#
# PCOD8128864 Si02
#       6
#     4   4   4   4   4   4
#     4  12  21  41  67  97 131 174 226 279 327 400
#     4  11  27  46  64  99 137 173 217 277 336 397
#     4  11  25  41  65  99 130 174 222 268 343 392
#     4  11  24  40  67  98 131 172 225 283 326 399
#     4  12  23  44  68  96 129 179 218 271 340 395
#     4  11  23  42  67  97 133 170 228 269 328 402
#
# _framework density 22.124130000000001
#
# number of rings (size 3 to 8) (size 9 to 14) (size 15 to 20)
#    0.000    0.667    5.000    2.500    2.333    2.000 
#    3.000    0.000    0.000    0.000    0.000    0.000 
#    0.000    0.000    0.000    0.000    0.000    0.000 
#
# Total GULP energy -297775.348560 kJ/mol
# GULP energy per Si atom -12407.306190 kJ/mol
# Density = 2.207377 g / cm^3
# Si number density = 22.124130 Si / 1000 Ang^3
#
#
#
# Elastic Constant Matrix: (Units=GPa)
#
#
# Indices 1 2 3 4 5 6 
#
# 1 92.9051 14.0380 18.6339 0.0000 2.9121 0.0000
# 2 14.0380 51.7909 20.3894 0.0000 -16.8039 0.0000
# 3 18.6339 20.3894 85.0395 0.0000 -5.4923 0.0000
# 4 0.0000 0.0000 0.0000 24.8246 0.0000 5.2619
# 5 2.9121 -16.8039 -5.4923 0.0000 54.3621 0.0000
# 6 0.0000 0.0000 0.0000 5.2619 0.0000 36.9206
#
#
#
# Elastic Compliance Matrix: (Units=1/GPa)
#
#
# Indices 1 2 3 4 5 6 
#
# 1 0.011657 -0.002951 -0.001959 0.000000 -0.001735 0.000000
# 2 -0.002951 0.024298 -0.004715 0.000000 0.007193 0.000000
# 3 -0.001959 -0.004715 0.013318 0.000000 -0.000007 0.000000
# 4 0.000000 0.000000 0.000000 0.041537 0.000000 -0.005920
# 5 -0.001735 0.007193 -0.000007 0.000000 0.020711 0.000000
# 6 0.000000 0.000000 0.000000 -0.005920 0.000000 0.027929
#
#
# Mechanical properties :
#
#
# Convention : Reuss Voigt Hill
#
# Bulk Modulus (GPa) = 33.30645 37.31756 35.31201
# Shear Modulus (GPa) = 29.63707 34.99972 32.31840
#
# Velocity S-wave (km/s) = 3.66400 3.98171 3.82616
# Velocity P-wave (km/s) = 5.74342 6.16788 5.95943
#
# Compressibility (1/GPa) = 0.03002421
#
# Stress axis : x y z
#
# Youngs Moduli (GPa) = 85.78653 41.15542 75.08421
#
# Poissons Ratio (x) = 0.12146 0.14707
# Poissons Ratio (y) = 0.25318 0.35399
# Poissons Ratio (z) = 0.16803 0.19403
#
# Static dielectric constant tensor:
#      x y z
#    x 4.150820 0.000000 0.095170 
#    y 0.000000 3.681280 0.000000 
#    z 0.095170 0.000000 4.062870 
# 
# 
# High freq. dielectric constant tensor:
#      x y z
#    x 1.886590 0.000000 0.003730 
#    y 0.000000 1.848060 0.000000 
#    z 0.003730 0.000000 1.883030 
# 
# From -- ./inp_files/44602.got.cif
#   From: 2010.03.12/outbox.cif.g09.slc.cpg/sg14_23_cif.got.tgz:44602.got - 2010.03.31 13:35:05.
