data_PCOD8128178
_publ_section_title
;
Structure prediction by ZEFSAII (Michael W. Deem and Ramdas Pophale) SiO2 
 PCOD8128178
Probable space group: P 21/C
;
_chemical_formula_sum "Si O2"
_cell_formula_units_Z 24
_cell_length_a 8.758312
_cell_length_b 10.314099
_cell_length_c 12.286653
_cell_angle_alpha 90.000000
_cell_angle_beta 99.426169
_cell_angle_gamma 90.000000
_cell_volume 1094.917187
_symmetry_space_group_name_H-M "P 21/C"
_symmetry_group_IT_number 14
_symmetry_cell_setting 'monoclinic'
loop_
_space_group_symop_operation_xyz
x,y,z
-x,1/2+y,1/2-z
-x,-y,-z
x,1/2-y,1/2+z
loop_
_atom_site_type_symbol
_atom_site_label
_atom_site_fract_x
_atom_site_fract_y
_atom_site_fract_z
Si Si1 0.679713 0.856267 0.732341
Si Si2 0.343655 0.739476 0.157464
Si Si3 0.821172 0.383321 0.195535
Si Si4 0.064263 0.858787 0.517994
Si Si5 0.337250 0.006742 0.039695
Si Si6 0.115602 0.162709 0.865210
O O1 0.511593 0.821708 0.664247
O O2 0.666829 0.893058 0.858364
O O3 0.786978 0.731183 0.720866
O O4 0.747621 0.974767 0.669092
O O5 0.314331 0.788397 0.276901
O O6 0.214187 0.632706 0.114008
O O7 0.304758 0.861675 0.075347
O O8 0.961985 0.400956 0.297299
O O9 0.881089 0.313927 0.094526
O O10 0.931563 0.765690 0.547996
O O11 0.000000 0.000000 0.500000
O O12 0.211936 0.049634 0.935327
O O13 0.500000 0.000000 0.000000
#
# Coordination Sequence:
#
# PCOD8128178 Si02
#       6
#     4   4   4   4   4   4
#     4  11  23  44  65 100 133 173 223 275 332 392
#     4  10  25  43  66  97 134 174 225 274 328 401
#     4  10  24  42  66  97 133 174 219 271 330 399
#     4  11  23  44  67  99 133 177 219 276 336 392
#     4  11  24  43  69  99 130 178 221 271 338 393
#     4  11  23  44  71  97 133 172 227 274 333 402
#
# _framework density 21.919464000000001
#
# number of rings (size 3 to 8) (size 9 to 14) (size 15 to 20)
#    0.000    1.333    3.333    1.000    2.333    9.333 
#    6.000    0.000    0.000    0.000    0.000    0.000 
#    0.000    0.000    0.000    0.000    0.000    0.000 
#
# Total GULP energy -297563.638694 kJ/mol
# GULP energy per Si atom -12398.484946 kJ/mol
# Density = 2.186957 g / cm^3
# Si number density = 21.919464 Si / 1000 Ang^3
#
#
#
# Elastic Constant Matrix: (Units=GPa)
#
#
# Indices 1 2 3 4 5 6 
#
# 1 133.3466 50.4204 28.2201 0.0000 2.3313 0.0000
# 2 50.4204 99.4179 32.9234 0.0000 12.2374 0.0000
# 3 28.2201 32.9234 69.3222 0.0000 -11.8982 0.0000
# 4 0.0000 0.0000 0.0000 28.9437 0.0000 10.5225
# 5 2.3313 12.2374 -11.8982 0.0000 49.1689 0.0000
# 6 0.0000 0.0000 0.0000 10.5225 0.0000 26.3251
#
#
#
# Elastic Compliance Matrix: (Units=1/GPa)
#
#
# Indices 1 2 3 4 5 6 
#
# 1 0.009480 -0.004222 -0.001826 0.000000 0.000160 0.000000
# 2 -0.004222 0.014869 -0.006201 0.000000 -0.005001 0.000000
# 3 -0.001826 -0.006201 0.019191 0.000000 0.006274 0.000000
# 4 0.000000 0.000000 0.000000 0.040424 0.000000 -0.016158
# 5 0.000160 -0.005001 0.006274 0.000000 0.023093 0.000000
# 6 0.000000 0.000000 0.000000 -0.016158 0.000000 0.044445
#
#
# Mechanical properties :
#
#
# Convention : Reuss Voigt Hill
#
# Bulk Modulus (GPa) = 52.52220 58.35717 55.43968
# Shear Modulus (GPa) = 27.41996 33.58907 30.50451
#
# Velocity S-wave (km/s) = 3.54070 3.91882 3.73455
# Velocity P-wave (km/s) = 6.38192 6.86712 6.62896
#
# Compressibility (1/GPa) = 0.01903957
#
# Stress axis : x y z
#
# Youngs Moduli (GPa) = 105.49047 67.25289 52.10806
#
# Poissons Ratio (x) = 0.28397 0.09516
# Poissons Ratio (y) = 0.44543 0.32314
# Poissons Ratio (z) = 0.19265 0.41706
#
# Static dielectric constant tensor:
#      x y z
#    x 4.512880 0.000000 -0.591940 
#    y 0.000000 3.064060 0.000000 
#    z -0.591940 0.000000 4.245080 
# 
# 
# High freq. dielectric constant tensor:
#      x y z
#    x 1.885190 0.000000 -0.014530 
#    y 0.000000 1.855470 0.000000 
#    z -0.014530 0.000000 1.854440 
# 
# From -- ./inp_files/24266.got.cif
#   From: 2010.03.12/outbox.cif.g09.slc.cpg/sg14_13_cif.got.tgz:24266.got - 2010.03.31 13:35:05.
