data_PCOD8128633
_publ_section_title
;
Structure prediction by ZEFSAII (Michael W. Deem and Ramdas Pophale) SiO2 
 PCOD8128633
Probable space group: P 21/C
;
_chemical_formula_sum "Si O2"
_cell_formula_units_Z 32
_cell_length_a 8.289787
_cell_length_b 29.633529
_cell_length_c 11.742038
_cell_angle_alpha 90.000000
_cell_angle_beta 33.589751
_cell_angle_gamma 90.000000
_cell_volume 1595.826969
_symmetry_space_group_name_H-M "P 21/C"
_symmetry_group_IT_number 14
_symmetry_cell_setting 'monoclinic'
loop_
_space_group_symop_operation_xyz
x,y,z
-x,1/2+y,1/2-z
-x,-y,-z
x,1/2-y,1/2+z
loop_
_atom_site_type_symbol
_atom_site_label
_atom_site_fract_x
_atom_site_fract_y
_atom_site_fract_z
Si Si1 0.856389 0.798045 0.292917
Si Si2 0.197983 0.378384 0.334626
Si Si3 0.656700 0.546599 0.930438
Si Si4 0.569409 0.411424 0.715174
Si Si5 0.678821 0.456398 0.426715
Si Si6 0.139090 0.164360 0.464196
Si Si7 0.457389 0.290707 0.584021
Si Si8 0.524227 0.131814 0.872466
O O1 0.738526 0.830463 0.261990
O O2 0.788168 0.824036 0.448930
O O3 0.655137 0.754056 0.411458
O O4 0.201626 0.786683 0.082912
O O5 0.333371 0.420764 0.185690
O O6 0.303060 0.380211 0.402394
O O7 0.850956 0.380089 0.541569
O O8 0.977108 0.535813 0.790186
O O9 0.500000 0.500000 0.000000
O O10 0.460453 0.569741 0.141298
O O11 0.598925 0.450955 0.606026
O O12 0.295164 0.381892 0.839125
O O13 0.500000 0.500000 0.500000
O O14 0.600305 0.413391 0.396124
O O15 0.255522 0.204087 0.314593
O O16 0.797237 0.155654 0.650153
O O17 0.390692 0.332634 0.539917
#
# Coordination Sequence:
#
# PCOD8128633 Si02
#       8
#     4   4   4   4   4   4   4   4
#     4  11  25  42  64  95 125 163 214 257 314 377
#     4  11  25  42  65  95 129 163 215 263 312 379
#     4  11  25  43  65  95 127 171 215 256 321 379
#     4  11  21  45  68  83 130 174 203 259 316 371
#     4  11  25  42  65  96 130 164 214 266 314 378
#     4  11  21  45  67  85 129 172 204 257 315 373
#     4  11  25  43  65  93 127 167 208 261 316 375
#     4  11  25  43  63  98 128 166 213 259 317 379
#
# _framework density 20.052301
#
# number of rings (size 3 to 8) (size 9 to 14) (size 15 to 20)
#    0.000    1.000    5.000    1.500    7.000    5.500 
#    0.000    0.000    0.000    0.000    0.000    0.000 
#    0.000    0.000    0.000    0.000    0.000    0.000 
#
# Total GULP energy -396845.937924 kJ/mol
# GULP energy per Si atom -12401.435560 kJ/mol
# Density = 2.000666 g / cm^3
# Si number density = 20.052301 Si / 1000 Ang^3
#
#
#
# Elastic Constant Matrix: (Units=GPa)
#
#
# Indices 1 2 3 4 5 6 
#
# 1 87.8527 33.9572 14.4685 0.0000 3.2371 0.0000
# 2 33.9572 118.1596 26.2349 0.0000 -11.5912 0.0000
# 3 14.4685 26.2349 88.4571 0.0000 11.2899 0.0000
# 4 0.0000 0.0000 0.0000 29.4414 0.0000 -7.0262
# 5 3.2371 -11.5912 11.2899 0.0000 19.3019 0.0000
# 6 0.0000 0.0000 0.0000 -7.0262 0.0000 38.5522
#
#
#
# Elastic Compliance Matrix: (Units=1/GPa)
#
#
# Indices 1 2 3 4 5 6 
#
# 1 0.013216 -0.004162 -0.000351 0.000000 -0.004510 0.000000
# 2 -0.004162 0.011527 -0.004010 0.000000 0.009966 0.000000
# 3 -0.000351 -0.004010 0.013888 0.000000 -0.010473 0.000000
# 4 0.000000 0.000000 0.000000 0.035510 0.000000 0.006472
# 5 -0.004510 0.009966 -0.010473 0.000000 0.064675 0.000000
# 6 0.000000 0.000000 0.000000 0.006472 0.000000 0.027118
#
#
# Mechanical properties :
#
#
# Convention : Reuss Voigt Hill
#
# Bulk Modulus (GPa) = 46.33136 49.31008 47.82072
# Shear Modulus (GPa) = 26.29127 32.11302 29.20214
#
# Velocity S-wave (km/s) = 3.62489 4.00617 3.82029
# Velocity P-wave (km/s) = 6.37771 6.78552 6.58477
#
# Compressibility (1/GPa) = 0.02158365
#
# Stress axis : x y z
#
# Youngs Moduli (GPa) = 75.66795 86.75051 72.00302
#
# Poissons Ratio (x) = 0.36109 0.02531
# Poissons Ratio (y) = 0.31496 0.28873
# Poissons Ratio (z) = 0.02659 0.34787
#
# Static dielectric constant tensor:
#      x y z
#    x 3.637990 0.000000 0.356880 
#    y 0.000000 3.097040 0.000000 
#    z 0.356880 0.000000 3.934850 
# 
# 
# High freq. dielectric constant tensor:
#      x y z
#    x 1.780230 0.000000 0.006540 
#    y 0.000000 1.787700 0.000000 
#    z 0.006540 0.000000 1.797550 
# 
# From -- ./inp_files/27164.got.cif
#   From: 2010.03.12/outbox.cif.g09.slc.cpg/sg14_14_cif.got.tgz:27164.got - 2010.03.31 13:35:05.
