data_PCOD8128530
_publ_section_title
;
Structure prediction by ZEFSAII (Michael W. Deem and Ramdas Pophale) SiO2 
 PCOD8128530
Probable space group: P 21/C
;
_chemical_formula_sum "Si O2"
_cell_formula_units_Z 28
_cell_length_a 11.693372
_cell_length_b 8.566458
_cell_length_c 28.669434
_cell_angle_alpha 90.000000
_cell_angle_beta 149.765576
_cell_angle_gamma 90.000000
_cell_volume 1446.083577
_symmetry_space_group_name_H-M "P 21/C"
_symmetry_group_IT_number 14
_symmetry_cell_setting 'monoclinic'
loop_
_space_group_symop_operation_xyz
x,y,z
-x,1/2+y,1/2-z
-x,-y,-z
x,1/2-y,1/2+z
loop_
_atom_site_type_symbol
_atom_site_label
_atom_site_fract_x
_atom_site_fract_y
_atom_site_fract_z
Si Si1 0.501268 0.890060 0.376571
Si Si2 0.653194 0.395397 0.318037
Si Si3 0.276560 0.250500 0.128656
Si Si4 0.948946 0.102912 0.835379
Si Si5 0.417960 0.220125 0.002360
Si Si6 0.249711 0.788750 0.555367
Si Si7 0.677579 0.386158 0.511873
O O1 0.621577 0.756584 0.387847
O O2 0.234433 0.903798 0.270483
O O3 0.519314 0.850591 0.437550
O O4 0.630467 0.047158 0.409079
O O5 0.405935 0.371007 0.208286
O O6 0.693357 0.574251 0.344473
O O7 0.839487 0.343829 0.345703
O O8 0.671197 0.285363 0.368655
O O9 0.019668 0.308340 0.039229
O O10 0.148440 0.229184 0.894474
O O11 0.063986 0.930571 0.881629
O O12 0.473530 0.045441 0.041569
O O13 0.570993 0.242350 0.009846
O O14 0.330355 0.677386 0.542669
#
# Coordination Sequence:
#
# PCOD8128530 Si02
#       7
#     4   4   4   4   4   4   4
#     4  11  23  36  60  91 117 153 206 244 300 356
#     4  11  21  36  61  86 121 161 199 238 310 357
#     4  11  22  38  57  87 123 154 198 250 291 365
#     4   9  19  39  60  82 117 152 196 252 285 362
#     4   9  19  41  62  80 113 160 198 246 301 347
#     4  12  23  36  59  90 122 160 191 247 304 365
#     4   9  20  40  62  78 118 161 197 239 305 353
#
# _framework density 19.362642000000001
#
# number of rings (size 3 to 8) (size 9 to 14) (size 15 to 20)
#    0.857    0.857    1.429    4.286    0.000    2.857 
#    2.571    0.000    0.000    0.000    0.000    0.000 
#    0.000    0.000    0.000    0.000    0.000    0.000 
#
# Total GULP energy -347085.790826 kJ/mol
# GULP energy per Si atom -12395.921101 kJ/mol
# Density = 1.931857 g / cm^3
# Si number density = 19.362642 Si / 1000 Ang^3
#
#
#
# Elastic Constant Matrix: (Units=GPa)
#
#
# Indices 1 2 3 4 5 6 
#
# 1 84.5333 7.0009 25.0026 0.0000 2.4886 0.0000
# 2 7.0009 50.0766 27.4535 0.0000 0.8344 0.0000
# 3 25.0026 27.4535 69.1751 0.0000 -5.6176 0.0000
# 4 0.0000 0.0000 0.0000 30.5768 0.0000 -3.4167
# 5 2.4886 0.8344 -5.6176 0.0000 9.2342 0.0000
# 6 0.0000 0.0000 0.0000 -3.4167 0.0000 17.2000
#
#
#
# Elastic Compliance Matrix: (Units=1/GPa)
#
#
# Indices 1 2 3 4 5 6 
#
# 1 0.013767 0.001625 -0.006242 0.000000 -0.007654 0.000000
# 2 0.001625 0.026430 -0.011894 0.000000 -0.010062 0.000000
# 3 -0.006242 -0.011894 0.022782 0.000000 0.016616 0.000000
# 4 0.000000 0.000000 0.000000 0.033447 0.000000 0.006644
# 5 -0.007654 -0.010062 0.016616 0.000000 0.121373 0.000000
# 6 0.000000 0.000000 0.000000 0.006644 0.000000 0.059459
#
#
# Mechanical properties :
#
#
# Convention : Reuss Voigt Hill
#
# Bulk Modulus (GPa) = 33.38133 35.85545 34.61839
# Shear Modulus (GPa) = 15.61200 21.02408 18.31804
#
# Velocity S-wave (km/s) = 2.84261 3.29873 3.07913
# Velocity P-wave (km/s) = 5.29636 5.75038 5.52803
#
# Compressibility (1/GPa) = 0.02995686
#
# Stress axis : x y z
#
# Youngs Moduli (GPa) = 72.63884 37.83518 43.89431
#
# Poissons Ratio (x) = -0.06149 0.27401
# Poissons Ratio (y) = -0.11805 0.52207
# Poissons Ratio (z) = 0.45344 0.45001
#
# Static dielectric constant tensor:
#      x y z
#    x 3.653310 0.000000 0.033890 
#    y 0.000000 3.329800 0.000000 
#    z 0.033890 0.000000 3.644170 
# 
# 
# High freq. dielectric constant tensor:
#      x y z
#    x 1.761670 0.000000 0.002340 
#    y 0.000000 1.734640 0.000000 
#    z 0.002340 0.000000 1.750780 
# 
# From -- ./inp_files/77160.got.cif
#   From: 2010.03.12/outbox.cif.g09.slc.cpg/sg14_39_cif.got.tgz:77160.got - 2010.03.31 13:35:05.
