data_PCOD8128394
_publ_section_title
;
Structure prediction by ZEFSAII (Michael W. Deem and Ramdas Pophale) SiO2 
 PCOD8128394
Probable space group: P 21/C
;
_chemical_formula_sum "Si O2"
_cell_formula_units_Z 16
_cell_length_a 10.197432
_cell_length_b 9.394950
_cell_length_c 10.266801
_cell_angle_alpha 90.000000
_cell_angle_beta 44.459274
_cell_angle_gamma 90.000000
_cell_volume 688.918550
_symmetry_space_group_name_H-M "P 21/C"
_symmetry_group_IT_number 14
_symmetry_cell_setting 'monoclinic'
loop_
_space_group_symop_operation_xyz
x,y,z
-x,1/2+y,1/2-z
-x,-y,-z
x,1/2-y,1/2+z
loop_
_atom_site_type_symbol
_atom_site_label
_atom_site_fract_x
_atom_site_fract_y
_atom_site_fract_z
Si Si1 0.578850 0.327897 0.802290
Si Si2 0.565547 0.492943 0.306000
Si Si3 0.824679 0.857481 0.448735
Si Si4 0.939314 0.077930 0.172964
O O1 0.600989 0.438143 0.664520
O O2 0.612567 0.167310 0.728693
O O3 0.725063 0.367198 0.811423
O O4 0.363391 0.335165 0.007300
O O5 0.500000 0.500000 0.500000
O O6 0.756396 0.582424 0.138890
O O7 0.928324 0.710298 0.393604
O O8 0.956655 0.970419 0.281915
O O9 0.000000 0.000000 0.000000
#
# Coordination Sequence:
#
# PCOD8128394 Si02
#       4
#     4   4   4   4
#     4  10  25  46  75 107 149 197 246 303 380 440
#     4  10  25  45  78 104 150 191 255 301 384 439
#     4  10  28  46  75 112 149 202 246 305 384 434
#     4  12  27  48  76 110 158 187 258 310 371 454
#
# _framework density 23.224805
#
# number of rings (size 3 to 8) (size 9 to 14) (size 15 to 20)
#    1.500    0.000    0.000    2.250   10.500    3.000 
#    0.000    0.000    0.000    0.000    0.000    0.000 
#    0.000    0.000    0.000    0.000    0.000    0.000 
#
# Total GULP energy -198273.504826 kJ/mol
# GULP energy per Si atom -12392.094052 kJ/mol
# Density = 2.317194 g / cm^3
# Si number density = 23.224805 Si / 1000 Ang^3
#
#
#
# Elastic Constant Matrix: (Units=GPa)
#
#
# Indices 1 2 3 4 5 6 
#
# 1 67.1265 41.9503 43.0533 0.0000 -11.8364 0.0000
# 2 41.9503 192.4254 71.4033 0.0000 -0.9826 0.0000
# 3 43.0533 71.4033 142.5619 0.0000 15.2930 0.0000
# 4 0.0000 0.0000 0.0000 46.9303 0.0000 -4.6173
# 5 -11.8364 -0.9826 15.2930 0.0000 34.9917 0.0000
# 6 0.0000 0.0000 0.0000 -4.6173 0.0000 37.9027
#
#
#
# Elastic Compliance Matrix: (Units=1/GPa)
#
#
# Indices 1 2 3 4 5 6 
#
# 1 0.022562 -0.002356 -0.006762 0.000000 0.010521 0.000000
# 2 -0.002356 0.006722 -0.002717 0.000000 0.000580 0.000000
# 3 -0.006762 -0.002717 0.011196 0.000000 -0.007257 0.000000
# 4 0.000000 0.000000 0.000000 0.021567 0.000000 0.002627
# 5 0.010521 0.000580 -0.007257 0.000000 0.035325 0.000000
# 6 0.000000 0.000000 0.000000 0.002627 0.000000 0.026703
#
#
# Mechanical properties :
#
#
# Convention : Reuss Voigt Hill
#
# Bulk Modulus (GPa) = 59.49230 79.43641 69.46436
# Shear Modulus (GPa) = 32.60544 40.34540 36.47542
#
# Velocity S-wave (km/s) = 3.75094 4.17246 3.96730
# Velocity P-wave (km/s) = 6.66565 7.58222 7.13866
#
# Compressibility (1/GPa) = 0.01680890
#
# Stress axis : x y z
#
# Youngs Moduli (GPa) = 44.32267 148.77282 89.31567
#
# Poissons Ratio (x) = 0.35045 0.60399
# Poissons Ratio (y) = 0.10441 0.24271
# Poissons Ratio (z) = 0.29973 0.40427
#
# Static dielectric constant tensor:
#      x y z
#    x 3.997960 0.000000 -0.232240 
#    y 0.000000 4.456010 0.000000 
#    z -0.232240 0.000000 3.964000 
# 
# 
# High freq. dielectric constant tensor:
#      x y z
#    x 1.896120 0.000000 -0.013300 
#    y 0.000000 1.943690 0.000000 
#    z -0.013300 0.000000 1.909060 
# 
# From -- ./inp_files/27686.got.cif
#   From: 2010.03.12/outbox.cif.g09.slc.cpg/sg14_14_cif.got.tgz:27686.got - 2010.03.31 13:35:05.
