data_PCOD8128533
_publ_section_title
;
Structure prediction by ZEFSAII (Michael W. Deem and Ramdas Pophale) SiO2 
 PCOD8128533
Probable space group: P 21/C
;
_chemical_formula_sum "Si O2"
_cell_formula_units_Z 20
_cell_length_a 9.454058
_cell_length_b 10.803665
_cell_length_c 17.365448
_cell_angle_alpha 90.000000
_cell_angle_beta 30.479509
_cell_angle_gamma 90.000000
_cell_volume 899.664224
_symmetry_space_group_name_H-M "P 21/C"
_symmetry_group_IT_number 14
_symmetry_cell_setting 'monoclinic'
loop_
_space_group_symop_operation_xyz
x,y,z
-x,1/2+y,1/2-z
-x,-y,-z
x,1/2-y,1/2+z
loop_
_atom_site_type_symbol
_atom_site_label
_atom_site_fract_x
_atom_site_fract_y
_atom_site_fract_z
Si Si1 0.560065 0.740016 0.357433
Si Si2 0.083807 0.170534 0.578841
Si Si3 0.907476 0.192181 0.314102
Si Si4 0.593560 0.022583 0.352599
Si Si5 0.576815 0.269958 0.751981
O O1 0.298355 0.724840 0.537018
O O2 0.473335 0.700211 0.313150
O O3 0.817667 0.654681 0.265566
O O4 0.669815 0.881333 0.303685
O O5 0.252213 0.041204 0.512470
O O6 0.292638 0.261138 0.431987
O O7 0.015098 0.224954 0.693939
O O8 0.799287 0.157897 0.661801
O O9 0.731708 0.072531 0.367656
O O10 0.715239 0.105875 0.225131
#
# Coordination Sequence:
#
# PCOD8128533 Si02
#       5
#     4   4   4   4   4
#     4  12  22  40  65  91 120 157 209 248 292 360
#     4   9  18  40  60  81 126 160 188 246 307 348
#     4  11  21  37  64  91 119 159 201 249 289 361
#     4   9  22  41  64  81 129 167 188 237 328 352
#     4   9  20  38  61  87 119 162 200 248 292 356
#
# _framework density 22.230516000000001
#
# number of rings (size 3 to 8) (size 9 to 14) (size 15 to 20)
#    1.200    0.800    2.000    1.800    0.000    0.800 
#    0.000   10.000    0.000    0.000    0.000    0.000 
#    0.000    0.000    0.000    0.000    0.000    0.000 
#
# Total GULP energy -247773.401904 kJ/mol
# GULP energy per Si atom -12388.670095 kJ/mol
# Density = 2.217992 g / cm^3
# Si number density = 22.230516 Si / 1000 Ang^3
#
#
#
# Elastic Constant Matrix: (Units=GPa)
#
#
# Indices 1 2 3 4 5 6 
#
# 1 176.5424 8.8854 58.5912 0.0000 -5.5012 0.0000
# 2 8.8854 28.9991 9.7957 0.0000 5.2755 0.0000
# 3 58.5912 9.7957 130.8875 0.0000 -3.9362 0.0000
# 4 0.0000 0.0000 0.0000 11.6744 0.0000 -1.3378
# 5 -5.5012 5.2755 -3.9362 0.0000 42.3798 0.0000
# 6 0.0000 0.0000 0.0000 -1.3378 0.0000 24.4525
#
#
#
# Elastic Compliance Matrix: (Units=1/GPa)
#
#
# Indices 1 2 3 4 5 6 
#
# 1 0.006708 -0.001217 -0.002889 0.000000 0.000754 0.000000
# 2 -0.001217 0.036542 -0.002338 0.000000 -0.004924 0.000000
# 3 -0.002889 -0.002338 0.009131 0.000000 0.000764 0.000000
# 4 0.000000 0.000000 0.000000 0.086198 0.000000 0.004716
# 5 0.000754 -0.004924 0.000764 0.000000 0.024378 0.000000
# 6 0.000000 0.000000 0.000000 0.004716 0.000000 0.041154
#
#
# Mechanical properties :
#
#
# Convention : Reuss Voigt Hill
#
# Bulk Modulus (GPa) = 25.32049 54.55261 39.93655
# Shear Modulus (GPa) = 21.72371 32.97846 27.35109
#
# Velocity S-wave (km/s) = 3.12941 3.85577 3.51143
# Velocity P-wave (km/s) = 4.94695 6.66449 5.86889
#
# Compressibility (1/GPa) = 0.03949370
#
# Stress axis : x y z
#
# Youngs Moduli (GPa) = 149.07791 27.36558 109.51221
#
# Poissons Ratio (x) = 0.03329 0.31639
# Poissons Ratio (y) = 0.18136 0.25608
# Poissons Ratio (z) = 0.43069 0.06399
#
# Static dielectric constant tensor:
#      x y z
#    x 4.306430 0.000000 -0.170410 
#    y 0.000000 3.390930 0.000000 
#    z -0.170410 0.000000 4.107710 
# 
# 
# High freq. dielectric constant tensor:
#      x y z
#    x 1.899260 0.000000 0.001250 
#    y 0.000000 1.816190 0.000000 
#    z 0.001250 0.000000 1.883420 
# 
# From -- ./inp_files/12158.got.cif
#   From: 2010.03.12/outbox.cif.g09.slc.cpg/sg14_7_cif.got.tgz:12158.got - 2010.03.31 13:35:05.
