data_PCOD8128545
_publ_section_title
;
Structure prediction by ZEFSAII (Michael W. Deem and Ramdas Pophale) SiO2 
 PCOD8128545
Probable space group: P 21/C
;
_chemical_formula_sum "Si O2"
_cell_formula_units_Z 32
_cell_length_a 17.572534
_cell_length_b 12.794390
_cell_length_c 9.828170
_cell_angle_alpha 90.000000
_cell_angle_beta 43.640910
_cell_angle_gamma 90.000000
_cell_volume 1524.971033
_symmetry_space_group_name_H-M "P 21/C"
_symmetry_group_IT_number 14
_symmetry_cell_setting 'monoclinic'
loop_
_space_group_symop_operation_xyz
x,y,z
-x,1/2+y,1/2-z
-x,-y,-z
x,1/2-y,1/2+z
loop_
_atom_site_type_symbol
_atom_site_label
_atom_site_fract_x
_atom_site_fract_y
_atom_site_fract_z
Si Si1 0.741836 0.029029 0.579211
Si Si2 0.977741 0.967691 0.313197
Si Si3 0.765211 0.231723 0.417526
Si Si4 0.593175 0.838899 0.785418
Si Si5 0.911145 0.643240 0.160687
Si Si6 0.360423 0.926089 0.008799
Si Si7 0.343371 0.156287 0.989234
Si Si8 0.907374 0.202981 0.976779
O O1 0.696371 0.129210 0.554012
O O2 0.727313 0.048046 0.759012
O O3 0.873002 0.024062 0.379893
O O4 0.680328 0.923339 0.613371
O O5 0.928232 0.880290 0.479259
O O6 0.052982 0.915559 0.099291
O O7 0.059210 0.043064 0.288066
O O8 0.687533 0.334267 0.524105
O O9 0.867571 0.248110 0.386043
O O10 0.806579 0.210031 0.211808
O O11 0.598003 0.732024 0.694637
O O12 0.613598 0.814079 0.916619
O O13 0.473800 0.890767 0.929016
O O14 0.786596 0.676125 0.350760
O O15 0.986668 0.738768 0.104324
O O16 0.373986 0.035801 0.910223
#
# Coordination Sequence:
#
# PCOD8128545 Si02
#       8
#     4   4   4   4   4   4   4   4
#     4  11  22  46  65  99 134 175 223 272 327 408
#     4  11  21  39  65  95 130 176 217 256 328 394
#     4  12  24  42  65 101 133 173 227 272 324 395
#     4  11  26  44  71  97 130 176 224 279 339 386
#     4  11  21  38  66  89 136 175 209 258 327 404
#     4  11  24  44  76  89 132 182 223 273 340 391
#     4  11  24  46  66 101 131 173 223 271 333 404
#     4  12  24  39  65  99 132 176 218 267 324 401
#
# _framework density 20.984006000000001
#
# number of rings (size 3 to 8) (size 9 to 14) (size 15 to 20)
#    0.000    0.750    6.250    3.000    3.500    0.500 
#    4.500    0.625    0.000    0.000    0.000    0.000 
#    0.000    0.000    0.000    0.000    0.000    0.000 
#
# Total GULP energy -396895.716804 kJ/mol
# GULP energy per Si atom -12402.991150 kJ/mol
# Density = 2.093624 g / cm^3
# Si number density = 20.984006 Si / 1000 Ang^3
#
#
#
# Elastic Constant Matrix: (Units=GPa)
#
#
# Indices 1 2 3 4 5 6 
#
# 1 82.0509 43.7302 23.6193 0.0000 -9.0878 0.0000
# 2 43.7302 144.7828 27.7229 0.0000 13.8671 0.0000
# 3 23.6193 27.7229 40.4566 0.0000 -2.1375 0.0000
# 4 0.0000 0.0000 0.0000 37.0089 0.0000 2.8342
# 5 -9.0878 13.8671 -2.1375 0.0000 29.4966 0.0000
# 6 0.0000 0.0000 0.0000 2.8342 0.0000 38.9939
#
#
#
# Elastic Compliance Matrix: (Units=1/GPa)
#
#
# Indices 1 2 3 4 5 6 
#
# 1 0.017339 -0.004657 -0.006559 0.000000 0.007056 0.000000
# 2 -0.004657 0.009741 -0.004290 0.000000 -0.006325 0.000000
# 3 -0.006559 -0.004290 0.031608 0.000000 0.002287 0.000000
# 4 0.000000 0.000000 0.000000 0.027172 0.000000 -0.001975
# 5 0.007056 -0.006325 0.002287 0.000000 0.039216 0.000000
# 6 0.000000 0.000000 0.000000 -0.001975 0.000000 0.025789
#
#
# Mechanical properties :
#
#
# Convention : Reuss Voigt Hill
#
# Bulk Modulus (GPa) = 36.13312 50.82613 43.47963
# Shear Modulus (GPa) = 26.16416 32.58106 29.37261
#
# Velocity S-wave (km/s) = 3.53492 3.94466 3.74540
# Velocity P-wave (km/s) = 5.82389 6.70977 6.28246
#
# Compressibility (1/GPa) = 0.02767544
#
# Stress axis : x y z
#
# Youngs Moduli (GPa) = 57.67276 102.66078 31.63784
#
# Poissons Ratio (x) = 0.47810 0.20751
# Poissons Ratio (y) = 0.26859 0.13573
# Poissons Ratio (z) = 0.37827 0.44043
#
# Static dielectric constant tensor:
#      x y z
#    x 3.754700 0.000000 -0.062820 
#    y 0.000000 4.045240 0.000000 
#    z -0.062820 0.000000 3.583750 
# 
# 
# High freq. dielectric constant tensor:
#      x y z
#    x 1.819650 0.000000 -0.015360 
#    y 0.000000 1.834170 0.000000 
#    z -0.015360 0.000000 1.803170 
# 
# From -- ./inp_files/33926.got.cif
#   From: 2010.03.12/outbox.cif.g09.slc.cpg/sg14_17_cif.got.tgz:33926.got - 2010.03.31 13:35:05.
