data_PCOD8128628
_publ_section_title
;
Structure prediction by ZEFSAII (Michael W. Deem and Ramdas Pophale) SiO2 
 PCOD8128628
Probable space group: P 21/C
;
_chemical_formula_sum "Si O2"
_cell_formula_units_Z 28
_cell_length_a 13.004424
_cell_length_b 8.503657
_cell_length_c 19.261626
_cell_angle_alpha 90.000000
_cell_angle_beta 36.542897
_cell_angle_gamma 90.000000
_cell_volume 1268.283886
_symmetry_space_group_name_H-M "P 21/C"
_symmetry_group_IT_number 14
_symmetry_cell_setting 'monoclinic'
loop_
_space_group_symop_operation_xyz
x,y,z
-x,1/2+y,1/2-z
-x,-y,-z
x,1/2-y,1/2+z
loop_
_atom_site_type_symbol
_atom_site_label
_atom_site_fract_x
_atom_site_fract_y
_atom_site_fract_z
Si Si1 0.413995 0.601091 0.984016
Si Si2 0.233174 0.159555 0.750426
Si Si3 0.264326 0.688737 0.282433
Si Si4 0.343909 0.180618 0.432729
Si Si5 0.821043 0.326660 0.306216
Si Si6 0.163702 0.177994 0.148833
Si Si7 0.945099 0.821289 0.526752
O O1 0.561647 0.692810 0.860469
O O2 0.311558 0.488619 0.986417
O O3 0.500000 0.500000 0.000000
O O4 0.288086 0.736170 0.077144
O O5 0.168400 0.195669 0.708297
O O6 0.131151 0.269200 0.858663
O O7 0.207110 0.976098 0.780122
O O8 0.461412 0.687636 0.204849
O O9 0.268176 0.823243 0.220862
O O10 0.122203 0.724963 0.417983
O O11 0.320694 0.307765 0.508125
O O12 0.203483 0.209672 0.449386
O O13 0.846798 0.504018 0.315799
O O14 0.995962 0.230697 0.197493
O O15 0.000000 0.000000 0.500000
#
# Coordination Sequence:
#
# PCOD8128628 Si02
#       7
#     4   4   4   4   4   4   4
#     4  11  21  44  71 100 139 181 236 299 355 413
#     4  11  24  45  68  98 137 186 237 289 358 425
#     4  11  23  46  72  96 141 190 231 293 359 420
#     4  11  24  46  71 101 143 186 236 294 356 423
#     4  12  23  39  69 107 136 179 235 300 353 420
#     4  12  24  40  72 103 138 180 241 294 354 421
#     4  12  28  46  67 104 147 187 242 292 353 435
#
# _framework density 22.077076999999999
#
# number of rings (size 3 to 8) (size 9 to 14) (size 15 to 20)
#    0.000    0.571    5.714    3.000    2.000    5.714 
#    0.000    0.000    0.000    0.000    0.000    0.000 
#    0.000    0.000    0.000    0.000    0.000    0.000 
#
# Total GULP energy -347107.004278 kJ/mol
# GULP energy per Si atom -12396.678724 kJ/mol
# Density = 2.202683 g / cm^3
# Si number density = 22.077077 Si / 1000 Ang^3
#
#
#
# Elastic Constant Matrix: (Units=GPa)
#
#
# Indices 1 2 3 4 5 6 
#
# 1 74.9616 9.2563 28.9286 0.0000 -2.2341 0.0000
# 2 9.2563 86.8930 31.4519 0.0000 -16.0549 0.0000
# 3 28.9286 31.4519 140.6945 0.0000 -8.1697 0.0000
# 4 0.0000 0.0000 0.0000 40.3542 0.0000 0.0255
# 5 -2.2341 -16.0549 -8.1697 0.0000 28.4951 0.0000
# 6 0.0000 0.0000 0.0000 0.0255 0.0000 29.2243
#
#
#
# Elastic Compliance Matrix: (Units=1/GPa)
#
#
# Indices 1 2 3 4 5 6 
#
# 1 0.014510 -0.000501 -0.002870 0.000000 0.000033 0.000000
# 2 -0.000501 0.013784 -0.002573 0.000000 0.006990 0.000000
# 3 -0.002870 -0.002573 0.008314 0.000000 0.000709 0.000000
# 4 0.000000 0.000000 0.000000 0.024781 0.000000 -0.000022
# 5 0.000033 0.006990 0.000709 0.000000 0.039238 0.000000
# 6 0.000000 0.000000 0.000000 -0.000022 0.000000 0.034218
#
#
# Mechanical properties :
#
#
# Convention : Reuss Voigt Hill
#
# Bulk Modulus (GPa) = 40.44931 49.09142 44.77036
# Shear Modulus (GPa) = 32.26380 35.14221 33.70301
#
# Velocity S-wave (km/s) = 3.82699 3.99406 3.91142
# Velocity P-wave (km/s) = 6.15544 6.59960 6.38139
#
# Compressibility (1/GPa) = 0.02472230
#
# Stress axis : x y z
#
# Youngs Moduli (GPa) = 68.91596 72.54574 120.28034
#
# Poissons Ratio (x) = 0.03634 0.34516
# Poissons Ratio (y) = 0.03453 0.30943
# Poissons Ratio (z) = 0.19776 0.18663
#
# Static dielectric constant tensor:
#      x y z
#    x 3.938410 0.000000 0.033400 
#    y 0.000000 3.937200 0.000000 
#    z 0.033400 0.000000 4.607090 
# 
# 
# High freq. dielectric constant tensor:
#      x y z
#    x 1.854510 0.000000 -0.007970 
#    y 0.000000 1.863700 0.000000 
#    z -0.007970 0.000000 1.889210 
# 
# From -- ./inp_files/68167.got.cif
#   From: 2010.03.12/outbox.cif.g09.slc.cpg/sg14_35_cif.got.tgz:68167.got - 2010.03.31 13:35:05.
