data_PCOD8128025
_publ_section_title
;
Structure prediction by ZEFSAII (Michael W. Deem and Ramdas Pophale) SiO2 
 PCOD8128025
Probable space group: P 21/C
;
_chemical_formula_sum "Si O2"
_cell_formula_units_Z 28
_cell_length_a 9.070751
_cell_length_b 7.867029
_cell_length_c 25.983626
_cell_angle_alpha 90.000000
_cell_angle_beta 44.505123
_cell_angle_gamma 90.000000
_cell_volume 1299.735752
_symmetry_space_group_name_H-M "P 21/C"
_symmetry_group_IT_number 14
_symmetry_cell_setting 'monoclinic'
loop_
_space_group_symop_operation_xyz
x,y,z
-x,1/2+y,1/2-z
-x,-y,-z
x,1/2-y,1/2+z
loop_
_atom_site_type_symbol
_atom_site_label
_atom_site_fract_x
_atom_site_fract_y
_atom_site_fract_z
Si Si1 0.677095 0.409700 0.857161
Si Si2 0.126483 0.892027 0.585407
Si Si3 0.853238 0.727958 0.426847
Si Si4 0.499978 0.735848 0.434930
Si Si5 0.737593 0.397296 0.726853
Si Si6 0.360192 0.398119 0.426504
Si Si7 0.705967 0.717851 0.668267
O O1 0.852498 0.393116 0.857788
O O2 0.554834 0.589221 0.892138
O O3 0.793537 0.402882 0.773342
O O4 0.520544 0.251633 0.901115
O O5 0.287799 0.757946 0.520967
O O6 0.889230 0.855433 0.628012
O O7 0.186577 0.076336 0.548477
O O8 0.683612 0.670924 0.426748
O O9 0.827390 0.614762 0.484738
O O10 0.085937 0.709262 0.346426
O O11 0.466107 0.584433 0.402430
O O12 0.731500 0.588469 0.708499
O O13 0.515290 0.310383 0.772033
O O14 0.269207 0.377786 0.392186
#
# Coordination Sequence:
#
# PCOD8128025 Si02
#       7
#     4   4   4   4   4   4   4
#     4  10  23  45  67  99 135 174 229 277 344 397
#     4  11  22  43  72  99 134 174 229 290 337 404
#     4  11  22  43  69 101 135 174 235 286 337 403
#     4  11  22  41  74 105 128 175 230 298 328 400
#     4  11  26  45  63  96 139 183 220 281 348 412
#     4  11  23  43  72  99 132 178 229 274 342 406
#     4  11  27  45  65 101 140 184 225 281 348 422
#
# _framework density 21.542842
#
# number of rings (size 3 to 8) (size 9 to 14) (size 15 to 20)
#    0.000    1.143    2.857    3.000    4.000    5.143 
#    5.143    0.000    0.000    0.000    0.000    0.000 
#    0.000    0.000    0.000    0.000    0.000    0.000 
#
# Total GULP energy -347327.829133 kJ/mol
# GULP energy per Si atom -12404.565326 kJ/mol
# Density = 2.149381 g / cm^3
# Si number density = 21.542842 Si / 1000 Ang^3
#
#
#
# Elastic Constant Matrix: (Units=GPa)
#
#
# Indices 1 2 3 4 5 6 
#
# 1 98.0805 36.6987 40.9886 0.0000 -9.9206 0.0000
# 2 36.6987 112.0123 19.7435 0.0000 6.7085 0.0000
# 3 40.9886 19.7435 108.3399 0.0000 -3.0255 0.0000
# 4 0.0000 0.0000 0.0000 26.4870 0.0000 -1.1437
# 5 -9.9206 6.7085 -3.0255 0.0000 33.2796 0.0000
# 6 0.0000 0.0000 0.0000 -1.1437 0.0000 37.7561
#
#
#
# Elastic Compliance Matrix: (Units=1/GPa)
#
#
# Indices 1 2 3 4 5 6 
#
# 1 0.014051 -0.004097 -0.004440 0.000000 0.004611 0.000000
# 2 -0.004097 0.010556 -0.000468 0.000000 -0.003392 0.000000
# 3 -0.004440 -0.000468 0.010989 0.000000 -0.000230 0.000000
# 4 0.000000 0.000000 0.000000 0.037804 0.000000 0.001145
# 5 0.004611 -0.003392 -0.000230 0.000000 0.032086 0.000000
# 6 0.000000 0.000000 0.000000 0.001145 0.000000 0.026520
#
#
# Mechanical properties :
#
#
# Convention : Reuss Voigt Hill
#
# Bulk Modulus (GPa) = 56.87010 57.03270 56.95140
# Shear Modulus (GPa) = 32.07636 34.23799 33.15718
#
# Velocity S-wave (km/s) = 3.86289 3.99092 3.92743
# Velocity P-wave (km/s) = 6.80821 6.91145 6.86003
#
# Compressibility (1/GPa) = 0.01758393
#
# Stress axis : x y z
#
# Youngs Moduli (GPa) = 71.17077 94.73702 90.99915
#
# Poissons Ratio (x) = 0.38813 0.40408
# Poissons Ratio (y) = 0.29158 0.04262
# Poissons Ratio (z) = 0.31603 0.04437
#
# Static dielectric constant tensor:
#      x y z
#    x 3.915900 0.000000 0.022920 
#    y 0.000000 3.885530 0.000000 
#    z 0.022920 0.000000 3.995390 
# 
# 
# High freq. dielectric constant tensor:
#      x y z
#    x 1.843310 0.000000 0.003700 
#    y 0.000000 1.857990 0.000000 
#    z 0.003700 0.000000 1.845410 
# 
# From -- ./inp_files/76324.got.cif
#   From: 2010.03.12/outbox.cif.g09.slc.cpg/sg14_39_cif.got.tgz:76324.got - 2010.03.31 13:35:05.
