data_PCOD8128193
_publ_section_title
;
Structure prediction by ZEFSAII (Michael W. Deem and Ramdas Pophale) SiO2 
 PCOD8128193
Probable space group: P 21/C
;
_chemical_formula_sum "Si O2"
_cell_formula_units_Z 32
_cell_length_a 7.853413
_cell_length_b 29.739562
_cell_length_c 8.856061
_cell_angle_alpha 90.000000
_cell_angle_beta 129.017542
_cell_angle_gamma 90.000000
_cell_volume 1607.046678
_symmetry_space_group_name_H-M "P 21/C"
_symmetry_group_IT_number 14
_symmetry_cell_setting 'monoclinic'
loop_
_space_group_symop_operation_xyz
x,y,z
-x,1/2+y,1/2-z
-x,-y,-z
x,1/2-y,1/2+z
loop_
_atom_site_type_symbol
_atom_site_label
_atom_site_fract_x
_atom_site_fract_y
_atom_site_fract_z
Si Si1 0.279737 0.246428 0.784454
Si Si2 0.174264 0.010181 0.472366
Si Si3 0.429070 0.480927 0.619139
Si Si4 0.390726 0.402565 0.009917
Si Si5 0.961409 0.696124 0.596567
Si Si6 0.785512 0.896926 0.916084
Si Si7 0.819587 0.457697 0.317661
Si Si8 0.481926 0.806337 0.335851
O O1 0.418449 0.278352 0.970574
O O2 0.455055 0.216634 0.788303
O O3 0.103185 0.217298 0.779116
O O4 0.127348 0.274468 0.589243
O O5 0.396793 0.986730 0.650434
O O6 0.092336 0.987273 0.272948
O O7 0.202223 0.064363 0.470730
O O8 0.000000 0.000000 0.500000
O O9 0.500000 0.500000 0.500000
O O10 0.371398 0.428274 0.567398
O O11 0.220422 0.508309 0.565199
O O12 0.333730 0.388321 0.808344
O O13 0.413275 0.356203 0.114775
O O14 0.612612 0.430443 0.141200
O O15 0.832465 0.649169 0.526644
O O16 0.221401 0.690646 0.718390
O O17 0.013635 0.922154 0.020383
#
# Coordination Sequence:
#
# PCOD8128193 Si02
#       8
#     4   4   4   4   4   4   4   4
#     4  10  24  42  69  97 126 165 207 263 325 392
#     4  11  23  40  61  89 126 172 212 259 315 371
#     4  11  23  38  61  91 125 164 214 262 309 371
#     4  11  22  41  62  90 126 164 210 260 312 369
#     4  11  23  42  69  96 127 167 211 257 329 383
#     4  12  22  39  66  90 124 166 211 258 313 370
#     4  11  22  41  62  83 125 169 206 258 309 366
#     4  11  22  44  67  94 133 161 208 267 319 383
#
# _framework density 19.912303999999999
#
# number of rings (size 3 to 8) (size 9 to 14) (size 15 to 20)
#    0.000    1.000    5.000    2.625    1.750    3.000 
#    0.000    0.000    2.750    0.000    0.000    0.000 
#    0.000    0.000    0.000    0.000    0.000    0.000 
#
# Total GULP energy -396732.691637 kJ/mol
# GULP energy per Si atom -12397.896614 kJ/mol
# Density = 1.986698 g / cm^3
# Si number density = 19.912304 Si / 1000 Ang^3
#
#
#
# Elastic Constant Matrix: (Units=GPa)
#
#
# Indices 1 2 3 4 5 6 
#
# 1 96.3257 51.6439 20.6948 0.0000 -20.2676 0.0000
# 2 51.6439 153.8453 36.2681 0.0000 -8.7180 0.0000
# 3 20.6948 36.2681 78.1317 0.0000 -7.1686 0.0000
# 4 0.0000 0.0000 0.0000 29.7530 0.0000 5.4301
# 5 -20.2676 -8.7180 -7.1686 0.0000 31.0287 0.0000
# 6 0.0000 0.0000 0.0000 5.4301 0.0000 20.5709
#
#
#
# Elastic Compliance Matrix: (Units=1/GPa)
#
#
# Indices 1 2 3 4 5 6 
#
# 1 0.014560 -0.004150 -0.001190 0.000000 0.008069 0.000000
# 2 -0.004150 0.008533 -0.002953 0.000000 -0.000995 0.000000
# 3 -0.001190 -0.002953 0.014648 0.000000 0.001777 0.000000
# 4 0.000000 0.000000 0.000000 0.035311 0.000000 -0.009321
# 5 0.008069 -0.000995 0.001777 0.000000 0.037630 0.000000
# 6 0.000000 0.000000 0.000000 -0.009321 0.000000 0.051073
#
#
# Mechanical properties :
#
#
# Convention : Reuss Voigt Hill
#
# Bulk Modulus (GPa) = 47.26954 60.61293 53.94123
# Shear Modulus (GPa) = 26.96994 30.91691 28.94343
#
# Velocity S-wave (km/s) = 3.68426 3.94465 3.81667
# Velocity P-wave (km/s) = 6.47215 7.15912 6.82429
#
# Compressibility (1/GPa) = 0.02115527
#
# Stress axis : x y z
#
# Youngs Moduli (GPa) = 68.68234 117.19459 68.26922
#
# Poissons Ratio (x) = 0.48633 0.08123
# Poissons Ratio (y) = 0.28502 0.20160
# Poissons Ratio (z) = 0.08172 0.34608
#
# Static dielectric constant tensor:
#      x y z
#    x 3.564830 0.000000 0.011250 
#    y 0.000000 3.331340 0.000000 
#    z 0.011250 0.000000 3.793000 
# 
# 
# High freq. dielectric constant tensor:
#      x y z
#    x 1.767890 0.000000 0.007970 
#    y 0.000000 1.786500 0.000000 
#    z 0.007970 0.000000 1.796690 
# 
# From -- ./inp_files/11083.got.cif
#   From: 2010.03.12/outbox.cif.g09.slc.cpg/sg14_6_cif.got.tgz:11083.got - 2010.03.31 13:35:05.
