data_PCOD8128732
_publ_section_title
;
Structure prediction by ZEFSAII (Michael W. Deem and Ramdas Pophale) SiO2 
 PCOD8128732
Probable space group: P 21/C
;
_chemical_formula_sum "Si O2"
_cell_formula_units_Z 24
_cell_length_a 8.668120
_cell_length_b 18.412302
_cell_length_c 8.696122
_cell_angle_alpha 90.000000
_cell_angle_beta 48.536591
_cell_angle_gamma 90.000000
_cell_volume 1040.063837
_symmetry_space_group_name_H-M "P 21/C"
_symmetry_group_IT_number 14
_symmetry_cell_setting 'monoclinic'
loop_
_space_group_symop_operation_xyz
x,y,z
-x,1/2+y,1/2-z
-x,-y,-z
x,1/2-y,1/2+z
loop_
_atom_site_type_symbol
_atom_site_label
_atom_site_fract_x
_atom_site_fract_y
_atom_site_fract_z
Si Si1 0.901681 0.161529 0.660125
Si Si2 0.042488 0.204518 0.232237
Si Si3 0.113912 0.043495 0.688781
Si Si4 0.450337 0.384939 0.471548
Si Si5 0.919586 0.090215 0.103183
Si Si6 0.504616 0.029201 0.237760
O O1 0.656965 0.163162 0.840435
O O2 0.961625 0.188355 0.453608
O O3 0.019892 0.210173 0.710655
O O4 0.977700 0.078872 0.642175
O O5 0.896491 0.168122 0.198025
O O6 0.271783 0.173532 0.057005
O O7 0.349177 0.034266 0.483377
O O8 0.020549 0.964597 0.795839
O O9 0.101135 0.090553 0.855361
O O10 0.462746 0.445025 0.328542
O O11 0.410760 0.425247 0.658712
O O12 0.714076 0.066520 0.151970
#
# Coordination Sequence:
#
# PCOD8128732 Si02
#       6
#     4   4   4   4   4   4
#     4  12  27  46  71 102 142 189 240 294 357 424
#     4  12  28  47  71 101 143 190 236 296 358 423
#     4  11  22  42  71 103 141 186 232 293 346 414
#     4  11  25  44  72 107 135 185 237 290 352 424
#     4  11  24  42  71 107 144 186 235 294 353 420
#     4  11  23  42  73 107 143 178 234 291 352 419
#
# _framework density 23.075507000000002
#
# number of rings (size 3 to 8) (size 9 to 14) (size 15 to 20)
#    0.000    0.667    3.333    4.500    2.333    5.333 
#    0.000    0.000    0.000    0.000    0.000    0.000 
#    0.000    0.000    0.000    0.000    0.000    0.000 
#
# Total GULP energy -297596.871707 kJ/mol
# GULP energy per Si atom -12399.869654 kJ/mol
# Density = 2.302299 g / cm^3
# Si number density = 23.075507 Si / 1000 Ang^3
#
#
#
# Elastic Constant Matrix: (Units=GPa)
#
#
# Indices 1 2 3 4 5 6 
#
# 1 104.8398 43.0379 43.1196 0.0000 -12.5971 0.0000
# 2 43.0379 74.6261 35.4326 0.0000 -11.3607 0.0000
# 3 43.1196 35.4326 173.1607 0.0000 1.0390 0.0000
# 4 0.0000 0.0000 0.0000 28.2105 0.0000 6.9810
# 5 -12.5971 -11.3607 1.0390 0.0000 36.5530 0.0000
# 6 0.0000 0.0000 0.0000 6.9810 0.0000 56.3330
#
#
#
# Elastic Compliance Matrix: (Units=1/GPa)
#
#
# Indices 1 2 3 4 5 6 
#
# 1 0.013277 -0.006282 -0.002037 0.000000 0.002681 0.000000
# 2 -0.006282 0.018668 -0.002278 0.000000 0.003702 0.000000
# 3 -0.002037 -0.002278 0.006758 0.000000 -0.001602 0.000000
# 4 0.000000 0.000000 0.000000 0.036569 0.000000 -0.004532
# 5 0.002681 0.003702 -0.001602 0.000000 0.029478 0.000000
# 6 0.000000 0.000000 0.000000 -0.004532 0.000000 0.018313
#
#
# Mechanical properties :
#
#
# Convention : Reuss Voigt Hill
#
# Bulk Modulus (GPa) = 57.11042 66.20076 61.65559
# Shear Modulus (GPa) = 33.31276 39.62173 36.46725
#
# Velocity S-wave (km/s) = 3.80365 4.14822 3.97967
# Velocity P-wave (km/s) = 6.64029 7.18990 6.92055
#
# Compressibility (1/GPa) = 0.01750994
#
# Stress axis : x y z
#
# Youngs Moduli (GPa) = 75.31824 53.56752 147.97479
#
# Poissons Ratio (x) = 0.33650 0.30140
# Poissons Ratio (y) = 0.47313 0.33707
# Poissons Ratio (z) = 0.15341 0.12202
#
# Static dielectric constant tensor:
#      x y z
#    x 4.044780 0.000000 0.118270 
#    y 0.000000 4.199410 0.000000 
#    z 0.118270 0.000000 4.303670 
# 
# 
# High freq. dielectric constant tensor:
#      x y z
#    x 1.911260 0.000000 0.009880 
#    y 0.000000 1.903630 0.000000 
#    z 0.009880 0.000000 1.927530 
# 
# From -- ./inp_files/10116.got.cif
#   From: 2010.03.12/outbox.cif.g09.slc.cpg/sg14_6_cif.got.tgz:10116.got - 2010.03.31 13:35:05.
