data_PCOD8128965
_publ_section_title
;
Structure prediction by ZEFSAII (Michael W. Deem and Ramdas Pophale) SiO2 
 PCOD8128965
Probable space group: P 21/C
;
_chemical_formula_sum "Si O2"
_cell_formula_units_Z 28
_cell_length_a 6.487281
_cell_length_b 13.624496
_cell_length_c 20.243683
_cell_angle_alpha 90.000000
_cell_angle_beta 135.597441
_cell_angle_gamma 90.000000
_cell_volume 1251.934506
_symmetry_space_group_name_H-M "P 21/C"
_symmetry_group_IT_number 14
_symmetry_cell_setting 'monoclinic'
loop_
_space_group_symop_operation_xyz
x,y,z
-x,1/2+y,1/2-z
-x,-y,-z
x,1/2-y,1/2+z
loop_
_atom_site_type_symbol
_atom_site_label
_atom_site_fract_x
_atom_site_fract_y
_atom_site_fract_z
Si Si1 0.959928 0.115052 0.494404
Si Si2 0.844147 0.950959 0.262386
Si Si3 0.774850 0.556619 0.591409
Si Si4 0.988753 0.256869 0.869092
Si Si5 0.333732 0.212493 0.686266
Si Si6 0.678532 0.928848 0.794606
Si Si7 0.680115 0.598590 0.140905
O O1 0.956178 0.170418 0.423345
O O2 0.646465 0.124367 0.461490
O O3 0.236469 0.156637 0.597928
O O4 0.000000 0.000000 0.500000
O O5 0.758202 0.943899 0.166435
O O6 0.827806 0.842377 0.289652
O O7 0.624517 0.027055 0.247782
O O8 0.175929 0.994215 0.348214
O O9 0.500000 0.500000 0.500000
O O10 0.785221 0.667430 0.565113
O O11 0.062343 0.502769 0.629774
O O12 0.683132 0.205730 0.777760
O O13 0.101714 0.315660 0.831359
O O14 0.238089 0.324745 0.653613
O O15 0.638568 0.903571 0.709333
#
# Coordination Sequence:
#
# PCOD8128965 Si02
#       7
#     4   4   4   4   4   4   4
#     4  12  29  48  74 110 148 194 254 312 376 451
#     4  11  24  46  73 103 149 194 243 316 371 441
#     4  11  28  43  72 107 148 192 250 303 374 453
#     4  12  26  47  72 106 151 192 245 312 373 453
#     4  12  25  46  74 102 146 201 239 307 388 432
#     4  11  23  45  71 102 143 191 240 306 373 436
#     4  11  23  47  73 104 144 188 253 307 368 453
#
# _framework density 22.365386999999998
#
# number of rings (size 3 to 8) (size 9 to 14) (size 15 to 20)
#    0.000    0.571    4.286    2.571    6.000    2.857 
#    0.000    0.000    0.000    0.000    0.000    0.000 
#    0.000    0.000    0.000    0.000    0.000    0.000 
#
# Total GULP energy -347115.409448 kJ/mol
# GULP energy per Si atom -12396.978909 kJ/mol
# Density = 2.231448 g / cm^3
# Si number density = 22.365387 Si / 1000 Ang^3
#
#
#
# Elastic Constant Matrix: (Units=GPa)
#
#
# Indices 1 2 3 4 5 6 
#
# 1 116.7811 51.4737 43.2057 0.0000 1.5529 0.0000
# 2 51.4737 142.6101 35.2173 0.0000 -3.2495 0.0000
# 3 43.2057 35.2173 103.2186 0.0000 7.1381 0.0000
# 4 0.0000 0.0000 0.0000 31.9391 0.0000 -3.5038
# 5 1.5529 -3.2495 7.1381 0.0000 21.1621 0.0000
# 6 0.0000 0.0000 0.0000 -3.5038 0.0000 46.7617
#
#
#
# Elastic Compliance Matrix: (Units=1/GPa)
#
#
# Indices 1 2 3 4 5 6 
#
# 1 0.011317 -0.003187 -0.003643 0.000000 -0.000091 0.000000
# 2 -0.003187 0.008648 -0.001766 0.000000 0.002157 0.000000
# 3 -0.003643 -0.001766 0.012098 0.000000 -0.004084 0.000000
# 4 0.000000 0.000000 0.000000 0.031569 0.000000 0.002365
# 5 -0.000091 0.002157 -0.004084 0.000000 0.048970 0.000000
# 6 0.000000 0.000000 0.000000 0.002365 0.000000 0.021562
#
#
# Mechanical properties :
#
#
# Convention : Reuss Voigt Hill
#
# Bulk Modulus (GPa) = 67.24725 69.15591 68.20158
# Shear Modulus (GPa) = 31.98710 35.48680 33.73695
#
# Velocity S-wave (km/s) = 3.78591 3.98764 3.88808
# Velocity P-wave (km/s) = 7.01738 7.22425 7.12157
#
# Compressibility (1/GPa) = 0.01487050
#
# Stress axis : x y z
#
# Youngs Moduli (GPa) = 88.36293 115.63838 82.65741
#
# Poissons Ratio (x) = 0.36855 0.30115
# Poissons Ratio (y) = 0.28162 0.14594
# Poissons Ratio (z) = 0.32194 0.20417
#
# Static dielectric constant tensor:
#      x y z
#    x 4.464580 0.000000 0.332240 
#    y 0.000000 4.410790 0.000000 
#    z 0.332240 0.000000 4.119050 
# 
# 
# High freq. dielectric constant tensor:
#      x y z
#    x 1.892350 0.000000 0.009640 
#    y 0.000000 1.903500 0.000000 
#    z 0.009640 0.000000 1.867040 
# 
# From -- ./inp_files/63810.got.cif
#   From: 2010.03.12/outbox.cif.g09.slc.cpg/sg14_32_cif.got.tgz:63810.got - 2010.03.31 13:35:05.
