data_PCOD8128909
_publ_section_title
;
Structure prediction by ZEFSAII (Michael W. Deem and Ramdas Pophale) SiO2 
 PCOD8128909
Probable space group: P 21/C
;
_chemical_formula_sum "Si O2"
_cell_formula_units_Z 24
_cell_length_a 13.958214
_cell_length_b 16.987180
_cell_length_c 9.505492
_cell_angle_alpha 90.000000
_cell_angle_beta 151.107319
_cell_angle_gamma 90.000000
_cell_volume 1088.995774
_symmetry_space_group_name_H-M "P 21/C"
_symmetry_group_IT_number 14
_symmetry_cell_setting 'monoclinic'
loop_
_space_group_symop_operation_xyz
x,y,z
-x,1/2+y,1/2-z
-x,-y,-z
x,1/2-y,1/2+z
loop_
_atom_site_type_symbol
_atom_site_label
_atom_site_fract_x
_atom_site_fract_y
_atom_site_fract_z
Si Si1 0.565005 0.905383 0.335574
Si Si2 0.438677 0.580008 0.142596
Si Si3 0.672475 0.312658 0.252139
Si Si4 0.838637 0.661173 0.715802
Si Si5 0.719701 0.131004 0.270838
Si Si6 0.883628 0.686640 0.094395
O O1 0.501724 0.839209 0.366991
O O2 0.776184 0.883688 0.539432
O O3 0.581756 0.989680 0.434278
O O4 0.402282 0.914265 0.004521
O O5 0.669687 0.598969 0.460679
O O6 0.317033 0.589335 0.129109
O O7 0.333283 0.637341 0.897117
O O8 0.646348 0.221494 0.179600
O O9 0.881609 0.326789 0.597649
O O10 0.816838 0.732466 0.579502
O O11 0.813317 0.690747 0.842947
O O12 0.050162 0.620115 0.968676
#
# Coordination Sequence:
#
# PCOD8128909 Si02
#       6
#     4   4   4   4   4   4
#     4  12  25  44  67 100 140 173 216 274 338 398
#     4  12  27  42  68 102 137 175 216 273 342 390
#     4  11  25  45  67  98 131 178 223 278 323 389
#     4  11  25  43  69 101 128 178 229 273 321 394
#     4  11  23  43  71  94 130 176 228 273 322 389
#     4  11  25  43  70  98 132 174 231 271 324 391
#
# _framework density 22.038651999999999
#
# number of rings (size 3 to 8) (size 9 to 14) (size 15 to 20)
#    0.000    0.667    3.333    4.000    9.333    2.667 
#    0.000    0.000    0.000    0.000    0.000    0.000 
#    0.000    0.000    0.000    0.000    0.000    0.000 
#
# Total GULP energy -297793.891283 kJ/mol
# GULP energy per Si atom -12408.078803 kJ/mol
# Density = 2.198849 g / cm^3
# Si number density = 22.038652 Si / 1000 Ang^3
#
#
#
# Elastic Constant Matrix: (Units=GPa)
#
#
# Indices 1 2 3 4 5 6 
#
# 1 95.8193 17.6775 -3.2166 0.0000 5.7692 0.0000
# 2 17.6775 72.3041 2.5488 0.0000 19.9754 0.0000
# 3 -3.2166 2.5488 26.3026 0.0000 5.5489 0.0000
# 4 0.0000 0.0000 0.0000 18.6676 0.0000 -2.0783
# 5 5.7692 19.9754 5.5489 0.0000 34.6221 0.0000
# 6 0.0000 0.0000 0.0000 -2.0783 0.0000 23.4261
#
#
#
# Elastic Compliance Matrix: (Units=1/GPa)
#
#
# Indices 1 2 3 4 5 6 
#
# 1 0.011008 -0.002580 0.001728 0.000000 -0.000622 0.000000
# 2 -0.002580 0.017062 0.000018 0.000000 -0.009417 0.000000
# 3 0.001728 0.000018 0.039631 0.000000 -0.006650 0.000000
# 4 0.000000 0.000000 0.000000 0.054103 0.000000 0.004800
# 5 -0.000622 -0.009417 -0.006650 0.000000 0.035486 0.000000
# 6 0.000000 0.000000 0.000000 0.004800 0.000000 0.043113
#
#
# Mechanical properties :
#
#
# Convention : Reuss Voigt Hill
#
# Bulk Modulus (GPa) = 15.14425 25.38282 20.26354
# Shear Modulus (GPa) = 22.31302 27.17092 24.74197
#
# Velocity S-wave (km/s) = 3.18535 3.51504 3.35425
# Velocity P-wave (km/s) = 4.51832 5.29306 4.92096
#
# Compressibility (1/GPa) = 0.06603165
#
# Stress axis : x y z
#
# Youngs Moduli (GPa) = 90.84468 58.60865 25.23248
#
# Poissons Ratio (x) = 0.15122 -0.04359
# Poissons Ratio (y) = 0.23440 -0.00045
# Poissons Ratio (z) = -0.15694 -0.00104
#
# Static dielectric constant tensor:
#      x y z
#    x 4.165570 0.000000 0.032810 
#    y 0.000000 3.804070 0.000000 
#    z 0.032810 0.000000 4.022350 
# 
# 
# High freq. dielectric constant tensor:
#      x y z
#    x 1.886760 0.000000 0.000830 
#    y 0.000000 1.857670 0.000000 
#    z 0.000830 0.000000 1.871580 
# 
# From -- ./inp_files/16721.got.cif
#   From: 2010.03.12/outbox.cif.g09.slc.cpg/sg14_9_cif.got.tgz:16721.got - 2010.03.31 13:35:05.
