data_PCOD8128565
_publ_section_title
;
Structure prediction by ZEFSAII (Michael W. Deem and Ramdas Pophale) SiO2 
 PCOD8128565
Probable space group: P 21/C
;
_chemical_formula_sum "Si O2"
_cell_formula_units_Z 32
_cell_length_a 14.081123
_cell_length_b 9.343159
_cell_length_c 23.052342
_cell_angle_alpha 90.000000
_cell_angle_beta 31.470627
_cell_angle_gamma 90.000000
_cell_volume 1583.316207
_symmetry_space_group_name_H-M "P 21/C"
_symmetry_group_IT_number 14
_symmetry_cell_setting 'monoclinic'
loop_
_space_group_symop_operation_xyz
x,y,z
-x,1/2+y,1/2-z
-x,-y,-z
x,1/2-y,1/2+z
loop_
_atom_site_type_symbol
_atom_site_label
_atom_site_fract_x
_atom_site_fract_y
_atom_site_fract_z
Si Si1 0.054490 0.756618 0.271430
Si Si2 0.543249 0.301982 0.424042
Si Si3 0.258265 0.193312 0.983457
Si Si4 0.010297 0.085735 0.308882
Si Si5 0.574382 0.866213 0.895358
Si Si6 0.756432 0.616577 0.118871
Si Si7 0.390273 0.614315 0.376144
Si Si8 0.098641 0.658516 0.010698
O O1 0.254449 0.749432 0.195619
O O2 0.063044 0.686784 0.203734
O O3 0.920395 0.668994 0.383535
O O4 0.998918 0.922363 0.293351
O O5 0.410275 0.232138 0.445639
O O6 0.487398 0.263651 0.519285
O O7 0.510239 0.471313 0.436965
O O8 0.207177 0.299976 0.959222
O O9 0.330573 0.047749 0.918097
O O10 0.889975 0.103380 0.429082
O O11 0.209976 0.138037 0.222511
O O12 0.474323 0.810362 0.889669
O O13 0.546137 0.623183 0.246239
O O14 0.805802 0.451478 0.082923
O O15 0.889910 0.681599 0.098756
O O16 0.211325 0.695037 0.447018
#
# Coordination Sequence:
#
# PCOD8128565 Si02
#       8
#     4   4   4   4   4   4   4   4
#     4  11  23  38  65  95 127 164 204 258 317 379
#     4   9  19  35  60  90 120 159 199 252 306 374
#     4  11  23  41  64  91 127 164 213 256 312 371
#     4  11  21  40  64  93 128 163 204 259 312 374
#     4   9  17  35  62  89 116 158 210 243 304 373
#     4  11  24  44  63  92 125 170 215 257 311 368
#     4  11  23  40  67  91 122 167 213 264 306 369
#     4  11  24  41  67  92 127 166 214 260 306 375
#
# _framework density 20.210746
#
# number of rings (size 3 to 8) (size 9 to 14) (size 15 to 20)
#    0.000    1.500    3.750    1.500    3.500    1.500 
#    0.000    3.125    0.000    0.000    0.000    0.000 
#    0.000    0.000    0.000    0.000    0.000    0.000 
#
# Total GULP energy -396801.909321 kJ/mol
# GULP energy per Si atom -12400.059666 kJ/mol
# Density = 2.016475 g / cm^3
# Si number density = 20.210746 Si / 1000 Ang^3
#
#
#
# Elastic Constant Matrix: (Units=GPa)
#
#
# Indices 1 2 3 4 5 6 
#
# 1 96.7240 26.9725 26.0588 0.0000 7.7926 0.0000
# 2 26.9725 43.9244 18.2966 0.0000 -6.9661 0.0000
# 3 26.0588 18.2966 107.0330 0.0000 -0.4246 0.0000
# 4 0.0000 0.0000 0.0000 27.6182 0.0000 -2.3606
# 5 7.7926 -6.9661 -0.4246 0.0000 32.2074 0.0000
# 6 0.0000 0.0000 0.0000 -2.3606 0.0000 27.3997
#
#
#
# Elastic Compliance Matrix: (Units=1/GPa)
#
#
# Indices 1 2 3 4 5 6 
#
# 1 0.013598 -0.008372 -0.001900 0.000000 -0.005126 0.000000
# 2 -0.008372 0.030586 -0.003156 0.000000 0.008599 0.000000
# 3 -0.001900 -0.003156 0.010345 0.000000 -0.000087 0.000000
# 4 0.000000 0.000000 0.000000 0.036477 0.000000 0.003143
# 5 -0.005126 0.008599 -0.000087 0.000000 0.034148 0.000000
# 6 0.000000 0.000000 0.000000 0.003143 0.000000 0.036767
#
#
# Mechanical properties :
#
#
# Convention : Reuss Voigt Hill
#
# Bulk Modulus (GPa) = 36.13627 43.37078 39.75353
# Shear Modulus (GPa) = 25.25256 29.20195 27.22726
#
# Velocity S-wave (km/s) = 3.53861 3.80527 3.67436
# Velocity P-wave (km/s) = 5.88338 6.38848 6.14113
#
# Compressibility (1/GPa) = 0.02767303
#
# Stress axis : x y z
#
# Youngs Moduli (GPa) = 73.54009 32.69516 96.66837
#
# Poissons Ratio (x) = 0.27371 0.18366
# Poissons Ratio (y) = 0.61565 0.30509
# Poissons Ratio (z) = 0.13972 0.10319
#
# Static dielectric constant tensor:
#      x y z
#    x 3.881250 0.000000 0.021630 
#    y 0.000000 3.283220 0.000000 
#    z 0.021630 0.000000 3.709230 
# 
# 
# High freq. dielectric constant tensor:
#      x y z
#    x 1.798480 0.000000 0.002100 
#    y 0.000000 1.753170 0.000000 
#    z 0.002100 0.000000 1.802010 
# 
# From -- ./inp_files/73844.got.cif
#   From: 2010.03.12/outbox.cif.g09.slc.cpg/sg14_37_cif.got.tgz:73844.got - 2010.03.31 13:35:05.
