data_PCOD8128415
_publ_section_title
;
Structure prediction by ZEFSAII (Michael W. Deem and Ramdas Pophale) SiO2 
 PCOD8128415
Probable space group: P 21/C
;
_chemical_formula_sum "Si O2"
_cell_formula_units_Z 16
_cell_length_a 8.953842
_cell_length_b 7.203167
_cell_length_c 18.331524
_cell_angle_alpha 90.000000
_cell_angle_beta 147.691351
_cell_angle_gamma 90.000000
_cell_volume 631.921149
_symmetry_space_group_name_H-M "P 21/C"
_symmetry_group_IT_number 14
_symmetry_cell_setting 'monoclinic'
loop_
_space_group_symop_operation_xyz
x,y,z
-x,1/2+y,1/2-z
-x,-y,-z
x,1/2-y,1/2+z
loop_
_atom_site_type_symbol
_atom_site_label
_atom_site_fract_x
_atom_site_fract_y
_atom_site_fract_z
Si Si1 0.527789 0.841701 0.191258
Si Si2 0.705573 0.553308 0.148164
Si Si3 0.065294 0.213922 0.517637
Si Si4 0.129643 0.688898 0.212379
O O1 0.591086 0.727934 0.144583
O O2 0.670301 0.742696 0.321055
O O3 0.636390 0.050259 0.223319
O O4 0.194185 0.845771 0.064853
O O5 0.725320 0.383704 0.211846
O O6 0.000863 0.605344 0.233181
O O7 0.500000 0.500000 0.000000
O O8 0.108331 0.233842 0.447724
O O9 0.000000 0.000000 0.500000
#
# Coordination Sequence:
#
# PCOD8128415 Si02
#       4
#     4   4   4   4
#     4  11  25  49  75 105 148 190 242 301 360 427
#     4  12  26  45  72 104 150 191 240 297 356 440
#     4  10  25  48  74 108 145 187 247 298 354 433
#     4  11  26  46  71 108 142 192 241 296 365 425
#
# _framework density 25.319616
#
# number of rings (size 3 to 8) (size 9 to 14) (size 15 to 20)
#    0.000    1.000    2.500    3.000   10.500    4.000 
#    0.000    0.000    0.000    0.000    0.000    0.000 
#    0.000    0.000    0.000    0.000    0.000    0.000 
#
# Total GULP energy -198400.224726 kJ/mol
# GULP energy per Si atom -12400.014045 kJ/mol
# Density = 2.526199 g / cm^3
# Si number density = 25.319616 Si / 1000 Ang^3
#
#
#
# Elastic Constant Matrix: (Units=GPa)
#
#
# Indices 1 2 3 4 5 6 
#
# 1 113.7621 43.7132 25.2000 0.0000 -15.6730 0.0000
# 2 43.7132 53.9810 8.2374 0.0000 -3.4035 0.0000
# 3 25.2000 8.2374 103.4045 0.0000 -21.9543 0.0000
# 4 0.0000 0.0000 0.0000 39.3846 0.0000 -5.0480
# 5 -15.6730 -3.4035 -21.9543 0.0000 54.9656 0.0000
# 6 0.0000 0.0000 0.0000 -5.0480 0.0000 53.0560
#
#
#
# Elastic Compliance Matrix: (Units=1/GPa)
#
#
# Indices 1 2 3 4 5 6 
#
# 1 0.013628 -0.010582 -0.001958 0.000000 0.002448 0.000000
# 2 -0.010582 0.026990 0.000156 0.000000 -0.001284 0.000000
# 3 -0.001958 0.000156 0.010947 0.000000 0.003824 0.000000
# 4 0.000000 0.000000 0.000000 0.025704 0.000000 0.002446
# 5 0.002448 -0.001284 0.003824 0.000000 0.020339 0.000000
# 6 0.000000 0.000000 0.000000 0.002446 0.000000 0.019081
#
#
# Mechanical properties :
#
#
# Convention : Reuss Voigt Hill
#
# Bulk Modulus (GPa) = 37.31872 47.27210 42.29541
# Shear Modulus (GPa) = 33.24706 42.41438 37.83072
#
# Velocity S-wave (km/s) = 3.62760 4.09731 3.86959
# Velocity P-wave (km/s) = 5.68480 6.41051 6.05853
#
# Compressibility (1/GPa) = 0.02679620
#
# Stress axis : x y z
#
# Youngs Moduli (GPa) = 73.38031 37.05120 91.34581
#
# Poissons Ratio (x) = 0.39209 0.17888
# Poissons Ratio (y) = 0.77653 -0.01428
# Poissons Ratio (z) = 0.14370 -0.00579
#
# Static dielectric constant tensor:
#      x y z
#    x 5.206930 0.000000 -0.679640 
#    y 0.000000 4.655650 0.000000 
#    z -0.679640 0.000000 5.219850 
# 
# 
# High freq. dielectric constant tensor:
#      x y z
#    x 2.022990 0.000000 -0.015440 
#    y 0.000000 2.021590 0.000000 
#    z -0.015440 0.000000 2.008670 
# 
# From -- ./inp_files/17423.got.cif
#   From: 2010.03.12/outbox.cif.g09.slc.cpg/sg14_9_cif.got.tgz:17423.got - 2010.03.31 13:35:05.
