data_PCOD8128780
_publ_section_title
;
Structure prediction by ZEFSAII (Michael W. Deem and Ramdas Pophale) SiO2 
 PCOD8128780
Probable space group: P 21/C
;
_chemical_formula_sum "Si O2"
_cell_formula_units_Z 20
_cell_length_a 17.386664
_cell_length_b 7.589503
_cell_length_c 24.434912
_cell_angle_alpha 90.000000
_cell_angle_beta 163.978608
_cell_angle_gamma 90.000000
_cell_volume 889.904768
_symmetry_space_group_name_H-M "P 21/C"
_symmetry_group_IT_number 14
_symmetry_cell_setting 'monoclinic'
loop_
_space_group_symop_operation_xyz
x,y,z
-x,1/2+y,1/2-z
-x,-y,-z
x,1/2-y,1/2+z
loop_
_atom_site_type_symbol
_atom_site_label
_atom_site_fract_x
_atom_site_fract_y
_atom_site_fract_z
Si Si1 0.256642 0.157842 0.463546
Si Si2 0.757157 0.568983 0.639352
Si Si3 0.380486 0.341862 0.168464
Si Si4 0.268121 0.387401 0.694245
Si Si5 0.934127 0.302360 0.048567
O O1 0.342425 0.307417 0.478581
O O2 0.269220 0.231684 0.534137
O O3 0.477831 0.000001 0.607530
O O4 0.939261 0.089540 0.237327
O O5 0.500000 0.500000 0.500000
O O6 0.960871 0.681779 0.817610
O O7 0.355017 0.191932 0.196094
O O8 0.717897 0.362008 0.394571
O O9 0.221782 0.518730 0.077570
O O10 0.000000 0.500000 0.500000
O O11 0.197917 0.232684 0.689662
#
# Coordination Sequence:
#
# PCOD8128780 Si02
#       5
#     4   4   4   4   4
#     4  11  27  47  72 105 148 189 247 300 355 448
#     4  11  28  50  69 106 147 200 240 294 377 428
#     4  11  22  46  69 106 138 182 243 297 353 423
#     4  12  24  43  70 109 134 185 238 295 366 415
#     4  11  24  43  74 102 145 186 239 298 362 432
#
# _framework density 22.474314
#
# number of rings (size 3 to 8) (size 9 to 14) (size 15 to 20)
#    0.000    0.800    6.000    0.600    8.400    5.600 
#    0.000    0.000    0.000    0.000    0.000    0.000 
#    0.000    0.000    0.000    0.000    0.000    0.000 
#
# Total GULP energy -247948.583636 kJ/mol
# GULP energy per Si atom -12397.429182 kJ/mol
# Density = 2.242316 g / cm^3
# Si number density = 22.474314 Si / 1000 Ang^3
#
#
#
# Elastic Constant Matrix: (Units=GPa)
#
#
# Indices 1 2 3 4 5 6 
#
# 1 137.9148 62.0195 39.3945 0.0000 11.5489 0.0000
# 2 62.0195 81.1603 39.4316 0.0000 4.0516 0.0000
# 3 39.3945 39.4316 100.3800 0.0000 16.7484 0.0000
# 4 0.0000 0.0000 0.0000 50.9266 0.0000 2.1621
# 5 11.5489 4.0516 16.7484 0.0000 42.4061 0.0000
# 6 0.0000 0.0000 0.0000 2.1621 0.0000 52.5263
#
#
#
# Elastic Compliance Matrix: (Units=1/GPa)
#
#
# Indices 1 2 3 4 5 6 
#
# 1 0.011324 -0.008101 -0.000938 0.000000 -0.001939 0.000000
# 2 -0.008101 0.021060 -0.005488 0.000000 0.002361 0.000000
# 3 -0.000938 -0.005488 0.013228 0.000000 -0.004444 0.000000
# 4 0.000000 0.000000 0.000000 0.019670 0.000000 -0.000810
# 5 -0.001939 0.002361 -0.004444 0.000000 0.025639 0.000000
# 6 0.000000 0.000000 0.000000 -0.000810 0.000000 0.019071
#
#
# Mechanical properties :
#
#
# Convention : Reuss Voigt Hill
#
# Bulk Modulus (GPa) = 60.39366 66.79404 63.59385
# Shear Modulus (GPa) = 34.58630 41.07909 37.83270
#
# Velocity S-wave (km/s) = 3.92717 4.27994 4.10735
# Velocity P-wave (km/s) = 6.89160 7.36265 7.13102
#
# Compressibility (1/GPa) = 0.01655803
#
# Stress axis : x y z
#
# Youngs Moduli (GPa) = 88.30662 47.48385 75.59916
#
# Poissons Ratio (x) = 0.38465 0.07095
# Poissons Ratio (y) = 0.71535 0.41486
# Poissons Ratio (z) = 0.08287 0.26057
#
# Static dielectric constant tensor:
#      x y z
#    x 4.573470 0.000000 0.361320 
#    y 0.000000 3.927190 0.000000 
#    z 0.361320 0.000000 4.262690 
# 
# 
# High freq. dielectric constant tensor:
#      x y z
#    x 1.903010 0.000000 0.012510 
#    y 0.000000 1.875490 0.000000 
#    z 0.012510 0.000000 1.892540 
# 
# From -- ./inp_files/23124.got.cif
#   From: 2010.03.12/outbox.cif.g09.slc.cpg/sg14_12_cif.got.tgz:23124.got - 2010.03.31 13:35:05.
