data_PCOD8128687
_publ_section_title
;
Structure prediction by ZEFSAII (Michael W. Deem and Ramdas Pophale) SiO2 
 PCOD8128687
Probable space group: P 21/C
;
_chemical_formula_sum "Si O2"
_cell_formula_units_Z 32
_cell_length_a 9.891926
_cell_length_b 22.737439
_cell_length_c 14.569126
_cell_angle_alpha 90.000000
_cell_angle_beta 153.347743
_cell_angle_gamma 90.000000
_cell_volume 1469.908868
_symmetry_space_group_name_H-M "P 21/C"
_symmetry_group_IT_number 14
_symmetry_cell_setting 'monoclinic'
loop_
_space_group_symop_operation_xyz
x,y,z
-x,1/2+y,1/2-z
-x,-y,-z
x,1/2-y,1/2+z
loop_
_atom_site_type_symbol
_atom_site_label
_atom_site_fract_x
_atom_site_fract_y
_atom_site_fract_z
Si Si1 0.850614 0.868254 0.995010
Si Si2 0.907516 0.598670 0.018704
Si Si3 0.240877 0.628322 0.043171
Si Si4 0.269717 0.995257 0.479177
Si Si5 0.950694 0.494970 0.349296
Si Si6 0.862001 0.179778 0.179513
Si Si7 0.811436 0.798674 0.159464
Si Si8 0.240347 0.884240 0.071506
O O1 0.861055 0.836514 0.098366
O O2 0.133136 0.852050 0.100520
O O3 0.572489 0.846391 0.762973
O O4 0.838570 0.938254 0.007319
O O5 0.596807 0.619269 0.785739
O O6 0.888023 0.530038 0.033740
O O7 0.152115 0.605154 0.089114
O O8 0.995100 0.636797 0.159526
O O9 0.254625 0.574524 0.980977
O O10 0.026236 0.678020 0.871361
O O11 0.611963 0.018117 0.679000
O O12 0.070836 0.011332 0.270230
O O13 0.105099 0.549375 0.495393
O O14 0.090468 0.233574 0.307282
O O15 0.531040 0.200238 0.012074
O O16 0.867095 0.147582 0.085295
#
# Coordination Sequence:
#
# PCOD8128687 Si02
#       8
#     4   4   4   4   4   4   4   4
#     4  12  25  45  74 106 146 187 231 285 350 422
#     4  12  25  46  71 106 145 185 231 288 355 419
#     4  12  25  46  71 106 145 185 231 288 355 419
#     4  11  22  39  72 106 148 187 226 281 353 414
#     4  11  22  40  70 109 145 186 230 281 345 423
#     4  12  30  51  72 103 139 183 242 299 350 414
#     4  12  30  51  72 103 139 183 242 299 350 414
#     4  12  25  45  74 106 146 187 231 285 350 422
#
# _framework density 21.770056
#
# number of rings (size 3 to 8) (size 9 to 14) (size 15 to 20)
#    0.000    0.250    7.500    1.500    3.500    2.000 
#    0.000    2.500    0.000    0.000    0.000    0.000 
#    0.000    0.000    0.000    0.000    0.000    0.000 
#
# Total GULP energy -396853.537651 kJ/mol
# GULP energy per Si atom -12401.673052 kJ/mol
# Density = 2.172051 g / cm^3
# Si number density = 21.770056 Si / 1000 Ang^3
#
#
#
# Elastic Constant Matrix: (Units=GPa)
#
#
# Indices 1 2 3 4 5 6 
#
# 1 70.4175 3.9643 13.8631 0.0000 -28.5100 0.0000
# 2 3.9643 46.7901 31.5864 0.0000 -4.7070 0.0000
# 3 13.8631 31.5864 80.9736 0.0000 -6.0051 0.0000
# 4 0.0000 0.0000 0.0000 24.9280 0.0000 6.9814
# 5 -28.5100 -4.7070 -6.0051 0.0000 21.2977 0.0000
# 6 0.0000 0.0000 0.0000 6.9814 0.0000 13.2181
#
#
#
# Elastic Compliance Matrix: (Units=1/GPa)
#
#
# Indices 1 2 3 4 5 6 
#
# 1 0.032034 0.004271 -0.003983 0.000000 0.042702 0.000000
# 2 0.004271 0.029809 -0.011691 0.000000 0.009008 0.000000
# 3 -0.003983 -0.011691 0.017368 0.000000 -0.003019 0.000000
# 4 0.000000 0.000000 0.000000 0.047080 0.000000 -0.024866
# 5 0.042702 0.009008 -0.003019 0.000000 0.105256 0.000000
# 6 0.000000 0.000000 0.000000 -0.024866 0.000000 0.088787
#
#
# Mechanical properties :
#
#
# Convention : Reuss Voigt Hill
#
# Bulk Modulus (GPa) = 17.72943 33.00098 25.36521
# Shear Modulus (GPa) = 13.81437 21.80660 17.81048
#
# Velocity S-wave (km/s) = 2.52178 3.16836 2.86338
# Velocity P-wave (km/s) = 4.07931 5.34570 4.75485
#
# Compressibility (1/GPa) = 0.05640338
#
# Stress axis : x y z
#
# Youngs Moduli (GPa) = 31.21705 33.54746 57.57651
#
# Poissons Ratio (x) = -0.14327 0.22935
# Poissons Ratio (y) = -0.13332 0.67312
# Poissons Ratio (z) = 0.12435 0.39220
#
# Static dielectric constant tensor:
#      x y z
#    x 4.064750 0.000000 -0.089880 
#    y 0.000000 3.765510 0.000000 
#    z -0.089880 0.000000 3.998250 
# 
# 
# High freq. dielectric constant tensor:
#      x y z
#    x 1.876860 0.000000 -0.012230 
#    y 0.000000 1.840130 0.000000 
#    z -0.012230 0.000000 1.868770 
# 
# From -- ./inp_files/42208.got.cif
#   From: 2010.03.12/outbox.cif.g09.slc.cpg/sg14_22_cif.got.tgz:42208.got - 2010.03.31 13:35:05.
