data_PCOD8128093
_publ_section_title
;
Structure prediction by ZEFSAII (Michael W. Deem and Ramdas Pophale) SiO2 
 PCOD8128093
Probable space group: P 21/C
;
_chemical_formula_sum "Si O2"
_cell_formula_units_Z 28
_cell_length_a 14.260096
_cell_length_b 8.407067
_cell_length_c 15.446597
_cell_angle_alpha 90.000000
_cell_angle_beta 43.221718
_cell_angle_gamma 90.000000
_cell_volume 1268.172548
_symmetry_space_group_name_H-M "P 21/C"
_symmetry_group_IT_number 14
_symmetry_cell_setting 'monoclinic'
loop_
_space_group_symop_operation_xyz
x,y,z
-x,1/2+y,1/2-z
-x,-y,-z
x,1/2-y,1/2+z
loop_
_atom_site_type_symbol
_atom_site_label
_atom_site_fract_x
_atom_site_fract_y
_atom_site_fract_z
Si Si1 0.996611 0.403855 0.683160
Si Si2 0.494024 0.750251 0.490517
Si Si3 0.754259 0.575522 0.602960
Si Si4 0.968551 0.464231 0.158760
Si Si5 0.507812 0.528102 0.639664
Si Si6 0.716562 0.996789 0.312784
Si Si7 0.786516 0.561143 0.126649
O O1 0.960330 0.221145 0.688769
O O2 0.863817 0.514276 0.759137
O O3 0.113994 0.472756 0.541524
O O4 0.046334 0.424224 0.747807
O O5 0.508075 0.675532 0.575187
O O6 0.457296 0.629188 0.438627
O O7 0.371162 0.874796 0.575902
O O8 0.640071 0.828187 0.370465
O O9 0.618373 0.560903 0.638293
O O10 0.738710 0.458892 0.696297
O O11 0.776366 0.750466 0.625897
O O12 0.840443 0.509445 0.184782
O O13 0.111588 0.505920 0.015274
O O14 0.362414 0.515944 0.786217
#
# Coordination Sequence:
#
# PCOD8128093 Si02
#       7
#     4   4   4   4   4   4   4
#     4  11  26  44  72 101 139 186 230 287 346 414
#     4  10  25  42  71  96 138 178 233 281 344 409
#     4  11  26  41  71 101 138 182 232 280 346 412
#     4  10  25  46  73 102 135 184 235 284 353 408
#     4  11  24  44  70  99 135 182 226 285 347 404
#     4  11  24  45  65 103 138 178 228 286 339 412
#     4  10  23  48  70 101 140 180 230 295 339 412
#
# _framework density 22.079013
#
# number of rings (size 3 to 8) (size 9 to 14) (size 15 to 20)
#    0.000    1.429    1.429    1.286   14.000    1.143 
#    5.143    0.000    0.000    0.000    0.000    0.000 
#    0.000    0.000    0.000    0.000    0.000    0.000 
#
# Total GULP energy -347332.110277 kJ/mol
# GULP energy per Si atom -12404.718224 kJ/mol
# Density = 2.202876 g / cm^3
# Si number density = 22.079013 Si / 1000 Ang^3
#
#
#
# Elastic Constant Matrix: (Units=GPa)
#
#
# Indices 1 2 3 4 5 6 
#
# 1 50.6098 2.5682 22.3781 0.0000 -11.6429 0.0000
# 2 2.5682 37.4253 10.4750 0.0000 1.2891 0.0000
# 3 22.3781 10.4750 123.5174 0.0000 -12.0690 0.0000
# 4 0.0000 0.0000 0.0000 30.2927 0.0000 1.8558
# 5 -11.6429 1.2891 -12.0690 0.0000 43.4993 0.0000
# 6 0.0000 0.0000 0.0000 1.8558 0.0000 33.1560
#
#
#
# Elastic Compliance Matrix: (Units=1/GPa)
#
#
# Indices 1 2 3 4 5 6 
#
# 1 0.022521 -0.000734 -0.003522 0.000000 0.005072 0.000000
# 2 -0.000734 0.027489 -0.002361 0.000000 -0.001666 0.000000
# 3 -0.003522 -0.002361 0.009096 0.000000 0.001651 0.000000
# 4 0.000000 0.000000 0.000000 0.033125 0.000000 -0.001854
# 5 0.005072 -0.001666 0.001651 0.000000 0.024854 0.000000
# 6 0.000000 0.000000 0.000000 -0.001854 0.000000 0.030264
#
#
# Mechanical properties :
#
#
# Convention : Reuss Voigt Hill
#
# Bulk Modulus (GPa) = 21.80083 31.37723 26.58903
# Shear Modulus (GPa) = 28.42964 33.13166 30.78065
#
# Velocity S-wave (km/s) = 3.59225 3.87795 3.73783
# Velocity P-wave (km/s) = 5.20588 5.85607 5.54052
#
# Compressibility (1/GPa) = 0.04586982
#
# Stress axis : x y z
#
# Youngs Moduli (GPa) = 44.40378 36.37883 109.94213
#
# Poissons Ratio (x) = 0.02671 0.38724
# Poissons Ratio (y) = 0.03260 0.25957
# Poissons Ratio (z) = 0.15640 0.08589
#
# Static dielectric constant tensor:
#      x y z
#    x 3.833030 0.000000 -0.013630 
#    y 0.000000 3.918160 0.000000 
#    z -0.013630 0.000000 4.414900 
# 
# 
# High freq. dielectric constant tensor:
#      x y z
#    x 1.868270 0.000000 -0.002640 
#    y 0.000000 1.860540 0.000000 
#    z -0.002640 0.000000 1.894350 
# 
# From -- ./inp_files/46704.got.cif
#   From: 2010.03.12/outbox.cif.g09.slc.cpg/sg14_24_cif.got.tgz:46704.got - 2010.03.31 13:35:05.
