data_PCOD8128369
_publ_section_title
;
Structure prediction by ZEFSAII (Michael W. Deem and Ramdas Pophale) SiO2 
 PCOD8128369
Probable space group: P 21/C
;
_chemical_formula_sum "Si O2"
_cell_formula_units_Z 24
_cell_length_a 11.071633
_cell_length_b 10.957903
_cell_length_c 9.307118
_cell_angle_alpha 90.000000
_cell_angle_beta 64.656381
_cell_angle_gamma 90.000000
_cell_volume 1020.483530
_symmetry_space_group_name_H-M "P 21/C"
_symmetry_group_IT_number 14
_symmetry_cell_setting 'monoclinic'
loop_
_space_group_symop_operation_xyz
x,y,z
-x,1/2+y,1/2-z
-x,-y,-z
x,1/2-y,1/2+z
loop_
_atom_site_type_symbol
_atom_site_label
_atom_site_fract_x
_atom_site_fract_y
_atom_site_fract_z
Si Si1 0.112574 0.347379 0.446363
Si Si2 0.224607 0.993899 0.116907
Si Si3 0.216475 0.514877 0.159218
Si Si4 0.306090 0.367084 0.847920
Si Si5 0.851399 0.252986 0.457731
Si Si6 0.385403 0.878700 0.804595
O O1 0.129869 0.399607 0.598981
O O2 0.118540 0.461000 0.331777
O O3 0.233683 0.257603 0.344111
O O4 0.973699 0.274572 0.505648
O O5 0.146802 0.863522 0.161599
O O6 0.271790 0.027578 0.251359
O O7 0.352966 0.980312 0.944011
O O8 0.134132 0.621689 0.122187
O O9 0.350604 0.567971 0.164829
O O10 0.258031 0.410005 0.028008
O O11 0.462619 0.337161 0.768070
O O12 0.711591 0.261394 0.618204
#
# Coordination Sequence:
#
# PCOD8128369 Si02
#       6
#     4   4   4   4   4   4
#     4  11  25  46  68 100 141 180 227 289 339 404
#     4   9  23  44  67  94 137 179 225 276 346 403
#     4  11  26  44  70 102 138 180 231 288 339 410
#     4  12  24  42  70 104 132 179 233 282 345 407
#     4  10  25  43  73  93 137 187 226 274 346 403
#     4   9  24  44  68  96 140 178 226 285 342 402
#
# _framework density 23.518262
#
# number of rings (size 3 to 8) (size 9 to 14) (size 15 to 20)
#    1.000    0.667    0.000    2.500    4.667    7.333 
#    0.000    0.000    0.000    0.000    0.000    0.000 
#    0.000    0.000    0.000    0.000    0.000    0.000 
#
# Total GULP energy -297577.006208 kJ/mol
# GULP energy per Si atom -12399.041925 kJ/mol
# Density = 2.346473 g / cm^3
# Si number density = 23.518262 Si / 1000 Ang^3
#
#
#
# Elastic Constant Matrix: (Units=GPa)
#
#
# Indices 1 2 3 4 5 6 
#
# 1 129.4569 24.3779 16.8260 0.0000 -9.9726 0.0000
# 2 24.3779 88.8166 4.3285 0.0000 -0.9820 0.0000
# 3 16.8260 4.3285 69.4800 0.0000 13.0870 0.0000
# 4 0.0000 0.0000 0.0000 25.9577 0.0000 12.2195
# 5 -9.9726 -0.9820 13.0870 0.0000 23.9381 0.0000
# 6 0.0000 0.0000 0.0000 12.2195 0.0000 30.9683
#
#
#
# Elastic Compliance Matrix: (Units=1/GPa)
#
#
# Indices 1 2 3 4 5 6 
#
# 1 0.008949 -0.002250 -0.003023 0.000000 0.005288 0.000000
# 2 -0.002250 0.011879 -0.000123 0.000000 -0.000383 0.000000
# 3 -0.003023 -0.000123 0.017135 0.000000 -0.010632 0.000000
# 4 0.000000 0.000000 0.000000 0.047312 0.000000 -0.018669
# 5 0.005288 -0.000383 -0.010632 0.000000 0.049774 0.000000
# 6 0.000000 0.000000 0.000000 -0.018669 0.000000 0.039657
#
#
# Mechanical properties :
#
#
# Convention : Reuss Voigt Hill
#
# Bulk Modulus (GPa) = 36.80571 42.09092 39.44832
# Shear Modulus (GPa) = 25.69961 32.32090 29.01025
#
# Velocity S-wave (km/s) = 3.30926 3.71116 3.51596
# Velocity P-wave (km/s) = 5.50322 6.02492 5.76997
#
# Compressibility (1/GPa) = 0.02716970
#
# Stress axis : x y z
#
# Youngs Moduli (GPa) = 111.74875 84.18513 58.36001
#
# Poissons Ratio (x) = 0.18945 0.17642
# Poissons Ratio (y) = 0.25148 0.00717
# Poissons Ratio (z) = 0.33782 0.01035
#
# Static dielectric constant tensor:
#      x y z
#    x 4.033600 0.000000 0.153630 
#    y 0.000000 4.018080 0.000000 
#    z 0.153630 0.000000 3.932400 
# 
# 
# High freq. dielectric constant tensor:
#      x y z
#    x 1.928020 0.000000 0.010580 
#    y 0.000000 1.926230 0.000000 
#    z 0.010580 0.000000 1.918540 
# 
# From -- ./inp_files/12367.got.cif
#   From: 2010.03.12/outbox.cif.g09.slc.cpg/sg14_7_cif.got.tgz:12367.got - 2010.03.31 13:35:05.
