data_PCOD8128907
_publ_section_title
;
Structure prediction by ZEFSAII (Michael W. Deem and Ramdas Pophale) SiO2 
 PCOD8128907
Probable space group: P 21/C
;
_chemical_formula_sum "Si O2"
_cell_formula_units_Z 32
_cell_length_a 6.519797
_cell_length_b 13.730783
_cell_length_c 17.627081
_cell_angle_alpha 90.000000
_cell_angle_beta 75.328809
_cell_angle_gamma 90.000000
_cell_volume 1526.559429
_symmetry_space_group_name_H-M "P 21/C"
_symmetry_group_IT_number 14
_symmetry_cell_setting 'monoclinic'
loop_
_space_group_symop_operation_xyz
x,y,z
-x,1/2+y,1/2-z
-x,-y,-z
x,1/2-y,1/2+z
loop_
_atom_site_type_symbol
_atom_site_label
_atom_site_fract_x
_atom_site_fract_y
_atom_site_fract_z
Si Si1 0.972464 0.105869 0.468589
Si Si2 0.805203 0.670451 0.770515
Si Si3 0.334571 0.152178 0.319887
Si Si4 0.216306 0.885328 0.157663
Si Si5 0.182912 0.254480 0.063901
Si Si6 0.572074 0.989566 0.208215
Si Si7 0.600457 0.211040 0.435143
Si Si8 0.017281 0.956802 0.914988
O O1 0.729981 0.125336 0.465484
O O2 0.123422 0.116610 0.381797
O O3 0.024043 0.179976 0.530802
O O4 0.000000 0.000000 0.500000
O O5 0.715829 0.750976 0.721694
O O6 0.767212 0.699525 0.859872
O O7 0.687786 0.568145 0.765275
O O8 0.056229 0.655823 0.735927
O O9 0.410608 0.069039 0.255439
O O10 0.522331 0.170933 0.361737
O O11 0.242858 0.801944 0.091698
O O12 0.441870 0.909684 0.173040
O O13 0.125175 0.980673 0.127503
O O14 0.072482 0.150997 0.081372
O O15 0.407474 0.247819 0.001884
O O16 0.740031 0.041213 0.136377
O O17 0.000000 0.000000 0.000000
#
# Coordination Sequence:
#
# PCOD8128907 Si02
#       8
#     4   4   4   4   4   4   4   4
#     4  11  27  45  69  99 137 184 230 282 346 411
#     4  11  25  44  67 103 139 175 231 286 343 413
#     4  11  25  44  70 101 137 178 234 283 342 411
#     4  11  23  43  70  96 135 183 220 283 349 404
#     4  11  27  43  68 103 138 177 230 288 341 418
#     4  11  26  42  70 102 135 183 232 284 345 412
#     4  11  24  45  72  96 139 183 222 282 352 405
#     4  11  25  43  68 102 141 171 232 285 342 418
#
# _framework density 20.962171000000001
#
# number of rings (size 3 to 8) (size 9 to 14) (size 15 to 20)
#    0.000    1.000    2.500    2.250   10.500    7.000 
#    0.000    0.000    0.000    0.000    0.000    0.000 
#    0.000    0.000    0.000    0.000    0.000    0.000 
#
# Total GULP energy -396978.456967 kJ/mol
# GULP energy per Si atom -12405.576780 kJ/mol
# Density = 2.091446 g / cm^3
# Si number density = 20.962171 Si / 1000 Ang^3
#
#
#
# Elastic Constant Matrix: (Units=GPa)
#
#
# Indices 1 2 3 4 5 6 
#
# 1 107.3681 26.7297 24.0207 0.0000 1.3556 0.0000
# 2 26.7297 96.3566 32.6228 0.0000 -11.2925 0.0000
# 3 24.0207 32.6228 90.7001 0.0000 13.7797 0.0000
# 4 0.0000 0.0000 0.0000 38.0473 0.0000 -2.3218
# 5 1.3556 -11.2925 13.7797 0.0000 18.7617 0.0000
# 6 0.0000 0.0000 0.0000 -2.3218 0.0000 35.5544
#
#
#
# Elastic Compliance Matrix: (Units=1/GPa)
#
#
# Indices 1 2 3 4 5 6 
#
# 1 0.010305 -0.002375 -0.001739 0.000000 -0.000897 0.000000
# 2 -0.002375 0.015086 -0.006982 0.000000 0.014379 0.000000
# 3 -0.001739 -0.006982 0.016452 0.000000 -0.016160 0.000000
# 4 0.000000 0.000000 0.000000 0.026388 0.000000 0.001723
# 5 -0.000897 0.014379 -0.016160 0.000000 0.073888 0.000000
# 6 0.000000 0.000000 0.000000 0.001723 0.000000 0.028238
#
#
# Mechanical properties :
#
#
# Convention : Reuss Voigt Hill
#
# Bulk Modulus (GPa) = 50.88447 51.24126 51.06286
# Shear Modulus (GPa) = 25.11297 32.54278 28.82788
#
# Velocity S-wave (km/s) = 3.46499 3.94439 3.71244
# Velocity P-wave (km/s) = 6.35101 6.72622 6.54130
#
# Compressibility (1/GPa) = 0.01965236
#
# Stress axis : x y z
#
# Youngs Moduli (GPa) = 97.03666 66.28677 60.78285
#
# Poissons Ratio (x) = 0.15745 0.10567
# Poissons Ratio (y) = 0.23049 0.42436
# Poissons Ratio (z) = 0.16870 0.46279
#
# Static dielectric constant tensor:
#      x y z
#    x 3.918430 0.000000 0.094740 
#    y 0.000000 3.728590 0.000000 
#    z 0.094740 0.000000 4.205340 
# 
# 
# High freq. dielectric constant tensor:
#      x y z
#    x 1.832910 0.000000 -0.001310 
#    y 0.000000 1.833410 0.000000 
#    z -0.001310 0.000000 1.828220 
# 
# From -- ./inp_files/53453.got.cif
#   From: 2010.03.12/outbox.cif.g09.slc.cpg/sg14_27_cif.got.tgz:53453.got - 2010.03.31 13:35:05.
