data_PCOD8128486
_publ_section_title
;
Structure prediction by ZEFSAII (Michael W. Deem and Ramdas Pophale) SiO2 
 PCOD8128486
Probable space group: P 21/C
;
_chemical_formula_sum "Si O2"
_cell_formula_units_Z 32
_cell_length_a 22.080236
_cell_length_b 12.949574
_cell_length_c 22.137819
_cell_angle_alpha 90.000000
_cell_angle_beta 167.107410
_cell_angle_gamma 90.000000
_cell_volume 1412.343736
_symmetry_space_group_name_H-M "P 21/C"
_symmetry_group_IT_number 14
_symmetry_cell_setting 'monoclinic'
loop_
_space_group_symop_operation_xyz
x,y,z
-x,1/2+y,1/2-z
-x,-y,-z
x,1/2-y,1/2+z
loop_
_atom_site_type_symbol
_atom_site_label
_atom_site_fract_x
_atom_site_fract_y
_atom_site_fract_z
Si Si1 0.233335 0.722207 0.942686
Si Si2 0.868007 0.175334 0.792239
Si Si3 0.459941 0.887906 0.311054
Si Si4 0.646272 0.835993 0.034392
Si Si5 0.297060 0.234016 0.291069
Si Si6 0.799979 0.077614 0.476877
Si Si7 0.097895 0.448204 0.679107
Si Si8 0.277956 0.356565 0.056055
O O1 0.142864 0.675620 0.790641
O O2 0.983804 0.793948 0.722380
O O3 0.290288 0.633771 0.048229
O O4 0.514840 0.783956 0.204701
O O5 0.590990 0.205982 0.553916
O O6 0.960856 0.061161 0.905113
O O7 0.097563 0.256141 0.039987
O O8 0.547934 0.774648 0.416520
O O9 0.633230 0.968043 0.519055
O O10 0.531570 0.902137 0.311218
O O11 0.143312 0.907866 0.012534
O O12 0.678738 0.830938 0.139120
O O13 0.926474 0.868708 0.277654
O O14 0.419598 0.914705 0.790429
O O15 0.153752 0.136821 0.183396
O O16 0.837361 0.954859 0.520026
#
# Coordination Sequence:
#
# PCOD8128486 Si02
#       8
#     4   4   4   4   4   4   4   4
#     4  12  25  44  65  99 139 173 214 275 334 413
#     4  12  24  41  62  94 138 174 217 262 342 394
#     4  11  20  38  61  94 132 166 208 266 323 395
#     4  11  22  41  66  93 127 167 224 267 318 386
#     4  11  23  40  65  92 129 181 218 272 320 391
#     4  12  23  43  69  97 128 172 220 277 332 394
#     4  11  22  36  64  96 131 170 219 261 323 404
#     4  12  25  41  67  97 136 174 219 270 346 395
#
# _framework density 22.657374000000001
#
# number of rings (size 3 to 8) (size 9 to 14) (size 15 to 20)
#    0.000    0.500    2.500    8.250    0.000    2.000 
#    0.000    0.000    0.000   15.000    0.000    0.000 
#    0.000    0.000    0.000    0.000    0.000    0.000 
#
# Total GULP energy -396725.364093 kJ/mol
# GULP energy per Si atom -12397.667628 kJ/mol
# Density = 2.260580 g / cm^3
# Si number density = 22.657374 Si / 1000 Ang^3
#
#
#
# Elastic Constant Matrix: (Units=GPa)
#
#
# Indices 1 2 3 4 5 6 
#
# 1 55.8147 -9.5199 -12.6244 0.0000 4.3572 0.0000
# 2 -9.5199 61.7364 26.1521 0.0000 4.4469 0.0000
# 3 -12.6244 26.1521 104.7046 0.0000 7.9952 0.0000
# 4 0.0000 0.0000 0.0000 28.1764 0.0000 -0.1320
# 5 4.3572 4.4469 7.9952 0.0000 49.2018 0.0000
# 6 0.0000 0.0000 0.0000 -0.1320 0.0000 18.4533
#
#
#
# Elastic Compliance Matrix: (Units=1/GPa)
#
#
# Indices 1 2 3 4 5 6 
#
# 1 0.018900 0.002277 0.001877 0.000000 -0.002184 0.000000
# 2 0.002277 0.018429 -0.004239 0.000000 -0.001179 0.000000
# 3 0.001877 -0.004239 0.010955 0.000000 -0.001563 0.000000
# 4 0.000000 0.000000 0.000000 0.035492 0.000000 0.000254
# 5 -0.002184 -0.001179 -0.001563 0.000000 0.020878 0.000000
# 6 0.000000 0.000000 0.000000 0.000254 0.000000 0.054193
#
#
# Mechanical properties :
#
#
# Convention : Reuss Voigt Hill
#
# Bulk Modulus (GPa) = 20.78391 25.58572 23.18482
# Shear Modulus (GPa) = 28.56240 33.71616 31.13928
#
# Velocity S-wave (km/s) = 3.55438 3.86176 3.71125
# Velocity P-wave (km/s) = 5.10273 5.58580 5.34972
#
# Compressibility (1/GPa) = 0.04811414
#
# Stress axis : x y z
#
# Youngs Moduli (GPa) = 52.91061 54.26122 91.28220
#
# Poissons Ratio (x) = -0.12353 -0.17133
# Poissons Ratio (y) = -0.12046 0.38691
# Poissons Ratio (z) = -0.09931 0.22999
#
# Static dielectric constant tensor:
#      x y z
#    x 4.294450 0.000000 -0.313120 
#    y 0.000000 3.938290 0.000000 
#    z -0.313120 0.000000 4.414660 
# 
# 
# High freq. dielectric constant tensor:
#      x y z
#    x 1.894990 0.000000 -0.005290 
#    y 0.000000 1.868050 0.000000 
#    z -0.005290 0.000000 1.917320 
# 
# From -- ./inp_files/75034.got.cif
#   From: 2010.03.12/outbox.cif.g09.slc.cpg/sg14_38_cif.got.tgz:75034.got - 2010.03.31 13:35:05.
