data_PCOD8128345
_publ_section_title
;
Structure prediction by ZEFSAII (Michael W. Deem and Ramdas Pophale) SiO2 
 PCOD8128345
Probable space group: P 21/C
;
_chemical_formula_sum "Si O2"
_cell_formula_units_Z 16
_cell_length_a 11.394978
_cell_length_b 9.529265
_cell_length_c 9.500224
_cell_angle_alpha 90.000000
_cell_angle_beta 146.888309
_cell_angle_gamma 90.000000
_cell_volume 563.529147
_symmetry_space_group_name_H-M "P 21/C"
_symmetry_group_IT_number 14
_symmetry_cell_setting 'monoclinic'
loop_
_space_group_symop_operation_xyz
x,y,z
-x,1/2+y,1/2-z
-x,-y,-z
x,1/2-y,1/2+z
loop_
_atom_site_type_symbol
_atom_site_label
_atom_site_fract_x
_atom_site_fract_y
_atom_site_fract_z
Si Si1 0.442986 0.648423 0.863994
Si Si2 0.285755 0.164700 0.687525
Si Si3 0.004964 0.746113 0.851511
Si Si4 0.617136 0.407940 0.861361
O O1 0.182691 0.647623 0.601116
O O2 0.544666 0.494005 0.931142
O O3 0.518592 0.766886 0.821781
O O4 0.536143 0.710521 0.106722
O O5 0.413645 0.017420 0.799797
O O6 0.119190 0.165621 0.649002
O O7 0.156016 0.171288 0.409754
O O8 0.129793 0.631852 0.879816
#
# Coordination Sequence:
#
# PCOD8128345 Si02
#       4
#     4   4   4   4
#     4  10  25  45  74 109 147 184 244 295 362 424
#     4  12  22  50  72 109 142 196 237 301 359 430
#     4  10  27  41  79 104 146 187 245 293 360 426
#     4  10  24  48  74 107 144 194 235 302 355 435
#
# _framework density 28.392496000000001
#
# number of rings (size 3 to 8) (size 9 to 14) (size 15 to 20)
#    1.500    0.000    2.500    1.500    3.500    3.000 
#    0.000    2.500    0.000    0.000    0.000    0.000 
#    0.000    0.000    0.000    0.000    0.000    0.000 
#
# Total GULP energy -198218.280188 kJ/mol
# GULP energy per Si atom -12388.642512 kJ/mol
# Density = 2.832787 g / cm^3
# Si number density = 28.392496 Si / 1000 Ang^3
#
#
#
# Elastic Constant Matrix: (Units=GPa)
#
#
# Indices 1 2 3 4 5 6 
#
# 1 113.2246 16.1851 28.9228 0.0000 -18.1111 0.0000
# 2 16.1851 172.4516 16.9187 0.0000 -1.8811 0.0000
# 3 28.9228 16.9187 150.8874 0.0000 7.4400 0.0000
# 4 0.0000 0.0000 0.0000 20.0346 0.0000 -0.0833
# 5 -18.1111 -1.8811 7.4400 0.0000 42.1827 0.0000
# 6 0.0000 0.0000 0.0000 -0.0833 0.0000 43.6559
#
#
#
# Elastic Compliance Matrix: (Units=1/GPa)
#
#
# Indices 1 2 3 4 5 6 
#
# 1 0.010230 -0.000701 -0.002116 0.000000 0.004734 0.000000
# 2 -0.000701 0.005917 -0.000532 0.000000 0.000057 0.000000
# 3 -0.002116 -0.000532 0.007201 0.000000 -0.002202 0.000000
# 4 0.000000 0.000000 0.000000 0.049914 0.000000 0.000095
# 5 0.004734 0.000057 -0.002202 0.000000 0.026130 0.000000
# 6 0.000000 0.000000 0.000000 0.000095 0.000000 0.022907
#
#
# Mechanical properties :
#
#
# Convention : Reuss Voigt Hill
#
# Bulk Modulus (GPa) = 60.05543 62.29073 61.17308
# Shear Modulus (GPa) = 37.16185 46.14378 41.65281
#
# Velocity S-wave (km/s) = 3.62174 4.03576 3.83435
# Velocity P-wave (km/s) = 6.21990 6.61085 6.41835
#
# Compressibility (1/GPa) = 0.01665128
#
# Stress axis : x y z
#
# Youngs Moduli (GPa) = 97.75258 168.99551 138.86473
#
# Poissons Ratio (x) = 0.11845 0.29380
# Poissons Ratio (y) = 0.06851 0.07387
# Poissons Ratio (z) = 0.20682 0.08990
#
# Static dielectric constant tensor:
#      x y z
#    x 5.448310 0.000000 -0.064350 
#    y 0.000000 5.309700 0.000000 
#    z -0.064350 0.000000 5.003280 
# 
# 
# High freq. dielectric constant tensor:
#      x y z
#    x 2.196790 0.000000 -0.020970 
#    y 0.000000 2.173800 0.000000 
#    z -0.020970 0.000000 2.146270 
# 
# From -- ./inp_files/12135.got.cif
#   From: 2010.03.12/outbox.cif.g09.slc.cpg/sg14_7_cif.got.tgz:12135.got - 2010.03.31 13:35:05.
