data_PCOD8128591
_publ_section_title
;
Structure prediction by ZEFSAII (Michael W. Deem and Ramdas Pophale) SiO2 
 PCOD8128591
Probable space group: P 21/C
;
_chemical_formula_sum "Si O2"
_cell_formula_units_Z 32
_cell_length_a 13.120319
_cell_length_b 8.924365
_cell_length_c 22.797592
_cell_angle_alpha 90.000000
_cell_angle_beta 32.231482
_cell_angle_gamma 90.000000
_cell_volume 1423.691157
_symmetry_space_group_name_H-M "P 21/C"
_symmetry_group_IT_number 14
_symmetry_cell_setting 'monoclinic'
loop_
_space_group_symop_operation_xyz
x,y,z
-x,1/2+y,1/2-z
-x,-y,-z
x,1/2-y,1/2+z
loop_
_atom_site_type_symbol
_atom_site_label
_atom_site_fract_x
_atom_site_fract_y
_atom_site_fract_z
Si Si1 0.021330 0.175383 0.112193
Si Si2 0.361525 0.347325 0.362592
Si Si3 0.576716 0.258725 0.459874
Si Si4 0.037122 0.027078 0.346732
Si Si5 0.361960 0.645367 0.947629
Si Si6 0.396867 0.863564 0.679443
Si Si7 0.408761 0.373321 0.735885
Si Si8 0.803696 0.563894 0.355355
O O1 0.071340 0.088508 0.147604
O O2 0.022406 0.353523 0.122223
O O3 0.814828 0.118519 0.191182
O O4 0.159102 0.126876 0.992243
O O5 0.501839 0.280113 0.342894
O O6 0.464592 0.501151 0.292819
O O7 0.332200 0.243276 0.320674
O O8 0.612965 0.144259 0.494865
O O9 0.624911 0.165797 0.378812
O O10 0.717160 0.398698 0.398192
O O11 0.357828 0.309604 0.566714
O O12 0.227737 0.056235 0.291053
O O13 0.066567 0.080812 0.265599
O O14 0.861537 0.122543 0.459541
O O15 0.483414 0.509343 0.862188
O O16 0.444744 0.799159 0.881486
#
# Coordination Sequence:
#
# PCOD8128591 Si02
#       8
#     4   4   4   4   4   4   4   4
#     4  12  25  44  76 107 150 194 241 298 364 438
#     4  12  26  50  75 104 138 194 245 305 365 428
#     4  11  21  41  70 100 151 190 232 298 360 432
#     4  12  25  46  73 108 147 193 239 299 372 434
#     4  12  26  44  72 111 144 190 241 300 363 446
#     4  12  24  46  70 108 146 188 241 297 363 434
#     4  12  28  51  78 103 144 191 248 309 367 431
#     4  11  22  40  69 108 143 193 237 288 368 438
#
# _framework density 22.476783999999999
#
# number of rings (size 3 to 8) (size 9 to 14) (size 15 to 20)
#    0.000    0.250    6.250    2.625    0.000    4.500 
#    0.000    1.875    0.000    0.000    0.000    0.000 
#    0.000    0.000    0.000    0.000    0.000    0.000 
#
# Total GULP energy -396997.123399 kJ/mol
# GULP energy per Si atom -12406.160106 kJ/mol
# Density = 2.242563 g / cm^3
# Si number density = 22.476784 Si / 1000 Ang^3
#
#
#
# Elastic Constant Matrix: (Units=GPa)
#
#
# Indices 1 2 3 4 5 6 
#
# 1 36.0608 -0.5003 34.8124 0.0000 3.5817 0.0000
# 2 -0.5003 63.5444 22.0526 0.0000 -11.0289 0.0000
# 3 34.8124 22.0526 135.2790 0.0000 -18.7552 0.0000
# 4 0.0000 0.0000 0.0000 29.3567 0.0000 0.8512
# 5 3.5817 -11.0289 -18.7552 0.0000 44.5069 0.0000
# 6 0.0000 0.0000 0.0000 0.8512 0.0000 24.1148
#
#
#
# Elastic Compliance Matrix: (Units=1/GPa)
#
#
# Indices 1 2 3 4 5 6 
#
# 1 0.039909 0.003125 -0.011807 0.000000 -0.007413 0.000000
# 2 0.003125 0.017358 -0.003263 0.000000 0.002675 0.000000
# 3 -0.011807 -0.003263 0.011664 0.000000 0.005057 0.000000
# 4 0.000000 0.000000 0.000000 0.034099 0.000000 -0.001204
# 5 -0.007413 0.002675 0.005057 0.000000 0.025859 0.000000
# 6 0.000000 0.000000 0.000000 -0.001204 0.000000 0.041511
#
#
# Mechanical properties :
#
#
# Convention : Reuss Voigt Hill
#
# Bulk Modulus (GPa) = 22.20212 38.62374 30.41293
# Shear Modulus (GPa) = 23.88881 31.49698 27.69289
#
# Velocity S-wave (km/s) = 3.26363 3.74747 3.51389
# Velocity P-wave (km/s) = 4.90927 5.99549 5.47936
#
# Compressibility (1/GPa) = 0.04504074
#
# Stress axis : x y z
#
# Youngs Moduli (GPa) = 25.05694 57.60926 85.73691
#
# Poissons Ratio (x) = -0.18004 1.01232
# Poissons Ratio (y) = -0.07831 0.27977
# Poissons Ratio (z) = 0.29586 0.18798
#
# Static dielectric constant tensor:
#      x y z
#    x 3.897300 0.000000 -0.082750 
#    y 0.000000 3.995230 0.000000 
#    z -0.082750 0.000000 4.282510 
# 
# 
# High freq. dielectric constant tensor:
#      x y z
#    x 1.882280 0.000000 -0.004460 
#    y 0.000000 1.887390 0.000000 
#    z -0.004460 0.000000 1.902370 
# 
# From -- ./inp_files/73849.got.cif
#   From: 2010.03.12/outbox.cif.g09.slc.cpg/sg14_37_cif.got.tgz:73849.got - 2010.03.31 13:35:05.
