data_PCOD8128086
_publ_section_title
;
Structure prediction by ZEFSAII (Michael W. Deem and Ramdas Pophale) SiO2 
 PCOD8128086
Probable space group: P 21/C
;
_chemical_formula_sum "Si O2"
_cell_formula_units_Z 16
_cell_length_a 6.926202
_cell_length_b 9.637481
_cell_length_c 8.962790
_cell_angle_alpha 90.000000
_cell_angle_beta 75.882259
_cell_angle_gamma 90.000000
_cell_volume 580.206430
_symmetry_space_group_name_H-M "P 21/C"
_symmetry_group_IT_number 14
_symmetry_cell_setting 'monoclinic'
loop_
_space_group_symop_operation_xyz
x,y,z
-x,1/2+y,1/2-z
-x,-y,-z
x,1/2-y,1/2+z
loop_
_atom_site_type_symbol
_atom_site_label
_atom_site_fract_x
_atom_site_fract_y
_atom_site_fract_z
Si Si1 0.597028 0.120135 0.579855
Si Si2 0.400044 0.343779 0.434082
Si Si3 0.882133 0.028702 0.872357
Si Si4 0.991421 0.816851 0.598627
O O1 0.550783 0.265904 0.513202
O O2 0.509680 0.111340 0.761962
O O3 0.839922 0.113765 0.542980
O O4 0.500000 0.000000 0.500000
O O5 0.340204 0.482306 0.538805
O O6 0.209421 0.239290 0.443688
O O7 0.951780 0.935193 0.724251
O O8 0.908339 0.190136 0.827262
O O9 0.000000 0.000000 0.000000
#
# Coordination Sequence:
#
# PCOD8128086 Si02
#       4
#     4   4   4   4
#     4  12  28  45  75 109 145 192 251 294 360 441
#     4  11  26  47  70 111 144 190 247 301 362 433
#     4  10  23  47  73 105 147 187 241 303 358 432
#     4  11  25  47  78 102 151 191 236 307 365 422
#
# _framework density 27.576391999999998
#
# number of rings (size 3 to 8) (size 9 to 14) (size 15 to 20)
#    0.000    1.000    2.500    3.000   10.500    4.000 
#    0.000    0.000    0.000    0.000    0.000    0.000 
#    0.000    0.000    0.000    0.000    0.000    0.000 
#
# Total GULP energy -198319.305264 kJ/mol
# GULP energy per Si atom -12394.956579 kJ/mol
# Density = 2.751363 g / cm^3
# Si number density = 27.576392 Si / 1000 Ang^3
#
#
#
# Elastic Constant Matrix: (Units=GPa)
#
#
# Indices 1 2 3 4 5 6 
#
# 1 117.3904 4.1384 59.3096 0.0000 -38.4194 0.0000
# 2 4.1384 116.8663 62.4374 0.0000 -6.8345 0.0000
# 3 59.3096 62.4374 186.7825 0.0000 -29.7186 0.0000
# 4 0.0000 0.0000 0.0000 39.2142 0.0000 -7.9894
# 5 -38.4194 -6.8345 -29.7186 0.0000 62.7095 0.0000
# 6 0.0000 0.0000 0.0000 -7.9894 0.0000 24.9562
#
#
#
# Elastic Compliance Matrix: (Units=1/GPa)
#
#
# Indices 1 2 3 4 5 6 
#
# 1 0.012197 0.001800 -0.003520 0.000000 0.006001 0.000000
# 2 0.001800 0.010701 -0.004096 0.000000 0.000327 0.000000
# 3 -0.003520 -0.004096 0.008032 0.000000 0.001204 0.000000
# 4 0.000000 0.000000 0.000000 0.027280 0.000000 0.008733
# 5 0.006001 0.000327 0.001204 0.000000 0.020229 0.000000
# 6 0.000000 0.000000 0.000000 0.008733 0.000000 0.042866
#
#
# Mechanical properties :
#
#
# Convention : Reuss Voigt Hill
#
# Bulk Modulus (GPa) = 51.82091 74.75665 63.28878
# Shear Modulus (GPa) = 35.87527 45.05292 40.46409
#
# Velocity S-wave (km/s) = 3.61077 4.04635 3.83475
# Velocity P-wave (km/s) = 6.01798 6.99989 6.52742
#
# Compressibility (1/GPa) = 0.01929723
#
# Stress axis : x y z
#
# Youngs Moduli (GPa) = 81.98425 93.45145 124.49694
#
# Poissons Ratio (x) = -0.16817 0.43821
# Poissons Ratio (y) = -0.14753 0.50998
# Poissons Ratio (z) = 0.28857 0.38281
#
# Static dielectric constant tensor:
#      x y z
#    x 6.235090 0.000000 -0.240380 
#    y 0.000000 6.507150 0.000000 
#    z -0.240380 0.000000 5.016450 
# 
# 
# High freq. dielectric constant tensor:
#      x y z
#    x 2.146850 0.000000 -0.013980 
#    y 0.000000 2.144160 0.000000 
#    z -0.013980 0.000000 2.120310 
# 
# From -- ./inp_files/7349.got.cif
#   From: 2010.03.12/outbox.cif.g09.slc.cpg/sg14_4_cif.got.tgz:7349.got - 2010.03.31 13:35:05.
