data_PCOD8128767
_publ_section_title
;
Structure prediction by ZEFSAII (Michael W. Deem and Ramdas Pophale) SiO2 
 PCOD8128767
Probable space group: P 21/C
;
_chemical_formula_sum "Si O2"
_cell_formula_units_Z 24
_cell_length_a 10.908288
_cell_length_b 8.892721
_cell_length_c 11.388184
_cell_angle_alpha 90.000000
_cell_angle_beta 74.983389
_cell_angle_gamma 90.000000
_cell_volume 1066.978724
_symmetry_space_group_name_H-M "P 21/C"
_symmetry_group_IT_number 14
_symmetry_cell_setting 'monoclinic'
loop_
_space_group_symop_operation_xyz
x,y,z
-x,1/2+y,1/2-z
-x,-y,-z
x,1/2-y,1/2+z
loop_
_atom_site_type_symbol
_atom_site_label
_atom_site_fract_x
_atom_site_fract_y
_atom_site_fract_z
Si Si1 0.547745 0.818648 0.116648
Si Si2 0.772512 0.036939 0.034543
Si Si3 0.362598 0.461667 0.790933
Si Si4 0.644149 0.331935 0.992412
Si Si5 0.893375 0.461462 0.259133
Si Si6 0.861373 0.119809 0.256296
O O1 0.582222 0.707627 0.216387
O O2 0.491088 0.722902 0.023284
O O3 0.672704 0.902654 0.041143
O O4 0.442126 0.939284 0.180227
O O5 0.841583 0.023384 0.142667
O O6 0.705549 0.198619 0.052337
O O7 0.872259 0.026108 0.904257
O O8 0.375259 0.526991 0.918661
O O9 0.217514 0.454860 0.784764
O O10 0.732137 0.382197 0.862091
O O11 0.901152 0.289668 0.214950
O O12 0.026237 0.542190 0.196652
#
# Coordination Sequence:
#
# PCOD8128767 Si02
#       6
#     4   4   4   4   4   4
#     4  12  25  41  71  98 140 172 217 273 335 407
#     4  11  23  45  70  96 133 179 218 275 334 388
#     4  12  25  43  66 105 130 177 221 273 335 392
#     4  11  22  45  67  97 135 174 217 280 329 388
#     4  11  26  44  70  96 134 176 226 272 329 393
#     4  11  24  46  67  97 134 177 223 277 321 396
#
# _framework density 22.493418999999999
#
# number of rings (size 3 to 8) (size 9 to 14) (size 15 to 20)
#    0.000    0.667    5.000    3.500    4.667    2.000 
#    0.000    0.000    0.000    0.000    0.000    0.000 
#    0.000    0.000    0.000    0.000    0.000    0.000 
#
# Total GULP energy -297773.907860 kJ/mol
# GULP energy per Si atom -12407.246161 kJ/mol
# Density = 2.244222 g / cm^3
# Si number density = 22.493419 Si / 1000 Ang^3
#
#
#
# Elastic Constant Matrix: (Units=GPa)
#
#
# Indices 1 2 3 4 5 6 
#
# 1 117.0693 33.3895 16.5312 0.0000 12.2388 0.0000
# 2 33.3895 55.4107 12.4557 0.0000 -6.8265 0.0000
# 3 16.5312 12.4557 64.2483 0.0000 15.3078 0.0000
# 4 0.0000 0.0000 0.0000 20.7574 0.0000 6.0712
# 5 12.2388 -6.8265 15.3078 0.0000 25.6468 0.0000
# 6 0.0000 0.0000 0.0000 6.0712 0.0000 41.7676
#
#
#
# Elastic Compliance Matrix: (Units=1/GPa)
#
#
# Indices 1 2 3 4 5 6 
#
# 1 0.011617 -0.008092 0.000482 0.000000 -0.007985 0.000000
# 2 -0.008092 0.026198 -0.006503 0.000000 0.014716 0.000000
# 3 0.000482 -0.006503 0.020015 0.000000 -0.013907 0.000000
# 4 0.000000 0.000000 0.000000 0.050315 0.000000 -0.007314
# 5 -0.007985 0.014716 -0.013907 0.000000 0.055020 0.000000
# 6 0.000000 0.000000 0.000000 -0.007314 0.000000 0.025005
#
#
# Mechanical properties :
#
#
# Convention : Reuss Voigt Hill
#
# Bulk Modulus (GPa) = 33.77955 40.16457 36.97206
# Shear Modulus (GPa) = 22.09819 29.25784 25.67802
#
# Velocity S-wave (km/s) = 3.13777 3.61047 3.38239
# Velocity P-wave (km/s) = 5.30826 5.93933 5.63264
#
# Compressibility (1/GPa) = 0.02960371
#
# Stress axis : x y z
#
# Youngs Moduli (GPa) = 86.08355 38.17070 49.96294
#
# Poissons Ratio (x) = 0.30888 -0.02410
# Poissons Ratio (y) = 0.69660 0.32492
# Poissons Ratio (z) = -0.04153 0.24823
#
# Static dielectric constant tensor:
#      x y z
#    x 4.062760 0.000000 0.092050 
#    y 0.000000 4.084890 0.000000 
#    z 0.092050 0.000000 3.799730 
# 
# 
# High freq. dielectric constant tensor:
#      x y z
#    x 1.893710 0.000000 0.012100 
#    y 0.000000 1.886310 0.000000 
#    z 0.012100 0.000000 1.878390 
# 
# From -- ./inp_files/28342.got.cif
#   From: 2010.03.12/outbox.cif.g09.slc.cpg/sg14_15_cif.got.tgz:28342.got - 2010.03.31 13:35:05.
