data_PCOD8128669
_publ_section_title
;
Structure prediction by ZEFSAII (Michael W. Deem and Ramdas Pophale) SiO2 
 PCOD8128669
Probable space group: P 21/C
;
_chemical_formula_sum "Si O2"
_cell_formula_units_Z 32
_cell_length_a 8.546302
_cell_length_b 10.093533
_cell_length_c 20.691806
_cell_angle_alpha 90.000000
_cell_angle_beta 117.110293
_cell_angle_gamma 90.000000
_cell_volume 1588.816509
_symmetry_space_group_name_H-M "P 21/C"
_symmetry_group_IT_number 14
_symmetry_cell_setting 'monoclinic'
loop_
_space_group_symop_operation_xyz
x,y,z
-x,1/2+y,1/2-z
-x,-y,-z
x,1/2-y,1/2+z
loop_
_atom_site_type_symbol
_atom_site_label
_atom_site_fract_x
_atom_site_fract_y
_atom_site_fract_z
Si Si1 0.495200 0.525824 0.423275
Si Si2 0.013899 0.750063 0.898169
Si Si3 0.495201 0.474176 0.923275
Si Si4 0.287849 0.719561 0.561968
Si Si5 0.906808 0.503835 0.166807
Si Si6 0.013899 0.249937 0.398169
Si Si7 0.093191 0.996165 0.833193
Si Si8 0.712151 0.780438 0.438032
O O1 0.500000 0.500000 0.500000
O O2 0.618252 0.420927 0.409743
O O3 0.299887 0.514442 0.358838
O O4 0.562519 0.672157 0.420753
O O5 0.054443 0.603354 0.881095
O O6 0.014797 0.855109 0.840364
O O7 0.823304 0.752896 0.895306
O O8 0.163518 0.792602 0.976500
O O9 0.562520 0.327843 0.920754
O O10 0.299887 0.485558 0.858838
O O11 0.618253 0.579073 0.909743
O O12 0.500000 0.500000 0.000000
O O13 0.176696 0.752896 0.604694
O O14 0.985202 0.644890 0.159635
O O15 0.000000 0.459317 0.250000
O O16 0.054440 0.396646 0.381094
O O17 0.163519 0.207400 0.476500
#
# Coordination Sequence:
#
# PCOD8128669 Si02
#       8
#     4   4   4   4   4   4   4   4
#     4  12  21  39  63  93 120 152 209 246 292 353
#     4  11  22  41  62  91 124 155 200 248 305 349
#     4  12  21  39  63  93 120 152 209 246 292 353
#     4  11  22  38  66  94 116 154 203 260 293 341
#     4  12  25  41  61  89 126 163 195 242 303 364
#     4  11  22  41  62  91 124 155 200 248 305 349
#     4  12  25  41  61  89 126 163 195 242 303 364
#     4  11  22  38  66  94 116 154 203 260 293 341
#
# _framework density 20.140778999999998
#
# number of rings (size 3 to 8) (size 9 to 14) (size 15 to 20)
#    0.000    0.500    5.000    4.500    0.000    4.000 
#    0.000    7.500    0.000    0.000    0.000    0.000 
#    0.000    0.000    0.000    0.000    0.000    0.000 
#
# Total GULP energy -397097.884587 kJ/mol
# GULP energy per Si atom -12409.308893 kJ/mol
# Density = 2.009494 g / cm^3
# Si number density = 20.140779 Si / 1000 Ang^3
#
#
#
# Elastic Constant Matrix: (Units=GPa)
#
#
# Indices 1 2 3 4 5 6 
#
# 1 109.3059 16.3241 33.4923 0.0000 7.2112 0.0000
# 2 16.3241 85.4019 -5.6578 0.0000 -2.6674 0.0000
# 3 33.4923 -5.6578 51.5823 0.0000 7.3436 0.0000
# 4 0.0000 0.0000 0.0000 11.7767 0.0000 11.6068
# 5 7.2112 -2.6674 7.3436 0.0000 20.6954 0.0000
# 6 0.0000 0.0000 0.0000 11.6068 0.0000 33.6402
#
#
#
# Elastic Compliance Matrix: (Units=1/GPa)
#
#
# Indices 1 2 3 4 5 6 
#
# 1 0.012133 -0.002901 -0.007942 0.000000 -0.001783 0.000000
# 2 -0.002901 0.012513 0.003036 0.000000 0.001546 0.000000
# 3 -0.007942 0.003036 0.025726 0.000000 -0.005970 0.000000
# 4 0.000000 0.000000 0.000000 0.128667 0.000000 -0.044394
# 5 -0.001783 0.001546 -0.005970 0.000000 0.051259 0.000000
# 6 0.000000 0.000000 0.000000 -0.044394 0.000000 0.045043
#
#
# Mechanical properties :
#
#
# Convention : Reuss Voigt Hill
#
# Bulk Modulus (GPa) = 28.77032 37.17859 32.97446
# Shear Modulus (GPa) = 16.52658 26.69788 21.61223
#
# Velocity S-wave (km/s) = 2.86764 3.64478 3.27931
# Velocity P-wave (km/s) = 5.02793 6.01764 5.54491
#
# Compressibility (1/GPa) = 0.03475804
#
# Stress axis : x y z
#
# Youngs Moduli (GPa) = 82.41884 79.91497 38.87066
#
# Poissons Ratio (x) = 0.23184 0.30872
# Poissons Ratio (y) = 0.23910 -0.11801
# Poissons Ratio (z) = 0.65460 -0.24262
#
# Static dielectric constant tensor:
#      x y z
#    x 3.862670 0.000000 0.086440 
#    y 0.000000 3.789540 0.000000 
#    z 0.086440 0.000000 3.396310 
# 
# 
# High freq. dielectric constant tensor:
#      x y z
#    x 1.802680 0.000000 0.006680 
#    y 0.000000 1.805620 0.000000 
#    z 0.006680 0.000000 1.758450 
# 
# From -- ./inp_files/57265.got.cif
#   From: 2010.03.12/outbox.cif.g09.slc.cpg/sg14_29_cif.got.tgz:57265.got - 2010.03.31 13:35:05.
