data_PCOD8128024
_publ_section_title
;
Structure prediction by ZEFSAII (Michael W. Deem and Ramdas Pophale) SiO2 
 PCOD8128024
Probable space group: P 21/C
;
_chemical_formula_sum "Si O2"
_cell_formula_units_Z 28
_cell_length_a 9.916395
_cell_length_b 15.389225
_cell_length_c 8.281092
_cell_angle_alpha 90.000000
_cell_angle_beta 65.803269
_cell_angle_gamma 90.000000
_cell_volume 1152.713410
_symmetry_space_group_name_H-M "P 21/C"
_symmetry_group_IT_number 14
_symmetry_cell_setting 'monoclinic'
loop_
_space_group_symop_operation_xyz
x,y,z
-x,1/2+y,1/2-z
-x,-y,-z
x,1/2-y,1/2+z
loop_
_atom_site_type_symbol
_atom_site_label
_atom_site_fract_x
_atom_site_fract_y
_atom_site_fract_z
Si Si1 0.842307 0.790077 0.359283
Si Si2 0.919519 0.868426 0.983568
Si Si3 0.810925 0.451154 0.489908
Si Si4 0.930439 0.090906 0.589711
Si Si5 0.476700 0.198470 0.356966
Si Si6 0.506855 0.530872 0.313515
Si Si7 0.630515 0.358417 0.096714
O O1 0.847713 0.824200 0.175588
O O2 0.929799 0.698755 0.330723
O O3 0.672396 0.769327 0.483140
O O4 0.924755 0.852240 0.446669
O O5 0.815814 0.945202 0.976157
O O6 0.078771 0.907816 0.938727
O O7 0.831578 0.415991 0.299793
O O8 0.655574 0.431950 0.646988
O O9 0.810928 0.134040 0.525062
O O10 0.000000 0.000000 0.500000
O O11 0.412201 0.122295 0.267714
O O12 0.560798 0.279368 0.233975
O O13 0.590101 0.158127 0.431461
O O14 0.500000 0.500000 0.500000
O O15 0.562137 0.452022 0.176969
#
# Coordination Sequence:
#
# PCOD8128024 Si02
#       7
#     4   4   4   4   4   4   4
#     4  11  24  44  70 102 141 189 244 292 367 431
#     4  10  24  42  71  98 139 181 238 299 359 437
#     4  10  23  45  67 102 138 185 237 293 370 433
#     4  11  26  45  72 105 144 191 247 298 372 441
#     4  12  27  45  76 109 153 194 252 306 375 445
#     4  12  24  44  74 101 148 191 246 302 375 436
#     4  12  27  48  73 113 151 200 251 312 375 448
#
# _framework density 24.290514999999999
#
# number of rings (size 3 to 8) (size 9 to 14) (size 15 to 20)
#    0.000    0.857    1.429    4.714    4.000    4.571 
#    0.000    0.000    0.000    0.000    0.000    0.000 
#    0.000    0.000    0.000    0.000    0.000    0.000 
#
# Total GULP energy -346989.190819 kJ/mol
# GULP energy per Si atom -12392.471101 kJ/mol
# Density = 2.423523 g / cm^3
# Si number density = 24.290515 Si / 1000 Ang^3
#
#
#
# Elastic Constant Matrix: (Units=GPa)
#
#
# Indices 1 2 3 4 5 6 
#
# 1 96.4866 18.5647 23.7581 0.0000 -4.0329 0.0000
# 2 18.5647 142.7178 10.3833 0.0000 1.0629 0.0000
# 3 23.7581 10.3833 37.2448 0.0000 -0.8674 0.0000
# 4 0.0000 0.0000 0.0000 51.0799 0.0000 3.7843
# 5 -4.0329 1.0629 -0.8674 0.0000 33.1630 0.0000
# 6 0.0000 0.0000 0.0000 3.7843 0.0000 33.4242
#
#
#
# Elastic Compliance Matrix: (Units=1/GPa)
#
#
# Indices 1 2 3 4 5 6 
#
# 1 0.012512 -0.001081 -0.007648 0.000000 0.001356 0.000000
# 2 -0.001081 0.007248 -0.001340 0.000000 -0.000399 0.000000
# 3 -0.007648 -0.001340 0.032101 0.000000 -0.000048 0.000000
# 4 0.000000 0.000000 0.000000 0.019743 0.000000 -0.002235
# 5 0.001356 -0.000399 -0.000048 0.000000 0.030331 0.000000
# 6 0.000000 0.000000 0.000000 -0.002235 0.000000 0.030172
#
#
# Mechanical properties :
#
#
# Convention : Reuss Voigt Hill
#
# Bulk Modulus (GPa) = 31.52462 42.42904 36.97683
# Shear Modulus (GPa) = 30.70898 38.44965 34.57931
#
# Velocity S-wave (km/s) = 3.55947 3.98289 3.77712
# Velocity P-wave (km/s) = 5.46804 6.21744 5.85474
#
# Compressibility (1/GPa) = 0.03172123
#
# Stress axis : x y z
#
# Youngs Moduli (GPa) = 79.92253 137.96989 31.15197
#
# Poissons Ratio (x) = 0.14918 0.23826
# Poissons Ratio (y) = 0.08641 0.04175
# Poissons Ratio (z) = 0.61127 0.18491
#
# Static dielectric constant tensor:
#      x y z
#    x 4.055770 0.000000 0.461660 
#    y 0.000000 4.578980 0.000000 
#    z 0.461660 0.000000 4.000950 
# 
# 
# High freq. dielectric constant tensor:
#      x y z
#    x 1.977910 0.000000 -0.000320 
#    y 0.000000 1.982860 0.000000 
#    z -0.000320 0.000000 1.961930 
# 
# From -- ./inp_files/13009.got.cif
#   From: 2010.03.12/outbox.cif.g09.slc.cpg/sg14_7_cif.got.tgz:13009.got - 2010.03.31 13:35:05.
