data_PCOD8128470
_publ_section_title
;
Structure prediction by ZEFSAII (Michael W. Deem and Ramdas Pophale) SiO2 
 PCOD8128470
Probable space group: P 21/C
;
_chemical_formula_sum "Si O2"
_cell_formula_units_Z 28
_cell_length_a 9.305016
_cell_length_b 13.301909
_cell_length_c 11.639746
_cell_angle_alpha 90.000000
_cell_angle_beta 67.920797
_cell_angle_gamma 90.000000
_cell_volume 1335.049662
_symmetry_space_group_name_H-M "P 21/C"
_symmetry_group_IT_number 14
_symmetry_cell_setting 'monoclinic'
loop_
_space_group_symop_operation_xyz
x,y,z
-x,1/2+y,1/2-z
-x,-y,-z
x,1/2-y,1/2+z
loop_
_atom_site_type_symbol
_atom_site_label
_atom_site_fract_x
_atom_site_fract_y
_atom_site_fract_z
Si Si1 0.788627 0.105454 0.337168
Si Si2 0.495040 0.915271 0.722690
Si Si3 0.673021 0.694600 0.973487
Si Si4 0.971695 0.943052 0.388600
Si Si5 0.248243 0.814210 0.224732
Si Si6 0.496267 0.382347 0.521687
Si Si7 0.579573 0.126111 0.621727
O O1 0.677333 0.065304 0.271190
O O2 0.849585 0.214867 0.279655
O O3 0.704062 0.108371 0.485238
O O4 0.927307 0.026691 0.307704
O O5 0.582480 0.839196 0.613063
O O6 0.493999 0.864040 0.846369
O O7 0.573933 0.024606 0.699482
O O8 0.846498 0.649032 0.930169
O O9 0.656094 0.817808 0.975818
O O10 0.585665 0.654218 0.884876
O O11 0.132459 0.902408 0.292542
O O12 0.000000 0.000000 0.500000
O O13 0.359175 0.792734 0.302555
O O14 0.350771 0.836401 0.081744
O O15 0.500000 0.500000 0.500000
#
# Coordination Sequence:
#
# PCOD8128470 Si02
#       7
#     4   4   4   4   4   4   4
#     4  11  22  41  70  97 128 180 231 286 342 413
#     4  11  20  40  74  97 128 172 242 284 331 409
#     4  11  23  43  72 103 126 187 242 284 343 424
#     4  12  25  46  71 102 141 183 237 294 353 425
#     4  12  25  42  67 102 142 178 223 290 362 408
#     4  12  26  39  65 105 145 180 227 295 349 414
#     4  11  19  42  73  98 124 175 243 278 333 409
#
# _framework density 20.973002999999999
#
# number of rings (size 3 to 8) (size 9 to 14) (size 15 to 20)
#    0.000    0.571    8.571    1.714    0.000    1.143 
#    0.000    0.714    0.000    0.000    0.000    0.000 
#    0.000    0.000    0.000    0.000    0.000    0.000 
#
# Total GULP energy -346959.451777 kJ/mol
# GULP energy per Si atom -12391.408992 kJ/mol
# Density = 2.092527 g / cm^3
# Si number density = 20.973003 Si / 1000 Ang^3
#
#
#
# Elastic Constant Matrix: (Units=GPa)
#
#
# Indices 1 2 3 4 5 6 
#
# 1 91.5488 35.3019 44.5844 0.0000 7.5281 0.0000
# 2 35.3019 136.2637 28.4398 0.0000 0.1517 0.0000
# 3 44.5844 28.4398 90.8723 0.0000 11.9870 0.0000
# 4 0.0000 0.0000 0.0000 -8.7090 0.0000 11.5012
# 5 7.5281 0.1517 11.9870 0.0000 23.5994 0.0000
# 6 0.0000 0.0000 0.0000 11.5012 0.0000 38.3639
#
#
#
# Elastic Compliance Matrix: (Units=1/GPa)
#
#
# Indices 1 2 3 4 5 6 
#
# 1 0.015183 -0.002589 -0.006433 0.000000 -0.001559 0.000000
# 2 -0.002589 0.008329 -0.001542 0.000000 0.001555 0.000000
# 3 -0.006433 -0.001542 0.015403 0.000000 -0.005762 0.000000
# 4 0.000000 0.000000 0.000000 -0.082257 0.000000 0.024660
# 5 -0.001559 0.001555 -0.005762 0.000000 0.045788 0.000000
# 6 0.000000 0.000000 0.000000 0.024660 0.000000 0.018673
#
#
# Mechanical properties :
#
#
# Convention : Reuss Voigt Hill
#
# Bulk Modulus (GPa) = 56.21883 59.48191 57.85037
# Shear Modulus (GPa) = 103.78601 24.67476 64.23038
#
# Velocity S-wave (km/s) = 7.04223 3.43374 5.54001
# Velocity P-wave (km/s) = 9.64300 6.64406 8.28043
#
# Compressibility (1/GPa) = 0.01778763
#
# Stress axis : x y z
#
# Youngs Moduli (GPa) = 65.86500 120.05528 64.92118
#
# Poissons Ratio (x) = 0.31082 0.41764
# Poissons Ratio (y) = 0.17052 0.10010
# Poissons Ratio (z) = 0.42372 0.18510
#
# Static dielectric constant tensor:
#      x y z
#    x 4.086870 0.000000 0.372070 
#    y 0.000000 4.398390 0.000000 
#    z 0.372070 0.000000 3.868330 
# 
# 
# High freq. dielectric constant tensor:
#      x y z
#    x 1.805010 0.000000 0.021790 
#    y 0.000000 1.843890 0.000000 
#    z 0.021790 0.000000 1.812280 
# 
# From -- ./inp_files/25123.got.cif
#   From: 2010.03.12/outbox.cif.g09.slc.cpg/sg14_13_cif.got.tgz:25123.got - 2010.03.31 13:35:05.
