data_PCOD8128473
_publ_section_title
;
Structure prediction by ZEFSAII (Michael W. Deem and Ramdas Pophale) SiO2 
 PCOD8128473
Probable space group: P 21/C
;
_chemical_formula_sum "Si O2"
_cell_formula_units_Z 24
_cell_length_a 30.719269
_cell_length_b 5.169288
_cell_length_c 26.102603
_cell_angle_alpha 90.000000
_cell_angle_beta 161.827379
_cell_angle_gamma 90.000000
_cell_volume 1292.749123
_symmetry_space_group_name_H-M "P 21/C"
_symmetry_group_IT_number 14
_symmetry_cell_setting 'monoclinic'
loop_
_space_group_symop_operation_xyz
x,y,z
-x,1/2+y,1/2-z
-x,-y,-z
x,1/2-y,1/2+z
loop_
_atom_site_type_symbol
_atom_site_label
_atom_site_fract_x
_atom_site_fract_y
_atom_site_fract_z
Si Si1 0.604562 0.502548 0.713333
Si Si2 0.836539 0.031307 0.813015
Si Si3 0.722473 0.968922 0.133346
Si Si4 0.676154 0.495275 0.466551
Si Si5 0.347667 0.495577 0.117835
Si Si6 0.356959 0.997062 0.309020
O O1 0.438673 0.502746 0.533053
O O2 0.680152 0.499577 0.852743
O O3 0.655506 0.255733 0.739309
O O4 0.654015 0.756220 0.739416
O O5 0.807772 0.316912 0.759543
O O6 0.772956 0.998349 0.798127
O O7 0.770604 0.818341 0.701736
O O8 0.000000 0.000000 0.000000
O O9 0.751827 0.003888 0.105967
O O10 0.511393 0.497636 0.290354
O O11 0.722856 0.743390 0.485897
O O12 0.723692 0.243524 0.488234
O O13 0.500000 0.000000 0.500000
#
# Coordination Sequence:
#
# PCOD8128473 Si02
#       6
#     4   4   4   4   4   4
#     4  11  20  33  57  84 110 144 177 225 276 324
#     4  12  25  38  54  80 112 148 188 224 261 323
#     4  11  20  36  56  80 110 147 183 221 275 321
#     4   9  17  29  49  75 110 141 166 217 274 323
#     4   9  17  29  46  80 112 132 170 218 273 323
#     4  12  21  36  56  80 110 147 184 220 275 321
#
# _framework density 18.565087999999999
#
# number of rings (size 3 to 8) (size 9 to 14) (size 15 to 20)
#    0.000    1.333    3.333    4.000    0.000    5.333 
#    0.000    0.000    0.000    0.000    0.000   23.333 
#    0.000    0.000    0.000    0.000    0.000    0.000 
#
# Total GULP energy -297691.585814 kJ/mol
# GULP energy per Si atom -12403.816076 kJ/mol
# Density = 1.852283 g / cm^3
# Si number density = 18.565088 Si / 1000 Ang^3
#
#
#
# Elastic Constant Matrix: (Units=GPa)
#
#
# Indices 1 2 3 4 5 6 
#
# 1 161.9137 74.5451 46.4944 0.0000 -17.4641 0.0000
# 2 74.5451 155.2602 13.1256 0.0000 -12.0130 0.0000
# 3 46.4944 13.1256 50.5551 0.0000 7.5720 0.0000
# 4 0.0000 0.0000 0.0000 2.2855 0.0000 -8.9817
# 5 -17.4641 -12.0130 7.5720 0.0000 22.9986 0.0000
# 6 0.0000 0.0000 0.0000 -8.9817 0.0000 45.6982
#
#
#
# Elastic Compliance Matrix: (Units=1/GPa)
#
#
# Indices 1 2 3 4 5 6 
#
# 1 0.013072 -0.004286 -0.012686 0.000000 0.011864 0.000000
# 2 -0.004286 0.008402 0.001673 0.000000 0.000584 0.000000
# 3 -0.012686 0.001673 0.034002 0.000000 -0.019954 0.000000
# 4 0.000000 0.000000 0.000000 1.922266 0.000000 0.377810
# 5 0.011864 0.000584 -0.019954 0.000000 0.059365 0.000000
# 6 0.000000 0.000000 0.000000 0.377810 0.000000 0.096139
#
#
# Mechanical properties :
#
#
# Convention : Reuss Voigt Hill
#
# Bulk Modulus (GPa) = 40.19700 70.67324 55.43512
# Shear Modulus (GPa) = 2.30188 29.76740 16.03464
#
# Velocity S-wave (km/s) = 1.11471 4.00860 2.94206
# Velocity P-wave (km/s) = 4.83278 7.71853 6.43938
#
# Compressibility (1/GPa) = 0.02487748
#
# Stress axis : x y z
#
# Youngs Moduli (GPa) = 76.49998 119.01522 29.41001
#
# Poissons Ratio (x) = 0.51007 0.37310
# Poissons Ratio (y) = 0.32786 -0.04919
# Poissons Ratio (z) = 0.97050 -0.19906
#
# Static dielectric constant tensor:
#      x y z
#    x 3.727730 0.000000 -0.236910 
#    y 0.000000 3.768350 0.000000 
#    z -0.236910 0.000000 2.980510 
# 
# 
# High freq. dielectric constant tensor:
#      x y z
#    x 1.733160 0.000000 -0.022950 
#    y 0.000000 1.746140 0.000000 
#    z -0.022950 0.000000 1.667220 
# 
# From -- ./inp_files/75116.got.cif
#   From: 2010.03.12/outbox.cif.g09.slc.cpg/sg14_38_cif.got.tgz:75116.got - 2010.03.31 13:35:05.
