data_PCOD8128277
_publ_section_title
;
Structure prediction by ZEFSAII (Michael W. Deem and Ramdas Pophale) SiO2 
 PCOD8128277
Probable space group: P 21/C
;
_chemical_formula_sum "Si O2"
_cell_formula_units_Z 20
_cell_length_a 9.495879
_cell_length_b 17.671563
_cell_length_c 12.016667
_cell_angle_alpha 90.000000
_cell_angle_beta 24.885406
_cell_angle_gamma 90.000000
_cell_volume 848.544864
_symmetry_space_group_name_H-M "P 21/C"
_symmetry_group_IT_number 14
_symmetry_cell_setting 'monoclinic'
loop_
_space_group_symop_operation_xyz
x,y,z
-x,1/2+y,1/2-z
-x,-y,-z
x,1/2-y,1/2+z
loop_
_atom_site_type_symbol
_atom_site_label
_atom_site_fract_x
_atom_site_fract_y
_atom_site_fract_z
Si Si1 0.188282 0.690913 0.609198
Si Si2 0.143053 0.859810 0.698105
Si Si3 0.831098 0.478543 0.993707
Si Si4 0.507597 0.580732 0.557417
Si Si5 0.491004 0.868285 0.671318
O O1 0.278178 0.775681 0.580198
O O2 0.381099 0.632925 0.549375
O O3 0.792176 0.679633 0.903079
O O4 0.302476 0.679383 0.400685
O O5 0.321432 0.916655 0.482189
O O6 0.229173 0.885991 0.761184
O O7 0.742750 0.866816 0.967387
O O8 0.797366 0.447859 0.144782
O O9 0.625631 0.554530 0.127168
O O10 0.234879 0.487123 0.673679
#
# Coordination Sequence:
#
# PCOD8128277 Si02
#       5
#     4   4   4   4   4
#     4  12  27  42  69 104 135 179 220 282 336 397
#     4  10  27  44  71  95 142 174 231 270 337 392
#     4  10  24  45  72  97 134 179 226 275 329 396
#     4  10  24  44  69  95 141 171 221 278 338 385
#     4  12  27  44  73  99 134 178 232 269 335 401
#
# _framework density 23.569759999999999
#
# number of rings (size 3 to 8) (size 9 to 14) (size 15 to 20)
#    1.200    0.000    0.000    4.200    8.400    5.600 
#    0.000    0.000    0.000    0.000    0.000    0.000 
#    0.000    0.000    0.000    0.000    0.000    0.000 
#
# Total GULP energy -248076.063071 kJ/mol
# GULP energy per Si atom -12403.803154 kJ/mol
# Density = 2.351611 g / cm^3
# Si number density = 23.569760 Si / 1000 Ang^3
#
#
#
# Elastic Constant Matrix: (Units=GPa)
#
#
# Indices 1 2 3 4 5 6 
#
# 1 157.8580 20.4434 58.5665 0.0000 9.2722 0.0000
# 2 20.4434 114.0659 31.6447 0.0000 15.5165 0.0000
# 3 58.5665 31.6447 143.9048 0.0000 25.9056 0.0000
# 4 0.0000 0.0000 0.0000 20.2608 0.0000 5.9730
# 5 9.2722 15.5165 25.9056 0.0000 34.3172 0.0000
# 6 0.0000 0.0000 0.0000 5.9730 0.0000 38.7795
#
#
#
# Elastic Compliance Matrix: (Units=1/GPa)
#
#
# Indices 1 2 3 4 5 6 
#
# 1 0.007499 -0.000577 -0.003017 0.000000 0.000512 0.000000
# 2 -0.000577 0.009673 -0.001311 0.000000 -0.003228 0.000000
# 3 -0.003017 -0.001311 0.009503 0.000000 -0.005766 0.000000
# 4 0.000000 0.000000 0.000000 0.051704 0.000000 -0.007964
# 5 0.000512 -0.003228 -0.005766 0.000000 0.034813 0.000000
# 6 0.000000 0.000000 0.000000 -0.007964 0.000000 0.027013
#
#
# Mechanical properties :
#
#
# Convention : Reuss Voigt Hill
#
# Bulk Modulus (GPa) = 59.29525 70.79310 65.04418
# Shear Modulus (GPa) = 32.12577 39.01645 35.57111
#
# Velocity S-wave (km/s) = 3.69590 4.07303 3.88904
# Velocity P-wave (km/s) = 6.58975 7.22635 6.91538
#
# Compressibility (1/GPa) = 0.01686476
#
# Stress axis : x y z
#
# Youngs Moduli (GPa) = 133.35407 103.37935 105.22612
#
# Poissons Ratio (x) = 0.05961 0.31750
# Poissons Ratio (y) = 0.07689 0.13799
# Poissons Ratio (z) = 0.40237 0.13557
#
# Static dielectric constant tensor:
#      x y z
#    x 4.301990 0.000000 -0.045510 
#    y 0.000000 4.250840 0.000000 
#    z -0.045510 0.000000 4.232910 
# 
# 
# High freq. dielectric constant tensor:
#      x y z
#    x 1.960290 0.000000 0.000530 
#    y 0.000000 1.944860 0.000000 
#    z 0.000530 0.000000 1.937430 
# 
# From -- ./inp_files/20994.got.cif
#   From: 2010.03.12/outbox.cif.g09.slc.cpg/sg14_11_cif.got.tgz:20994.got - 2010.03.31 13:35:05.
