data_PCOD8128559
_publ_section_title
;
Structure prediction by ZEFSAII (Michael W. Deem and Ramdas Pophale) SiO2 
 PCOD8128559
Probable space group: P 21/C
;
_chemical_formula_sum "Si O2"
_cell_formula_units_Z 32
_cell_length_a 11.747108
_cell_length_b 12.235421
_cell_length_c 11.260795
_cell_angle_alpha 90.000000
_cell_angle_beta 73.720753
_cell_angle_gamma 90.000000
_cell_volume 1553.631577
_symmetry_space_group_name_H-M "P 21/C"
_symmetry_group_IT_number 14
_symmetry_cell_setting 'monoclinic'
loop_
_space_group_symop_operation_xyz
x,y,z
-x,1/2+y,1/2-z
-x,-y,-z
x,1/2-y,1/2+z
loop_
_atom_site_type_symbol
_atom_site_label
_atom_site_fract_x
_atom_site_fract_y
_atom_site_fract_z
Si Si1 0.023912 0.190454 0.643877
Si Si2 0.773276 0.863288 0.593668
Si Si3 0.921227 0.924045 0.939935
Si Si4 0.529309 0.839205 0.544429
Si Si5 0.196503 0.552606 0.739419
Si Si6 0.543560 0.096348 0.902442
Si Si7 0.431205 0.034259 0.689990
Si Si8 0.800666 0.649971 0.700889
O O1 0.100096 0.146981 0.509674
O O2 0.008703 0.321343 0.637458
O O3 0.083714 0.150691 0.749666
O O4 0.890896 0.144329 0.682223
O O5 0.669249 0.851423 0.528304
O O6 0.753391 0.774403 0.705287
O O7 0.766231 0.979061 0.660019
O O8 0.867674 0.987895 0.845974
O O9 0.820493 0.879767 0.056974
O O10 0.000000 0.000000 0.000000
O O11 0.496377 0.713586 0.537893
O O12 0.497578 0.898888 0.430904
O O13 0.453258 0.903591 0.668138
O O14 0.314831 0.603905 0.649767
O O15 0.480994 0.076914 0.797369
O O16 0.500000 0.000000 0.000000
O O17 0.292337 0.063362 0.719825
#
# Coordination Sequence:
#
# PCOD8128559 Si02
#       8
#     4   4   4   4   4   4   4   4
#     4  11  24  42  69  99 130 178 226 284 337 408
#     4  11  22  41  71  96 133 178 235 275 336 415
#     4  11  24  43  66  97 133 175 226 271 345 408
#     4  11  25  44  68 103 138 181 233 290 345 410
#     4  12  25  46  66 103 138 180 227 287 346 405
#     4  12  28  44  72 104 140 182 230 286 346 418
#     4  11  24  44  69 100 136 180 232 283 349 405
#     4  11  21  39  70  98 129 180 227 276 331 415
#
# _framework density 20.596903999999999
#
# number of rings (size 3 to 8) (size 9 to 14) (size 15 to 20)
#    0.000    0.750    6.250    1.125    5.250    1.000 
#    2.250    0.000    0.000    0.000    0.000    0.000 
#    0.000    0.000    0.000    0.000    0.000    0.000 
#
# Total GULP energy -396794.580087 kJ/mol
# GULP energy per Si atom -12399.830628 kJ/mol
# Density = 2.055002 g / cm^3
# Si number density = 20.596904 Si / 1000 Ang^3
#
#
#
# Elastic Constant Matrix: (Units=GPa)
#
#
# Indices 1 2 3 4 5 6 
#
# 1 105.6272 55.2182 28.2216 0.0000 -15.8638 0.0000
# 2 55.2182 132.6211 37.7077 0.0000 -8.8174 0.0000
# 3 28.2216 37.7077 73.2663 0.0000 -6.2719 0.0000
# 4 0.0000 0.0000 0.0000 36.1914 0.0000 -1.5221
# 5 -15.8638 -8.8174 -6.2719 0.0000 39.3340 0.0000
# 6 0.0000 0.0000 0.0000 -1.5221 0.0000 32.4299
#
#
#
# Elastic Compliance Matrix: (Units=1/GPa)
#
#
# Indices 1 2 3 4 5 6 
#
# 1 0.013032 -0.004493 -0.002376 0.000000 0.003870 0.000000
# 2 -0.004493 0.010445 -0.003650 0.000000 -0.000053 0.000000
# 3 -0.002376 -0.003650 0.016516 0.000000 0.000857 0.000000
# 4 0.000000 0.000000 0.000000 0.027685 0.000000 0.001299
# 5 0.003870 -0.000053 0.000857 0.000000 0.027109 0.000000
# 6 0.000000 0.000000 0.000000 0.001299 0.000000 0.030897
#
#
# Mechanical properties :
#
#
# Convention : Reuss Voigt Hill
#
# Bulk Modulus (GPa) = 52.75529 61.53441 57.14485
# Shear Modulus (GPa) = 32.67104 34.28221 33.47662
#
# Velocity S-wave (km/s) = 3.98705 4.08417 4.03590
# Velocity P-wave (km/s) = 6.84574 7.22365 7.03723
#
# Compressibility (1/GPa) = 0.01895544
#
# Stress axis : x y z
#
# Youngs Moduli (GPa) = 76.73285 95.73733 60.54813
#
# Poissons Ratio (x) = 0.43017 0.14387
# Poissons Ratio (y) = 0.34478 0.22097
# Poissons Ratio (z) = 0.18233 0.34940
#
# Static dielectric constant tensor:
#      x y z
#    x 3.791470 0.000000 -0.007040 
#    y 0.000000 4.028260 0.000000 
#    z -0.007040 0.000000 3.992840 
# 
# 
# High freq. dielectric constant tensor:
#      x y z
#    x 1.799200 0.000000 0.008360 
#    y 0.000000 1.810630 0.000000 
#    z 0.008360 0.000000 1.816080 
# 
# From -- ./inp_files/29043.got.cif
#   From: 2010.03.12/outbox.cif.g09.slc.cpg/sg14_15_cif.got.tgz:29043.got - 2010.03.31 13:35:05.
