data_PCOD8128846
_publ_section_title
;
Structure prediction by ZEFSAII (Michael W. Deem and Ramdas Pophale) SiO2 
 PCOD8128846
Probable space group: P 21/C
;
_chemical_formula_sum "Si O2"
_cell_formula_units_Z 24
_cell_length_a 23.014037
_cell_length_b 8.629250
_cell_length_c 10.480444
_cell_angle_alpha 90.000000
_cell_angle_beta 150.125149
_cell_angle_gamma 90.000000
_cell_volume 1036.736393
_symmetry_space_group_name_H-M "P 21/C"
_symmetry_group_IT_number 14
_symmetry_cell_setting 'monoclinic'
loop_
_space_group_symop_operation_xyz
x,y,z
-x,1/2+y,1/2-z
-x,-y,-z
x,1/2-y,1/2+z
loop_
_atom_site_type_symbol
_atom_site_label
_atom_site_fract_x
_atom_site_fract_y
_atom_site_fract_z
Si Si1 0.465035 0.784477 0.319099
Si Si2 0.032249 0.737317 0.158209
Si Si3 0.409113 0.136477 0.178872
Si Si4 0.764039 0.088544 0.578540
Si Si5 0.109900 0.052713 0.942005
Si Si6 0.795914 0.757022 0.572585
O O1 0.551382 0.718596 0.375856
O O2 0.525406 0.794091 0.572032
O O3 0.423579 0.952793 0.194303
O O4 0.358882 0.665644 0.126976
O O5 0.157770 0.791795 0.349529
O O6 0.046785 0.558485 0.221292
O O7 0.993801 0.838841 0.205867
O O8 0.934060 0.759799 0.864167
O O9 0.272721 0.174850 0.941575
O O10 0.748095 0.932082 0.463757
O O11 0.826328 0.046168 0.829012
O O12 0.213056 0.155945 0.073351
#
# Coordination Sequence:
#
# PCOD8128846 Si02
#       6
#     4   4   4   4   4   4
#     4  11  27  49  74 105 139 186 233 297 347 429
#     4  11  23  42  66 103 136 181 228 286 353 415
#     4  11  27  48  74 104 142 181 239 288 357 414
#     4  11  25  44  67 102 139 180 234 288 353 416
#     4  11  23  41  68  99 142 179 229 289 355 418
#     4  11  24  42  69  99 136 182 230 288 344 419
#
# _framework density 23.149567999999999
#
# number of rings (size 3 to 8) (size 9 to 14) (size 15 to 20)
#    0.000    1.000    0.000    6.500   11.667    4.000 
#    0.000    0.000    0.000    0.000    0.000    0.000 
#    0.000    0.000    0.000    0.000    0.000    0.000 
#
# Total GULP energy -297655.770015 kJ/mol
# GULP energy per Si atom -12402.323751 kJ/mol
# Density = 2.309688 g / cm^3
# Si number density = 23.149568 Si / 1000 Ang^3
#
#
#
# Elastic Constant Matrix: (Units=GPa)
#
#
# Indices 1 2 3 4 5 6 
#
# 1 137.6768 36.9566 21.7090 0.0000 18.2148 0.0000
# 2 36.9566 107.2157 18.5499 0.0000 -5.1447 0.0000
# 3 21.7090 18.5499 40.1764 0.0000 10.3757 0.0000
# 4 0.0000 0.0000 0.0000 26.3428 0.0000 5.4482
# 5 18.2148 -5.1447 10.3757 0.0000 31.6472 0.0000
# 6 0.0000 0.0000 0.0000 5.4482 0.0000 49.1300
#
#
#
# Elastic Compliance Matrix: (Units=1/GPa)
#
#
# Indices 1 2 3 4 5 6 
#
# 1 0.009074 -0.002978 -0.002244 0.000000 -0.004971 0.000000
# 2 -0.002978 0.011477 -0.005041 0.000000 0.005233 0.000000
# 3 -0.002244 -0.005041 0.030927 0.000000 -0.009667 0.000000
# 4 0.000000 0.000000 0.000000 0.038852 0.000000 -0.004308
# 5 -0.004971 0.005233 -0.009667 0.000000 0.038480 0.000000
# 6 0.000000 0.000000 0.000000 -0.004308 0.000000 0.020832
#
#
# Mechanical properties :
#
#
# Convention : Reuss Voigt Hill
#
# Bulk Modulus (GPa) = 32.30906 48.83333 40.57119
# Shear Modulus (GPa) = 27.70291 35.28088 31.49190
#
# Velocity S-wave (km/s) = 3.46308 3.90813 3.69232
# Velocity P-wave (km/s) = 5.47517 6.44245 5.97840
#
# Compressibility (1/GPa) = 0.03095107
#
# Stress axis : x y z
#
# Youngs Moduli (GPa) = 110.20022 87.13237 32.33400
#
# Poissons Ratio (x) = 0.25949 0.07257
# Poissons Ratio (y) = 0.32819 0.16300
# Poissons Ratio (z) = 0.24734 0.43924
#
# Static dielectric constant tensor:
#      x y z
#    x 4.393040 0.000000 0.125400 
#    y 0.000000 4.467230 0.000000 
#    z 0.125400 0.000000 3.986610 
# 
# 
# High freq. dielectric constant tensor:
#      x y z
#    x 1.931780 0.000000 0.009030 
#    y 0.000000 1.934630 0.000000 
#    z 0.009030 0.000000 1.904390 
# 
# From -- ./inp_files/35780.got.cif
#   From: 2010.03.12/outbox.cif.g09.slc.cpg/sg14_18_cif.got.tgz:35780.got - 2010.03.31 13:35:05.
