data_PCOD8128962
_publ_section_title
;
Structure prediction by ZEFSAII (Michael W. Deem and Ramdas Pophale) SiO2 
 PCOD8128962
Probable space group: P 21/C
;
_chemical_formula_sum "Si O2"
_cell_formula_units_Z 32
_cell_length_a 14.330198
_cell_length_b 8.986251
_cell_length_c 11.997573
_cell_angle_alpha 90.000000
_cell_angle_beta 73.716100
_cell_angle_gamma 90.000000
_cell_volume 1483.006124
_symmetry_space_group_name_H-M "P 21/C"
_symmetry_group_IT_number 14
_symmetry_cell_setting 'monoclinic'
loop_
_space_group_symop_operation_xyz
x,y,z
-x,1/2+y,1/2-z
-x,-y,-z
x,1/2-y,1/2+z
loop_
_atom_site_type_symbol
_atom_site_label
_atom_site_fract_x
_atom_site_fract_y
_atom_site_fract_z
Si Si1 0.781629 0.075288 0.256433
Si Si2 0.146405 0.890844 0.200623
Si Si3 0.687686 0.916896 0.921089
Si Si4 0.608298 0.522140 0.674727
Si Si5 0.905129 0.579120 0.074414
Si Si6 0.413614 0.141234 0.272453
Si Si7 0.725698 0.592235 0.982589
Si Si8 0.962635 0.900195 0.113011
O O1 0.812053 0.246757 0.250941
O O2 0.712249 0.047077 0.174038
O O3 0.718405 0.027975 0.385933
O O4 0.880524 0.980992 0.213523
O O5 0.051193 0.850220 0.162072
O O6 0.228236 0.960064 0.093412
O O7 0.121913 0.019428 0.295918
O O8 0.640131 0.930967 0.815230
O O9 0.734079 0.755236 0.925966
O O10 0.607408 0.954051 0.041752
O O11 0.591651 0.681075 0.739335
O O12 0.525140 0.407999 0.738407
O O13 0.916334 0.755196 0.074653
O O14 0.821309 0.544945 0.015733
O O15 0.000000 0.500000 0.000000
O O16 0.365549 0.083058 0.403101
O O17 0.000000 0.000000 0.000000
#
# Coordination Sequence:
#
# PCOD8128962 Si02
#       8
#     4   4   4   4   4   4   4   4
#     4  12  26  45  66 105 141 179 233 281 349 410
#     4  12  25  41  69 100 137 181 227 285 339 413
#     4  11  23  47  69 100 132 181 231 279 348 403
#     4  11  26  45  73 101 138 180 227 292 342 416
#     4  12  24  41  66  99 136 181 231 279 340 405
#     4  11  24  46  71 101 134 180 231 283 353 405
#     4  11  23  45  70  93 139 180 225 283 343 411
#     4  12  24  44  67 100 141 183 231 281 344 412
#
# _framework density 21.577791999999999
#
# number of rings (size 3 to 8) (size 9 to 14) (size 15 to 20)
#    0.000    0.500    2.500    7.125    1.750    2.500 
#    0.000    0.000    0.000    0.000    0.000    0.000 
#    0.000    0.000    0.000    0.000    0.000    0.000 
#
# Total GULP energy -397015.824687 kJ/mol
# GULP energy per Si atom -12406.744521 kJ/mol
# Density = 2.152868 g / cm^3
# Si number density = 21.577792 Si / 1000 Ang^3
#
#
#
# Elastic Constant Matrix: (Units=GPa)
#
#
# Indices 1 2 3 4 5 6 
#
# 1 95.8832 22.6304 22.3116 0.0000 -11.6678 0.0000
# 2 22.6304 99.7215 34.4021 0.0000 -16.7070 0.0000
# 3 22.3116 34.4021 104.3589 0.0000 -4.9554 0.0000
# 4 0.0000 0.0000 0.0000 32.0901 0.0000 -2.7455
# 5 -11.6678 -16.7070 -4.9554 0.0000 35.5402 0.0000
# 6 0.0000 0.0000 0.0000 -2.7455 0.0000 40.4051
#
#
#
# Elastic Compliance Matrix: (Units=1/GPa)
#
#
# Indices 1 2 3 4 5 6 
#
# 1 0.011559 -0.001516 -0.001837 0.000000 0.002826 0.000000
# 2 -0.001516 0.012402 -0.003534 0.000000 0.004840 0.000000
# 3 -0.001837 -0.003534 0.011106 0.000000 -0.000716 0.000000
# 4 0.000000 0.000000 0.000000 0.031344 0.000000 0.002130
# 5 0.002826 0.004840 -0.000716 0.000000 0.031240 0.000000
# 6 0.000000 0.000000 0.000000 0.002130 0.000000 0.024894
#
#
# Mechanical properties :
#
#
# Convention : Reuss Voigt Hill
#
# Bulk Modulus (GPa) = 46.96662 50.96133 48.96397
# Shear Modulus (GPa) = 34.86317 36.31505 35.58911
#
# Velocity S-wave (km/s) = 4.02393 4.10687 4.06561
# Velocity P-wave (km/s) = 6.58808 6.79391 6.69179
#
# Compressibility (1/GPa) = 0.02129172
#
# Stress axis : x y z
#
# Youngs Moduli (GPa) = 86.51625 80.63178 90.03924
#
# Poissons Ratio (x) = 0.12222 0.16543
# Poissons Ratio (y) = 0.13114 0.31824
# Poissons Ratio (z) = 0.15896 0.28499
#
# Static dielectric constant tensor:
#      x y z
#    x 3.793180 0.000000 -0.012820 
#    y 0.000000 3.679890 0.000000 
#    z -0.012820 0.000000 4.033900 
# 
# 
# High freq. dielectric constant tensor:
#      x y z
#    x 1.851020 0.000000 -0.001130 
#    y 0.000000 1.849010 0.000000 
#    z -0.001130 0.000000 1.861740 
# 
# From -- ./inp_files/31787.got.cif
#   From: 2010.03.12/outbox.cif.g09.slc.cpg/sg14_16_cif.got.tgz:31787.got - 2010.03.31 13:35:05.
