data_PCOD8128871
_publ_section_title
;
Structure prediction by ZEFSAII (Michael W. Deem and Ramdas Pophale) SiO2 
 PCOD8128871
Probable space group: P 21/C
;
_chemical_formula_sum "Si O2"
_cell_formula_units_Z 24
_cell_length_a 8.608222
_cell_length_b 8.481418
_cell_length_c 15.238686
_cell_angle_alpha 90.000000
_cell_angle_beta 85.817298
_cell_angle_gamma 90.000000
_cell_volume 1109.612086
_symmetry_space_group_name_H-M "P 21/C"
_symmetry_group_IT_number 14
_symmetry_cell_setting 'monoclinic'
loop_
_space_group_symop_operation_xyz
x,y,z
-x,1/2+y,1/2-z
-x,-y,-z
x,1/2-y,1/2+z
loop_
_atom_site_type_symbol
_atom_site_label
_atom_site_fract_x
_atom_site_fract_y
_atom_site_fract_z
Si Si1 0.720900 0.992904 0.234324
Si Si2 0.887950 0.115036 0.056569
Si Si3 0.220900 0.007096 0.234324
Si Si4 0.463256 0.304855 0.815424
Si Si5 0.612050 0.115036 0.943431
Si Si6 0.036744 0.195145 0.684576
O O1 0.596986 0.852922 0.228467
O O2 0.835864 0.943407 0.310127
O O3 0.819674 0.018752 0.142126
O O4 0.626356 0.149856 0.262214
O O5 0.992112 0.263810 0.085340
O O6 0.750000 0.177017 1.000000
O O7 0.000000 0.000000 0.000000
O O8 0.319674 0.981248 0.142126
O O9 0.126356 0.850144 0.262213
O O10 0.335864 0.056593 0.310127
O O11 0.096986 0.147078 0.228467
O O12 0.507888 0.263810 0.914660
O O13 0.500000 0.000000 0.000000
#
# Coordination Sequence:
#
# PCOD8128871 Si02
#       6
#     4   4   4   4   4   4
#     4  11  23  42  73  98 129 177 234 267 323 404
#     4  12  23  42  68 100 135 173 217 277 342 388
#     4  11  23  42  73  98 129 177 234 267 323 404
#     4  11  23  42  70 100 131 176 229 270 325 403
#     4  12  23  42  68 100 135 173 217 277 342 388
#     4  11  23  42  70 100 131 176 229 270 325 403
#
# _framework density 21.629179000000001
#
# number of rings (size 3 to 8) (size 9 to 14) (size 15 to 20)
#    0.000    0.667    6.667    1.000    0.000    0.000 
#    0.000    1.667    0.000    0.000    0.000    0.000 
#    0.000    0.000    0.000    0.000    0.000    0.000 
#
# Total GULP energy -297475.052074 kJ/mol
# GULP energy per Si atom -12394.793836 kJ/mol
# Density = 2.157995 g / cm^3
# Si number density = 21.629179 Si / 1000 Ang^3
#
#
#
# Elastic Constant Matrix: (Units=GPa)
#
#
# Indices 1 2 3 4 5 6 
#
# 1 162.4144 53.1845 82.6923 0.0000 30.2726 0.0000
# 2 53.1845 49.1547 52.7681 0.0000 -3.5651 0.0000
# 3 82.6923 52.7681 119.9087 0.0000 13.4072 0.0000
# 4 0.0000 0.0000 0.0000 40.5427 0.0000 8.6158
# 5 30.2726 -3.5651 13.4072 0.0000 60.8345 0.0000
# 6 0.0000 0.0000 0.0000 8.6158 0.0000 58.3745
#
#
#
# Elastic Compliance Matrix: (Units=1/GPa)
#
#
# Indices 1 2 3 4 5 6 
#
# 1 0.012298 -0.010145 -0.003348 0.000000 -0.005976 0.000000
# 2 -0.010145 0.049314 -0.015987 0.000000 0.011462 0.000000
# 3 -0.003348 -0.015987 0.018047 0.000000 -0.003248 0.000000
# 4 0.000000 0.000000 0.000000 0.025464 0.000000 -0.003758
# 5 -0.005976 0.011462 -0.003248 0.000000 0.020800 0.000000
# 6 0.000000 0.000000 0.000000 -0.003758 0.000000 0.017685
#
#
# Mechanical properties :
#
#
# Convention : Reuss Voigt Hill
#
# Bulk Modulus (GPa) = 48.31177 78.75195 63.53186
# Shear Modulus (GPa) = 23.86996 41.47252 32.67124
#
# Velocity S-wave (km/s) = 3.32565 4.38360 3.89075
# Velocity P-wave (km/s) = 6.09356 7.88101 7.04421
#
# Compressibility (1/GPa) = 0.02069889
#
# Stress axis : x y z
#
# Youngs Moduli (GPa) = 81.31473 20.27810 55.41069
#
# Poissons Ratio (x) = 0.20573 0.18552
# Poissons Ratio (y) = 0.82497 0.88584
# Poissons Ratio (z) = 0.27225 0.32418
#
# Static dielectric constant tensor:
#      x y z
#    x 4.661830 0.000000 0.434770 
#    y 0.000000 3.896990 0.000000 
#    z 0.434770 0.000000 3.795400 
# 
# 
# High freq. dielectric constant tensor:
#      x y z
#    x 1.893100 0.000000 0.014980 
#    y 0.000000 1.839200 0.000000 
#    z 0.014980 0.000000 1.816730 
# 
# From -- ./inp_files/38926.got.cif
#   From: 2010.03.12/outbox.cif.g09.slc.cpg/sg14_20_cif.got.tgz:38926.got - 2010.03.31 13:35:05.
