data_PCOD8128129
_publ_section_title
;
Structure prediction by ZEFSAII (Michael W. Deem and Ramdas Pophale) SiO2 
 PCOD8128129
Probable space group: P 21/C
;
_chemical_formula_sum "Si O2"
_cell_formula_units_Z 28
_cell_length_a 21.627301
_cell_length_b 8.598901
_cell_length_c 14.988425
_cell_angle_alpha 90.000000
_cell_angle_beta 26.007127
_cell_angle_gamma 90.000000
_cell_volume 1222.232922
_symmetry_space_group_name_H-M "P 21/C"
_symmetry_group_IT_number 14
_symmetry_cell_setting 'monoclinic'
loop_
_space_group_symop_operation_xyz
x,y,z
-x,1/2+y,1/2-z
-x,-y,-z
x,1/2-y,1/2+z
loop_
_atom_site_type_symbol
_atom_site_label
_atom_site_fract_x
_atom_site_fract_y
_atom_site_fract_z
Si Si1 0.064833 0.230232 0.360954
Si Si2 0.672238 0.628164 0.710751
Si Si3 0.734990 0.135027 0.521948
Si Si4 0.351042 0.330295 0.937255
Si Si5 0.521041 0.190783 0.384807
Si Si6 0.969311 0.462382 0.343407
Si Si7 0.913275 0.121952 0.726298
O O1 0.961351 0.332268 0.432108
O O2 0.004773 0.220142 0.538013
O O3 0.098528 0.058367 0.281156
O O4 0.210648 0.320025 0.179065
O O5 0.668285 0.733468 0.628171
O O6 0.568450 0.485666 0.830571
O O7 0.830808 0.572170 0.527334
O O8 0.602873 0.726468 0.882962
O O9 0.656220 0.192051 0.716179
O O10 0.760396 0.291905 0.428876
O O11 0.632106 0.012191 0.607833
O O12 0.889096 0.063559 0.338909
O O13 0.474546 0.276202 0.842263
O O14 0.979462 0.364437 0.238990
#
# Coordination Sequence:
#
# PCOD8128129 Si02
#       7
#     4   4   4   4   4   4   4
#     4  10  24  40  68 106 135 182 232 282 359 399
#     4  11  25  46  71  98 140 189 233 289 360 411
#     4  11  25  40  71 103 135 185 238 285 360 408
#     4  11  24  43  68 101 142 185 231 290 346 427
#     4  11  25  46  68  99 139 189 234 288 347 433
#     4  11  23  44  70 101 141 184 231 297 343 424
#     4  11  22  42  66 103 142 174 223 297 343 413
#
# _framework density 22.908891000000001
#
# number of rings (size 3 to 8) (size 9 to 14) (size 15 to 20)
#    0.000    1.143    2.857    1.714    6.000    1.714 
#    0.000    1.429    0.000    0.000    0.000    0.000 
#    0.000    0.000    0.000    0.000    0.000    0.000 
#
# Total GULP energy -346925.495358 kJ/mol
# GULP energy per Si atom -12390.196263 kJ/mol
# Density = 2.285675 g / cm^3
# Si number density = 22.908891 Si / 1000 Ang^3
#
#
#
# Elastic Constant Matrix: (Units=GPa)
#
#
# Indices 1 2 3 4 5 6 
#
# 1 86.6360 42.8449 67.7246 0.0000 12.9791 0.0000
# 2 42.8449 84.2572 50.3668 0.0000 16.0278 0.0000
# 3 67.7246 50.3668 150.7571 0.0000 31.3052 0.0000
# 4 0.0000 0.0000 0.0000 40.7862 0.0000 4.6525
# 5 12.9791 16.0278 31.3052 0.0000 32.3386 0.0000
# 6 0.0000 0.0000 0.0000 4.6525 0.0000 30.4174
#
#
#
# Elastic Compliance Matrix: (Units=1/GPa)
#
#
# Indices 1 2 3 4 5 6 
#
# 1 0.020060 -0.006195 -0.007394 0.000000 0.002177 0.000000
# 2 -0.006195 0.017012 -0.002085 0.000000 -0.003927 0.000000
# 3 -0.007394 -0.002085 0.012291 0.000000 -0.007898 0.000000
# 4 0.000000 0.000000 0.000000 0.024953 0.000000 -0.003817
# 5 0.002177 -0.003927 -0.007898 0.000000 0.039640 0.000000
# 6 0.000000 0.000000 0.000000 -0.003817 0.000000 0.033460
#
#
# Mechanical properties :
#
#
# Convention : Reuss Voigt Hill
#
# Bulk Modulus (GPa) = 55.50841 71.50254 63.50547
# Shear Modulus (GPa) = 27.06071 31.42272 29.24172
#
# Velocity S-wave (km/s) = 3.44063 3.70758 3.57660
# Velocity P-wave (km/s) = 6.32982 7.04327 6.69605
#
# Compressibility (1/GPa) = 0.01801529
#
# Stress axis : x y z
#
# Youngs Moduli (GPa) = 49.85075 58.78231 81.35761
#
# Poissons Ratio (x) = 0.36414 0.60155
# Poissons Ratio (y) = 0.30881 0.16966
# Poissons Ratio (z) = 0.36859 0.12258
#
# Static dielectric constant tensor:
#      x y z
#    x 4.040460 0.000000 0.198870 
#    y 0.000000 4.382960 0.000000 
#    z 0.198870 0.000000 4.464580 
# 
# 
# High freq. dielectric constant tensor:
#      x y z
#    x 1.884420 0.000000 0.006430 
#    y 0.000000 1.918830 0.000000 
#    z 0.006430 0.000000 1.919970 
# 
# From -- ./inp_files/50048.got.cif
#   From: 2010.03.12/outbox.cif.g09.slc.cpg/sg14_26_cif.got.tgz:50048.got - 2010.03.31 13:35:05.
