data_PCOD8128122
_publ_section_title
;
Structure prediction by ZEFSAII (Michael W. Deem and Ramdas Pophale) SiO2 
 PCOD8128122
Probable space group: P 21/C
;
_chemical_formula_sum "Si O2"
_cell_formula_units_Z 12
_cell_length_a 8.385427
_cell_length_b 4.669978
_cell_length_c 19.896337
_cell_angle_alpha 90.000000
_cell_angle_beta 148.150236
_cell_angle_gamma 90.000000
_cell_volume 411.145092
_symmetry_space_group_name_H-M "P 21/C"
_symmetry_group_IT_number 14
_symmetry_cell_setting 'monoclinic'
loop_
_space_group_symop_operation_xyz
x,y,z
-x,1/2+y,1/2-z
-x,-y,-z
x,1/2-y,1/2+z
loop_
_atom_site_type_symbol
_atom_site_label
_atom_site_fract_x
_atom_site_fract_y
_atom_site_fract_z
Si Si1 0.690640 0.277281 0.335903
Si Si2 0.250000 0.553956 0.000000
Si Si3 0.190640 0.722719 0.335903
O O1 0.377311 0.104163 0.208766
O O2 0.959260 0.151726 0.386186
O O3 0.785063 0.259116 0.447926
O O4 0.285063 0.759114 0.947926
O O5 0.540739 0.348272 0.113814
O O6 0.877311 0.895835 0.208765
#
# Coordination Sequence:
#
# PCOD8128122 Si02
#       3
#     4   4   4
#     4  11  24  41  62  90 122 157 200 247 296 354
#     4  10  24  40  64  90 120 160 200 244 300 354
#     4  11  24  41  62  90 122 157 200 247 296 354
#
# _framework density 29.186775000000001
#
# number of rings (size 3 to 8) (size 9 to 14) (size 15 to 20)
#    0.000    1.333    0.000    4.000    0.000   16.000 
#    0.000    0.000    0.000    0.000    0.000    0.000 
#    0.000    0.000    0.000    0.000    0.000    0.000 
#
# Total GULP energy -149003.937209 kJ/mol
# GULP energy per Si atom -12416.994767 kJ/mol
# Density = 2.912034 g / cm^3
# Si number density = 29.186775 Si / 1000 Ang^3
#
#
#
# Elastic Constant Matrix: (Units=GPa)
#
#
# Indices 1 2 3 4 5 6 
#
# 1 74.6475 -11.7076 -14.3003 0.0000 -3.2280 0.0000
# 2 -11.7076 70.1857 1.6870 0.0000 -6.7604 0.0000
# 3 -14.3003 1.6870 94.7156 0.0000 -6.0543 0.0000
# 4 0.0000 0.0000 0.0000 17.5642 0.0000 -5.0101
# 5 -3.2280 -6.7604 -6.0543 0.0000 30.9810 0.0000
# 6 0.0000 0.0000 0.0000 -5.0101 0.0000 16.1665
#
#
#
# Elastic Compliance Matrix: (Units=1/GPa)
#
#
# Indices 1 2 3 4 5 6 
#
# 1 0.014346 0.002579 0.002280 0.000000 0.002503 0.000000
# 2 0.002579 0.015018 0.000353 0.000000 0.003615 0.000000
# 3 0.002280 0.000353 0.011054 0.000000 0.002475 0.000000
# 4 0.000000 0.000000 0.000000 0.062455 0.000000 0.019355
# 5 0.002503 0.003615 0.002475 0.000000 0.033811 0.000000
# 6 0.000000 0.000000 0.000000 0.019355 0.000000 0.067854
#
#
# Mechanical properties :
#
#
# Convention : Reuss Voigt Hill
#
# Bulk Modulus (GPa) = 19.66860 21.21189 20.44025
# Shear Modulus (GPa) = 23.68982 30.53365 27.11173
#
# Velocity S-wave (km/s) = 2.85206 3.23793 3.05110
# Velocity P-wave (km/s) = 4.19514 4.61111 4.40803
#
# Compressibility (1/GPa) = 0.05084245
#
# Stress axis : x y z
#
# Youngs Moduli (GPa) = 69.70652 66.58736 90.46451
#
# Poissons Ratio (x) = -0.17175 -0.20626
# Poissons Ratio (y) = -0.17980 -0.03193
# Poissons Ratio (z) = -0.15893 -0.02351
#
# Static dielectric constant tensor:
#      x y z
#    x 5.111990 0.000000 0.196640 
#    y 0.000000 4.840620 0.000000 
#    z 0.196640 0.000000 5.269830 
# 
# 
# High freq. dielectric constant tensor:
#      x y z
#    x 2.181680 0.000000 0.006580 
#    y 0.000000 2.174870 0.000000 
#    z 0.006580 0.000000 2.208480 
# 
# From -- ./inp_files/19.got.cif
#   From: 2010.03.12/outbox.cif.g09.slc.cpg/sg14_1_cif.got.tgz:19.got - 2010.03.31 13:35:05.
