data_PCOD8128469
_publ_section_title
;
Structure prediction by ZEFSAII (Michael W. Deem and Ramdas Pophale) SiO2 
 PCOD8128469
Probable space group: P 21/C
;
_chemical_formula_sum "Si O2"
_cell_formula_units_Z 32
_cell_length_a 23.144750
_cell_length_b 11.183044
_cell_length_c 28.172485
_cell_angle_alpha 90.000000
_cell_angle_beta 167.677444
_cell_angle_gamma 90.000000
_cell_volume 1556.190087
_symmetry_space_group_name_H-M "P 21/C"
_symmetry_group_IT_number 14
_symmetry_cell_setting 'monoclinic'
loop_
_space_group_symop_operation_xyz
x,y,z
-x,1/2+y,1/2-z
-x,-y,-z
x,1/2-y,1/2+z
loop_
_atom_site_type_symbol
_atom_site_label
_atom_site_fract_x
_atom_site_fract_y
_atom_site_fract_z
Si Si1 0.473205 0.559358 0.301199
Si Si2 0.510870 0.561730 0.932345
Si Si3 0.737510 0.809224 0.770670
Si Si4 0.896165 0.479543 0.566080
Si Si5 0.079920 0.953530 0.663478
Si Si6 0.950408 0.181866 0.883270
Si Si7 0.469021 0.448845 0.401217
Si Si8 0.703609 0.178513 0.831394
O O1 0.738675 0.520757 0.486202
O O2 0.488791 0.499481 0.364816
O O3 0.471757 0.701927 0.305029
O O4 0.208852 0.515388 0.060583
O O5 0.429950 0.425411 0.879714
O O6 0.441586 0.590590 0.822278
O O7 0.347229 0.649687 0.835963
O O8 0.826609 0.582844 0.194664
O O9 0.544108 0.694868 0.610725
O O10 0.831637 0.826710 0.899977
O O11 0.992412 0.791539 0.940913
O O12 0.956428 0.593302 0.582476
O O13 0.715912 0.384520 0.392435
O O14 0.051108 0.812061 0.640040
O O15 0.200987 0.997340 0.710462
O O16 0.269442 0.991824 0.859401
#
# Coordination Sequence:
#
# PCOD8128469 Si02
#       8
#     4   4   4   4   4   4   4   4
#     4  12  27  45  63  97 142 175 210 266 335 403
#     4  11  23  43  69  99 129 167 229 280 314 379
#     4  11  19  41  74  97 130 165 220 288 316 371
#     4  12  27  43  66  97 135 180 213 266 331 401
#     4  11  24  41  73  97 129 171 221 279 318 389
#     4  11  21  41  71  99 126 173 223 272 330 372
#     4  11  23  42  68 102 126 171 223 269 331 377
#     4  11  24  44  68  97 130 172 220 274 329 378
#
# _framework density 20.563040000000001
#
# number of rings (size 3 to 8) (size 9 to 14) (size 15 to 20)
#    0.000    0.750    5.000    3.750    3.500    2.000 
#    2.250    0.000    0.000    0.000    0.000    0.000 
#    0.000    0.000    0.000    0.000    0.000    0.000 
#
# Total GULP energy -397045.092636 kJ/mol
# GULP energy per Si atom -12407.659145 kJ/mol
# Density = 2.051624 g / cm^3
# Si number density = 20.563040 Si / 1000 Ang^3
#
#
#
# Elastic Constant Matrix: (Units=GPa)
#
#
# Indices 1 2 3 4 5 6 
#
# 1 82.4114 10.9081 29.8622 0.0000 -0.2011 0.0000
# 2 10.9081 85.4104 -4.4851 0.0000 -0.1902 0.0000
# 3 29.8622 -4.4851 63.2395 0.0000 2.1085 0.0000
# 4 0.0000 0.0000 0.0000 13.8101 0.0000 -2.9712
# 5 -0.2011 -0.1902 2.1085 0.0000 21.8814 0.0000
# 6 0.0000 0.0000 0.0000 -2.9712 0.0000 12.8635
#
#
#
# Elastic Compliance Matrix: (Units=1/GPa)
#
#
# Indices 1 2 3 4 5 6 
#
# 1 0.015094 -0.002310 -0.007319 0.000000 0.000824 0.000000
# 2 -0.002310 0.012106 0.001953 0.000000 -0.000104 0.000000
# 3 -0.007319 0.001953 0.019472 0.000000 -0.001927 0.000000
# 4 0.000000 0.000000 0.000000 0.076198 0.000000 0.017600
# 5 0.000824 -0.000104 -0.001927 0.000000 0.045893 0.000000
# 6 0.000000 0.000000 0.000000 0.017600 0.000000 0.081805
#
#
# Mechanical properties :
#
#
# Convention : Reuss Voigt Hill
#
# Bulk Modulus (GPa) = 31.92950 33.73684 32.83317
# Shear Modulus (GPa) = 18.09243 22.69608 20.39426
#
# Velocity S-wave (km/s) = 2.96945 3.32585 3.15269
# Velocity P-wave (km/s) = 5.22668 5.58485 5.40873
#
# Compressibility (1/GPa) = 0.03131900
#
# Stress axis : x y z
#
# Youngs Moduli (GPa) = 66.25131 82.60677 51.35668
#
# Poissons Ratio (x) = 0.19084 0.37587
# Poissons Ratio (y) = 0.15305 -0.10030
# Poissons Ratio (z) = 0.48488 -0.16132
#
# Static dielectric constant tensor:
#      x y z
#    x 3.687030 0.000000 -0.163540 
#    y 0.000000 3.867590 0.000000 
#    z -0.163540 0.000000 3.722790 
# 
# 
# High freq. dielectric constant tensor:
#      x y z
#    x 1.801720 0.000000 -0.019020 
#    y 0.000000 1.816390 0.000000 
#    z -0.019020 0.000000 1.797430 
# 
# From -- ./inp_files/80687.got.cif
#   From: 2010.03.12/outbox.cif.g09.slc.cpg/sg14_41_cif.got.tgz:80687.got - 2010.03.31 13:35:05.
