data_PCOD8128429
_publ_section_title
;
Structure prediction by ZEFSAII (Michael W. Deem and Ramdas Pophale) SiO2 
 PCOD8128429
Probable space group: P 21/C
;
_chemical_formula_sum "Si O2"
_cell_formula_units_Z 32
_cell_length_a 12.239969
_cell_length_b 11.583665
_cell_length_c 21.983421
_cell_angle_alpha 90.000000
_cell_angle_beta 30.104241
_cell_angle_gamma 90.000000
_cell_volume 1563.353787
_symmetry_space_group_name_H-M "P 21/C"
_symmetry_group_IT_number 14
_symmetry_cell_setting 'monoclinic'
loop_
_space_group_symop_operation_xyz
x,y,z
-x,1/2+y,1/2-z
-x,-y,-z
x,1/2-y,1/2+z
loop_
_atom_site_type_symbol
_atom_site_label
_atom_site_fract_x
_atom_site_fract_y
_atom_site_fract_z
Si Si1 0.937031 0.503936 0.631687
Si Si2 0.547833 0.828468 0.007061
Si Si3 0.173392 0.899133 0.415865
Si Si4 0.536325 0.533498 0.134111
Si Si5 0.156265 0.538871 0.648967
Si Si6 0.502407 0.206104 0.826148
Si Si7 0.305664 0.423416 0.069328
Si Si8 0.058509 0.332338 0.481486
O O1 0.695054 0.519974 0.776301
O O2 0.994531 0.581449 0.546892
O O3 0.111262 0.538378 0.598752
O O4 0.956837 0.372899 0.595740
O O5 0.304920 0.852067 0.097372
O O6 0.540919 0.829268 0.083489
O O7 0.637448 0.707263 0.939523
O O8 0.712502 0.922070 0.899527
O O9 0.285765 0.867166 0.297098
O O10 0.038149 0.785992 0.498238
O O11 0.359062 0.936401 0.373625
O O12 0.000000 0.000000 0.500000
O O13 0.479926 0.655864 0.192955
O O14 0.701321 0.559934 0.999881
O O15 0.929695 0.538744 0.793937
O O16 0.314683 0.170360 0.869924
O O17 0.500000 0.500000 0.000000
#
# Coordination Sequence:
#
# PCOD8128429 Si02
#       8
#     4   4   4   4   4   4   4   4
#     4  11  22  42  67  90 133 177 219 265 334 403
#     4  10  26  44  70  99 130 178 230 275 331 396
#     4  12  25  39  65 102 133 166 221 277 329 390
#     4  11  23  41  65  99 129 174 223 267 332 397
#     4  11  24  46  68  99 132 176 226 278 332 397
#     4  11  22  42  67  94 131 172 221 267 325 398
#     4  11  25  42  70  96 134 178 222 276 332 396
#     4  11  23  40  65  94 130 177 210 272 330 392
#
# _framework density 20.468814999999999
#
# number of rings (size 3 to 8) (size 9 to 14) (size 15 to 20)
#    0.000    1.000    6.250    0.000    3.500    1.000 
#    0.000    0.000    0.000    0.000    0.000    0.000 
#    0.000    0.000    0.000    0.000    0.000    0.000 
#
# Total GULP energy -396608.005579 kJ/mol
# GULP energy per Si atom -12394.000174 kJ/mol
# Density = 2.042223 g / cm^3
# Si number density = 20.468815 Si / 1000 Ang^3
#
#
#
# Elastic Constant Matrix: (Units=GPa)
#
#
# Indices 1 2 3 4 5 6 
#
# 1 104.7110 43.3962 36.3582 0.0000 -12.9442 0.0000
# 2 43.3962 115.1650 49.1086 0.0000 -2.9847 0.0000
# 3 36.3582 49.1086 128.7793 0.0000 -12.5565 0.0000
# 4 0.0000 0.0000 0.0000 33.2601 0.0000 -5.3053
# 5 -12.9442 -2.9847 -12.5565 0.0000 33.0128 0.0000
# 6 0.0000 0.0000 0.0000 -5.3053 0.0000 35.4441
#
#
#
# Elastic Compliance Matrix: (Units=1/GPa)
#
#
# Indices 1 2 3 4 5 6 
#
# 1 0.012153 -0.003793 -0.001613 0.000000 0.003809 0.000000
# 2 -0.003793 0.011564 -0.003512 0.000000 -0.001778 0.000000
# 3 -0.001613 -0.003512 0.009832 0.000000 0.002789 0.000000
# 4 0.000000 0.000000 0.000000 0.030801 0.000000 0.004610
# 5 0.003809 -0.001778 0.002789 0.000000 0.032685 0.000000
# 6 0.000000 0.000000 0.000000 0.004610 0.000000 0.028904
#
#
# Mechanical properties :
#
#
# Convention : Reuss Voigt Hill
#
# Bulk Modulus (GPa) = 63.64544 67.37570 65.51057
# Shear Modulus (GPa) = 33.55403 34.99623 34.27513
#
# Velocity S-wave (km/s) = 4.05319 4.13938 4.09651
# Velocity P-wave (km/s) = 7.28463 7.47219 7.37901
#
# Compressibility (1/GPa) = 0.01571204
#
# Stress axis : x y z
#
# Youngs Moduli (GPa) = 82.28429 86.47514 101.70732
#
# Poissons Ratio (x) = 0.32798 0.16410
# Poissons Ratio (y) = 0.31208 0.35723
# Poissons Ratio (z) = 0.13276 0.30373
#
# Static dielectric constant tensor:
#      x y z
#    x 3.596670 0.000000 -0.167810 
#    y 0.000000 3.698370 0.000000 
#    z -0.167810 0.000000 3.790620 
# 
# 
# High freq. dielectric constant tensor:
#      x y z
#    x 1.797810 0.000000 -0.013170 
#    y 0.000000 1.801880 0.000000 
#    z -0.013170 0.000000 1.809100 
# 
# From -- ./inp_files/67394.got.cif
#   From: 2010.03.12/outbox.cif.g09.slc.cpg/sg14_34_cif.got.tgz:67394.got - 2010.03.31 13:35:05.
