data_PCOD8128704
_publ_section_title
;
Structure prediction by ZEFSAII (Michael W. Deem and Ramdas Pophale) SiO2 
 PCOD8128704
Probable space group: P 21/C
;
_chemical_formula_sum "Si O2"
_cell_formula_units_Z 20
_cell_length_a 13.453316
_cell_length_b 8.851804
_cell_length_c 23.116714
_cell_angle_alpha 90.000000
_cell_angle_beta 159.108672
_cell_angle_gamma 90.000000
_cell_volume 981.667536
_symmetry_space_group_name_H-M "P 21/C"
_symmetry_group_IT_number 14
_symmetry_cell_setting 'monoclinic'
loop_
_space_group_symop_operation_xyz
x,y,z
-x,1/2+y,1/2-z
-x,-y,-z
x,1/2-y,1/2+z
loop_
_atom_site_type_symbol
_atom_site_label
_atom_site_fract_x
_atom_site_fract_y
_atom_site_fract_z
Si Si1 0.052005 0.925542 0.607656
Si Si2 0.298790 0.896651 0.427816
Si Si3 0.035024 0.233770 0.549486
Si Si4 0.236165 0.586961 0.332400
Si Si5 0.420991 0.870972 0.622035
O O1 0.058334 0.779662 0.568660
O O2 0.244844 0.892416 0.767772
O O3 0.727849 0.965770 0.448733
O O4 0.182119 0.072417 0.645789
O O5 0.208883 0.752403 0.342914
O O6 0.441527 0.838645 0.564693
O O7 0.500000 0.000000 0.500000
O O8 0.026388 0.989660 0.293161
O O9 0.263005 0.366655 0.681380
O O10 0.768742 0.256091 0.447544
O O11 0.500000 0.500000 0.500000
#
# Coordination Sequence:
#
# PCOD8128704 Si02
#       5
#     4   4   4   4   4
#     4   8  19  37  56  81 119 150 196 243 298 357
#     4  11  24  40  61  91 122 158 207 253 304 372
#     4   9  17  38  57  80 114 154 190 248 301 354
#     4  11  22  41  63  90 122 165 202 253 308 356
#     4   9  19  36  60  79 115 151 196 245 305 355
#
# _framework density 20.373495999999999
#
# number of rings (size 3 to 8) (size 9 to 14) (size 15 to 20)
#    1.200    1.200    0.000    2.400    2.800    0.000 
#   10.800    1.000    0.000    0.000    0.000    0.000 
#    0.000    0.000    0.000    0.000    0.000    0.000 
#
# Total GULP energy -247818.015134 kJ/mol
# GULP energy per Si atom -12390.900757 kJ/mol
# Density = 2.032712 g / cm^3
# Si number density = 20.373496 Si / 1000 Ang^3
#
#
#
# Elastic Constant Matrix: (Units=GPa)
#
#
# Indices 1 2 3 4 5 6 
#
# 1 134.5486 22.3359 66.8983 0.0000 -30.3097 0.0000
# 2 22.3359 58.8666 21.6779 0.0000 -17.3010 0.0000
# 3 66.8983 21.6779 110.9204 0.0000 -21.5219 0.0000
# 4 0.0000 0.0000 0.0000 28.4414 0.0000 0.1146
# 5 -30.3097 -17.3010 -21.5219 0.0000 44.9767 0.0000
# 6 0.0000 0.0000 0.0000 0.1146 0.0000 15.6095
#
#
#
# Elastic Compliance Matrix: (Units=1/GPa)
#
#
# Indices 1 2 3 4 5 6 
#
# 1 0.011551 -0.000848 -0.005902 0.000000 0.004634 0.000000
# 2 -0.000848 0.019893 -0.002208 0.000000 0.006025 0.000000
# 3 -0.005902 -0.002208 0.013305 0.000000 0.001540 0.000000
# 4 0.000000 0.000000 0.000000 0.035161 0.000000 -0.000258
# 5 0.004634 0.006025 0.001540 0.000000 0.028411 0.000000
# 6 0.000000 0.000000 0.000000 -0.000258 0.000000 0.064065
#
#
# Mechanical properties :
#
#
# Convention : Reuss Voigt Hill
#
# Bulk Modulus (GPa) = 37.26462 58.46220 47.86341
# Shear Modulus (GPa) = 25.09447 30.70041 27.89744
#
# Velocity S-wave (km/s) = 3.51340 3.88607 3.70442
# Velocity P-wave (km/s) = 5.89822 6.99234 6.46846
#
# Compressibility (1/GPa) = 0.02683511
#
# Stress axis : x y z
#
# Youngs Moduli (GPa) = 86.56908 50.26959 75.15716
#
# Poissons Ratio (x) = 0.04260 0.44358
# Poissons Ratio (y) = 0.07337 0.16592
# Poissons Ratio (z) = 0.51094 0.11098
#
# Static dielectric constant tensor:
#      x y z
#    x 3.961680 0.000000 -0.276150 
#    y 0.000000 2.271000 0.000000 
#    z -0.276150 0.000000 3.613090 
# 
# 
# High freq. dielectric constant tensor:
#      x y z
#    x 1.810290 0.000000 -0.014330 
#    y 0.000000 1.758110 0.000000 
#    z -0.014330 0.000000 1.787820 
# 
# From -- ./inp_files/73783.got.cif
#   From: 2010.03.12/outbox.cif.g09.slc.cpg/sg14_37_cif.got.tgz:73783.got - 2010.03.31 13:35:05.
