data_PCOD8128650
_publ_section_title
;
Structure prediction by ZEFSAII (Michael W. Deem and Ramdas Pophale) SiO2 
 PCOD8128650
Probable space group: P 21/C
;
_chemical_formula_sum "Si O2"
_cell_formula_units_Z 24
_cell_length_a 15.424698
_cell_length_b 9.615750
_cell_length_c 20.591132
_cell_angle_alpha 90.000000
_cell_angle_beta 156.084327
_cell_angle_gamma 90.000000
_cell_volume 1238.097560
_symmetry_space_group_name_H-M "P 21/C"
_symmetry_group_IT_number 14
_symmetry_cell_setting 'monoclinic'
loop_
_space_group_symop_operation_xyz
x,y,z
-x,1/2+y,1/2-z
-x,-y,-z
x,1/2-y,1/2+z
loop_
_atom_site_type_symbol
_atom_site_label
_atom_site_fract_x
_atom_site_fract_y
_atom_site_fract_z
Si Si1 0.643717 0.619051 0.867415
Si Si2 0.355714 0.044815 0.341905
Si Si3 0.304080 0.782787 0.224660
Si Si4 0.914957 0.040130 0.371854
Si Si5 0.003229 0.746626 0.894244
Si Si6 0.424605 0.676338 0.127124
O O1 0.544510 0.704290 0.860505
O O2 0.559537 0.458571 0.813660
O O3 0.569898 0.695865 0.751175
O O4 0.900687 0.619718 0.043567
O O5 0.155212 0.129892 0.232542
O O6 0.499312 0.138885 0.392590
O O7 0.500000 0.000000 0.500000
O O8 0.254563 0.913977 0.235839
O O9 0.286664 0.643586 0.257217
O O10 0.128802 0.779573 0.047317
O O11 0.859542 0.894431 0.299320
O O12 0.000000 0.000000 0.500000
O O13 0.178557 0.728274 0.957262
#
# Coordination Sequence:
#
# PCOD8128650 Si02
#       6
#     4   4   4   4   4   4
#     4   9  17  29  51  80 105 129 171 225 263 297
#     4  11  22  36  52  77 113 145 171 209 263 323
#     4   9  18  33  54  80 104 134 176 221 262 303
#     4   9  16  29  51  77 102 128 167 222 267 301
#     4   9  18  34  57  78 101 135 179 222 258 301
#     4   9  18  33  53  78 106 137 176 221 265 307
#
# _framework density 19.384578999999999
#
# number of rings (size 3 to 8) (size 9 to 14) (size 15 to 20)
#    0.000    2.667    0.000    3.500    0.000    2.667 
#    0.000    5.833    0.000    0.000    0.000    0.000 
#    0.000    0.000    0.000    0.000    0.000    0.000 
#
# Total GULP energy -297384.650338 kJ/mol
# GULP energy per Si atom -12391.027097 kJ/mol
# Density = 1.934046 g / cm^3
# Si number density = 19.384579 Si / 1000 Ang^3
#
#
#
# Elastic Constant Matrix: (Units=GPa)
#
#
# Indices 1 2 3 4 5 6 
#
# 1 74.6551 45.8626 32.4646 0.0000 15.7951 0.0000
# 2 45.8626 94.3469 37.6483 0.0000 14.7056 0.0000
# 3 32.4646 37.6483 47.5649 0.0000 5.3568 0.0000
# 4 0.0000 0.0000 0.0000 28.6549 0.0000 14.9946
# 5 15.7951 14.7056 5.3568 0.0000 20.4844 0.0000
# 6 0.0000 0.0000 0.0000 14.9946 0.0000 32.4569
#
#
#
# Elastic Compliance Matrix: (Units=1/GPa)
#
#
# Indices 1 2 3 4 5 6 
#
# 1 0.023883 -0.005573 -0.010578 0.000000 -0.011649 0.000000
# 2 -0.005573 0.018239 -0.009934 0.000000 -0.006198 0.000000
# 3 -0.010578 -0.009934 0.035428 0.000000 0.006023 0.000000
# 4 0.000000 0.000000 0.000000 0.046024 0.000000 -0.021263
# 5 -0.011649 -0.006198 0.006023 0.000000 0.060674 0.000000
# 6 0.000000 0.000000 0.000000 -0.021263 0.000000 0.040633
#
#
# Mechanical properties :
#
#
# Convention : Reuss Voigt Hill
#
# Bulk Modulus (GPa) = 39.40169 49.83532 44.61850
# Shear Modulus (GPa) = 17.51237 23.02532 20.26884
#
# Velocity S-wave (km/s) = 3.00895 3.45021 3.23711
# Velocity P-wave (km/s) = 5.69580 6.45263 6.08599
#
# Compressibility (1/GPa) = 0.02537962
#
# Stress axis : x y z
#
# Youngs Moduli (GPa) = 41.87052 54.82903 28.22589
#
# Poissons Ratio (x) = 0.30556 0.29857
# Poissons Ratio (y) = 0.23335 0.28040
# Poissons Ratio (z) = 0.44291 0.54468
#
# Static dielectric constant tensor:
#      x y z
#    x 3.722210 0.000000 0.495080 
#    y 0.000000 3.936950 0.000000 
#    z 0.495080 0.000000 3.090090 
# 
# 
# High freq. dielectric constant tensor:
#      x y z
#    x 1.751350 0.000000 0.042960 
#    y 0.000000 1.773750 0.000000 
#    z 0.042960 0.000000 1.693670 
# 
# From -- ./inp_files/64733.got.cif
#   From: 2010.03.12/outbox.cif.g09.slc.cpg/sg14_33_cif.got.tgz:64733.got - 2010.03.31 13:35:05.
