data_PCOD8128920
_publ_section_title
;
Structure prediction by ZEFSAII (Michael W. Deem and Ramdas Pophale) SiO2 
 PCOD8128920
Probable space group: P 21/C
;
_chemical_formula_sum "Si O2"
_cell_formula_units_Z 28
_cell_length_a 8.302839
_cell_length_b 8.897545
_cell_length_c 19.337469
_cell_angle_alpha 90.000000
_cell_angle_beta 60.339021
_cell_angle_gamma 90.000000
_cell_volume 1241.368141
_symmetry_space_group_name_H-M "P 21/C"
_symmetry_group_IT_number 14
_symmetry_cell_setting 'monoclinic'
loop_
_space_group_symop_operation_xyz
x,y,z
-x,1/2+y,1/2-z
-x,-y,-z
x,1/2-y,1/2+z
loop_
_atom_site_type_symbol
_atom_site_label
_atom_site_fract_x
_atom_site_fract_y
_atom_site_fract_z
Si Si1 0.196961 0.681943 0.982499
Si Si2 0.831733 0.089365 0.747906
Si Si3 0.871714 0.446358 0.589259
Si Si4 0.565795 0.692872 0.642121
Si Si5 0.543933 0.679210 0.992849
Si Si6 0.167540 0.074653 0.389466
Si Si7 0.113420 0.327199 0.659488
O O1 0.200893 0.780572 0.912802
O O2 0.358376 0.745080 0.997451
O O3 0.213739 0.509386 0.952627
O O4 0.000417 0.693389 0.064031
O O5 0.637911 0.174284 0.785832
O O6 0.990145 0.211718 0.731643
O O7 0.887361 0.035767 0.659815
O O8 0.807232 0.951417 0.805359
O O9 0.690467 0.549067 0.633324
O O10 0.000000 0.500000 0.500000
O O11 0.990394 0.427291 0.633513
O O12 0.565944 0.740865 0.561748
O O13 0.650654 0.830468 0.668246
O O14 0.723164 0.729231 0.910418
O O15 0.500000 0.500000 0.000000
#
# Coordination Sequence:
#
# PCOD8128920 Si02
#       7
#     4   4   4   4   4   4   4
#     4  11  23  43  79 101 140 187 247 305 352 433
#     4  12  31  47  71 106 156 191 238 302 378 441
#     4  12  24  47  74 105 139 184 249 308 349 429
#     4  12  28  46  74 109 142 195 244 302 367 435
#     4  12  25  46  79 110 142 186 254 306 360 435
#     4  11  24  48  69 105 142 195 241 292 371 437
#     4  12  29  50  72 111 149 196 242 304 375 439
#
# _framework density 22.555757
#
# number of rings (size 3 to 8) (size 9 to 14) (size 15 to 20)
#    0.000    0.286    5.714    1.714   10.000    2.286 
#    0.000    0.000    0.000    0.000    0.000    0.000 
#    0.000    0.000    0.000    0.000    0.000    0.000 
#
# Total GULP energy -347107.495626 kJ/mol
# GULP energy per Si atom -12396.696272 kJ/mol
# Density = 2.250442 g / cm^3
# Si number density = 22.555757 Si / 1000 Ang^3
#
#
#
# Elastic Constant Matrix: (Units=GPa)
#
#
# Indices 1 2 3 4 5 6 
#
# 1 121.7510 38.4515 26.6932 0.0000 -14.7166 0.0000
# 2 38.4515 86.3019 19.6173 0.0000 -5.9313 0.0000
# 3 26.6932 19.6173 58.8292 0.0000 -7.1688 0.0000
# 4 0.0000 0.0000 0.0000 38.6159 0.0000 -5.1245
# 5 -14.7166 -5.9313 -7.1688 0.0000 38.7008 0.0000
# 6 0.0000 0.0000 0.0000 -5.1245 0.0000 43.7851
#
#
#
# Elastic Compliance Matrix: (Units=1/GPa)
#
#
# Indices 1 2 3 4 5 6 
#
# 1 0.010422 -0.003736 -0.003140 0.000000 0.002809 0.000000
# 2 -0.003736 0.013929 -0.002929 0.000000 0.000172 0.000000
# 3 -0.003140 -0.002929 0.019643 0.000000 0.001996 0.000000
# 4 0.000000 0.000000 0.000000 0.026305 0.000000 0.003079
# 5 0.002809 0.000172 0.001996 0.000000 0.027303 0.000000
# 6 0.000000 0.000000 0.000000 0.003079 0.000000 0.023199
#
#
# Mechanical properties :
#
#
# Convention : Reuss Voigt Hill
#
# Bulk Modulus (GPa) = 41.01220 48.48955 44.75088
# Shear Modulus (GPa) = 33.66102 36.36172 35.01137
#
# Velocity S-wave (km/s) = 3.86728 4.01943 3.94409
# Velocity P-wave (km/s) = 6.17764 6.56395 6.37372
#
# Compressibility (1/GPa) = 0.02438299
#
# Stress axis : x y z
#
# Youngs Moduli (GPa) = 95.95519 71.79017 50.90847
#
# Poissons Ratio (x) = 0.26824 0.15988
# Poissons Ratio (y) = 0.35853 0.14910
# Poissons Ratio (z) = 0.30135 0.21025
#
# Static dielectric constant tensor:
#      x y z
#    x 4.377880 0.000000 -0.094190 
#    y 0.000000 4.373840 0.000000 
#    z -0.094190 0.000000 3.772510 
# 
# 
# High freq. dielectric constant tensor:
#      x y z
#    x 1.904450 0.000000 -0.006760 
#    y 0.000000 1.906870 0.000000 
#    z -0.006760 0.000000 1.875100 
# 
# From -- ./inp_files/64981.got.cif
#   From: 2010.03.12/outbox.cif.g09.slc.cpg/sg14_33_cif.got.tgz:64981.got - 2010.03.31 13:35:05.
