data_PCOD8128783
_publ_section_title
;
Structure prediction by ZEFSAII (Michael W. Deem and Ramdas Pophale) SiO2 
 PCOD8128783
Probable space group: P 21/C
;
_chemical_formula_sum "Si O2"
_cell_formula_units_Z 20
_cell_length_a 18.093874
_cell_length_b 6.675404
_cell_length_c 13.430232
_cell_angle_alpha 90.000000
_cell_angle_beta 146.772745
_cell_angle_gamma 90.000000
_cell_volume 888.878579
_symmetry_space_group_name_H-M "P 21/C"
_symmetry_group_IT_number 14
_symmetry_cell_setting 'monoclinic'
loop_
_space_group_symop_operation_xyz
x,y,z
-x,1/2+y,1/2-z
-x,-y,-z
x,1/2-y,1/2+z
loop_
_atom_site_type_symbol
_atom_site_label
_atom_site_fract_x
_atom_site_fract_y
_atom_site_fract_z
Si Si1 0.912719 0.698382 0.399777
Si Si2 0.209642 0.851537 0.473164
Si Si3 0.035007 0.518259 0.200493
Si Si4 0.572232 0.196639 0.121134
Si Si5 0.644154 0.975022 0.549396
O O1 0.758464 0.635490 0.242831
O O2 0.000000 0.500000 0.500000
O O3 0.924553 0.812560 0.307851
O O4 0.955763 0.838104 0.537314
O O5 0.067231 0.967198 0.324866
O O6 0.287064 0.849538 0.665525
O O7 0.302452 0.968952 0.499497
O O8 0.171112 0.626183 0.393902
O O9 0.600540 0.322677 0.054327
O O10 0.480882 0.320802 0.097057
O O11 0.500000 0.000000 0.000000
#
# Coordination Sequence:
#
# PCOD8128783 Si02
#       5
#     4   4   4   4   4
#     4  11  22  46  72 103 152 189 240 306 372 434
#     4  12  26  45  75 107 145 189 247 303 374 442
#     4  11  26  42  71 112 145 189 240 310 370 443
#     4  11  28  50  70 100 145 195 246 305 366 440
#     4  11  26  46  71 101 140 191 243 297 362 443
#
# _framework density 22.500260999999998
#
# number of rings (size 3 to 8) (size 9 to 14) (size 15 to 20)
#    0.000    0.800    2.000    3.600   11.200    0.000 
#    3.600    0.000    0.000    0.000    0.000    0.000 
#    0.000    0.000    0.000    0.000    0.000    0.000 
#
# Total GULP energy -248085.738612 kJ/mol
# GULP energy per Si atom -12404.286931 kJ/mol
# Density = 2.244905 g / cm^3
# Si number density = 22.500261 Si / 1000 Ang^3
#
#
#
# Elastic Constant Matrix: (Units=GPa)
#
#
# Indices 1 2 3 4 5 6 
#
# 1 115.3905 48.4798 1.2088 0.0000 8.2623 0.0000
# 2 48.4798 140.4400 38.9650 0.0000 -1.8545 0.0000
# 3 1.2088 38.9650 100.5581 0.0000 0.4630 0.0000
# 4 0.0000 0.0000 0.0000 43.0404 0.0000 4.0103
# 5 8.2623 -1.8545 0.4630 0.0000 32.2242 0.0000
# 6 0.0000 0.0000 0.0000 4.0103 0.0000 36.0621
#
#
#
# Elastic Compliance Matrix: (Units=1/GPa)
#
#
# Indices 1 2 3 4 5 6 
#
# 1 0.010588 -0.004104 0.001477 0.000000 -0.002972 0.000000
# 2 -0.004104 0.009577 -0.003669 0.000000 0.001656 0.000000
# 3 0.001477 -0.003669 0.011352 0.000000 -0.000753 0.000000
# 4 0.000000 0.000000 0.000000 0.023477 0.000000 -0.002611
# 5 -0.002972 0.001656 -0.000753 0.000000 0.031901 0.000000
# 6 0.000000 0.000000 0.000000 -0.002611 0.000000 0.028020
#
#
# Mechanical properties :
#
#
# Convention : Reuss Voigt Hill
#
# Bulk Modulus (GPa) = 52.84358 59.29954 56.07156
# Shear Modulus (GPa) = 37.36478 40.11435 38.73956
#
# Velocity S-wave (km/s) = 4.07951 4.22695 4.15389
# Velocity P-wave (km/s) = 6.76215 7.08767 6.92682
#
# Compressibility (1/GPa) = 0.01892377
#
# Stress axis : x y z
#
# Youngs Moduli (GPa) = 94.44904 104.41673 88.09012
#
# Poissons Ratio (x) = 0.42851 -0.13007
# Poissons Ratio (y) = 0.38760 0.32323
# Poissons Ratio (z) = -0.13946 0.38313
#
# Static dielectric constant tensor:
#      x y z
#    x 4.012920 0.000000 0.281830 
#    y 0.000000 4.130950 0.000000 
#    z 0.281830 0.000000 3.930140 
# 
# 
# High freq. dielectric constant tensor:
#      x y z
#    x 1.890980 0.000000 0.006580 
#    y 0.000000 1.906490 0.000000 
#    z 0.006580 0.000000 1.884800 
# 
# From -- ./inp_files/49765.got.cif
#   From: 2010.03.12/outbox.cif.g09.slc.cpg/sg14_25_cif.got.tgz:49765.got - 2010.03.31 13:35:05.
