data_PCOD8128372
_publ_section_title
;
Structure prediction by ZEFSAII (Michael W. Deem and Ramdas Pophale) SiO2 
 PCOD8128372
Probable space group: P 21/C
;
_chemical_formula_sum "Si O2"
_cell_formula_units_Z 24
_cell_length_a 23.042900
_cell_length_b 4.794177
_cell_length_c 21.668652
_cell_angle_alpha 90.000000
_cell_angle_beta 157.818760
_cell_angle_gamma 90.000000
_cell_volume 903.739618
_symmetry_space_group_name_H-M "P 21/C"
_symmetry_group_IT_number 14
_symmetry_cell_setting 'monoclinic'
loop_
_space_group_symop_operation_xyz
x,y,z
-x,1/2+y,1/2-z
-x,-y,-z
x,1/2-y,1/2+z
loop_
_atom_site_type_symbol
_atom_site_label
_atom_site_fract_x
_atom_site_fract_y
_atom_site_fract_z
Si Si1 0.891398 0.043211 0.797976
Si Si2 0.078127 0.839660 0.795327
Si Si3 0.436323 0.101658 0.560745
Si Si4 0.568211 0.344768 0.340842
Si Si5 0.567140 0.602446 0.629528
Si Si6 0.872214 0.315980 0.903755
O O1 0.941246 0.278075 0.797087
O O2 0.749510 0.878411 0.627083
O O3 0.814901 0.140226 0.787716
O O4 0.047397 0.868595 0.963629
O O5 0.028164 0.597662 0.792715
O O6 0.252952 0.908412 0.983965
O O7 0.487051 0.901944 0.667203
O O8 0.530349 0.932766 0.599319
O O9 0.484811 0.427516 0.603895
O O10 0.489499 0.653166 0.275430
O O11 0.500000 0.500000 0.500000
O O12 0.747336 0.524927 0.809604
O O13 0.000000 0.500000 0.000000
#
# Coordination Sequence:
#
# PCOD8128372 Si02
#       6
#     4   4   4   4   4   4
#     4  10  25  44  66  96 137 178 220 276 342 394
#     4  11  26  46  72  99 135 182 230 282 339 408
#     4  11  25  44  68  97 131 178 218 274 333 396
#     4  11  24  46  69  99 136 173 227 285 338 394
#     4  12  24  41  68  97 134 172 224 265 328 405
#     4  11  25  42  66  98 140 175 219 276 336 407
#
# _framework density 26.556318999999998
#
# number of rings (size 3 to 8) (size 9 to 14) (size 15 to 20)
#    0.000    1.000    1.667    3.500    7.000    6.667 
#    0.000    0.000    0.000    0.000    0.000    0.000 
#    0.000    0.000    0.000    0.000    0.000    0.000 
#
# Total GULP energy -297358.107379 kJ/mol
# GULP energy per Si atom -12389.921141 kJ/mol
# Density = 2.649588 g / cm^3
# Si number density = 26.556319 Si / 1000 Ang^3
#
#
#
# Elastic Constant Matrix: (Units=GPa)
#
#
# Indices 1 2 3 4 5 6 
#
# 1 39.7469 -7.0958 -11.4454 0.0000 11.5974 0.0000
# 2 -7.0958 148.0291 8.2983 0.0000 -1.2541 0.0000
# 3 -11.4454 8.2983 108.3687 0.0000 11.5286 0.0000
# 4 0.0000 0.0000 0.0000 27.4493 0.0000 13.7079
# 5 11.5974 -1.2541 11.5286 0.0000 27.2187 0.0000
# 6 0.0000 0.0000 0.0000 13.7079 0.0000 33.0437
#
#
#
# Elastic Compliance Matrix: (Units=1/GPa)
#
#
# Indices 1 2 3 4 5 6 
#
# 1 0.031212 0.001095 0.004840 0.000000 -0.015299 0.000000
# 2 0.001095 0.006831 -0.000410 0.000000 0.000022 0.000000
# 3 0.004840 -0.000410 0.010463 0.000000 -0.006513 0.000000
# 4 0.000000 0.000000 0.000000 0.045950 0.000000 -0.019062
# 5 -0.015299 0.000022 -0.006513 0.000000 0.046018 0.000000
# 6 0.000000 0.000000 0.000000 -0.019062 0.000000 0.038171
#
#
# Mechanical properties :
#
#
# Convention : Reuss Voigt Hill
#
# Bulk Modulus (GPa) = 16.79033 30.62875 23.70954
# Shear Modulus (GPa) = 26.67426 37.96817 32.32121
#
# Velocity S-wave (km/s) = 3.17273 3.78527 3.49245
# Velocity P-wave (km/s) = 4.44498 5.53741 5.02099
#
# Compressibility (1/GPa) = 0.05955809
#
# Stress axis : x y z
#
# Youngs Moduli (GPa) = 32.03855 146.38976 95.57306
#
# Poissons Ratio (x) = -0.16033 -0.46259
# Poissons Ratio (y) = -0.03509 0.03916
# Poissons Ratio (z) = -0.15507 0.05998
#
# Static dielectric constant tensor:
#      x y z
#    x 5.409450 0.000000 0.756390 
#    y 0.000000 4.004020 0.000000 
#    z 0.756390 0.000000 6.538800 
# 
# 
# High freq. dielectric constant tensor:
#      x y z
#    x 2.091680 0.000000 -0.020370 
#    y 0.000000 2.086550 0.000000 
#    z -0.020370 0.000000 2.061760 
# 
# From -- ./inp_files/74822.got.cif
#   From: 2010.03.12/outbox.cif.g09.slc.cpg/sg14_38_cif.got.tgz:74822.got - 2010.03.31 13:35:05.
