data_PCOD8128887
_publ_section_title
;
Structure prediction by ZEFSAII (Michael W. Deem and Ramdas Pophale) SiO2 
 PCOD8128887
Probable space group: P 21/C
;
_chemical_formula_sum "Si O2"
_cell_formula_units_Z 28
_cell_length_a 5.521098
_cell_length_b 10.889422
_cell_length_c 19.231956
_cell_angle_alpha 90.000000
_cell_angle_beta 85.690611
_cell_angle_gamma 90.000000
_cell_volume 1152.986386
_symmetry_space_group_name_H-M "P 21/C"
_symmetry_group_IT_number 14
_symmetry_cell_setting 'monoclinic'
loop_
_space_group_symop_operation_xyz
x,y,z
-x,1/2+y,1/2-z
-x,-y,-z
x,1/2-y,1/2+z
loop_
_atom_site_type_symbol
_atom_site_label
_atom_site_fract_x
_atom_site_fract_y
_atom_site_fract_z
Si Si1 0.862533 0.997778 0.814264
Si Si2 0.692066 0.712029 0.116065
Si Si3 0.929798 0.110274 0.954068
Si Si4 0.388155 0.387674 0.263991
Si Si5 0.208194 0.270466 0.136699
Si Si6 0.442864 0.709815 0.985423
Si Si7 0.875142 0.033020 0.575815
O O1 0.788309 0.063316 0.888504
O O2 0.628729 0.027512 0.769654
O O3 0.126317 0.045929 0.782449
O O4 0.894905 0.851332 0.823345
O O5 0.585374 0.764106 0.189767
O O6 0.851781 0.589009 0.124397
O O7 0.831682 0.821139 0.075564
O O8 0.489047 0.672744 0.064496
O O9 0.776153 0.195025 0.008773
O O10 0.000000 0.000000 0.000000
O O11 0.393210 0.340254 0.184898
O O12 0.335536 0.228986 0.061845
O O13 0.999182 0.365909 0.121511
O O14 0.382233 0.587774 0.942951
O O15 0.000000 0.000000 0.500000
#
# Coordination Sequence:
#
# PCOD8128887 Si02
#       7
#     4   4   4   4   4   4   4
#     4  11  27  52  74 109 152 198 264 311 386 464
#     4  11  24  45  69 105 146 198 251 309 382 460
#     4  11  23  42  74 106 145 196 248 318 380 455
#     4  11  29  51  76 108 153 209 255 317 389 463
#     4  12  30  46  76 113 149 203 255 323 385 464
#     4  12  23  43  74 106 150 188 259 316 383 453
#     4  12  25  45  69 113 147 194 251 315 389 457
#
# _framework density 24.284763999999999
#
# number of rings (size 3 to 8) (size 9 to 14) (size 15 to 20)
#    0.000    0.571    4.286    2.143   10.000    1.143 
#    2.571    0.000    0.000    0.000    0.000    0.000 
#    0.000    0.000    0.000    0.000    0.000    0.000 
#
# Total GULP energy -347059.851595 kJ/mol
# GULP energy per Si atom -12394.994700 kJ/mol
# Density = 2.422949 g / cm^3
# Si number density = 24.284764 Si / 1000 Ang^3
#
#
#
# Elastic Constant Matrix: (Units=GPa)
#
#
# Indices 1 2 3 4 5 6 
#
# 1 90.1593 16.4933 20.4732 0.0000 13.9050 0.0000
# 2 16.4933 120.1572 26.1458 0.0000 13.8914 0.0000
# 3 20.4732 26.1458 94.2373 0.0000 21.6182 0.0000
# 4 0.0000 0.0000 0.0000 37.1037 0.0000 10.5301
# 5 13.9050 13.8914 21.6182 0.0000 39.1064 0.0000
# 6 0.0000 0.0000 0.0000 10.5301 0.0000 30.9541
#
#
#
# Elastic Compliance Matrix: (Units=1/GPa)
#
#
# Indices 1 2 3 4 5 6 
#
# 1 0.012114 -0.000947 -0.001670 0.000000 -0.003048 0.000000
# 2 -0.000947 0.009077 -0.001890 0.000000 -0.001843 0.000000
# 3 -0.001670 -0.001890 0.012836 0.000000 -0.005831 0.000000
# 4 0.000000 0.000000 0.000000 0.029832 0.000000 -0.010148
# 5 -0.003048 -0.001843 -0.005831 0.000000 0.030533 0.000000
# 6 0.000000 0.000000 0.000000 -0.010148 0.000000 0.035758
#
#
# Mechanical properties :
#
#
# Convention : Reuss Voigt Hill
#
# Bulk Modulus (GPa) = 39.97854 47.86425 43.92139
# Shear Modulus (GPa) = 33.89813 37.52894 35.71354
#
# Velocity S-wave (km/s) = 3.74017 3.93538 3.83902
# Velocity P-wave (km/s) = 5.92874 6.35626 6.14622
#
# Compressibility (1/GPa) = 0.02501342
#
# Stress axis : x y z
#
# Youngs Moduli (GPa) = 82.54930 110.17232 77.90455
#
# Poissons Ratio (x) = 0.10434 0.13009
# Poissons Ratio (y) = 0.07818 0.14722
# Poissons Ratio (z) = 0.13784 0.20820
#
# Static dielectric constant tensor:
#      x y z
#    x 4.387170 0.000000 0.154530 
#    y 0.000000 4.888580 0.000000 
#    z 0.154530 0.000000 4.701360 
# 
# 
# High freq. dielectric constant tensor:
#      x y z
#    x 1.952530 0.000000 0.013200 
#    y 0.000000 1.975840 0.000000 
#    z 0.013200 0.000000 1.974650 
# 
# From -- ./inp_files/63316.got.cif
#   From: 2010.03.12/outbox.cif.g09.slc.cpg/sg14_32_cif.got.tgz:63316.got - 2010.03.31 13:35:05.
