data_PCOD8128401
_publ_section_title
;
Structure prediction by ZEFSAII (Michael W. Deem and Ramdas Pophale) SiO2 
 PCOD8128401
Probable space group: P 21/C
;
_chemical_formula_sum "Si O2"
_cell_formula_units_Z 28
_cell_length_a 8.813441
_cell_length_b 21.095784
_cell_length_c 9.662427
_cell_angle_alpha 90.000000
_cell_angle_beta 47.191453
_cell_angle_gamma 90.000000
_cell_volume 1317.964137
_symmetry_space_group_name_H-M "P 21/C"
_symmetry_group_IT_number 14
_symmetry_cell_setting 'monoclinic'
loop_
_space_group_symop_operation_xyz
x,y,z
-x,1/2+y,1/2-z
-x,-y,-z
x,1/2-y,1/2+z
loop_
_atom_site_type_symbol
_atom_site_label
_atom_site_fract_x
_atom_site_fract_y
_atom_site_fract_z
Si Si1 0.052541 0.751552 0.114145
Si Si2 0.405991 0.840123 0.813824
Si Si3 0.229074 0.253809 0.964981
Si Si4 0.553926 0.878708 0.175871
Si Si5 0.741222 0.371123 0.897829
Si Si6 0.352736 0.942316 0.060318
Si Si7 0.061334 0.028913 0.107661
O O1 0.118946 0.680200 0.109376
O O2 0.868475 0.774211 0.328433
O O3 0.964294 0.757844 0.014890
O O4 0.248276 0.797998 0.002592
O O5 0.633468 0.810565 0.679230
O O6 0.331439 0.843878 0.703002
O O7 0.423188 0.908531 0.874299
O O8 0.375180 0.192971 0.893097
O O9 0.460191 0.887689 0.386743
O O10 0.370543 0.894006 0.178520
O O11 0.748698 0.923983 0.036677
O O12 0.872021 0.434860 0.795612
O O13 0.124872 0.971846 0.173587
O O14 0.500000 0.000000 0.000000
O O15 0.000000 0.000000 0.000000
#
# Coordination Sequence:
#
# PCOD8128401 Si02
#       7
#     4   4   4   4   4   4   4
#     4  12  25  42  66 104 136 180 222 281 353 411
#     4  12  25  45  69 101 140 179 227 286 348 409
#     4  12  25  41  69  99 139 177 226 284 349 410
#     4  11  24  45  69 100 134 178 229 284 346 402
#     4  12  25  44  70 100 138 179 230 283 345 415
#     4  10  25  46  70  96 140 185 226 281 336 408
#     4  11  23  48  71  97 139 181 230 285 336 412
#
# _framework density 21.244889000000001
#
# number of rings (size 3 to 8) (size 9 to 14) (size 15 to 20)
#    0.000    0.571    5.714    1.714    6.000    1.143 
#    0.000    0.000    0.000    0.000    0.000    0.000 
#    0.000    0.000    0.000    0.000    0.000    0.000 
#
# Total GULP energy -347289.118239 kJ/mol
# GULP energy per Si atom -12403.182794 kJ/mol
# Density = 2.119653 g / cm^3
# Si number density = 21.244889 Si / 1000 Ang^3
#
#
#
# Elastic Constant Matrix: (Units=GPa)
#
#
# Indices 1 2 3 4 5 6 
#
# 1 77.1225 13.8604 4.9761 0.0000 15.4401 0.0000
# 2 13.8604 55.5353 9.3458 0.0000 10.1293 0.0000
# 3 4.9761 9.3458 116.3412 0.0000 -1.6140 0.0000
# 4 0.0000 0.0000 0.0000 31.9817 0.0000 4.5780
# 5 15.4401 10.1293 -1.6140 0.0000 34.3973 0.0000
# 6 0.0000 0.0000 0.0000 4.5780 0.0000 42.2475
#
#
#
# Elastic Compliance Matrix: (Units=1/GPa)
#
#
# Indices 1 2 3 4 5 6 
#
# 1 0.014619 -0.002496 -0.000506 0.000000 -0.005851 0.000000
# 2 -0.002496 0.019760 -0.001547 0.000000 -0.004771 0.000000
# 3 -0.000506 -0.001547 0.008756 0.000000 0.001093 0.000000
# 4 0.000000 0.000000 0.000000 0.031761 0.000000 -0.003442
# 5 -0.005851 -0.004771 0.001093 0.000000 0.033155 0.000000
# 6 0.000000 0.000000 0.000000 -0.003442 0.000000 0.024043
#
#
# Mechanical properties :
#
#
# Convention : Reuss Voigt Hill
#
# Bulk Modulus (GPa) = 29.37930 33.92930 31.65430
# Shear Modulus (GPa) = 32.77884 36.44640 34.61262
#
# Velocity S-wave (km/s) = 3.93224 4.14640 4.04074
# Velocity P-wave (km/s) = 5.87159 6.23929 6.05823
#
# Compressibility (1/GPa) = 0.03403757
#
# Stress axis : x y z
#
# Youngs Moduli (GPa) = 68.40423 50.60712 114.20134
#
# Poissons Ratio (x) = 0.12633 0.05778
# Poissons Ratio (y) = 0.17076 0.17664
# Poissons Ratio (z) = 0.03461 0.07828
#
# Static dielectric constant tensor:
#      x y z
#    x 4.126070 0.000000 0.124050 
#    y 0.000000 4.016810 0.000000 
#    z 0.124050 0.000000 3.730270 
# 
# 
# High freq. dielectric constant tensor:
#      x y z
#    x 1.848090 0.000000 0.005530 
#    y 0.000000 1.838050 0.000000 
#    z 0.005530 0.000000 1.829090 
# 
# From -- ./inp_files/10379.got.cif
#   From: 2010.03.12/outbox.cif.g09.slc.cpg/sg14_6_cif.got.tgz:10379.got - 2010.03.31 13:35:05.
