data_PCOD8128422
_publ_section_title
;
Structure prediction by ZEFSAII (Michael W. Deem and Ramdas Pophale) SiO2 
 PCOD8128422
Probable space group: P 21/C
;
_chemical_formula_sum "Si O2"
_cell_formula_units_Z 32
_cell_length_a 8.760817
_cell_length_b 19.710297
_cell_length_c 13.984262
_cell_angle_alpha 90.000000
_cell_angle_beta 31.717664
_cell_angle_gamma 90.000000
_cell_volume 1269.531067
_symmetry_space_group_name_H-M "P 21/C"
_symmetry_group_IT_number 14
_symmetry_cell_setting 'monoclinic'
loop_
_space_group_symop_operation_xyz
x,y,z
-x,1/2+y,1/2-z
-x,-y,-z
x,1/2-y,1/2+z
loop_
_atom_site_type_symbol
_atom_site_label
_atom_site_fract_x
_atom_site_fract_y
_atom_site_fract_z
Si Si1 0.641716 0.290479 0.869647
Si Si2 0.824083 0.888067 0.411336
Si Si3 0.821830 0.287196 0.559157
Si Si4 0.634133 0.349842 0.470560
Si Si5 0.211229 0.098792 0.880785
Si Si6 0.008162 0.399752 0.786490
Si Si7 0.166454 0.631221 0.920207
Si Si8 0.751802 0.027245 0.261926
O O1 0.312987 0.317470 0.055556
O O2 0.701116 0.304489 0.727106
O O3 0.662925 0.211030 0.878412
O O4 0.863039 0.332661 0.817595
O O5 0.572898 0.944603 0.547422
O O6 0.091706 0.900060 0.194768
O O7 0.945265 0.882318 0.453776
O O8 0.613438 0.318549 0.588173
O O9 0.862877 0.207595 0.524272
O O10 0.129957 0.326533 0.384348
O O11 0.352630 0.393347 0.599172
O O12 0.505461 0.109708 0.785652
O O13 0.275150 0.050564 0.755609
O O14 0.940234 0.069563 0.084660
O O15 0.914739 0.414235 0.944924
O O16 0.918290 0.466673 0.774437
#
# Coordination Sequence:
#
# PCOD8128422 Si02
#       8
#     4   4   4   4   4   4   4   4
#     4  11  23  42  64  99 149 185 223 283 359 420
#     4  11  24  43  67 102 135 186 233 289 341 416
#     4  12  26  41  70 105 145 178 229 290 361 420
#     4  12  25  40  68 104 146 183 229 291 355 412
#     4  11  26  48  75 100 137 197 228 291 354 411
#     4  11  24  44  65 105 140 189 234 286 346 422
#     4  12  27  39  74 108 145 178 236 292 359 415
#     4  10  25  51  74  94 142 187 250 278 345 424
#
# _framework density 25.206157000000001
#
# number of rings (size 3 to 8) (size 9 to 14) (size 15 to 20)
#    0.000    0.750    5.000    2.250    7.000    1.000 
#    0.000    0.625    0.000    0.000    0.000    0.000 
#    0.000    0.000    0.000    0.000    0.000    0.000 
#
# Total GULP energy -396732.927828 kJ/mol
# GULP energy per Si atom -12397.903995 kJ/mol
# Density = 2.514879 g / cm^3
# Si number density = 25.206157 Si / 1000 Ang^3
#
#
#
# Elastic Constant Matrix: (Units=GPa)
#
#
# Indices 1 2 3 4 5 6 
#
# 1 129.8600 -1.6771 39.3880 0.0000 -10.9174 0.0000
# 2 -1.6771 48.9809 15.0139 0.0000 -8.6048 0.0000
# 3 39.3880 15.0139 116.6100 0.0000 -24.7510 0.0000
# 4 0.0000 0.0000 0.0000 24.6789 0.0000 0.1171
# 5 -10.9174 -8.6048 -24.7510 0.0000 47.1817 0.0000
# 6 0.0000 0.0000 0.0000 0.1171 0.0000 24.7716
#
#
#
# Elastic Compliance Matrix: (Units=1/GPa)
#
#
# Indices 1 2 3 4 5 6 
#
# 1 0.008672 0.001324 -0.002951 0.000000 0.000700 0.000000
# 2 0.001324 0.021778 -0.002637 0.000000 0.002895 0.000000
# 3 -0.002951 -0.002637 0.010876 0.000000 0.004542 0.000000
# 4 0.000000 0.000000 0.000000 0.040521 0.000000 -0.000192
# 5 0.000700 0.002895 0.004542 0.000000 0.024267 0.000000
# 6 0.000000 0.000000 0.000000 -0.000192 0.000000 0.040370
#
#
# Mechanical properties :
#
#
# Convention : Reuss Voigt Hill
#
# Bulk Modulus (GPa) = 30.48882 44.54449 37.51665
# Shear Modulus (GPa) = 30.13065 35.50817 32.81941
#
# Velocity S-wave (km/s) = 3.46116 3.75735 3.61229
# Velocity P-wave (km/s) = 5.30046 6.04434 5.68458
#
# Compressibility (1/GPa) = 0.03279891
#
# Stress axis : x y z
#
# Youngs Moduli (GPa) = 115.31858 45.91714 91.94674
#
# Poissons Ratio (x) = -0.06081 0.27134
# Poissons Ratio (y) = -0.15273 0.24245
# Poissons Ratio (z) = 0.34031 0.12108
#
# Static dielectric constant tensor:
#      x y z
#    x 4.677750 0.000000 -0.024420 
#    y 0.000000 4.474510 0.000000 
#    z -0.024420 0.000000 4.610780 
# 
# 
# High freq. dielectric constant tensor:
#      x y z
#    x 2.019250 0.000000 0.000620 
#    y 0.000000 1.992830 0.000000 
#    z 0.000620 0.000000 2.015440 
# 
# From -- ./inp_files/42237.got.cif
#   From: 2010.03.12/outbox.cif.g09.slc.cpg/sg14_22_cif.got.tgz:42237.got - 2010.03.31 13:35:05.
