data_PCOD8128544
_publ_section_title
;
Structure prediction by ZEFSAII (Michael W. Deem and Ramdas Pophale) SiO2 
 PCOD8128544
Probable space group: P 21/C
;
_chemical_formula_sum "Si O2"
_cell_formula_units_Z 16
_cell_length_a 9.535223
_cell_length_b 12.026995
_cell_length_c 10.740123
_cell_angle_alpha 90.000000
_cell_angle_beta 42.988315
_cell_angle_gamma 90.000000
_cell_volume 839.818757
_symmetry_space_group_name_H-M "P 21/C"
_symmetry_group_IT_number 14
_symmetry_cell_setting 'monoclinic'
loop_
_space_group_symop_operation_xyz
x,y,z
-x,1/2+y,1/2-z
-x,-y,-z
x,1/2-y,1/2+z
loop_
_atom_site_type_symbol
_atom_site_label
_atom_site_fract_x
_atom_site_fract_y
_atom_site_fract_z
Si Si1 0.256003 0.101963 0.391034
Si Si2 0.724523 0.066948 0.108796
Si Si3 0.921518 0.655761 0.476263
Si Si4 0.904889 0.980402 0.757927
O O1 0.488685 0.094616 0.286054
O O2 0.191267 0.229378 0.429596
O O3 0.119049 0.033600 0.576626
O O4 0.237541 0.049636 0.266141
O O5 0.859213 0.158473 0.095244
O O6 0.780840 0.069283 0.924393
O O7 0.780670 0.943700 0.126386
O O8 0.954674 0.630278 0.307234
#
# Coordination Sequence:
#
# PCOD8128544 Si02
#       4
#     4   4   4   4
#     4  11  21  38  66  85 117 166 186 241 312 327
#     4   9  21  42  56  88 123 148 200 244 282 356
#     4   9  22  40  59  89 123 150 198 247 283 357
#     4   9  22  39  57  91 119 143 211 240 269 373
#
# _framework density 19.051729999999999
#
# number of rings (size 3 to 8) (size 9 to 14) (size 15 to 20)
#    1.500    1.000    0.000    0.750    3.500    5.000 
#    0.000    0.000    0.000    0.000    0.000    0.000 
#    0.000    0.000    0.000    0.000    0.000    0.000 
#
# Total GULP energy -198306.882915 kJ/mol
# GULP energy per Si atom -12394.180182 kJ/mol
# Density = 1.900837 g / cm^3
# Si number density = 19.051730 Si / 1000 Ang^3
#
#
#
# Elastic Constant Matrix: (Units=GPa)
#
#
# Indices 1 2 3 4 5 6 
#
# 1 67.6782 25.8066 38.1068 0.0000 -39.0790 0.0000
# 2 25.8066 68.4437 28.9789 0.0000 -23.3849 0.0000
# 3 38.1068 28.9789 85.0979 0.0000 -30.6159 0.0000
# 4 0.0000 0.0000 0.0000 14.3616 0.0000 -11.1371
# 5 -39.0790 -23.3849 -30.6159 0.0000 43.3481 0.0000
# 6 0.0000 0.0000 0.0000 -11.1371 0.0000 16.9445
#
#
#
# Elastic Compliance Matrix: (Units=1/GPa)
#
#
# Indices 1 2 3 4 5 6 
#
# 1 0.032705 -0.001631 -0.005093 0.000000 0.025007 0.000000
# 2 -0.001631 0.018814 -0.003424 0.000000 0.006261 0.000000
# 3 -0.005093 -0.003424 0.017270 0.000000 0.005759 0.000000
# 4 0.000000 0.000000 0.000000 0.142016 0.000000 0.093343
# 5 0.025007 0.006261 0.005759 0.000000 0.053058 0.000000
# 6 0.000000 0.000000 0.000000 0.093343 0.000000 0.120368
#
#
# Mechanical properties :
#
#
# Convention : Reuss Voigt Hill
#
# Bulk Modulus (GPa) = 20.62145 45.22269 32.92207
# Shear Modulus (GPa) = 11.88519 23.48600 17.68560
#
# Velocity S-wave (km/s) = 2.50038 3.51486 3.05010
# Velocity P-wave (km/s) = 4.37988 6.34513 5.45179
#
# Compressibility (1/GPa) = 0.04849319
#
# Stress axis : x y z
#
# Youngs Moduli (GPa) = 30.57626 53.15065 57.90514
#
# Poissons Ratio (x) = 0.08668 0.29491
# Poissons Ratio (y) = 0.04987 0.19827
# Poissons Ratio (z) = 0.15572 0.18199
#
# Static dielectric constant tensor:
#      x y z
#    x 3.478130 0.000000 0.087190 
#    y 0.000000 3.224970 0.000000 
#    z 0.087190 0.000000 3.254920 
# 
# 
# High freq. dielectric constant tensor:
#      x y z
#    x 1.749270 0.000000 0.001160 
#    y 0.000000 1.723880 0.000000 
#    z 0.001160 0.000000 1.727760 
# 
# From -- ./inp_files/23223.got.cif
#   From: 2010.03.12/outbox.cif.g09.slc.cpg/sg14_12_cif.got.tgz:23223.got - 2010.03.31 13:35:05.
