data_PCOD8128355
_publ_section_title
;
Structure prediction by ZEFSAII (Michael W. Deem and Ramdas Pophale) SiO2 
 PCOD8128355
Probable space group: P 21/C
;
_chemical_formula_sum "Si O2"
_cell_formula_units_Z 32
_cell_length_a 12.324938
_cell_length_b 9.208779
_cell_length_c 14.563435
_cell_angle_alpha 90.000000
_cell_angle_beta 112.390614
_cell_angle_gamma 90.000000
_cell_volume 1528.299504
_symmetry_space_group_name_H-M "P 21/C"
_symmetry_group_IT_number 14
_symmetry_cell_setting 'monoclinic'
loop_
_space_group_symop_operation_xyz
x,y,z
-x,1/2+y,1/2-z
-x,-y,-z
x,1/2-y,1/2+z
loop_
_atom_site_type_symbol
_atom_site_label
_atom_site_fract_x
_atom_site_fract_y
_atom_site_fract_z
Si Si1 0.061046 0.156441 0.208500
Si Si2 0.354386 0.673072 0.797502
Si Si3 0.449368 0.360861 0.269033
Si Si4 0.702832 0.805494 0.451998
Si Si5 0.918274 0.316876 0.315389
Si Si6 0.323953 0.360345 0.851344
Si Si7 0.031169 0.328711 0.015295
Si Si8 0.508551 0.900069 0.916434
O O1 0.196568 0.182331 0.272640
O O2 0.020700 0.262793 0.113518
O O3 0.986616 0.206371 0.271638
O O4 0.040643 0.984481 0.182875
O O5 0.427311 0.704739 0.727562
O O6 0.218283 0.709806 0.747362
O O7 0.373156 0.505135 0.823459
O O8 0.418435 0.764741 0.899101
O O9 0.355682 0.378463 0.156067
O O10 0.408115 0.267327 0.343524
O O11 0.468092 0.522197 0.310717
O O12 0.676151 0.886775 0.539191
O O13 0.840803 0.796049 0.483343
O O14 0.644281 0.646487 0.445128
O O15 0.940597 0.264478 0.425982
O O16 0.000000 0.500000 0.000000
O O17 0.500000 0.000000 0.000000
#
# Coordination Sequence:
#
# PCOD8128355 Si02
#       8
#     4   4   4   4   4   4   4   4
#     4  11  24  44  71 101 140 185 231 295 353 415
#     4  10  25  42  66 100 139 175 228 282 349 414
#     4  11  23  44  71  98 137 178 228 284 350 418
#     4  11  24  44  72  98 139 180 232 288 351 419
#     4  11  25  46  68 102 143 179 237 290 355 426
#     4  11  22  46  71  96 138 182 224 289 349 417
#     4  12  26  44  71 104 136 192 242 287 362 425
#     4  11  24  44  67 102 133 182 230 283 352 416
#
# _framework density 20.938305
#
# number of rings (size 3 to 8) (size 9 to 14) (size 15 to 20)
#    0.000    1.000    3.750    2.625    5.250    4.000 
#    6.750    0.000    0.000    0.000    0.000    0.000 
#    0.000    0.000    0.000    0.000    0.000    0.000 
#
# Total GULP energy -396683.841830 kJ/mol
# GULP energy per Si atom -12396.370057 kJ/mol
# Density = 2.089065 g / cm^3
# Si number density = 20.938305 Si / 1000 Ang^3
#
#
#
# Elastic Constant Matrix: (Units=GPa)
#
#
# Indices 1 2 3 4 5 6 
#
# 1 68.9549 44.3357 10.6745 0.0000 7.7220 0.0000
# 2 44.3357 103.7861 32.8357 0.0000 19.3608 0.0000
# 3 10.6745 32.8357 96.3849 0.0000 -2.8283 0.0000
# 4 0.0000 0.0000 0.0000 39.3526 0.0000 0.1730
# 5 7.7220 19.3608 -2.8283 0.0000 27.5229 0.0000
# 6 0.0000 0.0000 0.0000 0.1730 0.0000 31.9087
#
#
#
# Elastic Compliance Matrix: (Units=1/GPa)
#
#
# Indices 1 2 3 4 5 6 
#
# 1 0.020060 -0.008989 0.000864 0.000000 0.000784 0.000000
# 2 -0.008989 0.016923 -0.005060 0.000000 -0.009903 0.000000
# 3 0.000864 -0.005060 0.012137 0.000000 0.004565 0.000000
# 4 0.000000 0.000000 0.000000 0.025412 0.000000 -0.000138
# 5 0.000784 -0.009903 0.004565 0.000000 0.043549 0.000000
# 6 0.000000 0.000000 0.000000 -0.000138 0.000000 0.031340
#
#
# Mechanical properties :
#
#
# Convention : Reuss Voigt Hill
#
# Bulk Modulus (GPa) = 43.95665 49.42421 46.69043
# Shear Modulus (GPa) = 27.26635 31.84219 29.55427
#
# Velocity S-wave (km/s) = 3.61255 3.90393 3.76106
# Velocity P-wave (km/s) = 6.19997 6.63150 6.41936
#
# Compressibility (1/GPa) = 0.02274969
#
# Stress axis : x y z
#
# Youngs Moduli (GPa) = 49.84969 59.08976 82.39048
#
# Poissons Ratio (x) = 0.53115 -0.07115
# Poissons Ratio (y) = 0.44809 0.41693
# Poissons Ratio (z) = -0.04305 0.29902
#
# Static dielectric constant tensor:
#      x y z
#    x 3.472000 0.000000 0.153070 
#    y 0.000000 4.160500 0.000000 
#    z 0.153070 0.000000 3.981320 
# 
# 
# High freq. dielectric constant tensor:
#      x y z
#    x 1.824570 0.000000 -0.001830 
#    y 0.000000 1.825360 0.000000 
#    z -0.001830 0.000000 1.831640 
# 
# From -- ./inp_files/43801.got.cif
#   From: 2010.03.12/outbox.cif.g09.slc.cpg/sg14_22_cif.got.tgz:43801.got - 2010.03.31 13:35:05.
