data_PCOD8128131
_publ_section_title
;
Structure prediction by ZEFSAII (Michael W. Deem and Ramdas Pophale) SiO2 
 PCOD8128131
Probable space group: P 21/C
;
_chemical_formula_sum "Si O2"
_cell_formula_units_Z 28
_cell_length_a 8.312595
_cell_length_b 17.454777
_cell_length_c 7.582683
_cell_angle_alpha 90.000000
_cell_angle_beta 56.413543
_cell_angle_gamma 90.000000
_cell_volume 916.528449
_symmetry_space_group_name_H-M "P 21/C"
_symmetry_group_IT_number 14
_symmetry_cell_setting 'monoclinic'
loop_
_space_group_symop_operation_xyz
x,y,z
-x,1/2+y,1/2-z
-x,-y,-z
x,1/2-y,1/2+z
loop_
_atom_site_type_symbol
_atom_site_label
_atom_site_fract_x
_atom_site_fract_y
_atom_site_fract_z
Si Si1 0.050837 0.843902 0.103757
Si Si2 0.205098 0.480695 0.229651
Si Si3 0.291489 0.102717 0.344870
Si Si4 0.347229 0.225815 0.739037
Si Si5 0.544106 0.575889 0.624162
Si Si6 0.141302 0.604287 0.003174
Si Si7 0.739813 0.269340 0.834994
O O1 0.164997 0.817908 0.217592
O O2 0.997510 0.933327 0.118249
O O3 0.855215 0.794625 0.227091
O O4 0.203084 0.821042 0.862869
O O5 0.332670 0.483353 0.330371
O O6 0.143310 0.563394 0.196191
O O7 0.341272 0.435479 0.003211
O O8 0.334396 0.191890 0.337049
O O9 0.061254 0.088355 0.467293
O O10 0.409132 0.063345 0.111945
O O11 0.394947 0.162718 0.859870
O O12 0.509534 0.230612 0.487660
O O13 0.314955 0.564168 0.789128
O O14 0.178890 0.693501 0.029908
#
# Coordination Sequence:
#
# PCOD8128131 Si02
#       7
#     4   4   4   4   4   4   4
#     4  11  24  43  66 106 134 182 232 296 359 422
#     4  11  26  46  75 106 149 194 242 298 365 442
#     4  12  25  44  73 105 147 191 240 304 361 434
#     4  10  24  40  69 103 137 180 242 300 355 422
#     4  10  26  45  72 105 146 193 241 306 362 430
#     4  11  24  49  72 106 149 192 243 301 362 441
#     4  11  25  41  73 100 140 184 236 299 362 426
#
# _framework density 30.550063000000002
#
# number of rings (size 3 to 8) (size 9 to 14) (size 15 to 20)
#    0.000    1.143    1.429    3.429    8.000    4.000 
#    0.000    2.857    0.000    0.000    0.000    0.000 
#    0.000    0.000    0.000    0.000    0.000    0.000 
#
# Total GULP energy -347277.878883 kJ/mol
# GULP energy per Si atom -12402.781389 kJ/mol
# Density = 3.048053 g / cm^3
# Si number density = 30.550063 Si / 1000 Ang^3
#
#
#
# Elastic Constant Matrix: (Units=GPa)
#
#
# Indices 1 2 3 4 5 6 
#
# 1 104.1195 -8.4505 43.3944 0.0000 4.0051 0.0000
# 2 -8.4505 55.4275 -10.7118 0.0000 -11.1425 0.0000
# 3 43.3944 -10.7118 161.0728 0.0000 -24.2701 0.0000
# 4 0.0000 0.0000 0.0000 43.3806 0.0000 -1.5407
# 5 4.0051 -11.1425 -24.2701 0.0000 52.1297 0.0000
# 6 0.0000 0.0000 0.0000 -1.5407 0.0000 24.6049
#
#
#
# Elastic Compliance Matrix: (Units=1/GPa)
#
#
# Indices 1 2 3 4 5 6 
#
# 1 0.011113 0.000604 -0.003294 0.000000 -0.002258 0.000000
# 2 0.000604 0.019504 0.001888 0.000000 0.005002 0.000000
# 3 -0.003294 0.001888 0.007873 0.000000 0.004322 0.000000
# 4 0.000000 0.000000 0.000000 0.023103 0.000000 0.001447
# 5 -0.002258 0.005002 0.004322 0.000000 0.022438 0.000000
# 6 0.000000 0.000000 0.000000 0.001447 0.000000 0.040733
#
#
# Mechanical properties :
#
#
# Convention : Reuss Voigt Hill
#
# Bulk Modulus (GPa) = 27.11136 41.00934 34.06035
# Shear Modulus (GPa) = 36.05860 43.78221 39.92040
#
# Velocity S-wave (km/s) = 3.43929 3.78978 3.61878
# Velocity P-wave (km/s) = 4.96642 5.70988 5.35107
#
# Compressibility (1/GPa) = 0.03688491
#
# Stress axis : x y z
#
# Youngs Moduli (GPa) = 89.98366 51.27169 127.02261
#
# Poissons Ratio (x) = -0.03095 0.41843
# Poissons Ratio (y) = -0.05432 -0.23982
# Poissons Ratio (z) = 0.29642 -0.09680
#
# Static dielectric constant tensor:
#      x y z
#    x 5.448780 0.000000 0.087590 
#    y 0.000000 6.186780 0.000000 
#    z 0.087590 0.000000 5.845900 
# 
# 
# High freq. dielectric constant tensor:
#      x y z
#    x 2.251810 0.000000 0.011210 
#    y 0.000000 2.274430 0.000000 
#    z 0.011210 0.000000 2.274280 
# 
# From -- ./inp_files/10375.got.cif
#   From: 2010.03.12/outbox.cif.g09.slc.cpg/sg14_6_cif.got.tgz:10375.got - 2010.03.31 13:35:05.
