data_PCOD8128583
_publ_section_title
;
Structure prediction by ZEFSAII (Michael W. Deem and Ramdas Pophale) SiO2 
 PCOD8128583
Probable space group: P 21/C
;
_chemical_formula_sum "Si O2"
_cell_formula_units_Z 32
_cell_length_a 10.537576
_cell_length_b 8.758925
_cell_length_c 23.737328
_cell_angle_alpha 90.000000
_cell_angle_beta 42.549601
_cell_angle_gamma 90.000000
_cell_volume 1481.551138
_symmetry_space_group_name_H-M "P 21/C"
_symmetry_group_IT_number 14
_symmetry_cell_setting 'monoclinic'
loop_
_space_group_symop_operation_xyz
x,y,z
-x,1/2+y,1/2-z
-x,-y,-z
x,1/2-y,1/2+z
loop_
_atom_site_type_symbol
_atom_site_label
_atom_site_fract_x
_atom_site_fract_y
_atom_site_fract_z
Si Si1 0.404856 0.367654 0.867401
Si Si2 0.668280 0.344272 0.497636
Si Si3 0.764429 0.882145 0.694779
Si Si4 0.673725 0.687581 0.921616
Si Si5 0.823808 0.026117 0.466214
Si Si6 0.719143 0.591752 0.785706
Si Si7 0.424059 0.557376 0.651265
Si Si8 0.118933 0.022297 0.161122
O O1 0.323739 0.317791 0.833864
O O2 0.566146 0.493055 0.802258
O O3 0.496012 0.227946 0.871680
O O4 0.227938 0.431514 0.961007
O O5 0.507159 0.294827 0.504148
O O6 0.764140 0.199721 0.495302
O O7 0.585360 0.448968 0.573936
O O8 0.828827 0.435361 0.412974
O O9 0.789633 0.739026 0.728415
O O10 0.956008 0.974396 0.619619
O O11 0.625333 0.002859 0.769506
O O12 0.706559 0.547619 0.952657
O O13 0.617010 0.631637 0.877690
O O14 0.854577 0.796687 0.857831
O O15 0.899784 0.494066 0.744506
O O16 0.235900 0.544708 0.675281
#
# Coordination Sequence:
#
# PCOD8128583 Si02
#       8
#     4   4   4   4   4   4   4   4
#     4  12  27  45  69  93 137 186 226 266 333 401
#     4  11  21  41  67  97 138 165 210 278 346 397
#     4  12  25  48  66  94 135 183 230 276 317 403
#     4  11  23  40  66  99 136 169 212 277 349 394
#     4  12  24  43  70 102 132 176 225 281 334 395
#     4  12  25  42  67 100 133 171 225 273 338 393
#     4  11  24  44  69  98 135 177 221 276 340 396
#     4  11  23  39  66 101 131 166 211 284 335 396
#
# _framework density 21.598983
#
# number of rings (size 3 to 8) (size 9 to 14) (size 15 to 20)
#    0.000    0.500    5.000    5.250    5.250    0.000 
#    0.000    0.625    0.000    0.000    0.000    0.000 
#    0.000    0.000    0.000    0.000    0.000    0.000 
#
# Total GULP energy -396911.029721 kJ/mol
# GULP energy per Si atom -12403.469679 kJ/mol
# Density = 2.154982 g / cm^3
# Si number density = 21.598983 Si / 1000 Ang^3
#
#
#
# Elastic Constant Matrix: (Units=GPa)
#
#
# Indices 1 2 3 4 5 6 
#
# 1 60.4406 5.7600 27.0600 0.0000 10.8254 0.0000
# 2 5.7600 85.4187 27.2472 0.0000 -0.4981 0.0000
# 3 27.0600 27.2472 99.3483 0.0000 4.9394 0.0000
# 4 0.0000 0.0000 0.0000 33.0256 0.0000 0.0539
# 5 10.8254 -0.4981 4.9394 0.0000 31.0063 0.0000
# 6 0.0000 0.0000 0.0000 0.0539 0.0000 28.5732
#
#
#
# Elastic Compliance Matrix: (Units=1/GPa)
#
#
# Indices 1 2 3 4 5 6 
#
# 1 0.019947 0.000279 -0.005205 0.000000 -0.006130 0.000000
# 2 0.000279 0.012852 -0.003635 0.000000 0.000688 0.000000
# 3 -0.005205 -0.003635 0.012492 0.000000 -0.000231 0.000000
# 4 0.000000 0.000000 0.000000 0.030280 0.000000 -0.000057
# 5 -0.006130 0.000688 -0.000231 0.000000 0.034440 0.000000
# 6 0.000000 0.000000 0.000000 -0.000057 0.000000 0.034998
#
#
# Mechanical properties :
#
#
# Convention : Reuss Voigt Hill
#
# Bulk Modulus (GPa) = 35.49951 40.59355 38.04653
# Shear Modulus (GPa) = 29.15140 30.86369 30.00755
#
# Velocity S-wave (km/s) = 3.67776 3.78424 3.73138
# Velocity P-wave (km/s) = 5.87418 6.15865 6.01810
#
# Compressibility (1/GPa) = 0.02816940
#
# Stress axis : x y z
#
# Youngs Moduli (GPa) = 50.13326 77.81054 80.05314
#
# Poissons Ratio (x) = -0.02175 0.41667
# Poissons Ratio (y) = -0.01401 0.29100
# Poissons Ratio (z) = 0.26094 0.28284
#
# Static dielectric constant tensor:
#      x y z
#    x 3.507820 0.000000 -0.059560 
#    y 0.000000 3.958690 0.000000 
#    z -0.059560 0.000000 4.011700 
# 
# 
# High freq. dielectric constant tensor:
#      x y z
#    x 1.822020 0.000000 -0.005740 
#    y 0.000000 1.856650 0.000000 
#    z -0.005740 0.000000 1.864180 
# 
# From -- ./inp_files/73105.got.cif
#   From: 2010.03.12/outbox.cif.g09.slc.cpg/sg14_37_cif.got.tgz:73105.got - 2010.03.31 13:35:05.
