data_PCOD8128007
_publ_section_title
;
Structure prediction by ZEFSAII (Michael W. Deem and Ramdas Pophale) SiO2 
 PCOD8128007
Probable space group: P 21/C
;
_chemical_formula_sum "Si O2"
_cell_formula_units_Z 32
_cell_length_a 15.517932
_cell_length_b 18.410150
_cell_length_c 16.055829
_cell_angle_alpha 90.000000
_cell_angle_beta 18.053478
_cell_angle_gamma 90.000000
_cell_volume 1421.516322
_symmetry_space_group_name_H-M "P 21/C"
_symmetry_group_IT_number 14
_symmetry_cell_setting 'monoclinic'
loop_
_space_group_symop_operation_xyz
x,y,z
-x,1/2+y,1/2-z
-x,-y,-z
x,1/2-y,1/2+z
loop_
_atom_site_type_symbol
_atom_site_label
_atom_site_fract_x
_atom_site_fract_y
_atom_site_fract_z
Si Si1 0.672240 0.240997 0.563684
Si Si2 0.460921 0.543836 0.118801
Si Si3 0.191023 0.355411 0.552402
Si Si4 0.960392 0.368826 0.243870
Si Si5 0.043163 0.509083 0.634005
Si Si6 0.973961 0.585428 0.002586
Si Si7 0.553461 0.651027 0.512555
Si Si8 0.429289 0.195766 0.437489
O O1 0.372238 0.201159 0.830093
O O2 0.686167 0.278012 0.643012
O O3 0.719656 0.306697 0.453109
O O4 0.903394 0.179771 0.344073
O O5 0.160391 0.533460 0.436548
O O6 0.489965 0.629940 0.075971
O O7 0.500000 0.500000 0.000000
O O8 0.710637 0.517000 0.949085
O O9 0.130507 0.426125 0.555446
O O10 0.354253 0.382798 0.484030
O O11 0.829019 0.438955 0.411903
O O12 0.072464 0.398205 0.052928
O O13 0.187123 0.327912 0.094542
O O14 0.700278 0.613585 0.299778
O O15 0.000000 0.500000 0.000000
O O16 0.229538 0.632930 0.801107
O O17 0.635413 0.736757 0.441925
#
# Coordination Sequence:
#
# PCOD8128007 Si02
#       8
#     4   4   4   4   4   4   4   4
#     4  11  20  41  67  93 130 169 229 273 320 402
#     4  11  24  44  67  98 136 171 219 282 345 399
#     4  11  23  41  71  98 131 173 227 277 335 400
#     4  11  24  44  74  95 135 181 238 269 340 425
#     4  11  24  43  69  98 129 177 227 274 335 412
#     4  12  28  45  67 102 145 180 225 287 349 406
#     4  11  24  44  67  98 139 175 221 278 347 393
#     4  10  23  44  72  95 133 182 228 273 342 413
#
# _framework density 22.511174
#
# number of rings (size 3 to 8) (size 9 to 14) (size 15 to 20)
#    0.000    1.000    3.750    3.750    1.750    2.000 
#    6.750    0.000    0.000    0.000    0.000    0.000 
#    0.000    0.000    0.000    0.000    0.000    0.000 
#
# Total GULP energy -396550.348555 kJ/mol
# GULP energy per Si atom -12392.198392 kJ/mol
# Density = 2.245994 g / cm^3
# Si number density = 22.511174 Si / 1000 Ang^3
#
#
#
# Elastic Constant Matrix: (Units=GPa)
#
#
# Indices 1 2 3 4 5 6 
#
# 1 51.1151 47.3451 12.1984 0.0000 16.0231 0.0000
# 2 47.3451 180.3742 33.3100 0.0000 7.9841 0.0000
# 3 12.1984 33.3100 96.1851 0.0000 7.0505 0.0000
# 4 0.0000 0.0000 0.0000 36.2431 0.0000 6.3492
# 5 16.0231 7.9841 7.0505 0.0000 31.8349 0.0000
# 6 0.0000 0.0000 0.0000 6.3492 0.0000 32.6761
#
#
#
# Elastic Compliance Matrix: (Units=1/GPa)
#
#
# Indices 1 2 3 4 5 6 
#
# 1 0.030755 -0.007410 -0.000341 0.000000 -0.013545 0.000000
# 2 -0.007410 0.007743 -0.001904 0.000000 0.002209 0.000000
# 3 -0.000341 -0.001904 0.011234 0.000000 -0.001839 0.000000
# 4 0.000000 0.000000 0.000000 0.028564 0.000000 -0.005550
# 5 -0.013545 0.002209 -0.001839 0.000000 0.038083 0.000000
# 6 0.000000 0.000000 0.000000 -0.005550 0.000000 0.031682
#
#
# Mechanical properties :
#
#
# Convention : Reuss Voigt Hill
#
# Bulk Modulus (GPa) = 32.87140 57.04238 44.95689
# Shear Modulus (GPa) = 28.16738 35.80552 31.98645
#
# Velocity S-wave (km/s) = 3.54116 3.99252 3.77359
# Velocity P-wave (km/s) = 5.59944 6.82995 6.24507
#
# Compressibility (1/GPa) = 0.03042158
#
# Stress axis : x y z
#
# Youngs Moduli (GPa) = 32.51540 129.15285 89.01601
#
# Poissons Ratio (x) = 0.95702 0.03038
# Poissons Ratio (y) = 0.24094 0.16945
# Poissons Ratio (z) = 0.01110 0.24586
#
# Static dielectric constant tensor:
#      x y z
#    x 3.762430 0.000000 -0.044490 
#    y 0.000000 4.457420 0.000000 
#    z -0.044490 0.000000 4.279610 
# 
# 
# High freq. dielectric constant tensor:
#      x y z
#    x 1.847930 0.000000 0.006520 
#    y 0.000000 1.911170 0.000000 
#    z 0.006520 0.000000 1.900940 
# 
# From -- ./inp_files/47644.got.cif
#   From: 2010.03.12/outbox.cif.g09.slc.cpg/sg14_24_cif.got.tgz:47644.got - 2010.03.31 13:35:05.
