data_PCOD8128680
_publ_section_title
;
Structure prediction by ZEFSAII (Michael W. Deem and Ramdas Pophale) SiO2 
 PCOD8128680
Probable space group: P 21/C
;
_chemical_formula_sum "Si O2"
_cell_formula_units_Z 32
_cell_length_a 6.791607
_cell_length_b 10.229865
_cell_length_c 22.309915
_cell_angle_alpha 90.000000
_cell_angle_beta 71.283101
_cell_angle_gamma 90.000000
_cell_volume 1468.058593
_symmetry_space_group_name_H-M "P 21/C"
_symmetry_group_IT_number 14
_symmetry_cell_setting 'monoclinic'
loop_
_space_group_symop_operation_xyz
x,y,z
-x,1/2+y,1/2-z
-x,-y,-z
x,1/2-y,1/2+z
loop_
_atom_site_type_symbol
_atom_site_label
_atom_site_fract_x
_atom_site_fract_y
_atom_site_fract_z
Si Si1 0.590765 0.907253 0.901757
Si Si2 0.046039 0.259587 0.886763
Si Si3 0.829494 0.464035 0.969091
Si Si4 0.814637 0.051600 0.981449
Si Si5 0.774151 0.974603 0.763506
Si Si6 0.457528 0.113554 0.333918
Si Si7 0.899017 0.247911 0.274912
Si Si8 0.465835 0.382932 0.078360
O O1 0.620305 0.984434 0.836063
O O2 0.600797 0.753172 0.885031
O O3 0.765822 0.954219 0.931273
O O4 0.372055 0.937389 0.953625
O O5 0.292629 0.279464 0.876831
O O6 0.942293 0.403219 0.899803
O O7 0.910247 0.186503 0.949188
O O8 0.999964 0.199994 0.826672
O O9 0.710893 0.587593 0.953631
O O10 0.672707 0.365779 0.018641
O O11 0.000000 0.500000 0.000000
O O12 0.000000 0.000000 0.000000
O O13 0.639284 0.937842 0.718801
O O14 0.946169 0.864357 0.764954
O O15 0.881408 0.116303 0.739122
O O16 0.670313 0.188384 0.302137
O O17 0.499806 0.994814 0.375209
#
# Coordination Sequence:
#
# PCOD8128680 Si02
#       8
#     4   4   4   4   4   4   4   4
#     4  11  26  45  66 103 141 177 232 284 349 417
#     4  11  22  44  67 101 136 179 226 274 349 408
#     4  11  22  39  65 101 138 174 221 275 340 407
#     4  11  26  43  69 100 140 184 222 282 349 420
#     4  11  28  48  72 100 137 190 239 289 351 413
#     4  11  26  42  74 100 136 185 231 289 350 409
#     4  11  26  49  70  98 142 182 237 295 337 417
#     4  11  24  39  66 102 138 175 220 288 340 411
#
# _framework density 21.797495999999999
#
# number of rings (size 3 to 8) (size 9 to 14) (size 15 to 20)
#    0.000    1.000    5.000    0.000    7.000    2.000 
#    0.000    0.000    0.000    0.000    0.000    0.000 
#    0.000    0.000    0.000    0.000    0.000    0.000 
#
# Total GULP energy -396485.750546 kJ/mol
# GULP energy per Si atom -12390.179705 kJ/mol
# Density = 2.174788 g / cm^3
# Si number density = 21.797496 Si / 1000 Ang^3
#
#
#
# Elastic Constant Matrix: (Units=GPa)
#
#
# Indices 1 2 3 4 5 6 
#
# 1 149.2178 45.5056 37.7205 0.0000 6.6780 0.0000
# 2 45.5056 104.2522 23.6916 0.0000 -1.3071 0.0000
# 3 37.7205 23.6916 85.0792 0.0000 -1.1919 0.0000
# 4 0.0000 0.0000 0.0000 34.7447 0.0000 -2.1620
# 5 6.6780 -1.3071 -1.1919 0.0000 31.3563 0.0000
# 6 0.0000 0.0000 0.0000 -2.1620 0.0000 22.7529
#
#
#
# Elastic Compliance Matrix: (Units=1/GPa)
#
#
# Indices 1 2 3 4 5 6 
#
# 1 0.008466 -0.003055 -0.002931 0.000000 -0.002042 0.000000
# 2 -0.003055 0.011346 -0.001790 0.000000 0.001055 0.000000
# 3 -0.002931 -0.001790 0.013567 0.000000 0.001065 0.000000
# 4 0.000000 0.000000 0.000000 0.028953 0.000000 0.002751
# 5 -0.002042 0.001055 0.001065 0.000000 0.032411 0.000000
# 6 0.000000 0.000000 0.000000 0.002751 0.000000 0.044212
#
#
# Mechanical properties :
#
#
# Convention : Reuss Voigt Hill
#
# Bulk Modulus (GPa) = 56.09915 61.37606 58.73761
# Shear Modulus (GPa) = 31.16291 33.21289 32.18790
#
# Velocity S-wave (km/s) = 3.78518 3.90770 3.84693
# Velocity P-wave (km/s) = 6.70044 6.96984 6.83646
#
# Compressibility (1/GPa) = 0.01782558
#
# Stress axis : x y z
#
# Youngs Moduli (GPa) = 118.12638 88.14043 73.70941
#
# Poissons Ratio (x) = 0.26924 0.21606
# Poissons Ratio (y) = 0.36083 0.13196
# Poissons Ratio (z) = 0.34626 0.15779
#
# Static dielectric constant tensor:
#      x y z
#    x 4.105670 0.000000 -0.216580 
#    y 0.000000 4.112270 0.000000 
#    z -0.216580 0.000000 4.167030 
# 
# 
# High freq. dielectric constant tensor:
#      x y z
#    x 1.869480 0.000000 -0.006810 
#    y 0.000000 1.855450 0.000000 
#    z -0.006810 0.000000 1.858930 
# 
# From -- ./inp_files/71309.got.cif
#   From: 2010.03.12/outbox.cif.g09.slc.cpg/sg14_36_cif.got.tgz:71309.got - 2010.03.31 13:35:05.
