data_PCOD8128291
_publ_section_title
;
Structure prediction by ZEFSAII (Michael W. Deem and Ramdas Pophale) SiO2 
 PCOD8128291
Probable space group: P 21/C
;
_chemical_formula_sum "Si O2"
_cell_formula_units_Z 20
_cell_length_a 5.035529
_cell_length_b 18.049238
_cell_length_c 9.728167
_cell_angle_alpha 90.000000
_cell_angle_beta 106.809909
_cell_angle_gamma 90.000000
_cell_volume 846.387442
_symmetry_space_group_name_H-M "P 21/C"
_symmetry_group_IT_number 14
_symmetry_cell_setting 'monoclinic'
loop_
_space_group_symop_operation_xyz
x,y,z
-x,1/2+y,1/2-z
-x,-y,-z
x,1/2-y,1/2+z
loop_
_atom_site_type_symbol
_atom_site_label
_atom_site_fract_x
_atom_site_fract_y
_atom_site_fract_z
Si Si1 0.469155 0.441615 0.311930
Si Si2 0.461124 0.104265 0.240584
Si Si3 0.392740 0.140786 0.525011
Si Si4 0.025305 0.124328 0.948278
Si Si5 0.826197 0.214075 0.427491
O O1 0.407889 0.529167 0.301035
O O2 0.501459 0.410078 0.163691
O O3 0.224469 0.400247 0.354474
O O4 0.768698 0.432246 0.430679
O O5 0.359780 0.090218 0.382652
O O6 0.697218 0.168789 0.277314
O O7 0.197743 0.131412 0.113894
O O8 0.608525 0.207737 0.522080
O O9 0.103584 0.176194 0.524380
O O10 0.881560 0.202462 0.889163
#
# Coordination Sequence:
#
# PCOD8128291 Si02
#       5
#     4   4   4   4   4
#     4  12  26  45  73 112 140 190 234 304 350 433
#     4  10  27  46  76 100 151 186 243 286 367 420
#     4  10  24  44  75  99 145 180 244 286 356 416
#     4  12  27  44  73 104 152 182 245 288 368 414
#     4  10  25  44  73  99 144 191 238 288 353 424
#
# _framework density 23.629837999999999
#
# number of rings (size 3 to 8) (size 9 to 14) (size 15 to 20)
#    1.200    0.000    0.000    4.200    8.400    2.400 
#    0.000    0.000    0.000    0.000    0.000    0.000 
#    0.000    0.000    0.000    0.000    0.000    0.000 
#
# Total GULP energy -247956.836074 kJ/mol
# GULP energy per Si atom -12397.841804 kJ/mol
# Density = 2.357606 g / cm^3
# Si number density = 23.629838 Si / 1000 Ang^3
#
#
#
# Elastic Constant Matrix: (Units=GPa)
#
#
# Indices 1 2 3 4 5 6 
#
# 1 136.9357 35.7135 34.9633 0.0000 2.0182 0.0000
# 2 35.7135 109.4905 50.4659 0.0000 -1.9172 0.0000
# 3 34.9633 50.4659 97.1536 0.0000 7.4839 0.0000
# 4 0.0000 0.0000 0.0000 23.6785 0.0000 2.6710
# 5 2.0182 -1.9172 7.4839 0.0000 25.2113 0.0000
# 6 0.0000 0.0000 0.0000 2.6710 0.0000 37.9815
#
#
#
# Elastic Compliance Matrix: (Units=1/GPa)
#
#
# Indices 1 2 3 4 5 6 
#
# 1 0.008289 -0.001760 -0.002054 0.000000 -0.000188 0.000000
# 2 -0.001760 0.012582 -0.006127 0.000000 0.002917 0.000000
# 3 -0.002054 -0.006127 0.014571 0.000000 -0.004627 0.000000
# 4 0.000000 0.000000 0.000000 0.042570 0.000000 -0.002994
# 5 -0.000188 0.002917 -0.004627 0.000000 0.041275 0.000000
# 6 0.000000 0.000000 0.000000 -0.002994 0.000000 0.026539
#
#
# Mechanical properties :
#
#
# Convention : Reuss Voigt Hill
#
# Bulk Modulus (GPa) = 64.26821 65.09615 64.68218
# Shear Modulus (GPa) = 29.25739 32.20340 30.73039
#
# Velocity S-wave (km/s) = 3.52256 3.69565 3.61014
# Velocity P-wave (km/s) = 6.61827 6.76894 6.69403
#
# Compressibility (1/GPa) = 0.01555979
#
# Stress axis : x y z
#
# Youngs Moduli (GPa) = 120.64141 79.47549 68.62759
#
# Poissons Ratio (x) = 0.13989 0.14098
# Poissons Ratio (y) = 0.21235 0.42049
# Poissons Ratio (z) = 0.24783 0.48696
#
# Static dielectric constant tensor:
#      x y z
#    x 4.202680 0.000000 0.157260 
#    y 0.000000 4.076260 0.000000 
#    z 0.157260 0.000000 4.117630 
# 
# 
# High freq. dielectric constant tensor:
#      x y z
#    x 1.943430 0.000000 0.008750 
#    y 0.000000 1.928420 0.000000 
#    z 0.008750 0.000000 1.936600 
# 
# From -- ./inp_files/5543.got.cif
#   From: 2010.03.12/outbox.cif.g09.slc.cpg/sg14_3_cif.got.tgz:5543.got - 2010.03.31 13:35:05.
