data_PCOD8128607
_publ_section_title
;
Structure prediction by ZEFSAII (Michael W. Deem and Ramdas Pophale) SiO2 
 PCOD8128607
Probable space group: P 21/C
;
_chemical_formula_sum "Si O2"
_cell_formula_units_Z 28
_cell_length_a 9.324321
_cell_length_b 10.782645
_cell_length_c 14.017993
_cell_angle_alpha 90.000000
_cell_angle_beta 121.939972
_cell_angle_gamma 90.000000
_cell_volume 1196.004552
_symmetry_space_group_name_H-M "P 21/C"
_symmetry_group_IT_number 14
_symmetry_cell_setting 'monoclinic'
loop_
_space_group_symop_operation_xyz
x,y,z
-x,1/2+y,1/2-z
-x,-y,-z
x,1/2-y,1/2+z
loop_
_atom_site_type_symbol
_atom_site_label
_atom_site_fract_x
_atom_site_fract_y
_atom_site_fract_z
Si Si1 0.672018 0.633846 0.653403
Si Si2 0.460923 0.849337 0.261623
Si Si3 0.002019 0.261481 0.664706
Si Si4 0.276890 0.642931 0.296195
Si Si5 0.168210 0.042177 0.115334
Si Si6 0.704841 0.744296 0.971312
Si Si7 0.961818 0.364622 0.955533
O O1 0.533139 0.676628 0.681907
O O2 0.662144 0.485168 0.634143
O O3 0.620440 0.708753 0.540253
O O4 0.866005 0.659201 0.751179
O O5 0.434139 0.725637 0.319164
O O6 0.292948 0.932108 0.196400
O O7 0.620868 0.879472 0.387604
O O8 0.843971 0.278601 0.677807
O O9 0.103204 0.391311 0.688991
O O10 0.929540 0.222566 0.535803
O O11 0.202428 0.623380 0.165466
O O12 0.279181 0.136286 0.092875
O O13 0.000000 0.000000 0.000000
O O14 0.892923 0.695270 0.060342
O O15 0.000000 0.500000 0.000000
#
# Coordination Sequence:
#
# PCOD8128607 Si02
#       7
#     4   4   4   4   4   4   4
#     4  12  25  46  71 105 149 191 244 308 371 443
#     4  12  26  45  71 106 145 187 243 306 375 433
#     4  11  24  43  71 104 139 189 244 303 364 442
#     4  12  26  43  75 102 140 196 249 300 373 450
#     4  11  24  45  74 102 147 193 249 303 368 446
#     4  11  24  45  71 106 146 193 241 307 374 447
#     4  11  21  42  70 104 142 186 241 306 364 432
#
# _framework density 23.411279
#
# number of rings (size 3 to 8) (size 9 to 14) (size 15 to 20)
#    0.000    0.571    5.714    3.429    2.000    4.571 
#    0.000    0.714    0.000    0.000    0.000    0.000 
#    0.000    0.000    0.000    0.000    0.000    0.000 
#
# Total GULP energy -346870.442797 kJ/mol
# GULP energy per Si atom -12388.230100 kJ/mol
# Density = 2.335799 g / cm^3
# Si number density = 23.411279 Si / 1000 Ang^3
#
#
#
# Elastic Constant Matrix: (Units=GPa)
#
#
# Indices 1 2 3 4 5 6 
#
# 1 141.9590 43.1251 10.7021 0.0000 -22.8359 0.0000
# 2 43.1251 93.3837 13.1518 0.0000 -7.5759 0.0000
# 3 10.7021 13.1518 73.3882 0.0000 -1.3174 0.0000
# 4 0.0000 0.0000 0.0000 40.1178 0.0000 7.4475
# 5 -22.8359 -7.5759 -1.3174 0.0000 36.4221 0.0000
# 6 0.0000 0.0000 0.0000 7.4475 0.0000 41.2730
#
#
#
# Elastic Compliance Matrix: (Units=1/GPa)
#
#
# Indices 1 2 3 4 5 6 
#
# 1 0.008983 -0.003676 -0.000564 0.000000 0.004847 0.000000
# 2 -0.003676 0.012671 -0.001730 0.000000 0.000268 0.000000
# 3 -0.000564 -0.001730 0.014015 0.000000 -0.000207 0.000000
# 4 0.000000 0.000000 0.000000 0.025791 0.000000 -0.004654
# 5 0.004847 0.000268 -0.000207 0.000000 0.030543 0.000000
# 6 0.000000 0.000000 0.000000 -0.004654 0.000000 0.025069
#
#
# Mechanical properties :
#
#
# Convention : Reuss Voigt Hill
#
# Bulk Modulus (GPa) = 42.14188 49.18766 45.66477
# Shear Modulus (GPa) = 36.51721 39.67940 38.09830
#
# Velocity S-wave (km/s) = 3.95373 4.12136 4.03842
# Velocity P-wave (km/s) = 6.23558 6.61085 6.42595
#
# Compressibility (1/GPa) = 0.02372937
#
# Stress axis : x y z
#
# Youngs Moduli (GPa) = 111.31862 78.91774 71.35329
#
# Poissons Ratio (x) = 0.29008 0.04026
# Poissons Ratio (y) = 0.40918 0.12344
# Poissons Ratio (z) = 0.06281 0.13653
#
# Static dielectric constant tensor:
#      x y z
#    x 4.540720 0.000000 0.274010 
#    y 0.000000 4.341490 0.000000 
#    z 0.274010 0.000000 4.298050 
# 
# 
# High freq. dielectric constant tensor:
#      x y z
#    x 1.939740 0.000000 0.010360 
#    y 0.000000 1.917550 0.000000 
#    z 0.010360 0.000000 1.937630 
# 
# From -- ./inp_files/40410.got.cif
#   From: 2010.03.12/outbox.cif.g09.slc.cpg/sg14_21_cif.got.tgz:40410.got - 2010.03.31 13:35:05.
