data_PCOD8128712
_publ_section_title
;
Structure prediction by ZEFSAII (Michael W. Deem and Ramdas Pophale) SiO2 
 PCOD8128712
Probable space group: P 21/C
;
_chemical_formula_sum "Si O2"
_cell_formula_units_Z 20
_cell_length_a 6.790644
_cell_length_b 7.099775
_cell_length_c 22.733793
_cell_angle_alpha 90.000000
_cell_angle_beta 54.524977
_cell_angle_gamma 90.000000
_cell_volume 892.582696
_symmetry_space_group_name_H-M "P 21/C"
_symmetry_group_IT_number 14
_symmetry_cell_setting 'monoclinic'
loop_
_space_group_symop_operation_xyz
x,y,z
-x,1/2+y,1/2-z
-x,-y,-z
x,1/2-y,1/2+z
loop_
_atom_site_type_symbol
_atom_site_label
_atom_site_fract_x
_atom_site_fract_y
_atom_site_fract_z
Si Si1 0.506428 0.714632 0.668263
Si Si2 0.745928 0.092374 0.474252
Si Si3 0.788308 0.103808 0.184590
Si Si4 0.305174 0.944561 0.084486
Si Si5 0.224937 0.591833 0.903135
O O1 0.280431 0.822780 0.738245
O O2 0.652864 0.588860 0.690218
O O3 0.424389 0.584469 0.627887
O O4 0.676148 0.879798 0.615217
O O5 0.817239 0.249121 0.414350
O O6 0.718310 0.186205 0.543686
O O7 0.500000 0.000000 0.500000
O O8 0.938138 0.924583 0.443207
O O9 0.677224 0.265800 0.162094
O O10 0.080231 0.088937 0.129467
O O11 0.500000 0.000000 0.000000
#
# Coordination Sequence:
#
# PCOD8128712 Si02
#       5
#     4   4   4   4   4
#     4  12  26  48  72 103 146 196 240 304 372 440
#     4  11  22  41  69 104 141 185 235 298 360 426
#     4  12  27  47  72 105 146 189 248 300 371 443
#     4  12  27  46  74 112 146 188 251 306 363 440
#     4  11  24  43  73  98 143 188 238 295 362 435
#
# _framework density 22.406887999999999
#
# number of rings (size 3 to 8) (size 9 to 14) (size 15 to 20)
#    0.000    0.400    6.000    2.400    2.800    4.800 
#    3.600    0.000    0.000    0.000    0.000    0.000 
#    0.000    0.000    0.000    0.000    0.000    0.000 
#
# Total GULP energy -247924.791285 kJ/mol
# GULP energy per Si atom -12396.239564 kJ/mol
# Density = 2.235589 g / cm^3
# Si number density = 22.406888 Si / 1000 Ang^3
#
#
#
# Elastic Constant Matrix: (Units=GPa)
#
#
# Indices 1 2 3 4 5 6 
#
# 1 116.2584 26.0694 50.7069 0.0000 -6.0007 0.0000
# 2 26.0694 70.8113 25.0732 0.0000 1.6623 0.0000
# 3 50.7069 25.0732 131.7311 0.0000 -5.2506 0.0000
# 4 0.0000 0.0000 0.0000 49.0416 0.0000 5.5718
# 5 -6.0007 1.6623 -5.2506 0.0000 35.9316 0.0000
# 6 0.0000 0.0000 0.0000 5.5718 0.0000 25.8363
#
#
#
# Elastic Compliance Matrix: (Units=1/GPa)
#
#
# Indices 1 2 3 4 5 6 
#
# 1 0.010863 -0.002758 -0.003600 0.000000 0.001416 0.000000
# 2 -0.002758 0.015888 -0.002022 0.000000 -0.001491 0.000000
# 3 -0.003600 -0.002022 0.009396 0.000000 0.000865 0.000000
# 4 0.000000 0.000000 0.000000 0.020903 0.000000 -0.004508
# 5 0.001416 -0.001491 0.000865 0.000000 0.028263 0.000000
# 6 0.000000 0.000000 0.000000 -0.004508 0.000000 0.039677
#
#
# Mechanical properties :
#
#
# Convention : Reuss Voigt Hill
#
# Bulk Modulus (GPa) = 51.57853 58.05552 54.81703
# Shear Modulus (GPa) = 33.73512 36.62534 35.18023
#
# Velocity S-wave (km/s) = 3.88438 4.04735 3.96670
# Velocity P-wave (km/s) = 6.57167 6.91428 6.74515
#
# Compressibility (1/GPa) = 0.01938791
#
# Stress axis : x y z
#
# Youngs Moduli (GPa) = 92.05339 62.93947 106.42372
#
# Poissons Ratio (x) = 0.17357 0.38315
# Poissons Ratio (y) = 0.25386 0.21519
# Poissons Ratio (z) = 0.33141 0.12726
#
# Static dielectric constant tensor:
#      x y z
#    x 3.976410 0.000000 0.146430 
#    y 0.000000 3.301050 0.000000 
#    z 0.146430 0.000000 4.603270 
# 
# 
# High freq. dielectric constant tensor:
#      x y z
#    x 1.884480 0.000000 0.003050 
#    y 0.000000 1.886110 0.000000 
#    z 0.003050 0.000000 1.888750 
# 
# From -- ./inp_files/62980.got.cif
#   From: 2010.03.12/outbox.cif.g09.slc.cpg/sg14_32_cif.got.tgz:62980.got - 2010.03.31 13:35:05.
