data_PCOD8128444
_publ_section_title
;
Structure prediction by ZEFSAII (Michael W. Deem and Ramdas Pophale) SiO2 
 PCOD8128444
Probable space group: P 21/C
;
_chemical_formula_sum "Si O2"
_cell_formula_units_Z 32
_cell_length_a 17.536704
_cell_length_b 16.645029
_cell_length_c 11.161356
_cell_angle_alpha 90.000000
_cell_angle_beta 151.467989
_cell_angle_gamma 90.000000
_cell_volume 1556.176949
_symmetry_space_group_name_H-M "P 21/C"
_symmetry_group_IT_number 14
_symmetry_cell_setting 'monoclinic'
loop_
_space_group_symop_operation_xyz
x,y,z
-x,1/2+y,1/2-z
-x,-y,-z
x,1/2-y,1/2+z
loop_
_atom_site_type_symbol
_atom_site_label
_atom_site_fract_x
_atom_site_fract_y
_atom_site_fract_z
Si Si1 0.818915 0.416286 0.817472
Si Si2 0.597927 0.189815 0.331061
Si Si3 0.893933 0.949906 0.125327
Si Si4 0.056776 0.157799 0.470695
Si Si5 0.650210 0.245076 0.153855
Si Si6 0.329922 0.069316 0.969301
Si Si7 0.093356 0.617531 0.468505
Si Si8 0.030608 0.665847 0.630205
O O1 0.753438 0.335968 0.786606
O O2 0.675076 0.478000 0.588015
O O3 0.913990 0.397227 0.826723
O O4 0.942458 0.462908 0.074505
O O5 0.546347 0.235118 0.134195
O O6 0.558518 0.241911 0.398589
O O7 0.785352 0.172848 0.576222
O O8 0.508952 0.103814 0.218371
O O9 0.743964 0.927466 0.000279
O O10 0.919984 0.873360 0.077281
O O11 0.851442 0.028827 0.991738
O O12 0.230342 0.127674 0.745611
O O13 0.037838 0.154998 0.301774
O O14 0.037532 0.246939 0.494940
O O15 0.755723 0.323789 0.318521
O O16 0.013437 0.611771 0.488124
#
# Coordination Sequence:
#
# PCOD8128444 Si02
#       8
#     4   4   4   4   4   4   4   4
#     4  11  18  40  67  92 117 172 223 253 313 391
#     4  11  24  43  65  96 129 173 218 267 329 393
#     4  11  21  38  64  99 130 159 217 270 320 379
#     4  11  19  39  66  94 118 170 222 260 314 390
#     4  11  22  42  71  91 126 180 216 254 323 408
#     4  11  25  38  65  97 129 161 216 284 316 373
#     4  11  19  37  66  96 124 164 219 265 312 386
#     4  11  23  38  66  93 130 175 211 261 329 391
#
# _framework density 20.563215
#
# number of rings (size 3 to 8) (size 9 to 14) (size 15 to 20)
#    0.000    1.000    7.500    1.125    1.750    1.500 
#    0.000    2.500    5.500    0.000    0.000    0.000 
#    0.000    0.000    0.000    0.000    0.000    0.000 
#
# Total GULP energy -396684.111317 kJ/mol
# GULP energy per Si atom -12396.378479 kJ/mol
# Density = 2.051641 g / cm^3
# Si number density = 20.563215 Si / 1000 Ang^3
#
#
#
# Elastic Constant Matrix: (Units=GPa)
#
#
# Indices 1 2 3 4 5 6 
#
# 1 100.5635 24.8360 19.8258 0.0000 -31.2649 0.0000
# 2 24.8360 116.2526 28.9732 0.0000 3.3509 0.0000
# 3 19.8258 28.9732 31.3527 0.0000 -8.7853 0.0000
# 4 0.0000 0.0000 0.0000 34.9870 0.0000 -2.7769
# 5 -31.2649 3.3509 -8.7853 0.0000 27.7031 0.0000
# 6 0.0000 0.0000 0.0000 -2.7769 0.0000 26.5039
#
#
#
# Elastic Compliance Matrix: (Units=1/GPa)
#
#
# Indices 1 2 3 4 5 6 
#
# 1 0.017268 -0.003729 -0.002070 0.000000 0.019283 0.000000
# 2 -0.003729 0.012672 -0.012030 0.000000 -0.009556 0.000000
# 3 -0.002070 -0.012030 0.048373 0.000000 0.014459 0.000000
# 4 0.000000 0.000000 0.000000 0.028822 0.000000 0.003020
# 5 0.019283 -0.009556 0.014459 0.000000 0.063600 0.000000
# 6 0.000000 0.000000 0.000000 0.003020 0.000000 0.038047
#
#
# Mechanical properties :
#
#
# Convention : Reuss Voigt Hill
#
# Bulk Modulus (GPa) = 23.44428 43.93765 33.69096
# Shear Modulus (GPa) = 19.33045 29.47439 24.40242
#
# Velocity S-wave (km/s) = 3.06935 3.79007 3.44859
# Velocity P-wave (km/s) = 4.89766 6.36917 5.68126
#
# Compressibility (1/GPa) = 0.04265434
#
# Stress axis : x y z
#
# Youngs Moduli (GPa) = 57.91075 78.91200 20.67261
#
# Poissons Ratio (x) = 0.29426 0.04280
# Poissons Ratio (y) = 0.21595 0.24870
# Poissons Ratio (z) = 0.11989 0.94934
#
# Static dielectric constant tensor:
#      x y z
#    x 4.060920 0.000000 -0.439480 
#    y 0.000000 3.707700 0.000000 
#    z -0.439480 0.000000 3.452040 
# 
# 
# High freq. dielectric constant tensor:
#      x y z
#    x 1.813310 0.000000 -0.031800 
#    y 0.000000 1.813750 0.000000 
#    z -0.031800 0.000000 1.763400 
# 
# From -- ./inp_files/30034.got.cif
#   From: 2010.03.12/outbox.cif.g09.slc.cpg/sg14_16_cif.got.tgz:30034.got - 2010.03.31 13:35:05.
