data_PCOD8128509
_publ_section_title
;
Structure prediction by ZEFSAII (Michael W. Deem and Ramdas Pophale) SiO2 
 PCOD8128509
Probable space group: P 21/C
;
_chemical_formula_sum "Si O2"
_cell_formula_units_Z 32
_cell_length_a 17.118642
_cell_length_b 11.172329
_cell_length_c 14.198607
_cell_angle_alpha 90.000000
_cell_angle_beta 146.997399
_cell_angle_gamma 90.000000
_cell_volume 1479.101190
_symmetry_space_group_name_H-M "P 21/C"
_symmetry_group_IT_number 14
_symmetry_cell_setting 'monoclinic'
loop_
_space_group_symop_operation_xyz
x,y,z
-x,1/2+y,1/2-z
-x,-y,-z
x,1/2-y,1/2+z
loop_
_atom_site_type_symbol
_atom_site_label
_atom_site_fract_x
_atom_site_fract_y
_atom_site_fract_z
Si Si1 0.493593 0.125968 0.845760
Si Si2 0.732079 0.552216 0.592971
Si Si3 0.021192 0.897993 0.705916
Si Si4 0.354534 0.742103 0.334578
Si Si5 0.394317 0.196257 0.547138
Si Si6 0.231442 0.005302 0.661340
Si Si7 0.931298 0.169550 0.881236
Si Si8 0.891763 0.911719 0.770920
O O1 0.482054 0.179879 0.731032
O O2 0.338003 0.108734 0.733471
O O3 0.588673 0.214962 0.003584
O O4 0.570804 0.997487 0.923504
O O5 0.835090 0.475933 0.628179
O O6 0.713497 0.690954 0.551276
O O7 0.805965 0.533966 0.769060
O O8 0.049735 0.783872 0.667424
O O9 0.910149 0.989081 0.544547
O O10 0.962146 0.856276 0.747390
O O11 0.485984 0.802240 0.412557
O O12 0.303791 0.624867 0.226089
O O13 0.218429 0.828065 0.212019
O O14 0.282082 0.089944 0.412006
O O15 0.937984 0.050119 0.825613
O O16 0.057028 0.165173 0.086754
#
# Coordination Sequence:
#
# PCOD8128509 Si02
#       8
#     4   4   4   4   4   4   4   4
#     4  11  22  42  62 104 138 174 227 292 338 408
#     4  11  23  42  67 105 134 171 244 288 343 409
#     4  12  25  44  76 103 137 188 234 293 353 409
#     4  11  24  43  73  97 137 182 231 291 341 416
#     4  12  25  43  71 101 139 186 229 288 355 416
#     4  11  20  42  68 104 132 175 232 297 336 401
#     4  11  27  50  67 101 148 184 231 291 353 423
#     4  11  29  47  67 105 145 185 233 285 357 430
#
# _framework density 21.63476
#
# number of rings (size 3 to 8) (size 9 to 14) (size 15 to 20)
#    0.000    0.750    6.250    1.875    5.250    2.500 
#    2.250    0.000    0.000    0.000    0.000    0.000 
#    0.000    0.000    0.000    0.000    0.000    0.000 
#
# Total GULP energy -396849.812373 kJ/mol
# GULP energy per Si atom -12401.556637 kJ/mol
# Density = 2.158552 g / cm^3
# Si number density = 21.634760 Si / 1000 Ang^3
#
#
#
# Elastic Constant Matrix: (Units=GPa)
#
#
# Indices 1 2 3 4 5 6 
#
# 1 105.7483 30.9992 45.4952 0.0000 2.0869 0.0000
# 2 30.9992 50.0406 28.6163 0.0000 -6.0527 0.0000
# 3 45.4952 28.6163 101.8365 0.0000 -5.9701 0.0000
# 4 0.0000 0.0000 0.0000 25.1456 0.0000 10.3858
# 5 2.0869 -6.0527 -5.9701 0.0000 33.6861 0.0000
# 6 0.0000 0.0000 0.0000 10.3858 0.0000 29.3338
#
#
#
# Elastic Compliance Matrix: (Units=1/GPa)
#
#
# Indices 1 2 3 4 5 6 
#
# 1 0.013127 -0.005970 -0.004343 0.000000 -0.002656 0.000000
# 2 -0.005970 0.026855 -0.004623 0.000000 0.004376 0.000000
# 3 -0.004343 -0.004623 0.013163 0.000000 0.001771 0.000000
# 4 0.000000 0.000000 0.000000 0.046580 0.000000 -0.016492
# 5 -0.002656 0.004376 0.001771 0.000000 0.030951 0.000000
# 6 0.000000 0.000000 0.000000 -0.016492 0.000000 0.039930
#
#
# Mechanical properties :
#
#
# Convention : Reuss Voigt Hill
#
# Bulk Modulus (GPa) = 42.96622 51.98296 47.47459
# Shear Modulus (GPa) = 24.01157 27.80075 25.90616
#
# Velocity S-wave (km/s) = 3.33507 3.58858 3.46415
# Velocity P-wave (km/s) = 5.89349 6.42264 6.16374
#
# Compressibility (1/GPa) = 0.02327410
#
# Stress axis : x y z
#
# Youngs Moduli (GPa) = 76.17817 37.23726 75.97303
#
# Poissons Ratio (x) = 0.22230 0.32992
# Poissons Ratio (y) = 0.45477 0.35120
# Poissons Ratio (z) = 0.33082 0.17214
#
# Static dielectric constant tensor:
#      x y z
#    x 3.896770 0.000000 0.108890 
#    y 0.000000 3.749450 0.000000 
#    z 0.108890 0.000000 4.027290 
# 
# 
# High freq. dielectric constant tensor:
#      x y z
#    x 1.850300 0.000000 0.009420 
#    y 0.000000 1.833890 0.000000 
#    z 0.009420 0.000000 1.862560 
# 
# From -- ./inp_files/48929.got.cif
#   From: 2010.03.12/outbox.cif.g09.slc.cpg/sg14_25_cif.got.tgz:48929.got - 2010.03.31 13:35:05.
