data_PCOD8128688
_publ_section_title
;
Structure prediction by ZEFSAII (Michael W. Deem and Ramdas Pophale) SiO2 
 PCOD8128688
Probable space group: P 21/C
;
_chemical_formula_sum "Si O2"
_cell_formula_units_Z 20
_cell_length_a 26.005302
_cell_length_b 8.314975
_cell_length_c 20.484601
_cell_angle_alpha 90.000000
_cell_angle_beta 168.851772
_cell_angle_gamma 90.000000
_cell_volume 856.425901
_symmetry_space_group_name_H-M "P 21/C"
_symmetry_group_IT_number 14
_symmetry_cell_setting 'monoclinic'
loop_
_space_group_symop_operation_xyz
x,y,z
-x,1/2+y,1/2-z
-x,-y,-z
x,1/2-y,1/2+z
loop_
_atom_site_type_symbol
_atom_site_label
_atom_site_fract_x
_atom_site_fract_y
_atom_site_fract_z
Si Si1 0.837419 0.408537 0.241476
Si Si2 0.043017 0.454467 0.743299
Si Si3 0.350480 0.218787 0.207554
Si Si4 0.870349 0.579514 0.901037
Si Si5 0.333853 0.815797 0.770187
O O1 0.000000 0.500000 0.500000
O O2 0.820331 0.520585 0.156758
O O3 0.978347 0.243399 0.394514
O O4 0.538877 0.377155 0.892550
O O5 0.917690 0.617016 0.615505
O O6 0.806486 0.327113 0.441567
O O7 0.264681 0.388716 0.069068
O O8 0.510213 0.248361 0.472578
O O9 0.879385 0.452983 0.973107
O O10 0.556341 0.613922 0.497873
O O11 0.000000 0.500000 0.000000
#
# Coordination Sequence:
#
# PCOD8128688 Si02
#       5
#     4   4   4   4   4
#     4  12  24  48  75 105 143 190 243 302 367 430
#     4  12  28  46  71 105 145 187 243 301 364 441
#     4  12  27  46  74 105 144 192 241 297 370 435
#     4  11  22  39  75 102 134 183 242 289 360 428
#     4  11  24  46  73 101 142 190 237 298 364 427
#
# _framework density 23.352867
#
# number of rings (size 3 to 8) (size 9 to 14) (size 15 to 20)
#    0.000    0.400    6.000    1.800    5.600    3.200 
#    3.600    0.000    0.000    0.000    0.000    0.000 
#    0.000    0.000    0.000    0.000    0.000    0.000 
#
# Total GULP energy -248050.414257 kJ/mol
# GULP energy per Si atom -12402.520713 kJ/mol
# Density = 2.329971 g / cm^3
# Si number density = 23.352867 Si / 1000 Ang^3
#
#
#
# Elastic Constant Matrix: (Units=GPa)
#
#
# Indices 1 2 3 4 5 6 
#
# 1 107.7167 30.2118 47.8853 0.0000 24.5831 0.0000
# 2 30.2118 94.9130 17.9765 0.0000 -0.9674 0.0000
# 3 47.8853 17.9765 77.3391 0.0000 14.5657 0.0000
# 4 0.0000 0.0000 0.0000 61.3877 0.0000 5.6144
# 5 24.5831 -0.9674 14.5657 0.0000 49.9039 0.0000
# 6 0.0000 0.0000 0.0000 5.6144 0.0000 44.5283
#
#
#
# Elastic Compliance Matrix: (Units=1/GPa)
#
#
# Indices 1 2 3 4 5 6 
#
# 1 0.014648 -0.003327 -0.007328 0.000000 -0.005141 0.000000
# 2 -0.003327 0.011826 -0.001101 0.000000 0.002190 0.000000
# 3 -0.007328 -0.001101 0.018039 0.000000 -0.001677 0.000000
# 4 0.000000 0.000000 0.000000 0.016480 0.000000 -0.002078
# 5 -0.005141 0.002190 -0.001677 0.000000 0.023103 0.000000
# 6 0.000000 0.000000 0.000000 -0.002078 0.000000 0.022720
#
#
# Mechanical properties :
#
#
# Convention : Reuss Voigt Hill
#
# Bulk Modulus (GPa) = 47.61763 52.45732 50.03747
# Shear Modulus (GPa) = 36.40954 43.42365 39.91660
#
# Velocity S-wave (km/s) = 3.95283 4.31682 4.13883
# Velocity P-wave (km/s) = 6.42401 6.88173 6.65681
#
# Compressibility (1/GPa) = 0.02100063
#
# Stress axis : x y z
#
# Youngs Moduli (GPa) = 68.27070 84.56028 55.43610
#
# Poissons Ratio (x) = 0.28134 0.40621
# Poissons Ratio (y) = 0.22714 0.06105
# Poissons Ratio (z) = 0.50026 0.09312
#
# Static dielectric constant tensor:
#      x y z
#    x 4.332200 0.000000 0.312260 
#    y 0.000000 4.656480 0.000000 
#    z 0.312260 0.000000 4.197180 
# 
# 
# High freq. dielectric constant tensor:
#      x y z
#    x 1.928940 0.000000 0.019740 
#    y 0.000000 1.945300 0.000000 
#    z 0.019740 0.000000 1.913160 
# 
# From -- ./inp_files/75293.got.cif
#   From: 2010.03.12/outbox.cif.g09.slc.cpg/sg14_38_cif.got.tgz:75293.got - 2010.03.31 13:35:05.
