data_PCOD8128030
_publ_section_title
;
Structure prediction by ZEFSAII (Michael W. Deem and Ramdas Pophale) SiO2 
 PCOD8128030
Probable space group: P 21/C
;
_chemical_formula_sum "Si O2"
_cell_formula_units_Z 32
_cell_length_a 5.603274
_cell_length_b 18.953778
_cell_length_c 13.768049
_cell_angle_alpha 90.000000
_cell_angle_beta 76.250040
_cell_angle_gamma 90.000000
_cell_volume 1420.307321
_symmetry_space_group_name_H-M "P 21/C"
_symmetry_group_IT_number 14
_symmetry_cell_setting 'monoclinic'
loop_
_space_group_symop_operation_xyz
x,y,z
-x,1/2+y,1/2-z
-x,-y,-z
x,1/2-y,1/2+z
loop_
_atom_site_type_symbol
_atom_site_label
_atom_site_fract_x
_atom_site_fract_y
_atom_site_fract_z
Si Si1 0.074014 0.555530 0.413459
Si Si2 0.906319 0.051466 0.649831
Si Si3 0.725424 0.449363 0.956043
Si Si4 0.818862 0.289792 0.569571
Si Si5 0.356552 0.450097 0.703346
Si Si6 0.461157 0.803095 0.541231
Si Si7 0.149460 0.191418 0.648829
Si Si8 0.613507 0.703627 0.236140
O O1 0.059361 0.634124 0.458995
O O2 0.361210 0.544399 0.358158
O O3 0.000000 0.500000 0.500000
O O4 0.860747 0.545093 0.354619
O O5 0.868572 0.069323 0.540960
O O6 0.992022 0.123130 0.695776
O O7 0.666781 0.018397 0.724070
O O8 0.110837 0.990378 0.638407
O O9 0.675730 0.374151 0.909766
O O10 0.500000 0.500000 0.000000
O O11 0.697830 0.263340 0.480680
O O12 0.637480 0.289119 0.679555
O O13 0.031172 0.235785 0.573729
O O14 0.298767 0.377086 0.764639
O O15 0.605965 0.832638 0.432037
O O16 0.596509 0.775031 0.624589
O O17 0.191492 0.240636 0.738465
#
# Coordination Sequence:
#
# PCOD8128030 Si02
#       8
#     4   4   4   4   4   4   4   4
#     4  11  25  51  76 101 141 190 247 306 359 420
#     4  11  25  39  65 105 139 181 227 286 356 434
#     4  11  22  38  64  96 145 180 223 278 348 436
#     4  10  23  45  68  95 139 183 236 300 354 422
#     4  11  25  45  76 105 141 190 240 295 364 433
#     4  11  23  41  71  98 134 195 236 289 364 432
#     4  11  22  45  64  98 142 177 230 301 351 423
#     4  10  24  43  69  98 137 184 243 291 357 430
#
# _framework density 22.530334
#
# number of rings (size 3 to 8) (size 9 to 14) (size 15 to 20)
#    0.000    1.250    3.750    1.125    7.000    1.000 
#    4.500    0.000    0.000    0.000    0.000    0.000 
#    0.000    0.000    0.000    0.000    0.000    0.000 
#
# Total GULP energy -396596.290663 kJ/mol
# GULP energy per Si atom -12393.634083 kJ/mol
# Density = 2.247905 g / cm^3
# Si number density = 22.530334 Si / 1000 Ang^3
#
#
#
# Elastic Constant Matrix: (Units=GPa)
#
#
# Indices 1 2 3 4 5 6 
#
# 1 98.2078 34.5099 28.1123 0.0000 11.1925 0.0000
# 2 34.5099 155.7668 49.6868 0.0000 -0.2063 0.0000
# 3 28.1123 49.6868 98.2458 0.0000 28.6735 0.0000
# 4 0.0000 0.0000 0.0000 34.6517 0.0000 1.2105
# 5 11.1925 -0.2063 28.6735 0.0000 32.5839 0.0000
# 6 0.0000 0.0000 0.0000 1.2105 0.0000 36.5945
#
#
#
# Elastic Compliance Matrix: (Units=1/GPa)
#
#
# Indices 1 2 3 4 5 6 
#
# 1 0.011658 -0.002118 -0.001470 0.000000 -0.002725 0.000000
# 2 -0.002118 0.008601 -0.005345 0.000000 0.005485 0.000000
# 3 -0.001470 -0.005345 0.017714 0.000000 -0.015118 0.000000
# 4 0.000000 0.000000 0.000000 0.028892 0.000000 -0.000956
# 5 -0.002725 0.005485 -0.015118 0.000000 0.044964 0.000000
# 6 0.000000 0.000000 0.000000 -0.000956 0.000000 0.027358
#
#
# Mechanical properties :
#
#
# Convention : Reuss Voigt Hill
#
# Bulk Modulus (GPa) = 49.72916 64.09316 56.91116
# Shear Modulus (GPa) = 30.53343 36.76011 33.64677
#
# Velocity S-wave (km/s) = 3.68532 4.04367 3.86864
# Velocity P-wave (km/s) = 6.34261 7.09302 6.72829
#
# Compressibility (1/GPa) = 0.02010893
#
# Stress axis : x y z
#
# Youngs Moduli (GPa) = 85.77939 116.26264 56.45132
#
# Poissons Ratio (x) = 0.24620 0.08297
# Poissons Ratio (y) = 0.18164 0.30173
# Poissons Ratio (z) = 0.12607 0.62142
#
# Static dielectric constant tensor:
#      x y z
#    x 4.286510 0.000000 0.131990 
#    y 0.000000 4.227150 0.000000 
#    z 0.131990 0.000000 3.847570 
# 
# 
# High freq. dielectric constant tensor:
#      x y z
#    x 1.894850 0.000000 0.010910 
#    y 0.000000 1.901500 0.000000 
#    z 0.010910 0.000000 1.868980 
# 
# From -- ./inp_files/37704.got.cif
#   From: 2010.03.12/outbox.cif.g09.slc.cpg/sg14_19_cif.got.tgz:37704.got - 2010.03.31 13:35:05.
