data_PCOD8128749
_publ_section_title
;
Structure prediction by ZEFSAII (Michael W. Deem and Ramdas Pophale) SiO2 
 PCOD8128749
Probable space group: P 21/C
;
_chemical_formula_sum "Si O2"
_cell_formula_units_Z 28
_cell_length_a 9.133028
_cell_length_b 14.413446
_cell_length_c 8.196593
_cell_angle_alpha 90.000000
_cell_angle_beta 87.414361
_cell_angle_gamma 90.000000
_cell_volume 1077.887929
_symmetry_space_group_name_H-M "P 21/C"
_symmetry_group_IT_number 14
_symmetry_cell_setting 'monoclinic'
loop_
_space_group_symop_operation_xyz
x,y,z
-x,1/2+y,1/2-z
-x,-y,-z
x,1/2-y,1/2+z
loop_
_atom_site_type_symbol
_atom_site_label
_atom_site_fract_x
_atom_site_fract_y
_atom_site_fract_z
Si Si1 0.192883 0.491479 0.236540
Si Si2 0.304104 0.675871 0.642279
Si Si3 0.122755 0.682940 0.341292
Si Si4 0.244658 0.073189 0.396471
Si Si5 0.410466 0.233770 0.479659
Si Si6 0.824997 0.880898 0.940980
Si Si7 0.496098 0.557675 0.830651
O O1 0.128991 0.595116 0.218166
O O2 0.129904 0.439088 0.399769
O O3 0.368548 0.494944 0.259042
O O4 0.146846 0.441878 0.065021
O O5 0.234086 0.651292 0.474853
O O6 0.177166 0.721555 0.759982
O O7 0.437462 0.748377 0.618869
O O8 0.364547 0.579309 0.709600
O O9 0.955520 0.694869 0.411153
O O10 0.292800 0.180942 0.370386
O O11 0.174663 0.051351 0.222312
O O12 0.396317 0.015856 0.444318
O O13 0.332507 0.329696 0.537719
O O14 0.448734 0.160744 0.620592
#
# Coordination Sequence:
#
# PCOD8128749 Si02
#       7
#     4   4   4   4   4   4   4
#     4  11  25  48  73 109 149 193 248 310 366 445
#     4  12  24  44  74 105 148 193 251 310 370 434
#     4  12  29  46  72 111 155 193 249 307 375 453
#     4  11  26  44  77 108 148 190 251 308 375 434
#     4  11  23  45  73 111 144 192 254 309 365 448
#     4  12  28  48  74 111 150 203 246 302 382 449
#     4  11  22  43  77 111 141 194 252 313 368 434
#
# _framework density 25.976724000000001
#
# number of rings (size 3 to 8) (size 9 to 14) (size 15 to 20)
#    0.000    0.571    2.857    5.571    6.000    1.714 
#    0.000    0.000    0.000    0.000    0.000    0.000 
#    0.000    0.000    0.000    0.000    0.000    0.000 
#
# Total GULP energy -346947.518296 kJ/mol
# GULP energy per Si atom -12390.982796 kJ/mol
# Density = 2.591760 g / cm^3
# Si number density = 25.976724 Si / 1000 Ang^3
#
#
#
# Elastic Constant Matrix: (Units=GPa)
#
#
# Indices 1 2 3 4 5 6 
#
# 1 69.5847 9.2841 17.3831 0.0000 -24.0889 0.0000
# 2 9.2841 42.5381 4.7000 0.0000 -1.3025 0.0000
# 3 17.3831 4.7000 129.6071 0.0000 0.0704 0.0000
# 4 0.0000 0.0000 0.0000 20.2457 0.0000 -7.2399
# 5 -24.0889 -1.3025 0.0704 0.0000 35.0011 0.0000
# 6 0.0000 0.0000 0.0000 -7.2399 0.0000 40.0319
#
#
#
# Elastic Compliance Matrix: (Units=1/GPa)
#
#
# Indices 1 2 3 4 5 6 
#
# 1 0.020309 -0.003722 -0.002596 0.000000 0.013844 0.000000
# 2 -0.003722 0.024312 -0.000382 0.000000 -0.001656 0.000000
# 3 -0.002596 -0.000382 0.008079 0.000000 -0.001817 0.000000
# 4 0.000000 0.000000 0.000000 0.052809 0.000000 0.009551
# 5 0.013844 -0.001656 -0.001817 0.000000 0.038040 0.000000
# 6 0.000000 0.000000 0.000000 0.009551 0.000000 0.026707
#
#
# Mechanical properties :
#
#
# Convention : Reuss Voigt Hill
#
# Bulk Modulus (GPa) = 25.44524 33.82936 29.63730
# Shear Modulus (GPa) = 25.41234 33.07993 29.24613
#
# Velocity S-wave (km/s) = 3.13113 3.57241 3.35902
# Velocity P-wave (km/s) = 4.78421 5.48337 5.14568
#
# Compressibility (1/GPa) = 0.03930009
#
# Stress axis : x y z
#
# Youngs Moduli (GPa) = 49.24024 41.13186 123.78262
#
# Poissons Ratio (x) = 0.15308 0.32139
# Poissons Ratio (y) = 0.18326 0.04723
# Poissons Ratio (z) = 0.12785 0.01569
#
# Static dielectric constant tensor:
#      x y z
#    x 4.686480 0.000000 0.126040 
#    y 0.000000 4.685380 0.000000 
#    z 0.126040 0.000000 4.762460 
# 
# 
# High freq. dielectric constant tensor:
#      x y z
#    x 2.042770 0.000000 0.008510 
#    y 0.000000 2.028330 0.000000 
#    z 0.008510 0.000000 2.047430 
# 
# From -- ./inp_files/9398.got.cif
#   From: 2010.03.12/outbox.cif.g09.slc.cpg/sg14_5_cif.got.tgz:9398.got - 2010.03.31 13:35:05.
