data_PCOD8128740
_publ_section_title
;
Structure prediction by ZEFSAII (Michael W. Deem and Ramdas Pophale) SiO2 
 PCOD8128740
Probable space group: P 21/C
;
_chemical_formula_sum "Si O2"
_cell_formula_units_Z 32
_cell_length_a 28.831512
_cell_length_b 7.520638
_cell_length_c 14.331379
_cell_angle_alpha 90.000000
_cell_angle_beta 27.970582
_cell_angle_gamma 90.000000
_cell_volume 1457.470398
_symmetry_space_group_name_H-M "P 21/C"
_symmetry_group_IT_number 14
_symmetry_cell_setting 'monoclinic'
loop_
_space_group_symop_operation_xyz
x,y,z
-x,1/2+y,1/2-z
-x,-y,-z
x,1/2-y,1/2+z
loop_
_atom_site_type_symbol
_atom_site_label
_atom_site_fract_x
_atom_site_fract_y
_atom_site_fract_z
Si Si1 0.818043 0.841426 0.407435
Si Si2 0.220979 0.071034 0.725627
Si Si3 0.923432 0.940230 0.840500
Si Si4 0.398919 0.234087 0.632469
Si Si5 0.536989 0.143684 0.545371
Si Si6 0.285292 0.712005 0.666410
Si Si7 0.112724 0.673604 0.108229
Si Si8 0.373073 0.365463 0.484347
O O1 0.828839 0.843507 0.276753
O O2 0.893854 0.698607 0.313631
O O3 0.706890 0.793193 0.636894
O O4 0.857726 0.036015 0.364549
O O5 0.322680 0.173606 0.564841
O O6 0.255368 0.866252 0.646014
O O7 0.146949 0.084444 0.944247
O O8 0.035387 0.909063 0.673136
O O9 0.924472 0.134248 0.789524
O O10 0.487500 0.258740 0.549642
O O11 0.420813 0.358523 0.503698
O O12 0.399544 0.023511 0.605581
O O13 0.605527 0.269405 0.484672
O O14 0.450895 0.080848 0.767711
O O15 0.286593 0.513272 0.622542
O O16 0.212275 0.724471 0.880868
#
# Coordination Sequence:
#
# PCOD8128740 Si02
#       8
#     4   4   4   4   4   4   4   4
#     4  12  23  46  73 102 140 184 229 289 352 411
#     4  11  25  44  69 102 140 174 230 294 340 408
#     4  11  23  45  74  99 142 181 229 288 354 417
#     4  11  22  43  69  99 138 183 230 277 343 408
#     4  11  24  42  68 103 138 184 229 281 341 411
#     4  11  24  43  66  97 137 181 234 279 345 410
#     4  11  23  44  72 100 134 188 227 281 354 416
#     4  12  22  43  69  94 139 184 222 284 342 402
#
# _framework density 21.955850999999999
#
# number of rings (size 3 to 8) (size 9 to 14) (size 15 to 20)
#    0.000    0.750    6.250    1.500    0.000    2.000 
#    6.750    0.625    0.000    0.000    0.000    0.000 
#    0.000    0.000    0.000    0.000    0.000    0.000 
#
# Total GULP energy -396646.977406 kJ/mol
# GULP energy per Si atom -12395.218044 kJ/mol
# Density = 2.190588 g / cm^3
# Si number density = 21.955851 Si / 1000 Ang^3
#
#
#
# Elastic Constant Matrix: (Units=GPa)
#
#
# Indices 1 2 3 4 5 6 
#
# 1 125.9813 37.8001 60.2269 0.0000 -0.0743 0.0000
# 2 37.8001 118.4586 46.8123 0.0000 3.7715 0.0000
# 3 60.2269 46.8123 159.9050 0.0000 -33.6860 0.0000
# 4 0.0000 0.0000 0.0000 32.8260 0.0000 -7.2176
# 5 -0.0743 3.7715 -33.6860 0.0000 31.8439 0.0000
# 6 0.0000 0.0000 0.0000 -7.2176 0.0000 31.8287
#
#
#
# Elastic Compliance Matrix: (Units=1/GPa)
#
#
# Indices 1 2 3 4 5 6 
#
# 1 0.010518 -0.001430 -0.004506 0.000000 -0.004573 0.000000
# 2 -0.001430 0.010478 -0.003591 0.000000 -0.005043 0.000000
# 3 -0.004506 -0.003591 0.011696 0.000000 0.012788 0.000000
# 4 0.000000 0.000000 0.000000 0.032062 0.000000 0.007271
# 5 -0.004573 -0.005043 0.012788 0.000000 0.045517 0.000000
# 6 0.000000 0.000000 0.000000 0.007271 0.000000 0.033067
#
#
# Mechanical properties :
#
#
# Convention : Reuss Voigt Hill
#
# Bulk Modulus (GPa) = 73.32900 77.11371 75.22135
# Shear Modulus (GPa) = 29.95091 36.60009 33.27550
#
# Velocity S-wave (km/s) = 3.69744 4.08730 3.89725
# Velocity P-wave (km/s) = 7.19020 7.58110 7.38824
#
# Compressibility (1/GPa) = 0.01363717
#
# Stress axis : x y z
#
# Youngs Moduli (GPa) = 95.07143 95.43982 85.49759
#
# Poissons Ratio (x) = 0.13648 0.38529
# Poissons Ratio (y) = 0.13595 0.30704
# Poissons Ratio (z) = 0.42843 0.34275
#
# Static dielectric constant tensor:
#      x y z
#    x 4.051730 0.000000 -0.123970 
#    y 0.000000 4.311930 0.000000 
#    z -0.123970 0.000000 3.808220 
# 
# 
# High freq. dielectric constant tensor:
#      x y z
#    x 1.858390 0.000000 -0.012580 
#    y 0.000000 1.880360 0.000000 
#    z -0.012580 0.000000 1.852150 
# 
# From -- ./inp_files/52252.got.cif
#   From: 2010.03.12/outbox.cif.g09.slc.cpg/sg14_27_cif.got.tgz:52252.got - 2010.03.31 13:35:05.
