data_PCOD8128347
_publ_section_title
;
Structure prediction by ZEFSAII (Michael W. Deem and Ramdas Pophale) SiO2 
 PCOD8128347
Probable space group: P 21/C
;
_chemical_formula_sum "Si O2"
_cell_formula_units_Z 20
_cell_length_a 12.167200
_cell_length_b 10.699148
_cell_length_c 8.771873
_cell_angle_alpha 90.000000
_cell_angle_beta 43.867293
_cell_angle_gamma 90.000000
_cell_volume 791.333208
_symmetry_space_group_name_H-M "P 21/C"
_symmetry_group_IT_number 14
_symmetry_cell_setting 'monoclinic'
loop_
_space_group_symop_operation_xyz
x,y,z
-x,1/2+y,1/2-z
-x,-y,-z
x,1/2-y,1/2+z
loop_
_atom_site_type_symbol
_atom_site_label
_atom_site_fract_x
_atom_site_fract_y
_atom_site_fract_z
Si Si1 0.709625 0.150864 0.246493
Si Si2 0.893266 0.499968 0.356702
Si Si3 0.999944 0.250053 0.618900
Si Si4 0.499920 0.250059 0.194895
Si Si5 0.290223 0.150881 0.165946
O O1 0.644426 0.202005 0.150712
O O2 0.569822 0.140233 0.512805
O O3 0.842885 0.246696 0.172491
O O4 0.788882 0.019571 0.116812
O O5 0.998309 0.624203 0.278734
O O6 0.789063 0.519564 0.305076
O O7 0.998222 0.375670 0.224780
O O8 0.156988 0.246767 0.358360
O O9 0.430055 0.140321 0.152594
O O10 0.355381 0.298122 0.439717
#
# Coordination Sequence:
#
# PCOD8128347 Si02
#       5
#     4   4   4   4   4
#     4  11  24  48  74 114 157 207 255 323 392 469
#     4  12  26  48  84 114 154 208 272 324 390 462
#     4  12  26  52  80 116 158 212 268 326 386 472
#     4  10  24  48  76 110 166 200 256 320 406 464
#     4  11  24  48  74 114 157 207 255 323 392 469
#
# _framework density 25.273802
#
# number of rings (size 3 to 8) (size 9 to 14) (size 15 to 20)
#    0.000    0.800    4.000    2.400    0.000    1.600 
#    0.000    0.000    0.000    0.000    0.000    0.000 
#    0.000    0.000    0.000    0.000    0.000    0.000 
#
# Total GULP energy -247839.938557 kJ/mol
# GULP energy per Si atom -12391.996928 kJ/mol
# Density = 2.521628 g / cm^3
# Si number density = 25.273802 Si / 1000 Ang^3
#
#
#
# Elastic Constant Matrix: (Units=GPa)
#
#
# Indices 1 2 3 4 5 6 
#
# 1 152.8099 54.1326 62.4228 0.0000 8.5646 0.0000
# 2 54.1326 151.4902 54.4809 0.0000 7.3774 0.0000
# 3 62.4228 54.4809 153.6870 0.0000 7.8173 0.0000
# 4 0.0000 0.0000 0.0000 24.3220 0.0000 -3.3553
# 5 8.5646 7.3774 7.8173 0.0000 33.3860 0.0000
# 6 0.0000 0.0000 0.0000 -3.3553 0.0000 24.4726
#
#
#
# Elastic Compliance Matrix: (Units=1/GPa)
#
#
# Indices 1 2 3 4 5 6 
#
# 1 0.008393 -0.001994 -0.002646 0.000000 -0.001093 0.000000
# 2 -0.001994 0.008076 -0.002012 0.000000 -0.000802 0.000000
# 3 -0.002646 -0.002012 0.008337 0.000000 -0.000829 0.000000
# 4 0.000000 0.000000 0.000000 0.041908 0.000000 0.005746
# 5 -0.001093 -0.000802 -0.000829 0.000000 0.030604 0.000000
# 6 0.000000 0.000000 0.000000 0.005746 0.000000 0.041650
#
#
# Mechanical properties :
#
#
# Convention : Reuss Voigt Hill
#
# Bulk Modulus (GPa) = 86.95123 88.89552 87.92337
# Shear Modulus (GPa) = 32.02930 35.56617 33.79774
#
# Velocity S-wave (km/s) = 3.56377 3.75538 3.66083
# Velocity P-wave (km/s) = 7.17024 7.35209 7.26173
#
# Compressibility (1/GPa) = 0.01150070
#
# Stress axis : x y z
#
# Youngs Moduli (GPa) = 119.15004 123.81785 119.94561
#
# Poissons Ratio (x) = 0.24690 0.31743
# Poissons Ratio (y) = 0.23759 0.24137
# Poissons Ratio (z) = 0.31532 0.24916
#
# Static dielectric constant tensor:
#      x y z
#    x 4.781040 0.000000 0.025130 
#    y 0.000000 4.179530 0.000000 
#    z 0.025130 0.000000 4.783850 
# 
# 
# High freq. dielectric constant tensor:
#      x y z
#    x 2.025870 0.000000 0.004200 
#    y 0.000000 1.966240 0.000000 
#    z 0.004200 0.000000 2.026150 
# 
# From -- ./inp_files/12315.got.cif
#   From: 2010.03.12/outbox.cif.g09.slc.cpg/sg14_7_cif.got.tgz:12315.got - 2010.03.31 13:35:05.
