data_PCOD8128060
_publ_section_title
;
Structure prediction by ZEFSAII (Michael W. Deem and Ramdas Pophale) SiO2 
 PCOD8128060
Probable space group: P 21/C
;
_chemical_formula_sum "Si O2"
_cell_formula_units_Z 20
_cell_length_a 14.189395
_cell_length_b 12.291387
_cell_length_c 11.960441
_cell_angle_alpha 90.000000
_cell_angle_beta 23.983479
_cell_angle_gamma 90.000000
_cell_volume 847.898547
_symmetry_space_group_name_H-M "P 21/C"
_symmetry_group_IT_number 14
_symmetry_cell_setting 'monoclinic'
loop_
_space_group_symop_operation_xyz
x,y,z
-x,1/2+y,1/2-z
-x,-y,-z
x,1/2-y,1/2+z
loop_
_atom_site_type_symbol
_atom_site_label
_atom_site_fract_x
_atom_site_fract_y
_atom_site_fract_z
Si Si1 0.321793 0.258807 0.540954
Si Si2 0.654043 0.099067 0.290744
Si Si3 0.362365 0.559355 0.745504
Si Si4 0.966622 0.886024 0.291743
Si Si5 0.893939 0.285859 0.138895
O O1 0.507773 0.165658 0.359901
O O2 0.453412 0.373589 0.377601
O O3 0.165052 0.224038 0.605271
O O4 0.165976 0.264546 0.822653
O O5 0.739984 0.174932 0.301970
O O6 0.500000 0.000000 0.500000
O O7 0.881093 0.062306 0.973900
O O8 0.500000 0.500000 0.500000
O O9 0.182806 0.640364 0.882050
O O10 0.221891 0.476333 0.973843
O O11 0.130684 0.848977 0.217081
#
# Coordination Sequence:
#
# PCOD8128060 Si02
#       5
#     4   4   4   4   4
#     4  10  24  46  65 104 142 177 241 292 345 419
#     4  10  25  50  67 101 148 185 226 289 357 418
#     4  11  23  44  73 101 140 183 234 296 349 420
#     4  11  24  44  73 106 139 187 237 288 358 411
#     4  10  23  46  69 104 139 177 246 291 332 437
#
# _framework density 23.587727999999998
#
# number of rings (size 3 to 8) (size 9 to 14) (size 15 to 20)
#    0.000    1.600    2.000    0.600    2.800    3.200 
#   28.800    0.000    0.000    0.000    0.000    0.000 
#    0.000    0.000    0.000    0.000    0.000    0.000 
#
# Total GULP energy -247969.074447 kJ/mol
# GULP energy per Si atom -12398.453722 kJ/mol
# Density = 2.353404 g / cm^3
# Si number density = 23.587728 Si / 1000 Ang^3
#
#
#
# Elastic Constant Matrix: (Units=GPa)
#
#
# Indices 1 2 3 4 5 6 
#
# 1 87.7964 44.3945 35.4214 0.0000 -1.3268 0.0000
# 2 44.3945 147.9847 80.2829 0.0000 8.4005 0.0000
# 3 35.4214 80.2829 144.5606 0.0000 7.4128 0.0000
# 4 0.0000 0.0000 0.0000 55.8398 0.0000 -4.9818
# 5 -1.3268 8.4005 7.4128 0.0000 30.4813 0.0000
# 6 0.0000 0.0000 0.0000 -4.9818 0.0000 28.7258
#
#
#
# Elastic Compliance Matrix: (Units=1/GPa)
#
#
# Indices 1 2 3 4 5 6 
#
# 1 0.013769 -0.003372 -0.001600 0.000000 0.001918 0.000000
# 2 -0.003372 0.010554 -0.004940 0.000000 -0.001854 0.000000
# 3 -0.001600 -0.004940 0.010113 0.000000 -0.001168 0.000000
# 4 0.000000 0.000000 0.000000 0.018190 0.000000 0.003155
# 5 0.001918 -0.001854 -0.001168 0.000000 0.033685 0.000000
# 6 0.000000 0.000000 0.000000 0.003155 0.000000 0.035359
#
#
# Mechanical properties :
#
#
# Convention : Reuss Voigt Hill
#
# Bulk Modulus (GPa) = 68.43063 77.83770 73.13416
# Shear Modulus (GPa) = 34.16119 37.69223 35.92671
#
# Velocity S-wave (km/s) = 3.80973 4.00179 3.90694
# Velocity P-wave (km/s) = 6.95889 7.37721 7.17110
#
# Compressibility (1/GPa) = 0.01461334
#
# Stress axis : x y z
#
# Youngs Moduli (GPa) = 72.62549 94.74836 98.88353
#
# Poissons Ratio (x) = 0.31946 0.15818
# Poissons Ratio (y) = 0.24487 0.48850
# Poissons Ratio (z) = 0.11618 0.46807
#
# Static dielectric constant tensor:
#      x y z
#    x 4.055220 0.000000 -0.326730 
#    y 0.000000 2.264550 0.000000 
#    z -0.326730 0.000000 4.532940 
# 
# 
# High freq. dielectric constant tensor:
#      x y z
#    x 1.918530 0.000000 -0.014900 
#    y 0.000000 1.932690 0.000000 
#    z -0.014900 0.000000 1.950790 
# 
# From -- ./inp_files/48742.got.cif
#   From: 2010.03.12/outbox.cif.g09.slc.cpg/sg14_25_cif.got.tgz:48742.got - 2010.03.31 13:35:05.
