data_PCOD8128771
_publ_section_title
;
Structure prediction by ZEFSAII (Michael W. Deem and Ramdas Pophale) SiO2 
 PCOD8128771
Probable space group: P 21/C
;
_chemical_formula_sum "Si O2"
_cell_formula_units_Z 28
_cell_length_a 7.079043
_cell_length_b 17.451960
_cell_length_c 16.442178
_cell_angle_alpha 90.000000
_cell_angle_beta 41.296824
_cell_angle_gamma 90.000000
_cell_volume 1340.589254
_symmetry_space_group_name_H-M "P 21/C"
_symmetry_group_IT_number 14
_symmetry_cell_setting 'monoclinic'
loop_
_space_group_symop_operation_xyz
x,y,z
-x,1/2+y,1/2-z
-x,-y,-z
x,1/2-y,1/2+z
loop_
_atom_site_type_symbol
_atom_site_label
_atom_site_fract_x
_atom_site_fract_y
_atom_site_fract_z
Si Si1 0.235878 0.094567 0.710027
Si Si2 0.737694 0.824066 0.006331
Si Si3 0.887885 0.842081 0.420925
Si Si4 0.320949 0.032217 0.400663
Si Si5 0.501994 0.707786 0.758403
Si Si6 0.348896 0.619151 0.338342
Si Si7 0.657605 0.423868 0.471932
O O1 0.104461 0.113342 0.665776
O O2 0.335094 0.174257 0.717011
O O3 0.989623 0.060966 0.847209
O O4 0.486509 0.032393 0.619038
O O5 0.781382 0.744397 0.945094
O O6 0.019147 0.878861 0.913253
O O7 0.675843 0.807281 0.120210
O O8 0.469393 0.859298 0.046420
O O9 0.679042 0.889558 0.547669
O O10 0.206975 0.839110 0.352725
O O11 0.463925 0.054304 0.268010
O O12 0.000000 0.000000 0.500000
O O13 0.479367 0.797659 0.780041
O O14 0.379213 0.598970 0.422771
O O15 0.500000 0.500000 0.500000
#
# Coordination Sequence:
#
# PCOD8128771 Si02
#       7
#     4   4   4   4   4   4   4
#     4  12  25  43  71  98 135 179 226 280 346 406
#     4  11  23  47  71 101 136 178 234 285 340 413
#     4  11  24  46  69  98 137 176 226 284 346 409
#     4  12  26  45  67 101 139 181 224 286 345 415
#     4  11  22  45  72  98 133 179 231 283 341 412
#     4  11  26  46  70 101 137 182 230 282 351 408
#     4  12  27  43  69 103 138 182 231 286 344 412
#
# _framework density 20.886337999999999
#
# number of rings (size 3 to 8) (size 9 to 14) (size 15 to 20)
#    0.000    0.571    5.714    2.143    4.000    1.143 
#    5.143    0.000    0.000    0.000    0.000    0.000 
#    0.000    0.000    0.000    0.000    0.000    0.000 
#
# Total GULP energy -347260.309041 kJ/mol
# GULP energy per Si atom -12402.153894 kJ/mol
# Density = 2.083880 g / cm^3
# Si number density = 20.886338 Si / 1000 Ang^3
#
#
#
# Elastic Constant Matrix: (Units=GPa)
#
#
# Indices 1 2 3 4 5 6 
#
# 1 83.6774 38.2970 33.2666 0.0000 0.9748 0.0000
# 2 38.2970 81.3251 33.0357 0.0000 -4.9150 0.0000
# 3 33.2666 33.0357 116.1617 0.0000 -1.5286 0.0000
# 4 0.0000 0.0000 0.0000 43.4244 0.0000 0.0543
# 5 0.9748 -4.9150 -1.5286 0.0000 43.2391 0.0000
# 6 0.0000 0.0000 0.0000 0.0543 0.0000 29.9769
#
#
#
# Elastic Compliance Matrix: (Units=1/GPa)
#
#
# Indices 1 2 3 4 5 6 
#
# 1 0.016038 -0.006504 -0.002759 0.000000 -0.001198 0.000000
# 2 -0.006504 0.016631 -0.002841 0.000000 0.001937 0.000000
# 3 -0.002759 -0.002841 0.010208 0.000000 0.000100 0.000000
# 4 0.000000 0.000000 0.000000 0.023029 0.000000 -0.000042
# 5 -0.001198 0.001937 0.000100 0.000000 0.023378 0.000000
# 6 0.000000 0.000000 0.000000 -0.000042 0.000000 0.033359
#
#
# Mechanical properties :
#
#
# Convention : Reuss Voigt Hill
#
# Bulk Modulus (GPa) = 53.56895 54.48475 54.02685
# Shear Modulus (GPa) = 32.66373 35.09906 33.88140
#
# Velocity S-wave (km/s) = 3.95888 4.10381 4.03200
# Velocity P-wave (km/s) = 6.82646 6.97122 6.89922
#
# Compressibility (1/GPa) = 0.01866753
#
# Stress axis : x y z
#
# Youngs Moduli (GPa) = 62.35049 60.13023 97.96010
#
# Poissons Ratio (x) = 0.39111 0.27028
# Poissons Ratio (y) = 0.40555 0.27835
# Poissons Ratio (z) = 0.17203 0.17086
#
# Static dielectric constant tensor:
#      x y z
#    x 4.332250 0.000000 -0.458790 
#    y 0.000000 0.577730 0.000000 
#    z -0.458790 0.000000 4.100210 
# 
# 
# High freq. dielectric constant tensor:
#      x y z
#    x 1.818110 0.000000 -0.003020 
#    y 0.000000 1.831400 0.000000 
#    z -0.003020 0.000000 1.830810 
# 
# From -- ./inp_files/38059.got.cif
#   From: 2010.03.12/outbox.cif.g09.slc.cpg/sg14_20_cif.got.tgz:38059.got - 2010.03.31 13:35:05.
