data_PCOD8128616
_publ_section_title
;
Structure prediction by ZEFSAII (Michael W. Deem and Ramdas Pophale) SiO2 
 PCOD8128616
Probable space group: P 21/C
;
_chemical_formula_sum "Si O2"
_cell_formula_units_Z 32
_cell_length_a 11.821069
_cell_length_b 16.684323
_cell_length_c 14.787498
_cell_angle_alpha 90.000000
_cell_angle_beta 148.867447
_cell_angle_gamma 90.000000
_cell_volume 1507.881333
_symmetry_space_group_name_H-M "P 21/C"
_symmetry_group_IT_number 14
_symmetry_cell_setting 'monoclinic'
loop_
_space_group_symop_operation_xyz
x,y,z
-x,1/2+y,1/2-z
-x,-y,-z
x,1/2-y,1/2+z
loop_
_atom_site_type_symbol
_atom_site_label
_atom_site_fract_x
_atom_site_fract_y
_atom_site_fract_z
Si Si1 0.311029 0.675120 0.665160
Si Si2 0.735762 0.911768 0.997312
Si Si3 0.044193 0.130496 0.522689
Si Si4 0.104228 0.592058 0.880757
Si Si5 0.394512 0.766040 0.539332
Si Si6 0.378896 0.814708 0.845635
Si Si7 0.409797 0.472138 0.181147
Si Si8 0.156118 0.188646 0.103417
O O1 0.396580 0.722473 0.637121
O O2 0.342366 0.728355 0.775535
O O3 0.449792 0.594708 0.774866
O O4 0.050164 0.657672 0.478260
O O5 0.612665 0.847763 0.975950
O O6 0.827763 0.867818 0.972425
O O7 0.574380 0.983748 0.861749
O O8 0.934601 0.946965 0.193668
O O9 0.208389 0.063484 0.599679
O O10 0.131234 0.218475 0.557948
O O11 0.016471 0.117772 0.610143
O O12 0.807859 0.121682 0.312248
O O13 0.194835 0.672510 0.895879
O O14 0.306291 0.532155 0.036880
O O15 0.374123 0.697457 0.449935
O O16 0.621544 0.815947 0.685587
#
# Coordination Sequence:
#
# PCOD8128616 Si02
#       8
#     4   4   4   4   4   4   4   4
#     4  11  24  44  70 101 135 186 228 287 351 409
#     4  12  25  44  70 101 142 186 226 286 350 412
#     4  11  21  43  70  96 139 181 227 295 336 401
#     4  12  24  43  68 102 139 180 229 283 351 411
#     4  12  22  45  73 105 133 181 236 294 339 408
#     4  11  23  43  73 104 134 178 242 290 338 402
#     4  12  25  45  66  99 151 180 223 291 355 418
#     4  11  21  47  70  96 138 176 238 288 328 407
#
# _framework density 21.221830000000001
#
# number of rings (size 3 to 8) (size 9 to 14) (size 15 to 20)
#    0.000    0.500    7.500    2.625    0.000    2.000 
#    2.250    1.250    0.000    0.000    0.000    0.000 
#    0.000    0.000    0.000    0.000    0.000    0.000 
#
# Total GULP energy -396894.547475 kJ/mol
# GULP energy per Si atom -12402.954609 kJ/mol
# Density = 2.117353 g / cm^3
# Si number density = 21.221830 Si / 1000 Ang^3
#
#
#
# Elastic Constant Matrix: (Units=GPa)
#
#
# Indices 1 2 3 4 5 6 
#
# 1 77.3893 24.0294 33.1777 0.0000 15.9396 0.0000
# 2 24.0294 81.5983 28.0283 0.0000 6.7206 0.0000
# 3 33.1777 28.0283 140.5746 0.0000 -0.1392 0.0000
# 4 0.0000 0.0000 0.0000 38.7001 0.0000 16.9909
# 5 15.9396 6.7206 -0.1392 0.0000 31.7069 0.0000
# 6 0.0000 0.0000 0.0000 16.9909 0.0000 26.4454
#
#
#
# Elastic Compliance Matrix: (Units=1/GPa)
#
#
# Indices 1 2 3 4 5 6 
#
# 1 0.016984 -0.003192 -0.003380 0.000000 -0.007876 0.000000
# 2 -0.003192 0.014009 -0.002041 0.000000 -0.001374 0.000000
# 3 -0.003380 -0.002041 0.008321 0.000000 0.002168 0.000000
# 4 0.000000 0.000000 0.000000 0.035992 0.000000 -0.023125
# 5 -0.007876 -0.001374 0.002168 0.000000 0.035799 0.000000
# 6 0.000000 0.000000 0.000000 -0.023125 0.000000 0.052671
#
#
# Mechanical properties :
#
#
# Convention : Reuss Voigt Hill
#
# Bulk Modulus (GPa) = 45.27357 52.22589 48.74973
# Shear Modulus (GPa) = 26.54415 33.65894 30.10154
#
# Velocity S-wave (km/s) = 3.54049 3.98685 3.77028
# Velocity P-wave (km/s) = 6.17197 6.77172 6.47879
#
# Compressibility (1/GPa) = 0.02208794
#
# Stress axis : x y z
#
# Youngs Moduli (GPa) = 58.87885 71.38054 120.18488
#
# Poissons Ratio (x) = 0.22783 0.40621
# Poissons Ratio (y) = 0.18793 0.24533
# Poissons Ratio (z) = 0.19900 0.14571
#
# Static dielectric constant tensor:
#      x y z
#    x 3.833540 0.000000 0.360370 
#    y 0.000000 3.786360 0.000000 
#    z 0.360370 0.000000 4.086700 
# 
# 
# High freq. dielectric constant tensor:
#      x y z
#    x 1.828520 0.000000 0.021160 
#    y 0.000000 1.822050 0.000000 
#    z 0.021160 0.000000 1.844360 
# 
# From -- ./inp_files/45470.got.cif
#   From: 2010.03.12/outbox.cif.g09.slc.cpg/sg14_23_cif.got.tgz:45470.got - 2010.03.31 13:35:05.
