data_PCOD8128133
_publ_section_title
;
Structure prediction by ZEFSAII (Michael W. Deem and Ramdas Pophale) SiO2 
 PCOD8128133
Probable space group: P 21/C
;
_chemical_formula_sum "Si O2"
_cell_formula_units_Z 24
_cell_length_a 11.219150
_cell_length_b 8.600030
_cell_length_c 18.305298
_cell_angle_alpha 90.000000
_cell_angle_beta 39.257166
_cell_angle_gamma 90.000000
_cell_volume 1117.647083
_symmetry_space_group_name_H-M "P 21/C"
_symmetry_group_IT_number 14
_symmetry_cell_setting 'monoclinic'
loop_
_space_group_symop_operation_xyz
x,y,z
-x,1/2+y,1/2-z
-x,-y,-z
x,1/2-y,1/2+z
loop_
_atom_site_type_symbol
_atom_site_label
_atom_site_fract_x
_atom_site_fract_y
_atom_site_fract_z
Si Si1 0.558007 0.356260 0.919132
Si Si2 0.962826 0.456142 0.935763
Si Si3 0.733706 0.663238 0.370659
Si Si4 0.326421 0.190617 0.258972
Si Si5 0.556083 0.018034 0.665768
Si Si6 0.086226 0.849258 0.240662
O O1 0.545763 0.398771 0.839778
O O2 0.771172 0.297215 0.828922
O O3 0.500000 0.500000 0.000000
O O4 0.414744 0.211954 0.997033
O O5 0.096903 0.305974 0.859792
O O6 0.028815 0.594187 0.849653
O O7 0.000000 0.500000 0.000000
O O8 0.741103 0.418094 0.034075
O O9 0.608890 0.663566 0.355198
O O10 0.820397 0.494067 0.346936
O O11 0.899590 0.792100 0.287973
O O12 0.392763 0.052027 0.280072
O O13 0.408777 0.346892 0.253175
#
# Coordination Sequence:
#
# PCOD8128133 Si02
#       6
#     4   4   4   4   4   4
#     4  12  24  42  69  98 133 182 229 286 340 403
#     4   9  21  43  66  94 135 176 220 272 338 399
#     4  11  23  43  64 103 130 179 223 282 339 408
#     4  10  24  40  70  95 134 180 223 276 337 411
#     4  11  23  44  69  95 137 177 225 278 345 397
#     4  11  24  41  70  95 139 175 227 282 341 401
#
# _framework density 21.473683999999999
#
# number of rings (size 3 to 8) (size 9 to 14) (size 15 to 20)
#    0.000    1.333    3.333    1.500    9.333    0.000 
#    0.000    0.833    0.000    0.000    0.000    0.000 
#    0.000    0.000    0.000    0.000    0.000    0.000 
#
# Total GULP energy -297383.381877 kJ/mol
# GULP energy per Si atom -12390.974245 kJ/mol
# Density = 2.142481 g / cm^3
# Si number density = 21.473684 Si / 1000 Ang^3
#
#
#
# Elastic Constant Matrix: (Units=GPa)
#
#
# Indices 1 2 3 4 5 6 
#
# 1 96.4475 44.0136 32.1342 0.0000 -3.7269 0.0000
# 2 44.0136 95.7373 48.6967 0.0000 0.4303 0.0000
# 3 32.1342 48.6967 85.0563 0.0000 -10.1209 0.0000
# 4 0.0000 0.0000 0.0000 38.2951 0.0000 -7.1199
# 5 -3.7269 0.4303 -10.1209 0.0000 23.4535 0.0000
# 6 0.0000 0.0000 0.0000 -7.1199 0.0000 42.6428
#
#
#
# Elastic Compliance Matrix: (Units=1/GPa)
#
#
# Indices 1 2 3 4 5 6 
#
# 1 0.013440 -0.005202 -0.001933 0.000000 0.001397 0.000000
# 2 -0.005202 0.017138 -0.008415 0.000000 -0.004772 0.000000
# 3 -0.001933 -0.008415 0.018222 0.000000 0.007711 0.000000
# 4 0.000000 0.000000 0.000000 0.026950 0.000000 0.004500
# 5 0.001397 -0.004772 0.007711 0.000000 0.046274 0.000000
# 6 0.000000 0.000000 0.000000 0.004500 0.000000 0.024202
#
#
# Mechanical properties :
#
#
# Convention : Reuss Voigt Hill
#
# Bulk Modulus (GPa) = 56.49299 58.54778 57.52038
# Shear Modulus (GPa) = 27.28856 31.03807 29.16332
#
# Velocity S-wave (km/s) = 3.56868 3.80597 3.68923
# Velocity P-wave (km/s) = 6.58375 6.82920 6.70760
#
# Compressibility (1/GPa) = 0.01770131
#
# Stress axis : x y z
#
# Youngs Moduli (GPa) = 74.40302 58.34904 54.87745
#
# Poissons Ratio (x) = 0.30352 0.10610
# Poissons Ratio (y) = 0.38703 0.46177
# Poissons Ratio (z) = 0.14385 0.49099
#
# Static dielectric constant tensor:
#      x y z
#    x 4.174570 0.000000 -0.030980 
#    y 0.000000 4.805980 0.000000 
#    z -0.030980 0.000000 4.921380 
# 
# 
# High freq. dielectric constant tensor:
#      x y z
#    x 1.857420 0.000000 -0.007160 
#    y 0.000000 1.823460 0.000000 
#    z -0.007160 0.000000 1.844390 
# 
# From -- ./inp_files/66765.got.cif
#   From: 2010.03.12/outbox.cif.g09.slc.cpg/sg14_34_cif.got.tgz:66765.got - 2010.03.31 13:35:05.
