data_PCOD8128356
_publ_section_title
;
Structure prediction by ZEFSAII (Michael W. Deem and Ramdas Pophale) SiO2 
 PCOD8128356
Probable space group: P 21/C
;
_chemical_formula_sum "Si O2"
_cell_formula_units_Z 24
_cell_length_a 25.383888
_cell_length_b 10.150011
_cell_length_c 9.214835
_cell_angle_alpha 90.000000
_cell_angle_beta 26.287219
_cell_angle_gamma 90.000000
_cell_volume 1051.452500
_symmetry_space_group_name_H-M "P 21/C"
_symmetry_group_IT_number 14
_symmetry_cell_setting 'monoclinic'
loop_
_space_group_symop_operation_xyz
x,y,z
-x,1/2+y,1/2-z
-x,-y,-z
x,1/2-y,1/2+z
loop_
_atom_site_type_symbol
_atom_site_label
_atom_site_fract_x
_atom_site_fract_y
_atom_site_fract_z
Si Si1 0.622163 0.733369 0.047830
Si Si2 0.206179 0.477159 0.254137
Si Si3 0.914360 0.375907 0.221799
Si Si4 0.484227 0.863345 0.619254
Si Si5 0.051326 0.628117 0.180918
Si Si6 0.727436 0.018761 0.719072
O O1 0.511378 0.748688 0.434718
O O2 0.578719 0.652197 0.016239
O O3 0.728593 0.655699 0.860542
O O4 0.673493 0.875523 0.880595
O O5 0.203378 0.578788 0.397601
O O6 0.072079 0.445334 0.537381
O O7 0.271976 0.543561 0.955288
O O8 0.975676 0.256725 0.156560
O O9 0.886832 0.330460 0.125420
O O10 0.000000 0.500000 0.000000
O O11 0.500000 0.000000 0.500000
O O12 0.351440 0.863809 0.014336
O O13 0.140167 0.528342 0.043408
#
# Coordination Sequence:
#
# PCOD8128356 Si02
#       6
#     4   4   4   4   4   4
#     4  11  24  46  75 103 141 191 240 306 363 432
#     4  11  25  41  77 106 146 193 239 291 376 435
#     4  10  25  42  66 104 149 194 233 290 350 433
#     4  10  25  47  71 104 140 187 247 299 356 429
#     4  11  25  43  70 108 154 185 242 294 364 435
#     4  11  25  45  73 103 146 190 242 302 360 428
#
# _framework density 22.825566999999999
#
# number of rings (size 3 to 8) (size 9 to 14) (size 15 to 20)
#    0.000    1.333    1.667    1.500   14.000    3.333 
#    3.000    0.000    0.000    0.000    0.000    0.000 
#    0.000    0.000    0.000    0.000    0.000    0.000 
#
# Total GULP energy -297501.077867 kJ/mol
# GULP energy per Si atom -12395.878244 kJ/mol
# Density = 2.277362 g / cm^3
# Si number density = 22.825567 Si / 1000 Ang^3
#
#
#
# Elastic Constant Matrix: (Units=GPa)
#
#
# Indices 1 2 3 4 5 6 
#
# 1 133.8937 40.4270 49.4593 0.0000 20.9045 0.0000
# 2 40.4270 62.3039 39.4689 0.0000 0.2667 0.0000
# 3 49.4593 39.4689 108.7475 0.0000 18.5454 0.0000
# 4 0.0000 0.0000 0.0000 33.1340 0.0000 -2.4083
# 5 20.9045 0.2667 18.5454 0.0000 55.0638 0.0000
# 6 0.0000 0.0000 0.0000 -2.4083 0.0000 41.1010
#
#
#
# Elastic Compliance Matrix: (Units=1/GPa)
#
#
# Indices 1 2 3 4 5 6 
#
# 1 0.010399 -0.005297 -0.002268 0.000000 -0.003158 0.000000
# 2 -0.005297 0.023896 -0.006988 0.000000 0.004249 0.000000
# 3 -0.002268 -0.006988 0.013380 0.000000 -0.003611 0.000000
# 4 0.000000 0.000000 0.000000 0.030310 0.000000 0.001776
# 5 -0.003158 0.004249 -0.003611 0.000000 0.020555 0.000000
# 6 0.000000 0.000000 0.000000 0.001776 0.000000 0.024434
#
#
# Mechanical properties :
#
#
# Convention : Reuss Voigt Hill
#
# Bulk Modulus (GPa) = 53.85874 62.62839 58.24357
# Shear Modulus (GPa) = 31.59139 37.56577 34.57858
#
# Velocity S-wave (km/s) = 3.72430 4.06122 3.89640
# Velocity P-wave (km/s) = 6.49160 7.03482 6.76866
#
# Compressibility (1/GPa) = 0.01856709
#
# Stress axis : x y z
#
# Youngs Moduli (GPa) = 96.16311 41.84744 74.74098
#
# Poissons Ratio (x) = 0.22167 0.16955
# Poissons Ratio (y) = 0.50938 0.52232
# Poissons Ratio (z) = 0.21814 0.29245
#
# Static dielectric constant tensor:
#      x y z
#    x 4.497230 0.000000 0.828320 
#    y 0.000000 3.967180 0.000000 
#    z 0.828320 0.000000 4.918240 
# 
# 
# High freq. dielectric constant tensor:
#      x y z
#    x 1.908560 0.000000 0.030400 
#    y 0.000000 1.891700 0.000000 
#    z 0.030400 0.000000 1.909770 
# 
# From -- ./inp_files/19458.got.cif
#   From: 2010.03.12/outbox.cif.g09.slc.cpg/sg14_10_cif.got.tgz:19458.got - 2010.03.31 13:35:05.
