data_PCOD8128459
_publ_section_title
;
Structure prediction by ZEFSAII (Michael W. Deem and Ramdas Pophale) SiO2 
 PCOD8128459
Probable space group: P 21/C
;
_chemical_formula_sum "Si O2"
_cell_formula_units_Z 32
_cell_length_a 13.772684
_cell_length_b 16.715375
_cell_length_c 7.441707
_cell_angle_alpha 90.000000
_cell_angle_beta 113.759013
_cell_angle_gamma 90.000000
_cell_volume 1568.000209
_symmetry_space_group_name_H-M "P 21/C"
_symmetry_group_IT_number 14
_symmetry_cell_setting 'monoclinic'
loop_
_space_group_symop_operation_xyz
x,y,z
-x,1/2+y,1/2-z
-x,-y,-z
x,1/2-y,1/2+z
loop_
_atom_site_type_symbol
_atom_site_label
_atom_site_fract_x
_atom_site_fract_y
_atom_site_fract_z
Si Si1 0.871222 0.334707 0.151955
Si Si2 0.410337 0.258349 0.306481
Si Si3 0.772993 0.171341 0.947987
Si Si4 0.732400 0.909343 0.319946
Si Si5 0.275584 0.588486 0.233999
Si Si6 0.213120 0.169248 0.290172
Si Si7 0.119228 0.334334 0.347946
Si Si8 0.422337 0.766290 0.816575
O O1 0.844358 0.360358 0.336566
O O2 0.995871 0.335191 0.214037
O O3 0.826765 0.245806 0.089156
O O4 0.822635 0.396457 0.973197
O O5 0.361812 0.346611 0.282379
O O6 0.330764 0.188749 0.305954
O O7 0.541836 0.254479 0.447439
O O8 0.446119 0.238160 0.127310
O O9 0.657890 0.194599 0.784878
O O10 0.761040 0.102347 0.087678
O O11 0.779645 0.900572 0.556605
O O12 0.825961 0.896387 0.245928
O O13 0.685491 0.997759 0.259496
O O14 0.371951 0.646558 0.250345
O O15 0.164973 0.245541 0.356794
O O16 0.140174 0.140734 0.070590
#
# Coordination Sequence:
#
# PCOD8128459 Si02
#       8
#     4   4   4   4   4   4   4   4
#     4  11  22  39  66  93 121 165 217 260 310 376
#     4  11  19  38  65  87 120 162 212 257 304 372
#     4  11  21  39  63  94 123 160 215 266 303 379
#     4  11  25  42  61  94 135 164 204 265 327 372
#     4  11  25  42  61  94 136 164 203 268 322 375
#     4  11  21  39  63  95 122 161 215 265 300 382
#     4  11  22  39  66  94 120 166 217 259 311 375
#     4  11  19  38  64  89 118 162 215 253 306 372
#
# _framework density 20.408159999999999
#
# number of rings (size 3 to 8) (size 9 to 14) (size 15 to 20)
#    0.000    1.000    7.500    2.250    0.000    3.000 
#    0.000    1.875    0.000    0.000    0.000    0.000 
#    0.000    0.000    0.000    0.000    0.000    0.000 
#
# Total GULP energy -396605.693938 kJ/mol
# GULP energy per Si atom -12393.927936 kJ/mol
# Density = 2.036171 g / cm^3
# Si number density = 20.408160 Si / 1000 Ang^3
#
#
#
# Elastic Constant Matrix: (Units=GPa)
#
#
# Indices 1 2 3 4 5 6 
#
# 1 97.9894 2.1944 8.1659 0.0000 3.3458 0.0000
# 2 2.1944 52.4890 -7.8703 0.0000 0.6657 0.0000
# 3 8.1659 -7.8703 74.5559 0.0000 11.4203 0.0000
# 4 0.0000 0.0000 0.0000 18.7902 0.0000 -4.4810
# 5 3.3458 0.6657 11.4203 0.0000 37.3780 0.0000
# 6 0.0000 0.0000 0.0000 -4.4810 0.0000 14.9854
#
#
#
# Elastic Compliance Matrix: (Units=1/GPa)
#
#
# Indices 1 2 3 4 5 6 
#
# 1 0.010330 -0.000590 -0.001105 0.000000 -0.000576 0.000000
# 2 -0.000590 0.019429 0.002267 0.000000 -0.000986 0.000000
# 3 -0.001105 0.002267 0.014440 0.000000 -0.004353 0.000000
# 4 0.000000 0.000000 0.000000 0.057306 0.000000 0.017136
# 5 -0.000576 -0.000986 -0.004353 0.000000 0.028153 0.000000
# 6 0.000000 0.000000 0.000000 0.017136 0.000000 0.071856
#
#
# Mechanical properties :
#
#
# Convention : Reuss Voigt Hill
#
# Bulk Modulus (GPa) = 22.05540 25.55714 23.80627
# Shear Modulus (GPa) = 23.20350 29.06702 26.13526
#
# Velocity S-wave (km/s) = 3.37556 3.77806 3.58247
# Velocity P-wave (km/s) = 5.10129 5.61978 5.36680
#
# Compressibility (1/GPa) = 0.04534037
#
# Stress axis : x y z
#
# Youngs Moduli (GPa) = 96.80344 51.47042 69.25246
#
# Poissons Ratio (x) = 0.03038 0.07656
# Poissons Ratio (y) = 0.05714 -0.15697
# Poissons Ratio (z) = 0.10701 -0.11666
#
# Static dielectric constant tensor:
#      x y z
#    x 3.808160 0.000000 -0.323130 
#    y 0.000000 3.191030 0.000000 
#    z -0.323130 0.000000 4.335900 
# 
# 
# High freq. dielectric constant tensor:
#      x y z
#    x 1.814610 0.000000 -0.015070 
#    y 0.000000 1.746100 0.000000 
#    z -0.015070 0.000000 1.838800 
# 
# From -- ./inp_files/16253.got.cif
#   From: 2010.03.12/outbox.cif.g09.slc.cpg/sg14_9_cif.got.tgz:16253.got - 2010.03.31 13:35:05.
