data_PCOD8128660
_publ_section_title
;
Structure prediction by ZEFSAII (Michael W. Deem and Ramdas Pophale) SiO2 
 PCOD8128660
Probable space group: P 21/C
;
_chemical_formula_sum "Si O2"
_cell_formula_units_Z 32
_cell_length_a 27.200466
_cell_length_b 8.888213
_cell_length_c 9.905504
_cell_angle_alpha 90.000000
_cell_angle_beta 44.080527
_cell_angle_gamma 90.000000
_cell_volume 1665.980187
_symmetry_space_group_name_H-M "P 21/C"
_symmetry_group_IT_number 14
_symmetry_cell_setting 'monoclinic'
loop_
_space_group_symop_operation_xyz
x,y,z
-x,1/2+y,1/2-z
-x,-y,-z
x,1/2-y,1/2+z
loop_
_atom_site_type_symbol
_atom_site_label
_atom_site_fract_x
_atom_site_fract_y
_atom_site_fract_z
Si Si1 0.082922 0.399628 0.710122
Si Si2 0.442968 0.337237 0.494515
Si Si3 0.080838 0.599290 0.964192
Si Si4 0.554652 0.921778 0.712393
Si Si5 0.285522 0.175640 0.316959
Si Si6 0.712468 0.573607 0.896131
Si Si7 0.854197 0.418872 0.651880
Si Si8 0.860009 0.573855 0.913279
O O1 0.104431 0.524996 0.777331
O O2 0.101180 0.470157 0.530343
O O3 0.125230 0.246873 0.655014
O O4 0.000826 0.355737 0.879229
O O5 0.456710 0.324539 0.628061
O O6 0.455714 0.177040 0.400573
O O7 0.496183 0.450771 0.318424
O O8 0.362283 0.391144 0.625525
O O9 0.127744 0.744693 0.906287
O O10 0.092376 0.474270 0.055694
O O11 0.633286 0.995282 0.556661
O O12 0.278501 0.188429 0.494298
O O13 0.275469 0.338436 0.267822
O O14 0.223822 0.064099 0.386069
O O15 0.770195 0.440741 0.792021
O O16 0.877604 0.462952 0.755986
#
# Coordination Sequence:
#
# PCOD8128660 Si02
#       8
#     4   4   4   4   4   4   4   4
#     4  11  23  40  61  81 110 149 188 226 281 345
#     4   9  18  34  55  80 113 144 185 229 271 323
#     4  11  25  39  56  86 114 143 183 237 288 330
#     4   9  18  34  56  81 113 147 183 228 274 324
#     4   9  18  33  57  82 104 145 194 226 266 333
#     4   9  18  34  57  80 110 148 186 230 276 328
#     4  11  22  38  58  83 116 143 185 238 284 327
#     4  11  22  38  60  81 109 150 193 226 277 342
#
# _framework density 19.207912
#
# number of rings (size 3 to 8) (size 9 to 14) (size 15 to 20)
#    0.000    2.000    1.250    2.250    1.750    4.500 
#    2.250    0.000    2.750    0.000    0.000    0.000 
#    0.000    0.000    0.000    0.000    0.000    0.000 
#
# Total GULP energy -396757.237595 kJ/mol
# GULP energy per Si atom -12398.663675 kJ/mol
# Density = 1.916419 g / cm^3
# Si number density = 19.207912 Si / 1000 Ang^3
#
#
#
# Elastic Constant Matrix: (Units=GPa)
#
#
# Indices 1 2 3 4 5 6 
#
# 1 73.1685 26.1300 29.0052 0.0000 -12.2015 0.0000
# 2 26.1300 78.2893 36.9913 0.0000 -14.6966 0.0000
# 3 29.0052 36.9913 89.8003 0.0000 -6.4041 0.0000
# 4 0.0000 0.0000 0.0000 30.5190 0.0000 -1.5947
# 5 -12.2015 -14.6966 -6.4041 0.0000 19.8155 0.0000
# 6 0.0000 0.0000 0.0000 -1.5947 0.0000 31.7305
#
#
#
# Elastic Compliance Matrix: (Units=1/GPa)
#
#
# Indices 1 2 3 4 5 6 
#
# 1 0.017427 -0.002469 -0.004071 0.000000 0.007584 0.000000
# 2 -0.002469 0.018355 -0.006040 0.000000 0.010141 0.000000
# 3 -0.004071 -0.006040 0.014781 0.000000 -0.002209 0.000000
# 4 0.000000 0.000000 0.000000 0.032853 0.000000 0.001651
# 5 0.007584 0.010141 -0.002209 0.000000 0.061943 0.000000
# 6 0.000000 0.000000 0.000000 0.001651 0.000000 0.031598
#
#
# Mechanical properties :
#
#
# Convention : Reuss Voigt Hill
#
# Bulk Modulus (GPa) = 39.36604 47.27903 43.32253
# Shear Modulus (GPa) = 23.74329 26.35509 25.04919
#
# Velocity S-wave (km/s) = 3.51966 3.70820 3.61516
# Velocity P-wave (km/s) = 6.08741 6.55760 6.32687
#
# Compressibility (1/GPa) = 0.02540261
#
# Stress axis : x y z
#
# Youngs Moduli (GPa) = 57.38079 54.48136 67.65333
#
# Poissons Ratio (x) = 0.13454 0.27541
# Poissons Ratio (y) = 0.14170 0.40863
# Poissons Ratio (z) = 0.23359 0.32907
#
# Static dielectric constant tensor:
#      x y z
#    x 3.601920 0.000000 -0.072190 
#    y 0.000000 3.136370 0.000000 
#    z -0.072190 0.000000 3.780200 
# 
# 
# High freq. dielectric constant tensor:
#      x y z
#    x 1.756270 0.000000 -0.002850 
#    y 0.000000 1.711970 0.000000 
#    z -0.002850 0.000000 1.765060 
# 
# From -- ./inp_files/36365.got.cif
#   From: 2010.03.12/outbox.cif.g09.slc.cpg/sg14_19_cif.got.tgz:36365.got - 2010.03.31 13:35:05.
