data_PCOD8128807
_publ_section_title
;
Structure prediction by ZEFSAII (Michael W. Deem and Ramdas Pophale) SiO2 
 PCOD8128807
Probable space group: P 21/C
;
_chemical_formula_sum "Si O2"
_cell_formula_units_Z 32
_cell_length_a 23.579343
_cell_length_b 8.802634
_cell_length_c 11.341755
_cell_angle_alpha 90.000000
_cell_angle_beta 146.297343
_cell_angle_gamma 90.000000
_cell_volume 1306.249183
_symmetry_space_group_name_H-M "P 21/C"
_symmetry_group_IT_number 14
_symmetry_cell_setting 'monoclinic'
loop_
_space_group_symop_operation_xyz
x,y,z
-x,1/2+y,1/2-z
-x,-y,-z
x,1/2-y,1/2+z
loop_
_atom_site_type_symbol
_atom_site_label
_atom_site_fract_x
_atom_site_fract_y
_atom_site_fract_z
Si Si1 0.538492 0.721189 0.455998
Si Si2 0.716436 0.960415 0.384735
Si Si3 0.927024 0.045765 0.580439
Si Si4 0.893210 0.753131 0.219909
Si Si5 0.612813 0.011424 0.445285
Si Si6 0.196525 0.541857 0.350279
Si Si7 0.347675 0.711783 0.767602
Si Si8 0.977143 0.236712 0.341611
O O1 0.636635 0.650367 0.685403
O O2 0.481732 0.596912 0.278309
O O3 0.466483 0.774701 0.439290
O O4 0.569940 0.859743 0.428392
O O5 0.830122 0.890529 0.553295
O O6 0.697356 0.971571 0.492685
O O7 0.705584 0.125729 0.306740
O O8 0.821746 0.051255 0.322598
O O9 0.022184 0.158026 0.709611
O O10 0.906870 0.125806 0.671878
O O11 0.964962 0.870991 0.655979
O O12 0.943186 0.692853 0.427815
O O13 0.802031 0.870044 0.098921
O O14 0.666579 0.116449 0.637392
O O15 0.297186 0.627264 0.567385
O O16 0.092310 0.616230 0.213325
#
# Coordination Sequence:
#
# PCOD8128807 Si02
#       8
#     4   4   4   4   4   4   4   4
#     4  11  23  42  63  88 121 158 199 246 297 355
#     4  11  24  41  61  89 121 156 201 247 293 357
#     4   9  19  37  57  82 116 152 192 240 293 349
#     4   9  20  39  58  82 115 153 193 237 290 351
#     4  11  23  41  64  89 121 161 198 245 300 352
#     4   9  20  38  57  82 117 152 191 243 293 346
#     4  11  23  39  60  88 120 155 197 247 297 351
#     4   9  19  35  58  82 113 153 193 235 290 353
#
# _framework density 24.497623000000001
#
# number of rings (size 3 to 8) (size 9 to 14) (size 15 to 20)
#    0.000    2.000    0.000    5.625    0.000    8.000 
#    0.000    7.500    0.000    0.000    0.000    0.000 
#    0.000    0.000    0.000    0.000    0.000    0.000 
#
# Total GULP energy -396619.833317 kJ/mol
# GULP energy per Si atom -12394.369791 kJ/mol
# Density = 2.444187 g / cm^3
# Si number density = 24.497623 Si / 1000 Ang^3
#
#
#
# Elastic Constant Matrix: (Units=GPa)
#
#
# Indices 1 2 3 4 5 6 
#
# 1 56.3987 15.2389 2.8532 0.0000 11.7538 0.0000
# 2 15.2389 99.7613 36.9534 0.0000 -5.3331 0.0000
# 3 2.8532 36.9534 107.7725 0.0000 -1.2354 0.0000
# 4 0.0000 0.0000 0.0000 46.3301 0.0000 -5.8860
# 5 11.7538 -5.3331 -1.2354 0.0000 30.8213 0.0000
# 6 0.0000 0.0000 0.0000 -5.8860 0.0000 35.7059
#
#
#
# Elastic Compliance Matrix: (Units=1/GPa)
#
#
# Indices 1 2 3 4 5 6 
#
# 1 0.020494 -0.003832 0.000675 0.000000 -0.008451 0.000000
# 2 -0.003832 0.012303 -0.004078 0.000000 0.003427 0.000000
# 3 0.000675 -0.004078 0.010653 0.000000 -0.000536 0.000000
# 4 0.000000 0.000000 0.000000 0.022046 0.000000 0.003634
# 5 -0.008451 0.003427 -0.000536 0.000000 0.036239 0.000000
# 6 0.000000 0.000000 0.000000 0.003634 0.000000 0.028606
#
#
# Mechanical properties :
#
#
# Convention : Reuss Voigt Hill
#
# Bulk Modulus (GPa) = 34.50793 41.55816 38.03304
# Shear Modulus (GPa) = 32.36856 36.49726 34.43291
#
# Velocity S-wave (km/s) = 3.63890 3.86402 3.75315
# Velocity P-wave (km/s) = 5.63669 6.07524 5.86007
#
# Compressibility (1/GPa) = 0.02897885
#
# Stress axis : x y z
#
# Youngs Moduli (GPa) = 48.79588 81.28126 93.87029
#
# Poissons Ratio (x) = 0.31148 -0.06332
# Poissons Ratio (y) = 0.18699 0.38278
# Poissons Ratio (z) = -0.03292 0.33144
#
# Static dielectric constant tensor:
#      x y z
#    x 4.428220 0.000000 -0.154090 
#    y 0.000000 5.326330 0.000000 
#    z -0.154090 0.000000 4.347590 
# 
# 
# High freq. dielectric constant tensor:
#      x y z
#    x 1.978370 0.000000 -0.006120 
#    y 0.000000 1.997850 0.000000 
#    z -0.006120 0.000000 1.972800 
# 
# From -- ./inp_files/36510.got.cif
#   From: 2010.03.12/outbox.cif.g09.slc.cpg/sg14_19_cif.got.tgz:36510.got - 2010.03.31 13:35:05.
