data_PCOD8128207
_publ_section_title
;
Structure prediction by ZEFSAII (Michael W. Deem and Ramdas Pophale) SiO2 
 PCOD8128207
Probable space group: P 21/C
;
_chemical_formula_sum "Si O2"
_cell_formula_units_Z 20
_cell_length_a 18.928009
_cell_length_b 9.771381
_cell_length_c 12.998208
_cell_angle_alpha 90.000000
_cell_angle_beta 21.930517
_cell_angle_gamma 90.000000
_cell_volume 897.870993
_symmetry_space_group_name_H-M "P 21/C"
_symmetry_group_IT_number 14
_symmetry_cell_setting 'monoclinic'
loop_
_space_group_symop_operation_xyz
x,y,z
-x,1/2+y,1/2-z
-x,-y,-z
x,1/2-y,1/2+z
loop_
_atom_site_type_symbol
_atom_site_label
_atom_site_fract_x
_atom_site_fract_y
_atom_site_fract_z
Si Si1 0.423863 0.806203 0.455128
Si Si2 0.197070 0.769826 0.440812
Si Si3 0.384094 0.250767 0.110262
Si Si4 0.896012 0.932995 0.402015
Si Si5 0.348396 0.412052 0.962870
O O1 0.226125 0.775539 0.781997
O O2 0.586627 0.836154 0.322480
O O3 0.475384 0.671023 0.321408
O O4 0.413485 0.933157 0.392923
O O5 0.092563 0.649633 0.645419
O O6 0.070768 0.907012 0.619815
O O7 0.404859 0.799196 0.210567
O O8 0.252622 0.120346 0.311604
O O9 0.286380 0.344602 0.155535
O O10 0.826163 0.909413 0.379490
#
# Coordination Sequence:
#
# PCOD8128207 Si02
#       5
#     4   4   4   4   4
#     4   9  23  37  67  96 129 165 212 262 320 379
#     4  10  24  43  64  96 133 169 213 266 324 374
#     4   9  22  43  67  92 132 170 211 272 316 376
#     4  11  24  43  68  93 131 175 212 266 322 384
#     4  11  21  41  69  94 127 171 217 257 326 381
#
# _framework density 22.274913999999999
#
# number of rings (size 3 to 8) (size 9 to 14) (size 15 to 20)
#    1.200    0.800    0.000    2.400    5.600    2.400 
#    3.600    1.000    0.000    0.000    0.000    0.000 
#    0.000    0.000    0.000    0.000    0.000    0.000 
#
# Total GULP energy -247863.814270 kJ/mol
# GULP energy per Si atom -12393.190714 kJ/mol
# Density = 2.222422 g / cm^3
# Si number density = 22.274914 Si / 1000 Ang^3
#
#
#
# Elastic Constant Matrix: (Units=GPa)
#
#
# Indices 1 2 3 4 5 6 
#
# 1 79.9954 33.2595 22.0124 0.0000 17.6585 0.0000
# 2 33.2595 146.4285 50.3534 0.0000 21.3894 0.0000
# 3 22.0124 50.3534 79.6065 0.0000 16.2587 0.0000
# 4 0.0000 0.0000 0.0000 36.5968 0.0000 10.0949
# 5 17.6585 21.3894 16.2587 0.0000 17.1823 0.0000
# 6 0.0000 0.0000 0.0000 10.0949 0.0000 36.1210
#
#
#
# Elastic Compliance Matrix: (Units=1/GPa)
#
#
# Indices 1 2 3 4 5 6 
#
# 1 0.016480 -0.001371 -0.000718 0.000000 -0.014551 0.000000
# 2 -0.001371 0.009576 -0.004377 0.000000 -0.006370 0.000000
# 3 -0.000718 -0.004377 0.017683 0.000000 -0.010545 0.000000
# 4 0.000000 0.000000 0.000000 0.029607 0.000000 -0.008274
# 5 -0.014551 -0.006370 -0.010545 0.000000 0.091062 0.000000
# 6 0.000000 0.000000 0.000000 -0.008274 0.000000 0.029997
#
#
# Mechanical properties :
#
#
# Convention : Reuss Voigt Hill
#
# Bulk Modulus (GPa) = 32.45988 57.47567 44.96778
# Shear Modulus (GPa) = 22.97714 31.34035 27.15874
#
# Velocity S-wave (km/s) = 3.21522 3.75504 3.49557
# Velocity P-wave (km/s) = 5.32800 6.68276 6.04346
#
# Compressibility (1/GPa) = 0.03080726
#
# Stress axis : x y z
#
# Youngs Moduli (GPa) = 60.67841 104.42317 56.55208
#
# Poissons Ratio (x) = 0.14315 0.04061
# Poissons Ratio (y) = 0.08318 0.24754
# Poissons Ratio (z) = 0.04357 0.45708
#
# Static dielectric constant tensor:
#      x y z
#    x 3.933070 0.000000 0.210910 
#    y 0.000000 3.804820 0.000000 
#    z 0.210910 0.000000 3.718840 
# 
# 
# High freq. dielectric constant tensor:
#      x y z
#    x 1.867010 0.000000 0.022040 
#    y 0.000000 1.874470 0.000000 
#    z 0.022040 0.000000 1.855110 
# 
# From -- ./inp_files/50006.got.cif
#   From: 2010.03.12/outbox.cif.g09.slc.cpg/sg14_26_cif.got.tgz:50006.got - 2010.03.31 13:35:05.
