data_PCOD8128841
_publ_section_title
;
Structure prediction by ZEFSAII (Michael W. Deem and Ramdas Pophale) SiO2 
 PCOD8128841
Probable space group: P 21/C
;
_chemical_formula_sum "Si O2"
_cell_formula_units_Z 28
_cell_length_a 8.049343
_cell_length_b 12.524089
_cell_length_c 14.173562
_cell_angle_alpha 90.000000
_cell_angle_beta 56.089708
_cell_angle_gamma 90.000000
_cell_volume 1185.817009
_symmetry_space_group_name_H-M "P 21/C"
_symmetry_group_IT_number 14
_symmetry_cell_setting 'monoclinic'
loop_
_space_group_symop_operation_xyz
x,y,z
-x,1/2+y,1/2-z
-x,-y,-z
x,1/2-y,1/2+z
loop_
_atom_site_type_symbol
_atom_site_label
_atom_site_fract_x
_atom_site_fract_y
_atom_site_fract_z
Si Si1 0.894909 0.003308 0.384329
Si Si2 0.725191 0.717048 0.922071
Si Si3 0.423975 0.613499 0.885057
Si Si4 0.916631 0.360647 0.704538
Si Si5 0.308181 0.665920 0.404979
Si Si6 0.666012 0.183839 0.887629
Si Si7 0.655039 0.984476 0.759151
O O1 0.717991 0.070976 0.486746
O O2 0.885549 0.031941 0.275500
O O3 0.863903 0.878196 0.419884
O O4 0.117229 0.038362 0.348407
O O5 0.630632 0.660213 0.860102
O O6 0.850775 0.825342 0.865438
O O7 0.546599 0.755028 0.046558
O O8 0.312418 0.711556 0.868985
O O9 0.468208 0.524673 0.793205
O O10 0.846450 0.388632 0.619323
O O11 0.810411 0.258766 0.783429
O O12 0.244638 0.663240 0.535202
O O13 0.534728 0.619585 0.329946
O O14 0.651801 0.068550 0.844898
#
# Coordination Sequence:
#
# PCOD8128841 Si02
#       7
#     4   4   4   4   4   4   4
#     4  12  23  42  73 102 140 187 241 293 356 418
#     4  11  24  44  71 102 145 180 238 297 355 416
#     4  11  23  41  66 107 135 183 241 289 349 424
#     4  12  24  47  70 106 144 186 236 304 350 419
#     4  11  24  45  68 100 142 183 238 288 357 423
#     4  11  24  48  67 100 149 181 237 299 349 429
#     4  12  25  45  74 103 146 193 232 296 362 414
#
# _framework density 23.612411999999999
#
# number of rings (size 3 to 8) (size 9 to 14) (size 15 to 20)
#    0.000    0.571    5.714    3.857    2.000    0.000 
#    2.571    1.429    0.000    0.000    0.000    0.000 
#    0.000    0.000    0.000    0.000    0.000    0.000 
#
# Total GULP energy -347029.470466 kJ/mol
# GULP energy per Si atom -12393.909659 kJ/mol
# Density = 2.355867 g / cm^3
# Si number density = 23.612412 Si / 1000 Ang^3
#
#
#
# Elastic Constant Matrix: (Units=GPa)
#
#
# Indices 1 2 3 4 5 6 
#
# 1 103.9610 -1.8265 43.1784 0.0000 2.0278 0.0000
# 2 -1.8265 68.8948 21.2073 0.0000 -1.5390 0.0000
# 3 43.1784 21.2073 72.9758 0.0000 4.0329 0.0000
# 4 0.0000 0.0000 0.0000 35.6286 0.0000 -5.6543
# 5 2.0278 -1.5390 4.0329 0.0000 24.3822 0.0000
# 6 0.0000 0.0000 0.0000 -5.6543 0.0000 38.3637
#
#
#
# Elastic Compliance Matrix: (Units=1/GPa)
#
#
# Indices 1 2 3 4 5 6 
#
# 1 0.013319 0.003075 -0.008804 0.000000 0.000543 0.000000
# 2 0.003075 0.016729 -0.006787 0.000000 0.001923 0.000000
# 3 -0.008804 -0.006787 0.021061 0.000000 -0.003180 0.000000
# 4 0.000000 0.000000 0.000000 0.028740 0.000000 0.004236
# 5 0.000543 0.001923 -0.003180 0.000000 0.041616 0.000000
# 6 0.000000 0.000000 0.000000 0.004236 0.000000 0.026691
#
#
# Mechanical properties :
#
#
# Convention : Reuss Voigt Hill
#
# Bulk Modulus (GPa) = 38.34969 41.21666 39.78317
# Shear Modulus (GPa) = 27.49074 31.89305 29.69189
#
# Velocity S-wave (km/s) = 3.41581 3.67916 3.54993
# Velocity P-wave (km/s) = 5.64213 5.96169 5.80411
#
# Compressibility (1/GPa) = 0.02607583
#
# Stress axis : x y z
#
# Youngs Moduli (GPa) = 75.07946 59.77749 47.48157
#
# Poissons Ratio (x) = -0.18384 0.41805
# Poissons Ratio (y) = -0.23090 0.32228
# Poissons Ratio (z) = 0.66103 0.40574
#
# Static dielectric constant tensor:
#      x y z
#    x 4.315730 0.000000 -0.059600 
#    y 0.000000 4.384450 0.000000 
#    z -0.059600 0.000000 4.139420 
# 
# 
# High freq. dielectric constant tensor:
#      x y z
#    x 1.936920 0.000000 0.000000 
#    y 0.000000 1.940410 0.000000 
#    z 0.000000 0.000000 1.926850 
# 
# From -- ./inp_files/41150.got.cif
#   From: 2010.03.12/outbox.cif.g09.slc.cpg/sg14_21_cif.got.tgz:41150.got - 2010.03.31 13:35:05.
