data_PCOD8128445
_publ_section_title
;
Structure prediction by ZEFSAII (Michael W. Deem and Ramdas Pophale) SiO2 
 PCOD8128445
Probable space group: P 21/C
;
_chemical_formula_sum "Si O2"
_cell_formula_units_Z 24
_cell_length_a 7.645023
_cell_length_b 8.526494
_cell_length_c 17.548855
_cell_angle_alpha 90.000000
_cell_angle_beta 84.286516
_cell_angle_gamma 90.000000
_cell_volume 1138.243539
_symmetry_space_group_name_H-M "P 21/C"
_symmetry_group_IT_number 14
_symmetry_cell_setting 'monoclinic'
loop_
_space_group_symop_operation_xyz
x,y,z
-x,1/2+y,1/2-z
-x,-y,-z
x,1/2-y,1/2+z
loop_
_atom_site_type_symbol
_atom_site_label
_atom_site_fract_x
_atom_site_fract_y
_atom_site_fract_z
Si Si1 0.214893 0.731214 0.905485
Si Si2 0.445010 0.364256 0.202755
Si Si3 0.309532 0.062118 0.481260
Si Si4 0.839394 0.773467 0.882190
Si Si5 0.317861 0.570775 0.536552
Si Si6 0.516267 0.287516 0.853403
O O1 0.392636 0.712504 0.849629
O O2 0.185669 0.576993 0.957829
O O3 0.048067 0.757834 0.857113
O O4 0.221071 0.875621 0.963874
O O5 0.269291 0.266666 0.189304
O O6 0.417705 0.548350 0.186370
O O7 0.476126 0.342251 0.291107
O O8 0.214008 0.146261 0.553433
O O9 0.338807 0.181344 0.409314
O O10 0.500000 0.000000 0.500000
O O11 0.799519 0.946251 0.913807
O O12 0.500000 0.500000 0.500000
O O13 0.341764 0.716697 0.593758
#
# Coordination Sequence:
#
# PCOD8128445 Si02
#       6
#     4   4   4   4   4   4
#     4  11  23  39  62  94 127 165 211 258 314 373
#     4  11  23  42  62  90 131 163 210 256 321 391
#     4  11  18  41  66  91 118 163 216 259 310 365
#     4  12  22  38  65  92 128 166 209 262 311 372
#     4  12  20  39  66  91 125 165 216 261 307 368
#     4  11  22  39  69  90 123 174 205 258 326 371
#
# _framework density 21.085118000000001
#
# number of rings (size 3 to 8) (size 9 to 14) (size 15 to 20)
#    0.000    0.667    8.333    2.000    0.000    0.000 
#    0.000    6.667    0.000    0.000    0.000    0.000 
#    0.000    0.000    0.000    0.000    0.000    0.000 
#
# Total GULP energy -297575.539706 kJ/mol
# GULP energy per Si atom -12398.980821 kJ/mol
# Density = 2.103713 g / cm^3
# Si number density = 21.085118 Si / 1000 Ang^3
#
#
#
# Elastic Constant Matrix: (Units=GPa)
#
#
# Indices 1 2 3 4 5 6 
#
# 1 110.8227 32.1071 16.0443 0.0000 25.9836 0.0000
# 2 32.1071 75.9809 7.2918 0.0000 1.8492 0.0000
# 3 16.0443 7.2918 80.0277 0.0000 13.1708 0.0000
# 4 0.0000 0.0000 0.0000 46.0787 0.0000 4.3255
# 5 25.9836 1.8492 13.1708 0.0000 16.4661 0.0000
# 6 0.0000 0.0000 0.0000 4.3255 0.0000 24.3469
#
#
#
# Elastic Compliance Matrix: (Units=1/GPa)
#
#
# Indices 1 2 3 4 5 6 
#
# 1 0.017280 -0.006790 0.001746 0.000000 -0.027902 0.000000
# 2 -0.006790 0.015951 -0.001797 0.000000 0.010362 0.000000
# 3 0.001746 -0.001797 0.014659 0.000000 -0.014280 0.000000
# 4 0.000000 0.000000 0.000000 0.022070 0.000000 -0.003921
# 5 -0.027902 0.010362 -0.014280 0.000000 0.115019 0.000000
# 6 0.000000 0.000000 0.000000 -0.003921 0.000000 0.041770
#
#
# Mechanical properties :
#
#
# Convention : Reuss Voigt Hill
#
# Bulk Modulus (GPa) = 29.23334 41.96866 35.60100
# Shear Modulus (GPa) = 19.85437 31.47088 25.66263
#
# Velocity S-wave (km/s) = 3.07193 3.86756 3.49248
# Velocity P-wave (km/s) = 5.14557 6.31598 5.76058
#
# Compressibility (1/GPa) = 0.03420751
#
# Stress axis : x y z
#
# Youngs Moduli (GPa) = 57.87106 62.69227 68.21551
#
# Poissons Ratio (x) = 0.42571 -0.11913
# Poissons Ratio (y) = 0.39297 0.12260
# Poissons Ratio (z) = -0.10107 0.11268
#
# Static dielectric constant tensor:
#      x y z
#    x 4.003160 0.000000 0.150250 
#    y 0.000000 4.156850 0.000000 
#    z 0.150250 0.000000 3.939080 
# 
# 
# High freq. dielectric constant tensor:
#      x y z
#    x 1.799500 0.000000 0.013180 
#    y 0.000000 1.842060 0.000000 
#    z 0.013180 0.000000 1.821330 
# 
# From -- ./inp_files/54563.got.cif
#   From: 2010.03.12/outbox.cif.g09.slc.cpg/sg14_28_cif.got.tgz:54563.got - 2010.03.31 13:35:05.
