data_PCOD8128643
_publ_section_title
;
Structure prediction by ZEFSAII (Michael W. Deem and Ramdas Pophale) SiO2 
 PCOD8128643
Probable space group: P 21/C
;
_chemical_formula_sum "Si O2"
_cell_formula_units_Z 32
_cell_length_a 13.166829
_cell_length_b 22.139566
_cell_length_c 11.085174
_cell_angle_alpha 90.000000
_cell_angle_beta 147.342604
_cell_angle_gamma 90.000000
_cell_volume 1743.718504
_symmetry_space_group_name_H-M "P 21/C"
_symmetry_group_IT_number 14
_symmetry_cell_setting 'monoclinic'
loop_
_space_group_symop_operation_xyz
x,y,z
-x,1/2+y,1/2-z
-x,-y,-z
x,1/2-y,1/2+z
loop_
_atom_site_type_symbol
_atom_site_label
_atom_site_fract_x
_atom_site_fract_y
_atom_site_fract_z
Si Si1 0.999701 0.395049 0.024587
Si Si2 0.715619 0.542648 0.524223
Si Si3 0.000138 0.783666 0.313706
Si Si4 0.999744 0.940499 0.733573
Si Si5 0.715088 0.343771 0.070034
Si Si6 0.284970 0.542615 0.093751
Si Si7 0.284766 0.156327 0.139628
Si Si8 0.999932 0.343033 0.564597
O O1 0.183598 0.430198 0.256955
O O2 0.999592 0.325582 0.066697
O O3 0.999936 0.395749 0.880784
O O4 0.815673 0.430215 0.888805
O O5 0.500335 0.529704 0.342715
O O6 0.735050 0.589196 0.433255
O O7 0.813025 0.481049 0.580013
O O8 0.000412 0.714600 0.349972
O O9 0.185545 0.796512 0.420025
O O10 0.814253 0.796479 0.049139
O O11 0.999511 0.902638 0.854782
O O12 0.812390 0.980986 0.545097
O O13 0.811923 0.342972 0.296845
O O14 0.734733 0.410851 0.036353
O O15 0.499963 0.323527 0.869790
O O16 0.187752 0.157327 0.172516
#
# Coordination Sequence:
#
# PCOD8128643 Si02
#       8
#     4   4   4   4   4   4   4   4
#     4   9  19  34  55  81 107 140 185 222 270 324
#     4   9  18  36  58  79 109 144 178 222 274 324
#     4   9  20  38  60  75 105 147 184 228 272 318
#     4  11  22  31  51  88 114 138 180 224 269 326
#     4   9  20  39  59  78 104 146 187 222 273 330
#     4   9  18  36  58  79 109 144 178 222 274 324
#     4   9  20  39  59  78 104 146 187 222 273 330
#     4  11  23  35  56  82 115 145 182 226 273 319
#
# _framework density 18.351586000000001
#
# number of rings (size 3 to 8) (size 9 to 14) (size 15 to 20)
#    0.000    2.500    0.000    3.750    3.500    6.000 
#    0.000    2.500    0.000    0.000    0.000    0.000 
#    0.000    0.000    0.000    0.000    0.000    0.000 
#
# Total GULP energy -396893.140797 kJ/mol
# GULP energy per Si atom -12402.910650 kJ/mol
# Density = 1.830982 g / cm^3
# Si number density = 18.351586 Si / 1000 Ang^3
#
#
#
# Elastic Constant Matrix: (Units=GPa)
#
#
# Indices 1 2 3 4 5 6 
#
# 1 89.7011 26.0433 69.2460 0.0000 3.1219 0.0000
# 2 26.0433 61.9323 25.9112 0.0000 0.0823 0.0000
# 3 69.2460 25.9112 112.8266 0.0000 25.9266 0.0000
# 4 0.0000 0.0000 0.0000 11.8703 0.0000 -7.0383
# 5 3.1219 0.0823 25.9266 0.0000 38.8401 0.0000
# 6 0.0000 0.0000 0.0000 -7.0383 0.0000 17.6129
#
#
#
# Elastic Compliance Matrix: (Units=1/GPa)
#
#
# Indices 1 2 3 4 5 6 
#
# 1 0.024329 -0.003480 -0.016164 0.000000 0.008842 0.000000
# 2 -0.003480 0.018702 -0.002616 0.000000 0.001986 0.000000
# 3 -0.016164 -0.002616 0.022542 0.000000 -0.013743 0.000000
# 4 0.000000 0.000000 0.000000 0.110404 0.000000 0.044119
# 5 0.008842 0.001986 -0.013743 0.000000 0.034205 0.000000
# 6 0.000000 0.000000 0.000000 0.044119 0.000000 0.074407
#
#
# Mechanical properties :
#
#
# Convention : Reuss Voigt Hill
#
# Bulk Modulus (GPa) = 47.49736 56.31789 51.90763
# Shear Modulus (GPa) = 14.87539 23.21529 19.04534
#
# Velocity S-wave (km/s) = 2.85015 3.56058 3.22499
# Velocity P-wave (km/s) = 6.06376 6.90352 6.49722
#
# Compressibility (1/GPa) = 0.02105380
#
# Stress axis : x y z
#
# Youngs Moduli (GPa) = 41.10353 53.47140 44.36080
#
# Poissons Ratio (x) = 0.18606 0.71706
# Poissons Ratio (y) = 0.14302 0.11604
# Poissons Ratio (z) = 0.66441 0.13987
#
# Static dielectric constant tensor:
#      x y z
#    x 3.359620 0.000000 0.162270 
#    y 0.000000 3.223440 0.000000 
#    z 0.162270 0.000000 3.495600 
# 
# 
# High freq. dielectric constant tensor:
#      x y z
#    x 1.710430 0.000000 0.004480 
#    y 0.000000 1.702790 0.000000 
#    z 0.004480 0.000000 1.714150 
# 
# From -- ./inp_files/33130.got.cif
#   From: 2010.03.12/outbox.cif.g09.slc.cpg/sg14_17_cif.got.tgz:33130.got - 2010.03.31 13:35:05.
