data_PCOD8128971
_publ_section_title
;
Structure prediction by ZEFSAII (Michael W. Deem and Ramdas Pophale) SiO2 
 PCOD8128971
Probable space group: P 21/C
;
_chemical_formula_sum "Si O2"
_cell_formula_units_Z 28
_cell_length_a 25.122098
_cell_length_b 8.733202
_cell_length_c 9.689035
_cell_angle_alpha 90.000000
_cell_angle_beta 36.864692
_cell_angle_gamma 90.000000
_cell_volume 1275.288873
_symmetry_space_group_name_H-M "P 21/C"
_symmetry_group_IT_number 14
_symmetry_cell_setting 'monoclinic'
loop_
_space_group_symop_operation_xyz
x,y,z
-x,1/2+y,1/2-z
-x,-y,-z
x,1/2-y,1/2+z
loop_
_atom_site_type_symbol
_atom_site_label
_atom_site_fract_x
_atom_site_fract_y
_atom_site_fract_z
Si Si1 0.640042 0.323438 0.024490
Si Si2 0.578684 0.390290 0.878746
Si Si3 0.115162 0.137814 0.060640
Si Si4 0.255516 0.091349 0.003692
Si Si5 0.035589 0.023321 0.771808
Si Si6 0.218753 0.578902 0.851616
Si Si7 0.734336 0.582211 0.966836
O O1 0.566153 0.321823 0.057139
O O2 0.730785 0.232955 0.798138
O O3 0.666413 0.497498 0.006175
O O4 0.584850 0.248229 0.260905
O O5 0.673521 0.471608 0.697753
O O6 0.500000 0.500000 0.000000
O O7 0.074540 0.306381 0.169316
O O8 0.168852 0.086318 0.085574
O O9 0.175490 0.131097 0.798255
O O10 0.037882 0.014003 0.191884
O O11 0.303991 0.256872 0.898975
O O12 0.232215 0.053676 0.210399
O O13 0.113309 0.896992 0.585809
O O14 0.000000 0.000000 0.000000
O O15 0.253117 0.528582 0.929703
#
# Coordination Sequence:
#
# PCOD8128971 Si02
#       7
#     4   4   4   4   4   4   4
#     4  11  25  47  74 104 143 188 228 282 355 425
#     4  11  26  48  74 111 141 176 234 285 355 420
#     4  12  25  44  67  96 140 188 231 296 347 409
#     4  11  23  45  73  98 138 185 232 288 354 421
#     4  12  26  43  66 101 141 178 245 294 346 404
#     4  11  24  43  69 101 136 186 234 282 348 418
#     4  12  21  45  72  98 136 187 238 275 348 422
#
# _framework density 21.955812000000002
#
# number of rings (size 3 to 8) (size 9 to 14) (size 15 to 20)
#    0.000    0.571    7.143    0.000    2.000    1.714 
#    2.571    1.429    0.000    0.000    0.000    0.000 
#    0.000    0.000    0.000    0.000    0.000    0.000 
#
# Total GULP energy -347128.027827 kJ/mol
# GULP energy per Si atom -12397.429565 kJ/mol
# Density = 2.190584 g / cm^3
# Si number density = 21.955812 Si / 1000 Ang^3
#
#
#
# Elastic Constant Matrix: (Units=GPa)
#
#
# Indices 1 2 3 4 5 6 
#
# 1 161.3611 49.4426 40.2154 0.0000 18.2411 0.0000
# 2 49.4426 79.5779 8.8056 0.0000 5.2829 0.0000
# 3 40.2154 8.8056 43.7702 0.0000 17.8341 0.0000
# 4 0.0000 0.0000 0.0000 23.5794 0.0000 1.6083
# 5 18.2411 5.2829 17.8341 0.0000 36.5674 0.0000
# 6 0.0000 0.0000 0.0000 1.6083 0.0000 46.2744
#
#
#
# Elastic Compliance Matrix: (Units=1/GPa)
#
#
# Indices 1 2 3 4 5 6 
#
# 1 0.009765 -0.005183 -0.007800 0.000000 -0.000318 0.000000
# 2 -0.005183 0.015620 0.001854 0.000000 -0.000575 0.000000
# 3 -0.007800 0.001854 0.035148 0.000000 -0.013519 0.000000
# 4 0.000000 0.000000 0.000000 0.042511 0.000000 -0.001477
# 5 -0.000318 -0.000575 -0.013519 0.000000 0.034182 0.000000
# 6 0.000000 0.000000 0.000000 -0.001477 0.000000 0.021662
#
#
# Mechanical properties :
#
#
# Convention : Reuss Voigt Hill
#
# Bulk Modulus (GPa) = 26.12600 53.51514 39.82057
# Shear Modulus (GPa) = 25.78604 33.70062 29.74333
#
# Velocity S-wave (km/s) = 3.43075 3.92207 3.68461
# Velocity P-wave (km/s) = 5.25533 6.70351 6.02311
#
# Compressibility (1/GPa) = 0.03827605
#
# Stress axis : x y z
#
# Youngs Moduli (GPa) = 102.40298 64.02203 28.45094
#
# Poissons Ratio (x) = 0.33183 0.22191
# Poissons Ratio (y) = 0.53076 -0.05276
# Poissons Ratio (z) = 0.79872 -0.11872
#
# Static dielectric constant tensor:
#      x y z
#    x 4.064550 0.000000 0.163190 
#    y 0.000000 3.964400 0.000000 
#    z 0.163190 0.000000 4.159160 
# 
# 
# High freq. dielectric constant tensor:
#      x y z
#    x 1.873050 0.000000 0.023200 
#    y 0.000000 1.865340 0.000000 
#    z 0.023200 0.000000 1.859810 
# 
# From -- ./inp_files/19702.got.cif
#   From: 2010.03.12/outbox.cif.g09.slc.cpg/sg14_10_cif.got.tgz:19702.got - 2010.03.31 13:35:05.
