data_PCOD8128762
_publ_section_title
;
Structure prediction by ZEFSAII (Michael W. Deem and Ramdas Pophale) SiO2 
 PCOD8128762
Probable space group: P 21/C
;
_chemical_formula_sum "Si O2"
_cell_formula_units_Z 24
_cell_length_a 15.055738
_cell_length_b 10.492467
_cell_length_c 14.861393
_cell_angle_alpha 90.000000
_cell_angle_beta 154.012987
_cell_angle_gamma 90.000000
_cell_volume 1028.677526
_symmetry_space_group_name_H-M "P 21/C"
_symmetry_group_IT_number 14
_symmetry_cell_setting 'monoclinic'
loop_
_space_group_symop_operation_xyz
x,y,z
-x,1/2+y,1/2-z
-x,-y,-z
x,1/2-y,1/2+z
loop_
_atom_site_type_symbol
_atom_site_label
_atom_site_fract_x
_atom_site_fract_y
_atom_site_fract_z
Si Si1 0.370573 0.802406 0.312600
Si Si2 0.919116 0.451489 0.740211
Si Si3 0.670202 0.061486 0.326734
Si Si4 0.294035 0.117114 0.805088
Si Si5 0.988780 0.776548 0.065764
Si Si6 0.681443 0.976765 0.860064
O O1 0.272912 0.700853 0.155875
O O2 0.558348 0.735165 0.534631
O O3 0.188008 0.849626 0.211447
O O4 0.432002 0.928635 0.313111
O O5 0.765654 0.532004 0.663344
O O6 0.847441 0.451301 0.571994
O O7 0.930693 0.302666 0.775544
O O8 0.144370 0.506697 0.948590
O O9 0.485916 0.081608 0.227302
O O10 0.606378 0.973433 0.181736
O O11 0.086597 0.173621 0.576384
O O12 0.799251 0.866088 0.914850
#
# Coordination Sequence:
#
# PCOD8128762 Si02
#       6
#     4   4   4   4   4   4
#     4  12  24  43  70  98 142 180 231 290 351 419
#     4  11  23  45  71 100 136 185 240 287 342 420
#     4  11  23  43  71 102 130 187 240 284 342 413
#     4  11  22  44  76  96 132 188 243 282 338 425
#     4  11  25  45  68 100 139 185 232 284 356 421
#     4  12  29  40  67 110 144 177 232 298 360 399
#
# _framework density 23.330926000000002
#
# number of rings (size 3 to 8) (size 9 to 14) (size 15 to 20)
#    0.000    0.667    5.000    3.000    7.000    3.333 
#    0.000    0.000    0.000    0.000    0.000    0.000 
#    0.000    0.000    0.000    0.000    0.000    0.000 
#
# Total GULP energy -297564.840014 kJ/mol
# GULP energy per Si atom -12398.535001 kJ/mol
# Density = 2.327782 g / cm^3
# Si number density = 23.330926 Si / 1000 Ang^3
#
#
#
# Elastic Constant Matrix: (Units=GPa)
#
#
# Indices 1 2 3 4 5 6 
#
# 1 76.4843 29.3029 23.6069 0.0000 24.4978 0.0000
# 2 29.3029 78.7347 19.6287 0.0000 3.6306 0.0000
# 3 23.6069 19.6287 51.1715 0.0000 14.5701 0.0000
# 4 0.0000 0.0000 0.0000 40.1270 0.0000 3.0574
# 5 24.4978 3.6306 14.5701 0.0000 30.2012 0.0000
# 6 0.0000 0.0000 0.0000 3.0574 0.0000 29.1413
#
#
#
# Elastic Compliance Matrix: (Units=1/GPa)
#
#
# Indices 1 2 3 4 5 6 
#
# 1 0.021318 -0.006475 -0.003071 0.000000 -0.015032 0.000000
# 2 -0.006475 0.016040 -0.004767 0.000000 0.005624 0.000000
# 3 -0.003071 -0.004767 0.025405 0.000000 -0.009192 0.000000
# 4 0.000000 0.000000 0.000000 0.025122 0.000000 -0.002636
# 5 -0.015032 0.005624 -0.009192 0.000000 0.049063 0.000000
# 6 0.000000 0.000000 0.000000 -0.002636 0.000000 0.034592
#
#
# Mechanical properties :
#
#
# Convention : Reuss Voigt Hill
#
# Bulk Modulus (GPa) = 29.29368 39.05196 34.17282
# Shear Modulus (GPa) = 23.63576 28.81736 26.22656
#
# Velocity S-wave (km/s) = 3.18632 3.51829 3.35641
# Velocity P-wave (km/s) = 5.11076 5.76881 5.44972
#
# Compressibility (1/GPa) = 0.03413706
#
# Stress axis : x y z
#
# Youngs Moduli (GPa) = 46.90874 62.34479 39.36309
#
# Poissons Ratio (x) = 0.40370 0.12087
# Poissons Ratio (y) = 0.30375 0.18763
# Poissons Ratio (z) = 0.14404 0.29718
#
# Static dielectric constant tensor:
#      x y z
#    x 4.095170 0.000000 -0.078190 
#    y 0.000000 4.026520 0.000000 
#    z -0.078190 0.000000 4.310620 
# 
# 
# High freq. dielectric constant tensor:
#      x y z
#    x 1.920680 0.000000 0.006840 
#    y 0.000000 1.908050 0.000000 
#    z 0.006840 0.000000 1.936560 
# 
# From -- ./inp_files/47002.got.cif
#   From: 2010.03.12/outbox.cif.g09.slc.cpg/sg14_24_cif.got.tgz:47002.got - 2010.03.31 13:35:05.
