data_PCOD8128019
_publ_section_title
;
Structure prediction by ZEFSAII (Michael W. Deem and Ramdas Pophale) SiO2 
 PCOD8128019
Probable space group: P 21/C
;
_chemical_formula_sum "Si O2"
_cell_formula_units_Z 24
_cell_length_a 5.132986
_cell_length_b 8.313137
_cell_length_c 23.506396
_cell_angle_alpha 90.000000
_cell_angle_beta 112.938443
_cell_angle_gamma 90.000000
_cell_volume 923.729706
_symmetry_space_group_name_H-M "P 21/C"
_symmetry_group_IT_number 14
_symmetry_cell_setting 'monoclinic'
loop_
_space_group_symop_operation_xyz
x,y,z
-x,1/2+y,1/2-z
-x,-y,-z
x,1/2-y,1/2+z
loop_
_atom_site_type_symbol
_atom_site_label
_atom_site_fract_x
_atom_site_fract_y
_atom_site_fract_z
Si Si1 0.634286 0.893350 0.937208
Si Si2 0.873321 0.420815 0.912679
Si Si3 0.233008 0.158442 0.893990
Si Si4 0.436798 0.278944 0.798081
Si Si5 0.809862 0.225474 0.521929
Si Si6 0.732842 0.953502 0.824254
O O1 0.451311 0.771226 0.959485
O O2 0.565664 0.873838 0.863435
O O3 0.970317 0.869329 0.975732
O O4 0.538845 0.083579 0.942451
O O5 0.667007 0.408202 0.840603
O O6 0.123055 0.287457 0.929703
O O7 0.994443 0.599499 0.925698
O O8 0.701205 0.370422 0.955849
O O9 0.226966 0.240196 0.831795
O O10 0.045469 0.995444 0.874339
O O11 0.256194 0.339588 0.729440
O O12 0.592366 0.118318 0.791665
#
# Coordination Sequence:
#
# PCOD8128019 Si02
#       6
#     4   4   4   4   4   4
#     4  11  24  46  71 106 133 189 233 289 344 428
#     4  10  26  45  66 110 137 189 231 300 348 421
#     4  10  23  45  67 106 142 178 243 283 357 418
#     4  10  24  43  70  98 143 180 233 289 350 416
#     4  11  26  45  76 100 148 182 240 286 356 420
#     4  10  23  45  65 105 137 183 233 289 349 420
#
# _framework density 25.981628000000001
#
# number of rings (size 3 to 8) (size 9 to 14) (size 15 to 20)
#    0.000    1.667    1.667    0.000    7.000    8.000 
#    0.000    0.000    0.000    0.000    0.000    0.000 
#    0.000    0.000    0.000    0.000    0.000    0.000 
#
# Total GULP energy -297515.495893 kJ/mol
# GULP energy per Si atom -12396.478996 kJ/mol
# Density = 2.592249 g / cm^3
# Si number density = 25.981628 Si / 1000 Ang^3
#
#
#
# Elastic Constant Matrix: (Units=GPa)
#
#
# Indices 1 2 3 4 5 6 
#
# 1 115.8075 18.7667 20.8040 0.0000 -10.8153 0.0000
# 2 18.7667 47.2257 24.6983 0.0000 -6.1154 0.0000
# 3 20.8040 24.6983 107.8693 0.0000 -18.3363 0.0000
# 4 0.0000 0.0000 0.0000 39.1672 0.0000 -11.8596
# 5 -10.8153 -6.1154 -18.3363 0.0000 40.2919 0.0000
# 6 0.0000 0.0000 0.0000 -11.8596 0.0000 29.5466
#
#
#
# Elastic Compliance Matrix: (Units=1/GPa)
#
#
# Indices 1 2 3 4 5 6 
#
# 1 0.009444 -0.003103 -0.000824 0.000000 0.001689 0.000000
# 2 -0.003103 0.025133 -0.005039 0.000000 0.000688 0.000000
# 3 -0.000824 -0.005039 0.011289 0.000000 0.004151 0.000000
# 4 0.000000 0.000000 0.000000 0.029064 0.000000 0.011666
# 5 0.001689 0.000688 0.004151 0.000000 0.027266 0.000000
# 6 0.000000 0.000000 0.000000 0.011666 0.000000 0.038527
#
#
# Mechanical properties :
#
#
# Convention : Reuss Voigt Hill
#
# Bulk Modulus (GPa) = 35.79971 44.38225 40.09098
# Shear Modulus (GPa) = 29.76810 35.57670 32.67240
#
# Velocity S-wave (km/s) = 3.38855 3.70442 3.55000
# Velocity P-wave (km/s) = 5.39615 5.95116 5.68043
#
# Compressibility (1/GPa) = 0.02793319
#
# Stress axis : x y z
#
# Youngs Moduli (GPa) = 105.89179 39.78906 88.58360
#
# Poissons Ratio (x) = 0.12347 0.07296
# Poissons Ratio (y) = 0.32861 0.44637
# Poissons Ratio (z) = 0.08722 0.20049
#
# Static dielectric constant tensor:
#      x y z
#    x 4.860920 0.000000 -0.052440 
#    y 0.000000 4.698350 0.000000 
#    z -0.052440 0.000000 4.568450 
# 
# 
# High freq. dielectric constant tensor:
#      x y z
#    x 2.045640 0.000000 -0.008770 
#    y 0.000000 2.037250 0.000000 
#    z -0.008770 0.000000 2.043570 
# 
# From -- ./inp_files/71076.got.cif
#   From: 2010.03.12/outbox.cif.g09.slc.cpg/sg14_36_cif.got.tgz:71076.got - 2010.03.31 13:35:05.
