data_PCOD8128608
_publ_section_title
;
Structure prediction by ZEFSAII (Michael W. Deem and Ramdas Pophale) SiO2 
 PCOD8128608
Probable space group: P 21/C
;
_chemical_formula_sum "Si O2"
_cell_formula_units_Z 32
_cell_length_a 10.968321
_cell_length_b 14.622288
_cell_length_c 8.897383
_cell_angle_alpha 90.000000
_cell_angle_beta 107.086393
_cell_angle_gamma 90.000000
_cell_volume 1363.996764
_symmetry_space_group_name_H-M "P 21/C"
_symmetry_group_IT_number 14
_symmetry_cell_setting 'monoclinic'
loop_
_space_group_symop_operation_xyz
x,y,z
-x,1/2+y,1/2-z
-x,-y,-z
x,1/2-y,1/2+z
loop_
_atom_site_type_symbol
_atom_site_label
_atom_site_fract_x
_atom_site_fract_y
_atom_site_fract_z
Si Si1 0.978449 0.692037 0.647278
Si Si2 0.295394 0.967301 0.983403
Si Si3 0.445835 0.371470 0.435319
Si Si4 0.668106 0.151573 0.519854
Si Si5 0.568593 0.807954 0.743177
Si Si6 0.146946 0.329348 0.710094
Si Si7 0.776668 0.194311 0.246401
Si Si8 0.154756 0.973141 0.246367
O O1 0.857026 0.736651 0.690434
O O2 0.946235 0.685160 0.462507
O O3 0.081195 0.769740 0.720048
O O4 0.032907 0.594515 0.724092
O O5 0.230693 0.902531 0.837792
O O6 0.319271 0.066271 0.914075
O O7 0.435040 0.930881 0.082335
O O8 0.199672 0.973611 0.088698
O O9 0.483891 0.322756 0.607075
O O10 0.421849 0.298878 0.294789
O O11 0.523395 0.138586 0.408068
O O12 0.753299 0.186366 0.413564
O O13 0.675682 0.231668 0.646388
O O14 0.726211 0.057975 0.606906
O O15 0.708454 0.850402 0.786427
O O16 0.108865 0.425292 0.778171
#
# Coordination Sequence:
#
# PCOD8128608 Si02
#       8
#     4   4   4   4   4   4   4   4
#     4  11  25  46  72  98 131 190 244 287 347 422
#     4  11  22  44  68 109 137 182 238 291 357 416
#     4  11  25  41  67 105 148 187 228 281 364 437
#     4  11  22  40  70 110 135 183 229 286 359 420
#     4  12  23  45  67 102 150 186 221 285 360 442
#     4  12  26  48  67 102 142 187 233 288 365 416
#     4  11  21  42  73 102 136 176 242 299 336 407
#     4  11  25  46  75 102 139 184 241 302 346 416
#
# _framework density 23.460464999999999
#
# number of rings (size 3 to 8) (size 9 to 14) (size 15 to 20)
#    0.000    0.750    3.750    4.875    1.750    0.500 
#    4.500    1.250    0.000    0.000    0.000    0.000 
#    0.000    0.000    0.000    0.000    0.000    0.000 
#
# Total GULP energy -396760.431359 kJ/mol
# GULP energy per Si atom -12398.763480 kJ/mol
# Density = 2.340707 g / cm^3
# Si number density = 23.460465 Si / 1000 Ang^3
#
#
#
# Elastic Constant Matrix: (Units=GPa)
#
#
# Indices 1 2 3 4 5 6 
#
# 1 54.3107 15.1252 4.1141 0.0000 -2.5415 0.0000
# 2 15.1252 138.2254 37.0857 0.0000 6.3940 0.0000
# 3 4.1141 37.0857 60.1466 0.0000 17.7511 0.0000
# 4 0.0000 0.0000 0.0000 37.0873 0.0000 1.6196
# 5 -2.5415 6.3940 17.7511 0.0000 27.6249 0.0000
# 6 0.0000 0.0000 0.0000 1.6196 0.0000 34.4302
#
#
#
# Elastic Compliance Matrix: (Units=1/GPa)
#
#
# Indices 1 2 3 4 5 6 
#
# 1 0.019165 -0.001980 -0.000920 0.000000 0.002813 0.000000
# 2 -0.001980 0.008943 -0.005817 0.000000 0.001486 0.000000
# 3 -0.000920 -0.005817 0.024561 0.000000 -0.014521 0.000000
# 4 0.000000 0.000000 0.000000 0.027019 0.000000 -0.001271
# 5 0.002813 0.001486 -0.014521 0.000000 0.045445 0.000000
# 6 0.000000 0.000000 0.000000 -0.001271 0.000000 0.029104
#
#
# Mechanical properties :
#
#
# Convention : Reuss Voigt Hill
#
# Bulk Modulus (GPa) = 28.38126 40.59254 34.48690
# Shear Modulus (GPa) = 27.26007 32.91899 30.08953
#
# Velocity S-wave (km/s) = 3.41245 3.74995 3.58517
# Velocity P-wave (km/s) = 5.25834 6.00746 5.64534
#
# Compressibility (1/GPa) = 0.03523452
#
# Stress axis : x y z
#
# Youngs Moduli (GPa) = 52.17729 111.81501 40.71424
#
# Poissons Ratio (x) = 0.22144 0.03746
# Poissons Ratio (y) = 0.10333 0.23685
# Poissons Ratio (z) = 0.04800 0.65048
#
# Static dielectric constant tensor:
#      x y z
#    x 4.171510 0.000000 0.088410 
#    y 0.000000 4.372050 0.000000 
#    z 0.088410 0.000000 4.032000 
# 
# 
# High freq. dielectric constant tensor:
#      x y z
#    x 1.933000 0.000000 0.008280 
#    y 0.000000 1.933350 0.000000 
#    z 0.008280 0.000000 1.915510 
# 
# From -- ./inp_files/13395.got.cif
#   From: 2010.03.12/outbox.cif.g09.slc.cpg/sg14_7_cif.got.tgz:13395.got - 2010.03.31 13:35:05.
