data_PCOD8128416
_publ_section_title
;
Structure prediction by ZEFSAII (Michael W. Deem and Ramdas Pophale) SiO2 
 PCOD8128416
Probable space group: P 21/C
;
_chemical_formula_sum "Si O2"
_cell_formula_units_Z 20
_cell_length_a 5.221328
_cell_length_b 5.271827
_cell_length_c 29.592529
_cell_angle_alpha 90.000000
_cell_angle_beta 111.101034
_cell_angle_gamma 90.000000
_cell_volume 759.943314
_symmetry_space_group_name_H-M "P 21/C"
_symmetry_group_IT_number 14
_symmetry_cell_setting 'monoclinic'
loop_
_space_group_symop_operation_xyz
x,y,z
-x,1/2+y,1/2-z
-x,-y,-z
x,1/2-y,1/2+z
loop_
_atom_site_type_symbol
_atom_site_label
_atom_site_fract_x
_atom_site_fract_y
_atom_site_fract_z
Si Si1 0.265003 0.975180 0.875536
Si Si2 0.462648 0.779831 0.306120
Si Si3 0.367137 0.669446 0.053793
Si Si4 0.216635 0.721573 0.696519
Si Si5 0.116157 0.849174 0.444649
O O1 0.310104 0.735723 0.844700
O O2 0.090999 0.880480 0.907727
O O3 0.556881 0.085305 0.911372
O O4 0.100458 0.198652 0.838648
O O5 0.634695 0.523780 0.313550
O O6 0.233774 0.782979 0.252060
O O7 0.656418 0.024207 0.316323
O O8 0.651680 0.542358 0.057246
O O9 0.180106 0.482777 0.071865
O O10 0.197763 0.760996 0.999037
#
# Coordination Sequence:
#
# PCOD8128416 Si02
#       5
#     4   4   4   4   4
#     4  12  27  42  82 110 152 208 275 316 400 480
#     4  10  26  49  73 110 159 207 262 332 399 470
#     4  10  25  48  75 113 160 204 260 330 401 474
#     4  10  26  49  73 110 159 207 262 332 399 470
#     4  10  25  48  75 113 160 204 260 330 401 474
#
# _framework density 26.317754000000001
#
# number of rings (size 3 to 8) (size 9 to 14) (size 15 to 20)
#    0.000    1.600    0.000    0.600   11.200    4.800 
#    0.000    6.000    0.000    3.600    0.000    0.000 
#    0.000    0.000    0.000    0.000    0.000    0.000 
#
# Total GULP energy -248109.028001 kJ/mol
# GULP energy per Si atom -12405.451400 kJ/mol
# Density = 2.625785 g / cm^3
# Si number density = 26.317754 Si / 1000 Ang^3
#
#
#
# Elastic Constant Matrix: (Units=GPa)
#
#
# Indices 1 2 3 4 5 6 
#
# 1 79.2946 28.9417 48.3205 0.0000 -0.0982 0.0000
# 2 28.9417 128.3142 71.9375 0.0000 -26.0472 0.0000
# 3 48.3205 71.9375 155.1212 0.0000 40.1918 0.0000
# 4 0.0000 0.0000 0.0000 39.6876 0.0000 2.7685
# 5 -0.0982 -26.0472 40.1918 0.0000 -59.2609 0.0000
# 6 0.0000 0.0000 0.0000 2.7685 0.0000 40.2133
#
#
#
# Elastic Compliance Matrix: (Units=1/GPa)
#
#
# Indices 1 2 3 4 5 6 
#
# 1 0.015433 -0.001826 -0.003540 0.000000 -0.001624 0.000000
# 2 -0.001826 0.008306 -0.001988 0.000000 -0.004996 0.000000
# 3 -0.003540 -0.001988 0.007011 0.000000 0.005635 0.000000
# 4 0.000000 0.000000 0.000000 0.025318 0.000000 -0.001743
# 5 -0.001624 -0.004996 0.005635 0.000000 -0.010854 0.000000
# 6 0.000000 0.000000 0.000000 -0.001743 0.000000 0.024987
#
#
# Mechanical properties :
#
#
# Convention : Reuss Voigt Hill
#
# Bulk Modulus (GPa) = 62.33893 73.45883 67.89888
# Shear Modulus (GPa) = 55.39712 18.36335 36.88024
#
# Velocity S-wave (km/s) = 4.59293 2.64437 3.74751
# Velocity P-wave (km/s) = 7.20175 6.10708 6.67689
#
# Compressibility (1/GPa) = 0.01604134
#
# Stress axis : x y z
#
# Youngs Moduli (GPa) = 64.79728 120.39753 142.62602
#
# Poissons Ratio (x) = 0.21984 0.50487
# Poissons Ratio (y) = 0.11832 0.28361
# Poissons Ratio (z) = 0.22937 0.23941
#
# Static dielectric constant tensor:
#      x y z
#    x 4.428470 0.000000 -0.003960 
#    y 0.000000 4.893560 0.000000 
#    z -0.003960 0.000000 5.226650 
# 
# 
# High freq. dielectric constant tensor:
#      x y z
#    x 2.046970 0.000000 0.005520 
#    y 0.000000 2.046460 0.000000 
#    z 0.005520 0.000000 2.083530 
# 
# From -- ./inp_files/75395.got.cif
#   From: 2010.03.12/outbox.cif.g09.slc.cpg/sg14_38_cif.got.tgz:75395.got - 2010.03.31 13:35:05.
