data_PCOD8128115
_publ_section_title
;
Structure prediction by ZEFSAII (Michael W. Deem and Ramdas Pophale) SiO2 
 PCOD8128115
Probable space group: P 21/C
;
_chemical_formula_sum "Si O2"
_cell_formula_units_Z 28
_cell_length_a 5.054692
_cell_length_b 26.537757
_cell_length_c 8.932189
_cell_angle_alpha 90.000000
_cell_angle_beta 90.013786
_cell_angle_gamma 90.000000
_cell_volume 1198.165477
_symmetry_space_group_name_H-M "P 21/C"
_symmetry_group_IT_number 14
_symmetry_cell_setting 'monoclinic'
loop_
_space_group_symop_operation_xyz
x,y,z
-x,1/2+y,1/2-z
-x,-y,-z
x,1/2-y,1/2+z
loop_
_atom_site_type_symbol
_atom_site_label
_atom_site_fract_x
_atom_site_fract_y
_atom_site_fract_z
Si Si1 0.989961 0.549635 0.304192
Si Si2 0.475244 0.811815 0.800318
Si Si3 0.727798 0.712475 0.781397
Si Si4 0.484337 0.588500 0.141283
Si Si5 0.041410 0.292294 0.528555
Si Si6 0.996986 0.434449 0.357175
Si Si7 0.496033 0.605100 0.803453
O O1 0.273792 0.553142 0.224363
O O2 0.911754 0.491541 0.324490
O O3 0.775691 0.575920 0.199042
O O4 0.003606 0.576628 0.465695
O O5 0.518194 0.756072 0.727486
O O6 0.414976 0.852801 0.673266
O O7 0.739205 0.827937 0.891447
O O8 0.244614 0.810595 0.922748
O O9 0.898636 0.734069 0.921629
O O10 0.934146 0.701284 0.648726
O O11 0.571955 0.663086 0.830278
O O12 0.471277 0.578484 0.964623
O O13 0.287634 0.423877 0.294393
O O14 0.785298 0.397626 0.279528
#
# Coordination Sequence:
#
# PCOD8128115 Si02
#       7
#     4   4   4   4   4   4   4
#     4  11  26  49  73  97 143 179 237 285 359 425
#     4  10  25  42  65  99 134 183 223 270 341 408
#     4  10  26  42  66  99 140 178 226 283 334 409
#     4  12  25  45  72 105 138 187 230 292 346 422
#     4  10  24  39  67  89 137 181 222 273 335 399
#     4  11  27  47  71 106 133 185 231 295 351 424
#     4  12  27  42  72 107 141 176 241 286 351 405
#
# _framework density 23.369057000000002
#
# number of rings (size 3 to 8) (size 9 to 14) (size 15 to 20)
#    0.857    0.286    0.000    4.286   10.000    5.714 
#    0.000    0.000    0.000    0.000    0.000    0.000 
#    0.000    0.000    0.000    0.000    0.000    0.000 
#
# Total GULP energy -347272.217494 kJ/mol
# GULP energy per Si atom -12402.579196 kJ/mol
# Density = 2.331587 g / cm^3
# Si number density = 23.369057 Si / 1000 Ang^3
#
#
#
# Elastic Constant Matrix: (Units=GPa)
#
#
# Indices 1 2 3 4 5 6 
#
# 1 94.8313 0.8714 17.1862 0.0000 -15.2329 0.0000
# 2 0.8714 63.5842 1.3658 0.0000 5.6385 0.0000
# 3 17.1862 1.3658 117.7735 0.0000 -11.0003 0.0000
# 4 0.0000 0.0000 0.0000 22.8345 0.0000 -1.2130
# 5 -15.2329 5.6385 -11.0003 0.0000 38.7648 0.0000
# 6 0.0000 0.0000 0.0000 -1.2130 0.0000 18.8864
#
#
#
# Elastic Compliance Matrix: (Units=1/GPa)
#
#
# Indices 1 2 3 4 5 6 
#
# 1 0.011457 -0.000503 -0.001272 0.000000 0.004214 0.000000
# 2 -0.000503 0.015974 -0.000357 0.000000 -0.002623 0.000000
# 3 -0.001272 -0.000357 0.008874 0.000000 0.002070 0.000000
# 4 0.000000 0.000000 0.000000 0.043943 0.000000 0.002822
# 5 0.004214 -0.002623 0.002070 0.000000 0.028422 0.000000
# 6 0.000000 0.000000 0.000000 0.002822 0.000000 0.053129
#
#
# Mechanical properties :
#
#
# Convention : Reuss Voigt Hill
#
# Bulk Modulus (GPa) = 31.21060 35.00397 33.10729
# Shear Modulus (GPa) = 28.28933 33.21485 30.75209
#
# Velocity S-wave (km/s) = 3.48307 3.77413 3.63151
# Velocity P-wave (km/s) = 5.43693 5.83124 5.63753
#
# Compressibility (1/GPa) = 0.03204040
#
# Stress axis : x y z
#
# Youngs Moduli (GPa) = 87.28112 62.60055 112.68823
#
# Poissons Ratio (x) = 0.03151 0.14339
# Poissons Ratio (y) = 0.04394 0.04020
# Poissons Ratio (z) = 0.11106 0.02233
#
# Static dielectric constant tensor:
#      x y z
#    x 4.001110 0.000000 -0.110370 
#    y 0.000000 4.182030 0.000000 
#    z -0.110370 0.000000 4.052800 
# 
# 
# High freq. dielectric constant tensor:
#      x y z
#    x 1.926250 0.000000 -0.011690 
#    y 0.000000 1.926760 0.000000 
#    z -0.011690 0.000000 1.923440 
# 
# From -- ./inp_files/6671.got.cif
#   From: 2010.03.12/outbox.cif.g09.slc.cpg/sg14_4_cif.got.tgz:6671.got - 2010.03.31 13:35:05.
