data_PCOD8128029
_publ_section_title
;
Structure prediction by ZEFSAII (Michael W. Deem and Ramdas Pophale) SiO2 
 PCOD8128029
Probable space group: P 21/C
;
_chemical_formula_sum "Si O2"
_cell_formula_units_Z 28
_cell_length_a 18.287732
_cell_length_b 8.962236
_cell_length_c 13.586418
_cell_angle_alpha 90.000000
_cell_angle_beta 35.794149
_cell_angle_gamma 90.000000
_cell_volume 1302.399260
_symmetry_space_group_name_H-M "P 21/C"
_symmetry_group_IT_number 14
_symmetry_cell_setting 'monoclinic'
loop_
_space_group_symop_operation_xyz
x,y,z
-x,1/2+y,1/2-z
-x,-y,-z
x,1/2-y,1/2+z
loop_
_atom_site_type_symbol
_atom_site_label
_atom_site_fract_x
_atom_site_fract_y
_atom_site_fract_z
Si Si1 0.330452 0.560299 0.024324
Si Si2 0.880376 0.405986 0.603623
Si Si3 0.946151 0.841945 0.582829
Si Si4 0.531002 0.425462 0.317992
Si Si5 0.488239 0.266693 0.559662
Si Si6 0.221948 0.178247 0.878757
Si Si7 0.281636 0.222546 0.035844
O O1 0.357872 0.608007 0.881370
O O2 0.441172 0.623550 0.972974
O O3 0.200982 0.625727 0.208391
O O4 0.319782 0.381388 0.040511
O O5 0.800362 0.499304 0.610107
O O6 0.000000 0.500000 0.500000
O O7 0.934904 0.250414 0.503191
O O8 0.894613 0.768055 0.538879
O O9 0.834484 0.851607 0.781912
O O10 0.000000 0.000000 0.500000
O O11 0.559308 0.329922 0.385395
O O12 0.522776 0.601895 0.347736
O O13 0.399348 0.386334 0.412251
O O14 0.348719 0.218231 0.680556
O O15 0.237358 0.232533 0.972399
#
# Coordination Sequence:
#
# PCOD8128029 Si02
#       7
#     4   4   4   4   4   4   4
#     4  12  22  44  72 100 140 185 229 287 354 416
#     4  10  23  45  68  93 134 178 231 276 335 418
#     4  11  26  49  70  94 138 185 229 292 347 407
#     4  11  23  42  65 105 143 177 229 287 352 414
#     4  11  24  40  69 107 142 179 229 289 355 415
#     4  11  22  45  69 102 137 177 229 288 345 408
#     4  12  24  44  71 102 142 178 231 290 346 422
#
# _framework density 21.498783
#
# number of rings (size 3 to 8) (size 9 to 14) (size 15 to 20)
#    0.000    0.857    7.143    0.000    2.000    3.429 
#    2.571    0.000    0.000    0.000    0.000    0.000 
#    0.000    0.000    0.000    0.000    0.000    0.000 
#
# Total GULP energy -347105.578832 kJ/mol
# GULP energy per Si atom -12396.627815 kJ/mol
# Density = 2.144985 g / cm^3
# Si number density = 21.498783 Si / 1000 Ang^3
#
#
#
# Elastic Constant Matrix: (Units=GPa)
#
#
# Indices 1 2 3 4 5 6 
#
# 1 81.7323 33.5365 24.5042 0.0000 3.8842 0.0000
# 2 33.5365 116.4351 32.6546 0.0000 -15.3687 0.0000
# 3 24.5042 32.6546 139.8946 0.0000 0.7204 0.0000
# 4 0.0000 0.0000 0.0000 34.1539 0.0000 -8.4145
# 5 3.8842 -15.3687 0.7204 0.0000 33.6724 0.0000
# 6 0.0000 0.0000 0.0000 -8.4145 0.0000 31.4610
#
#
#
# Elastic Compliance Matrix: (Units=1/GPa)
#
#
# Indices 1 2 3 4 5 6 
#
# 1 0.014614 -0.004249 -0.001550 0.000000 -0.003592 0.000000
# 2 -0.004249 0.011074 -0.001869 0.000000 0.005584 0.000000
# 3 -0.001550 -0.001869 0.007860 0.000000 -0.000843 0.000000
# 4 0.000000 0.000000 0.000000 0.031345 0.000000 0.008383
# 5 -0.003592 0.005584 -0.000843 0.000000 0.032679 0.000000
# 6 0.000000 0.000000 0.000000 0.008383 0.000000 0.034028
#
#
# Mechanical properties :
#
#
# Convention : Reuss Voigt Hill
#
# Bulk Modulus (GPa) = 54.90750 57.71697 56.31224
# Shear Modulus (GPa) = 32.67873 36.34857 34.51365
#
# Velocity S-wave (km/s) = 3.90298 4.11631 4.01106
# Velocity P-wave (km/s) = 6.77542 7.03540 6.90663
#
# Compressibility (1/GPa) = 0.01821245
#
# Stress axis : x y z
#
# Youngs Moduli (GPa) = 68.42926 90.30517 127.22079
#
# Poissons Ratio (x) = 0.38367 0.19713
# Poissons Ratio (y) = 0.29073 0.23782
# Poissons Ratio (z) = 0.10603 0.16881
#
# Static dielectric constant tensor:
#      x y z
#    x 3.593690 0.000000 0.212670 
#    y 0.000000 3.593960 0.000000 
#    z 0.212670 0.000000 3.866970 
# 
# 
# High freq. dielectric constant tensor:
#      x y z
#    x 1.830910 0.000000 0.002430 
#    y 0.000000 1.843520 0.000000 
#    z 0.002430 0.000000 1.858460 
# 
# From -- ./inp_files/50185.got.cif
#   From: 2010.03.12/outbox.cif.g09.slc.cpg/sg14_26_cif.got.tgz:50185.got - 2010.03.31 13:35:05.
