data_PCOD8128236
_publ_section_title
;
Structure prediction by ZEFSAII (Michael W. Deem and Ramdas Pophale) SiO2 
 PCOD8128236
Probable space group: P 21/C
;
_chemical_formula_sum "Si O2"
_cell_formula_units_Z 32
_cell_length_a 5.152946
_cell_length_b 22.460233
_cell_length_c 14.565246
_cell_angle_alpha 90.000000
_cell_angle_beta 134.338791
_cell_angle_gamma 90.000000
_cell_volume 1205.666388
_symmetry_space_group_name_H-M "P 21/C"
_symmetry_group_IT_number 14
_symmetry_cell_setting 'monoclinic'
loop_
_space_group_symop_operation_xyz
x,y,z
-x,1/2+y,1/2-z
-x,-y,-z
x,1/2-y,1/2+z
loop_
_atom_site_type_symbol
_atom_site_label
_atom_site_fract_x
_atom_site_fract_y
_atom_site_fract_z
Si Si1 0.594165 0.075439 0.775834
Si Si2 0.296460 0.383297 0.517754
Si Si3 0.392727 0.644450 0.887239
Si Si4 0.764187 0.453992 0.778790
Si Si5 0.474797 0.096946 0.387239
Si Si6 0.323024 0.237763 0.101364
Si Si7 0.135767 0.283661 0.755550
Si Si8 0.398983 0.329331 0.365710
O O1 0.495000 0.085570 0.644211
O O2 0.520414 0.138585 0.804496
O O3 0.020271 0.067154 0.907371
O O4 0.360871 0.022039 0.759900
O O5 0.515181 0.413003 0.653573
O O6 0.107106 0.319598 0.503294
O O7 0.552298 0.362592 0.495037
O O8 0.695102 0.698459 0.957969
O O9 0.042817 0.668865 0.748090
O O10 0.317542 0.622523 0.972439
O O11 0.744626 0.432631 0.880211
O O12 0.177438 0.451591 0.846712
O O13 0.267838 0.149230 0.283895
O O14 0.134815 0.245329 0.153427
O O15 0.742476 0.215529 0.206640
O O16 0.446225 0.242652 0.884008
#
# Coordination Sequence:
#
# PCOD8128236 Si02
#       8
#     4   4   4   4   4   4   4   4
#     4  11  26  47  71 102 142 190 238 288 347 418
#     4  11  24  45  70 105 138 183 234 293 354 414
#     4  10  25  46  69 105 140 186 236 288 357 417
#     4  12  29  46  72 103 142 189 241 288 346 414
#     4  12  26  47  71 101 142 187 236 294 343 422
#     4  11  22  42  72 104 141 173 226 295 354 425
#     4  11  21  44  68 103 140 174 229 288 360 412
#     4  10  24  43  71 101 139 184 229 295 354 425
#
# _framework density 26.541338
#
# number of rings (size 3 to 8) (size 9 to 14) (size 15 to 20)
#    0.000    1.000    3.750    1.125    8.750    1.500 
#    2.250    0.000    0.000    0.000    0.000    0.000 
#    0.000    0.000    0.000    0.000    0.000    0.000 
#
# Total GULP energy -396492.726678 kJ/mol
# GULP energy per Si atom -12390.397709 kJ/mol
# Density = 2.648093 g / cm^3
# Si number density = 26.541338 Si / 1000 Ang^3
#
#
#
# Elastic Constant Matrix: (Units=GPa)
#
#
# Indices 1 2 3 4 5 6 
#
# 1 68.6858 1.3420 7.2345 0.0000 -25.9011 0.0000
# 2 1.3420 78.3352 22.2811 0.0000 2.3183 0.0000
# 3 7.2345 22.2811 90.6858 0.0000 -29.5909 0.0000
# 4 0.0000 0.0000 0.0000 30.1834 0.0000 1.8510
# 5 -25.9011 2.3183 -29.5909 0.0000 29.7941 0.0000
# 6 0.0000 0.0000 0.0000 1.8510 0.0000 29.3446
#
#
#
# Elastic Compliance Matrix: (Units=1/GPa)
#
#
# Indices 1 2 3 4 5 6 
#
# 1 0.025712 -0.004056 0.009383 0.000000 0.031986 0.000000
# 2 -0.004056 0.015282 -0.007352 0.000000 -0.012017 0.000000
# 3 0.009383 -0.007352 0.022093 0.000000 0.030671 0.000000
# 4 0.000000 0.000000 0.000000 0.033259 0.000000 -0.002098
# 5 0.031986 -0.012017 0.030671 0.000000 0.092768 0.000000
# 6 0.000000 0.000000 0.000000 -0.002098 0.000000 0.034210
#
#
# Mechanical properties :
#
#
# Convention : Reuss Voigt Hill
#
# Bulk Modulus (GPa) = 16.93888 33.26910 25.10399
# Shear Modulus (GPa) = 20.23847 31.65437 25.94642
#
# Velocity S-wave (km/s) = 2.76438 3.45721 3.13003
# Velocity P-wave (km/s) = 4.07247 5.33840 4.74782
#
# Compressibility (1/GPa) = 0.05903577
#
# Stress axis : x y z
#
# Youngs Moduli (GPa) = 38.89236 65.43627 45.26309
#
# Poissons Ratio (x) = 0.26540 -0.42468
# Poissons Ratio (y) = 0.15774 0.33279
# Poissons Ratio (z) = -0.36491 0.48111
#
# Static dielectric constant tensor:
#      x y z
#    x 4.832280 0.000000 0.010620 
#    y 0.000000 4.892880 0.000000 
#    z 0.010620 0.000000 4.874600 
# 
# 
# High freq. dielectric constant tensor:
#      x y z
#    x 2.067790 0.000000 -0.011870 
#    y 0.000000 2.067020 0.000000 
#    z -0.011870 0.000000 2.055460 
# 
# From -- ./inp_files/38202.got.cif
#   From: 2010.03.12/outbox.cif.g09.slc.cpg/sg14_20_cif.got.tgz:38202.got - 2010.03.31 13:35:05.
