data_PCOD8128055
_publ_section_title
;
Structure prediction by ZEFSAII (Michael W. Deem and Ramdas Pophale) SiO2 
 PCOD8128055
Probable space group: P 21/C
;
_chemical_formula_sum "Si O2"
_cell_formula_units_Z 24
_cell_length_a 11.037140
_cell_length_b 11.090380
_cell_length_c 9.842780
_cell_angle_alpha 90.000000
_cell_angle_beta 74.672840
_cell_angle_gamma 90.000000
_cell_volume 1161.963458
_symmetry_space_group_name_H-M "P 21/C"
_symmetry_group_IT_number 14
_symmetry_cell_setting 'monoclinic'
loop_
_space_group_symop_operation_xyz
x,y,z
-x,1/2+y,1/2-z
-x,-y,-z
x,1/2-y,1/2+z
loop_
_atom_site_type_symbol
_atom_site_label
_atom_site_fract_x
_atom_site_fract_y
_atom_site_fract_z
Si Si1 0.827956 0.390320 0.062942
Si Si2 0.378701 0.771942 0.785642
Si Si3 0.096630 0.146284 0.388224
Si Si4 0.638167 0.488015 0.898945
Si Si5 0.237662 0.268002 0.112111
Si Si6 0.486398 0.358088 0.491971
O O1 0.759110 0.290003 0.175406
O O2 0.872037 0.504316 0.140684
O O3 0.726905 0.428073 0.982634
O O4 0.949009 0.332633 0.954817
O O5 0.366378 0.907101 0.733788
O O6 0.471979 0.690086 0.667845
O O7 0.433223 0.783795 0.921102
O O8 0.130793 0.218568 0.243081
O O9 0.174756 0.197226 0.489998
O O10 0.693323 0.617441 0.840722
O O11 0.500000 0.500000 0.000000
O O12 0.339286 0.164687 0.056170
O O13 0.500000 0.500000 0.500000
#
# Coordination Sequence:
#
# PCOD8128055 Si02
#       6
#     4   4   4   4   4   4
#     4  10  23  46  65  96 130 177 213 265 333 390
#     4  12  24  42  67  95 134 168 218 277 330 395
#     4  10  24  42  70  89 133 174 220 263 320 394
#     4  11  23  42  68  95 134 172 212 274 344 384
#     4  11  23  42  65  95 129 173 220 265 330 392
#     4  12  27  39  68  99 132 170 222 277 334 392
#
# _framework density 20.654695
#
# number of rings (size 3 to 8) (size 9 to 14) (size 15 to 20)
#    0.000    1.000    3.333    2.000   11.667    0.000 
#    0.000    0.833    0.000    0.000    0.000    0.000 
#    0.000    0.000    0.000    0.000    0.000    0.000 
#
# Total GULP energy -297710.841302 kJ/mol
# GULP energy per Si atom -12404.618388 kJ/mol
# Density = 2.060768 g / cm^3
# Si number density = 20.654695 Si / 1000 Ang^3
#
#
#
# Elastic Constant Matrix: (Units=GPa)
#
#
# Indices 1 2 3 4 5 6 
#
# 1 98.3496 34.5557 20.1393 0.0000 -22.9562 0.0000
# 2 34.5557 116.3561 41.0287 0.0000 -22.5266 0.0000
# 3 20.1393 41.0287 83.4912 0.0000 -24.4848 0.0000
# 4 0.0000 0.0000 0.0000 41.9318 0.0000 -12.1610
# 5 -22.9562 -22.5266 -24.4848 0.0000 35.8156 0.0000
# 6 0.0000 0.0000 0.0000 -12.1610 0.0000 26.3974
#
#
#
# Elastic Compliance Matrix: (Units=1/GPa)
#
#
# Indices 1 2 3 4 5 6 
#
# 1 0.012552 -0.002502 0.000125 0.000000 0.006557 0.000000
# 2 -0.002502 0.011327 -0.004182 0.000000 0.002661 0.000000
# 3 0.000125 -0.004182 0.016578 0.000000 0.008783 0.000000
# 4 0.000000 0.000000 0.000000 0.027526 0.000000 0.012681
# 5 0.006557 0.002661 0.008783 0.000000 0.039801 0.000000
# 6 0.000000 0.000000 0.000000 0.012681 0.000000 0.043724
#
#
# Mechanical properties :
#
#
# Convention : Reuss Voigt Hill
#
# Bulk Modulus (GPa) = 36.57956 54.40492 45.49224
# Shear Modulus (GPa) = 28.77837 34.32719 31.55278
#
# Velocity S-wave (km/s) = 3.73675 4.08113 3.91273
# Velocity P-wave (km/s) = 6.03045 6.97172 6.51810
#
# Compressibility (1/GPa) = 0.02733767
#
# Stress axis : x y z
#
# Youngs Moduli (GPa) = 79.66946 88.28102 60.32039
#
# Poissons Ratio (x) = 0.22091 -0.00753
# Poissons Ratio (y) = 0.19936 0.25228
# Poissons Ratio (z) = -0.00994 0.36922
#
# Static dielectric constant tensor:
#      x y z
#    x 3.813040 0.000000 -0.155660 
#    y 0.000000 4.045090 0.000000 
#    z -0.155660 0.000000 3.630990 
# 
# 
# High freq. dielectric constant tensor:
#      x y z
#    x 1.816150 0.000000 -0.006480 
#    y 0.000000 1.821270 0.000000 
#    z -0.006480 0.000000 1.801300 
# 
# From -- ./inp_files/12359.got.cif
#   From: 2010.03.12/outbox.cif.g09.slc.cpg/sg14_7_cif.got.tgz:12359.got - 2010.03.31 13:35:05.
