data_PCOD8128481
_publ_section_title
;
Structure prediction by ZEFSAII (Michael W. Deem and Ramdas Pophale) SiO2 
 PCOD8128481
Probable space group: P 21/C
;
_chemical_formula_sum "Si O2"
_cell_formula_units_Z 28
_cell_length_a 7.705605
_cell_length_b 13.515882
_cell_length_c 17.913240
_cell_angle_alpha 90.000000
_cell_angle_beta 45.310097
_cell_angle_gamma 90.000000
_cell_volume 1326.319332
_symmetry_space_group_name_H-M "P 21/C"
_symmetry_group_IT_number 14
_symmetry_cell_setting 'monoclinic'
loop_
_space_group_symop_operation_xyz
x,y,z
-x,1/2+y,1/2-z
-x,-y,-z
x,1/2-y,1/2+z
loop_
_atom_site_type_symbol
_atom_site_label
_atom_site_fract_x
_atom_site_fract_y
_atom_site_fract_z
Si Si1 0.990359 0.054563 0.279225
Si Si2 0.274045 0.648808 0.006421
Si Si3 0.531650 0.685941 0.729786
Si Si4 0.328680 0.222294 0.159107
Si Si5 0.552413 0.502901 0.821091
Si Si6 0.801272 0.827246 0.555155
Si Si7 0.007569 0.656312 0.837213
O O1 0.836006 0.127673 0.379674
O O2 0.240608 0.108688 0.177607
O O3 0.826074 0.033300 0.256398
O O4 0.065379 0.957322 0.301490
O O5 0.071357 0.653866 0.003723
O O6 0.428856 0.751890 0.962955
O O7 0.461298 0.563946 0.921607
O O8 0.609934 0.756938 0.773655
O O9 0.563913 0.571443 0.743731
O O10 0.706767 0.718308 0.608254
O O11 0.255631 0.708649 0.788430
O O12 0.099960 0.290046 0.202762
O O13 0.377481 0.410738 0.857032
O O14 0.807480 0.835439 0.463865
#
# Coordination Sequence:
#
# PCOD8128481 Si02
#       7
#     4   4   4   4   4   4   4
#     4  12  22  40  72  94 132 168 212 278 315 374
#     4  11  20  37  62  97 129 157 211 271 318 371
#     4  11  24  40  61  99 133 165 209 276 321 378
#     4  11  24  40  62  99 133 165 209 275 322 378
#     4  11  21  39  62 101 127 163 218 266 319 381
#     4  12  22  39  71  95 130 171 211 275 319 370
#     4  12  23  43  67  98 127 168 225 260 321 385
#
# _framework density 21.111056000000001
#
# number of rings (size 3 to 8) (size 9 to 14) (size 15 to 20)
#    0.000    0.571    8.571    3.429    0.000    0.000 
#    0.000    0.000    0.000   13.714    0.000    0.000 
#    0.000    0.000    0.000    0.000    0.000    0.000 
#
# Total GULP energy -347226.844537 kJ/mol
# GULP energy per Si atom -12400.958733 kJ/mol
# Density = 2.106301 g / cm^3
# Si number density = 21.111056 Si / 1000 Ang^3
#
#
#
# Elastic Constant Matrix: (Units=GPa)
#
#
# Indices 1 2 3 4 5 6 
#
# 1 112.1798 36.9053 18.5812 0.0000 -22.5550 0.0000
# 2 36.9053 90.9783 46.5123 0.0000 -2.6331 0.0000
# 3 18.5812 46.5123 35.4319 0.0000 -0.8508 0.0000
# 4 0.0000 0.0000 0.0000 43.2983 0.0000 -7.7504
# 5 -22.5550 -2.6331 -0.8508 0.0000 24.0865 0.0000
# 6 0.0000 0.0000 0.0000 -7.7504 0.0000 31.9022
#
#
#
# Elastic Compliance Matrix: (Units=1/GPa)
#
#
# Indices 1 2 3 4 5 6 
#
# 1 0.012824 -0.004782 -0.000173 0.000000 0.011480 0.000000
# 2 -0.004782 0.035312 -0.043899 0.000000 -0.002168 0.000000
# 3 -0.000173 -0.043899 0.085894 0.000000 -0.001926 0.000000
# 4 0.000000 0.000000 0.000000 0.024146 0.000000 0.005866
# 5 0.011480 -0.002168 -0.001926 0.000000 0.051962 0.000000
# 6 0.000000 0.000000 0.000000 0.005866 0.000000 0.032771
#
#
# Mechanical properties :
#
#
# Convention : Reuss Voigt Hill
#
# Bulk Modulus (GPa) = 27.53005 49.17639 38.35322
# Shear Modulus (GPa) = 14.17545 28.96350 21.56947
#
# Velocity S-wave (km/s) = 2.59409 3.70801 3.19989
# Velocity P-wave (km/s) = 4.69481 6.45579 5.64440
#
# Compressibility (1/GPa) = 0.03632394
#
# Stress axis : x y z
#
# Youngs Moduli (GPa) = 77.97843 28.31928 11.64219
#
# Poissons Ratio (x) = 0.13541 0.00201
# Poissons Ratio (y) = 0.37286 0.51108
# Poissons Ratio (z) = 0.01346 1.24318
#
# Static dielectric constant tensor:
#      x y z
#    x 3.924700 0.000000 -0.174640 
#    y 0.000000 3.813760 0.000000 
#    z -0.174640 0.000000 3.629720 
# 
# 
# High freq. dielectric constant tensor:
#      x y z
#    x 1.853260 0.000000 -0.012510 
#    y 0.000000 1.810380 0.000000 
#    z -0.012510 0.000000 1.791380 
# 
# From -- ./inp_files/65715.got.cif
#   From: 2010.03.12/outbox.cif.g09.slc.cpg/sg14_33_cif.got.tgz:65715.got - 2010.03.31 13:35:05.
