data_PCOD8128799
_publ_section_title
;
Structure prediction by ZEFSAII (Michael W. Deem and Ramdas Pophale) SiO2 
 PCOD8128799
Probable space group: P 21/C
;
_chemical_formula_sum "Si O2"
_cell_formula_units_Z 32
_cell_length_a 18.099019
_cell_length_b 14.725513
_cell_length_c 12.457563
_cell_angle_alpha 90.000000
_cell_angle_beta 154.234928
_cell_angle_gamma 90.000000
_cell_volume 1443.212875
_symmetry_space_group_name_H-M "P 21/C"
_symmetry_group_IT_number 14
_symmetry_cell_setting 'monoclinic'
loop_
_space_group_symop_operation_xyz
x,y,z
-x,1/2+y,1/2-z
-x,-y,-z
x,1/2-y,1/2+z
loop_
_atom_site_type_symbol
_atom_site_label
_atom_site_fract_x
_atom_site_fract_y
_atom_site_fract_z
Si Si1 0.425110 0.404859 0.173547
Si Si2 0.922905 0.279242 0.653125
Si Si3 0.197265 0.080787 0.187903
Si Si4 0.832097 0.576305 0.973215
Si Si5 0.614449 0.269176 0.893501
Si Si6 0.087427 0.408056 0.314900
Si Si7 0.130694 0.624698 0.635342
Si Si8 0.638938 0.578754 0.504186
O O1 0.264856 0.424213 0.040063
O O2 0.514849 0.311120 0.324132
O O3 0.556414 0.487348 0.350463
O O4 0.363773 0.386348 0.970125
O O5 0.745308 0.275001 0.481644
O O6 0.904201 0.348950 0.531407
O O7 0.972471 0.180740 0.675501
O O8 0.069517 0.327860 0.916661
O O9 0.172692 0.980119 0.199115
O O10 0.218093 0.084598 0.086608
O O11 0.033923 0.143263 0.004835
O O12 0.694726 0.563319 0.699705
O O13 0.964186 0.493767 0.147041
O O14 0.491108 0.337709 0.669345
O O15 0.709630 0.320527 0.112664
O O16 0.195264 0.398842 0.348469
#
# Coordination Sequence:
#
# PCOD8128799 Si02
#       8
#     4   4   4   4   4   4   4   4
#     4  12  26  47  71 103 142 182 227 299 355 403
#     4  12  26  44  74 101 137 187 240 281 346 423
#     4  11  22  48  76  98 137 187 243 291 339 419
#     4  12  26  49  70 101 140 191 232 280 351 432
#     4  12  28  44  68 109 142 181 229 296 355 408
#     4  12  26  45  75 101 137 189 237 285 341 427
#     4  11  23  46  74 101 137 185 245 285 343 421
#     4  12  29  46  66 107 147 180 227 292 362 412
#
# _framework density 22.172751000000002
#
# number of rings (size 3 to 8) (size 9 to 14) (size 15 to 20)
#    0.000    0.250    5.000    3.750    7.000    1.500 
#    0.000    0.000    0.000    0.000    0.000    0.000 
#    0.000    0.000    0.000    0.000    0.000    0.000 
#
# Total GULP energy -396991.824971 kJ/mol
# GULP energy per Si atom -12405.994530 kJ/mol
# Density = 2.212229 g / cm^3
# Si number density = 22.172751 Si / 1000 Ang^3
#
#
#
# Elastic Constant Matrix: (Units=GPa)
#
#
# Indices 1 2 3 4 5 6 
#
# 1 60.9310 11.5618 30.0179 0.0000 -3.2445 0.0000
# 2 11.5618 88.3263 25.8254 0.0000 10.9182 0.0000
# 3 30.0179 25.8254 101.5254 0.0000 -4.1373 0.0000
# 4 0.0000 0.0000 0.0000 38.2095 0.0000 12.4345
# 5 -3.2445 10.9182 -4.1373 0.0000 27.3193 0.0000
# 6 0.0000 0.0000 0.0000 12.4345 0.0000 33.4700
#
#
#
# Elastic Compliance Matrix: (Units=1/GPa)
#
#
# Indices 1 2 3 4 5 6 
#
# 1 0.019379 -0.001221 -0.005339 0.000000 0.001981 0.000000
# 2 -0.001221 0.013152 -0.003225 0.000000 -0.005890 0.000000
# 3 -0.005339 -0.003225 0.012351 0.000000 0.002525 0.000000
# 4 0.000000 0.000000 0.000000 0.029771 0.000000 -0.011060
# 5 0.001981 -0.005890 0.002525 0.000000 0.039576 0.000000
# 6 0.000000 0.000000 0.000000 -0.011060 0.000000 0.033986
#
#
# Mechanical properties :
#
#
# Convention : Reuss Voigt Hill
#
# Bulk Modulus (GPa) = 39.50225 42.84365 41.17295
# Shear Modulus (GPa) = 28.37328 32.02492 30.19910
#
# Velocity S-wave (km/s) = 3.58110 3.80457 3.69452
# Velocity P-wave (km/s) = 5.91213 6.21806 6.06702
#
# Compressibility (1/GPa) = 0.02531502
#
# Stress axis : x y z
#
# Youngs Moduli (GPa) = 51.60176 76.03218 80.96254
#
# Poissons Ratio (x) = 0.09281 0.43223
# Poissons Ratio (y) = 0.06299 0.26108
# Poissons Ratio (z) = 0.27548 0.24518
#
# Static dielectric constant tensor:
#      x y z
#    x 3.864080 0.000000 0.005360 
#    y 0.000000 4.069260 0.000000 
#    z 0.005360 0.000000 4.136120 
# 
# 
# High freq. dielectric constant tensor:
#      x y z
#    x 1.867600 0.000000 -0.002790 
#    y 0.000000 1.888760 0.000000 
#    z -0.002790 0.000000 1.884640 
# 
# From -- ./inp_files/34228.got.cif
#   From: 2010.03.12/outbox.cif.g09.slc.cpg/sg14_18_cif.got.tgz:34228.got - 2010.03.31 13:35:05.
