data_PCOD8128804
_publ_section_title
;
Structure prediction by ZEFSAII (Michael W. Deem and Ramdas Pophale) SiO2 
 PCOD8128804
Probable space group: P 21/C
;
_chemical_formula_sum "Si O2"
_cell_formula_units_Z 20
_cell_length_a 8.908113
_cell_length_b 8.181213
_cell_length_c 18.325867
_cell_angle_alpha 90.000000
_cell_angle_beta 50.297957
_cell_angle_gamma 90.000000
_cell_volume 1027.559601
_symmetry_space_group_name_H-M "P 21/C"
_symmetry_group_IT_number 14
_symmetry_cell_setting 'monoclinic'
loop_
_space_group_symop_operation_xyz
x,y,z
-x,1/2+y,1/2-z
-x,-y,-z
x,1/2-y,1/2+z
loop_
_atom_site_type_symbol
_atom_site_label
_atom_site_fract_x
_atom_site_fract_y
_atom_site_fract_z
Si Si1 0.251546 0.111106 0.793355
Si Si2 0.824322 0.225257 0.946438
Si Si3 0.739952 0.047478 0.837990
Si Si4 0.569850 0.137527 0.152743
Si Si5 0.133226 0.605517 0.202673
O O1 0.423288 0.243413 0.740507
O O2 0.054315 0.189886 0.886233
O O3 0.304738 0.958864 0.827417
O O4 0.224679 0.044970 0.718820
O O5 0.727325 0.075604 0.929751
O O6 0.798678 0.389994 0.904299
O O7 0.717659 0.244412 0.056847
O O8 0.809829 0.219164 0.778998
O O9 0.538055 0.991916 0.865757
O O10 0.898415 0.906100 0.773983
#
# Coordination Sequence:
#
# PCOD8128804 Si02
#       5
#     4   4   4   4   4
#     4  11  23  38  59  88 119 154 185 243 289 338
#     4   9  21  37  62  83 114 153 199 228 283 350
#     4   9  17  35  59  85 112 153 190 232 283 342
#     4  12  21  38  59  85 120 151 194 237 289 339
#     4   9  18  37  59  85 114 151 190 233 284 337
#
# _framework density 19.463591999999998
#
# number of rings (size 3 to 8) (size 9 to 14) (size 15 to 20)
#    1.200    0.800    2.000    2.400    0.000    0.800 
#    0.000    1.000    4.400    0.000    0.000    0.000 
#    0.000    0.000    0.000    0.000    0.000    0.000 
#
# Total GULP energy -247784.136668 kJ/mol
# GULP energy per Si atom -12389.206833 kJ/mol
# Density = 1.941929 g / cm^3
# Si number density = 19.463592 Si / 1000 Ang^3
#
#
#
# Elastic Constant Matrix: (Units=GPa)
#
#
# Indices 1 2 3 4 5 6 
#
# 1 70.4573 0.4511 18.2125 0.0000 -4.8884 0.0000
# 2 0.4511 34.0316 4.5415 0.0000 -6.8939 0.0000
# 3 18.2125 4.5415 62.2469 0.0000 -4.1259 0.0000
# 4 0.0000 0.0000 0.0000 21.2745 0.0000 -0.3185
# 5 -4.8884 -6.8939 -4.1259 0.0000 19.9163 0.0000
# 6 0.0000 0.0000 0.0000 -0.3185 0.0000 28.4508
#
#
#
# Elastic Compliance Matrix: (Units=1/GPa)
#
#
# Indices 1 2 3 4 5 6 
#
# 1 0.015553 0.001044 -0.004410 0.000000 0.003265 0.000000
# 2 0.001044 0.031829 -0.001907 0.000000 0.010879 0.000000
# 3 -0.004410 -0.001907 0.017621 0.000000 0.001908 0.000000
# 4 0.000000 0.000000 0.000000 0.047013 0.000000 0.000526
# 5 0.003265 0.010879 0.001908 0.000000 0.055172 0.000000
# 6 0.000000 0.000000 0.000000 0.000526 0.000000 0.035154
#
#
# Mechanical properties :
#
#
# Convention : Reuss Voigt Hill
#
# Bulk Modulus (GPa) = 18.36323 23.68287 21.02305
# Shear Modulus (GPa) = 21.64126 23.49702 22.56914
#
# Velocity S-wave (km/s) = 3.33811 3.47829 3.40892
# Velocity P-wave (km/s) = 4.93076 5.32217 5.13020
#
# Compressibility (1/GPa) = 0.05445665
#
# Stress axis : x y z
#
# Youngs Moduli (GPa) = 64.29686 31.41811 56.75046
#
# Poissons Ratio (x) = -0.03279 0.25028
# Poissons Ratio (y) = -0.06711 0.10820
# Poissons Ratio (z) = 0.28357 0.05990
#
# Static dielectric constant tensor:
#      x y z
#    x 3.531600 0.000000 -0.007650 
#    y 0.000000 3.271680 0.000000 
#    z -0.007650 0.000000 3.258550 
# 
# 
# High freq. dielectric constant tensor:
#      x y z
#    x 1.763970 0.000000 -0.005900 
#    y 0.000000 1.740250 0.000000 
#    z -0.005900 0.000000 1.736130 
# 
# From -- ./inp_files/46211.got.cif
#   From: 2010.03.12/outbox.cif.g09.slc.cpg/sg14_24_cif.got.tgz:46211.got - 2010.03.31 13:35:05.
