data_PCOD8128258
_publ_section_title
;
Structure prediction by ZEFSAII (Michael W. Deem and Ramdas Pophale) SiO2 
 PCOD8128258
Probable space group: P 21/C
;
_chemical_formula_sum "Si O2"
_cell_formula_units_Z 12
_cell_length_a 9.208239
_cell_length_b 9.930850
_cell_length_c 12.195310
_cell_angle_alpha 90.000000
_cell_angle_beta 149.563821
_cell_angle_gamma 90.000000
_cell_volume 564.940128
_symmetry_space_group_name_H-M "P 21/C"
_symmetry_group_IT_number 14
_symmetry_cell_setting 'monoclinic'
loop_
_space_group_symop_operation_xyz
x,y,z
-x,1/2+y,1/2-z
-x,-y,-z
x,1/2-y,1/2+z
loop_
_atom_site_type_symbol
_atom_site_label
_atom_site_fract_x
_atom_site_fract_y
_atom_site_fract_z
Si Si1 0.163378 0.019113 0.276497
Si Si2 0.775775 0.546510 0.943353
Si Si3 0.755856 0.846282 0.884070
O O1 0.062449 0.056621 0.333486
O O2 0.105869 0.135135 0.147804
O O3 0.500000 0.000000 0.500000
O O4 0.000173 0.883500 0.132129
O O5 0.655429 0.693564 0.834162
O O6 0.514302 0.443276 0.774500
O O7 0.000000 0.500000 0.000000
#
# Coordination Sequence:
#
# PCOD8128258 Si02
#       3
#     4   4   4
#     4   9  22  43  67  90 134 171 215 272 323 377
#     4  11  26  41  70  99 129 174 222 264 332 388
#     4  10  24  44  66  96 135 170 219 272 323 390
#
# _framework density 21.24119
#
# number of rings (size 3 to 8) (size 9 to 14) (size 15 to 20)
#    0.000    2.000    0.000    0.000   18.667    4.000 
#    0.000    0.000    0.000    0.000    0.000    0.000 
#    0.000    0.000    0.000    0.000    0.000    0.000 
#
# Total GULP energy -148747.555726 kJ/mol
# GULP energy per Si atom -12395.629644 kJ/mol
# Density = 2.119284 g / cm^3
# Si number density = 21.241190 Si / 1000 Ang^3
#
#
#
# Elastic Constant Matrix: (Units=GPa)
#
#
# Indices 1 2 3 4 5 6 
#
# 1 180.0928 67.2167 57.1900 0.0000 -28.2927 0.0000
# 2 67.2167 181.8593 51.2171 0.0000 -4.4174 0.0000
# 3 57.1900 51.2171 108.5536 0.0000 -10.8266 0.0000
# 4 0.0000 0.0000 0.0000 32.8903 0.0000 8.3780
# 5 -28.2927 -4.4174 -10.8266 0.0000 39.9210 0.0000
# 6 0.0000 0.0000 0.0000 8.3780 0.0000 27.4962
#
#
#
# Elastic Compliance Matrix: (Units=1/GPa)
#
#
# Indices 1 2 3 4 5 6 
#
# 1 0.007914 -0.002040 -0.002745 0.000000 0.004639 0.000000
# 2 -0.002040 0.006867 -0.002296 0.000000 -0.001308 0.000000
# 3 -0.002745 -0.002296 0.011842 0.000000 0.001012 0.000000
# 4 0.000000 0.000000 0.000000 0.032962 0.000000 -0.010044
# 5 0.004639 -0.001308 0.001012 0.000000 0.028467 0.000000
# 6 0.000000 0.000000 0.000000 -0.010044 0.000000 0.039429
#
#
# Mechanical properties :
#
#
# Convention : Reuss Voigt Hill
#
# Bulk Modulus (GPa) = 80.23410 91.30594 85.77002
# Shear Modulus (GPa) = 34.29414 39.72028 37.00721
#
# Velocity S-wave (km/s) = 4.02246 4.32900 4.17854
# Velocity P-wave (km/s) = 7.70898 8.25019 7.98417
#
# Compressibility (1/GPa) = 0.01246353
#
# Stress axis : x y z
#
# Youngs Moduli (GPa) = 126.35412 145.61389 84.44294
#
# Poissons Ratio (x) = 0.29699 0.23176
# Poissons Ratio (y) = 0.25770 0.19389
# Poissons Ratio (z) = 0.34679 0.33435
#
# Static dielectric constant tensor:
#      x y z
#    x 4.743490 0.000000 -0.625840 
#    y 0.000000 3.684260 0.000000 
#    z -0.625840 0.000000 4.116530 
# 
# 
# High freq. dielectric constant tensor:
#      x y z
#    x 1.847220 0.000000 -0.015070 
#    y 0.000000 1.819050 0.000000 
#    z -0.015070 0.000000 1.836530 
# 
# From -- ./inp_files/4653.got.cif
#   From: 2010.03.12/outbox.cif.g09.slc.cpg/sg14_3_cif.got.tgz:4653.got - 2010.03.31 13:35:05.
