data_PCOD8128574
_publ_section_title
;
Structure prediction by ZEFSAII (Michael W. Deem and Ramdas Pophale) SiO2 
 PCOD8128574
Probable space group: P 21/C
;
_chemical_formula_sum "Si O2"
_cell_formula_units_Z 28
_cell_length_a 7.592580
_cell_length_b 16.343405
_cell_length_c 16.545167
_cell_angle_alpha 90.000000
_cell_angle_beta 34.283707
_cell_angle_gamma 90.000000
_cell_volume 1156.474265
_symmetry_space_group_name_H-M "P 21/C"
_symmetry_group_IT_number 14
_symmetry_cell_setting 'monoclinic'
loop_
_space_group_symop_operation_xyz
x,y,z
-x,1/2+y,1/2-z
-x,-y,-z
x,1/2-y,1/2+z
loop_
_atom_site_type_symbol
_atom_site_label
_atom_site_fract_x
_atom_site_fract_y
_atom_site_fract_z
Si Si1 0.311507 0.474689 0.240999
Si Si2 0.476461 0.447475 0.689578
Si Si3 0.484026 0.723871 0.652546
Si Si4 0.851848 0.127263 0.470436
Si Si5 0.516713 0.613913 0.048144
Si Si6 0.125744 0.925732 0.222576
Si Si7 0.151054 0.791381 0.938406
O O1 0.289324 0.497958 0.343759
O O2 0.375397 0.558731 0.171063
O O3 0.988582 0.436340 0.327452
O O4 0.594524 0.411079 0.126917
O O5 0.365162 0.501508 0.655304
O O6 0.652095 0.364918 0.595655
O O7 0.178580 0.420362 0.857255
O O8 0.602191 0.798364 0.551991
O O9 0.274371 0.663263 0.678235
O O10 0.299809 0.757355 0.799630
O O11 0.799255 0.675622 0.557203
O O12 0.754734 0.123846 0.414300
O O13 0.883742 0.221421 0.481760
O O14 0.182575 0.431371 0.103885
#
# Coordination Sequence:
#
# PCOD8128574 Si02
#       7
#     4   4   4   4   4   4   4
#     4  11  21  40  70 106 131 179 236 284 339 410
#     4  12  23  42  74  96 144 182 231 286 343 405
#     4  12  25  45  70 102 141 182 230 292 345 412
#     4  11  22  40  71 107 134 179 241 284 330 416
#     4  11  21  42  73 102 136 181 239 282 340 411
#     4  11  24  44  68 103 140 179 236 288 342 413
#     4  12  25  44  69 104 139 185 231 279 354 412
#
# _framework density 24.211521000000001
#
# number of rings (size 3 to 8) (size 9 to 14) (size 15 to 20)
#    0.000    0.571    7.143    2.143    0.000    2.857 
#    5.143    0.714    0.000    0.000    0.000    0.000 
#    0.000    0.000    0.000    0.000    0.000    0.000 
#
# Total GULP energy -347282.632822 kJ/mol
# GULP energy per Si atom -12402.951172 kJ/mol
# Density = 2.415641 g / cm^3
# Si number density = 24.211521 Si / 1000 Ang^3
#
#
#
# Elastic Constant Matrix: (Units=GPa)
#
#
# Indices 1 2 3 4 5 6 
#
# 1 98.7149 25.9598 20.3105 0.0000 -26.5230 0.0000
# 2 25.9598 97.4535 5.1157 0.0000 -15.2408 0.0000
# 3 20.3105 5.1157 59.1974 0.0000 -20.4222 0.0000
# 4 0.0000 0.0000 0.0000 32.1485 0.0000 -14.2737
# 5 -26.5230 -15.2408 -20.4222 0.0000 21.9158 0.0000
# 6 0.0000 0.0000 0.0000 -14.2737 0.0000 45.1656
#
#
#
# Elastic Compliance Matrix: (Units=1/GPa)
#
#
# Indices 1 2 3 4 5 6 
#
# 1 0.015237 -0.001171 0.001406 0.000000 0.018935 0.000000
# 2 -0.001171 0.011883 0.002560 0.000000 0.009231 0.000000
# 3 0.001406 0.002560 0.025629 0.000000 0.027364 0.000000
# 4 0.000000 0.000000 0.000000 0.036183 0.000000 0.011435
# 5 0.018935 0.009231 0.027364 0.000000 0.100464 0.000000
# 6 0.000000 0.000000 0.000000 0.011435 0.000000 0.025754
#
#
# Mechanical properties :
#
#
# Convention : Reuss Voigt Hill
#
# Bulk Modulus (GPa) = 17.14173 39.79310 28.46742
# Shear Modulus (GPa) = 21.83341 33.44462 27.63901
#
# Velocity S-wave (km/s) = 3.00622 3.72069 3.38237
# Velocity P-wave (km/s) = 4.37552 5.91010 5.19973
#
# Compressibility (1/GPa) = 0.05833715
#
# Stress axis : x y z
#
# Youngs Moduli (GPa) = 65.63178 84.15665 39.01782
#
# Poissons Ratio (x) = 0.09857 -0.05486
# Poissons Ratio (y) = 0.07687 -0.09987
# Poissons Ratio (z) = -0.09228 -0.21541
#
# Static dielectric constant tensor:
#      x y z
#    x 4.525850 0.000000 -0.371920 
#    y 0.000000 4.462420 0.000000 
#    z -0.371920 0.000000 4.142900 
# 
# 
# High freq. dielectric constant tensor:
#      x y z
#    x 1.966180 0.000000 -0.020600 
#    y 0.000000 1.973990 0.000000 
#    z -0.020600 0.000000 1.943410 
# 
# From -- ./inp_files/65902.got.cif
#   From: 2010.03.12/outbox.cif.g09.slc.cpg/sg14_33_cif.got.tgz:65902.got - 2010.03.31 13:35:05.
