data_PCOD8128757
_publ_section_title
;
Structure prediction by ZEFSAII (Michael W. Deem and Ramdas Pophale) SiO2 
 PCOD8128757
Probable space group: P 21/C
;
_chemical_formula_sum "Si O2"
_cell_formula_units_Z 28
_cell_length_a 8.676656
_cell_length_b 11.833397
_cell_length_c 19.174729
_cell_angle_alpha 90.000000
_cell_angle_beta 41.656039
_cell_angle_gamma 90.000000
_cell_volume 1308.545480
_symmetry_space_group_name_H-M "P 21/C"
_symmetry_group_IT_number 14
_symmetry_cell_setting 'monoclinic'
loop_
_space_group_symop_operation_xyz
x,y,z
-x,1/2+y,1/2-z
-x,-y,-z
x,1/2-y,1/2+z
loop_
_atom_site_type_symbol
_atom_site_label
_atom_site_fract_x
_atom_site_fract_y
_atom_site_fract_z
Si Si1 0.260211 0.661406 0.703426
Si Si2 0.453494 0.448326 0.179670
Si Si3 0.848240 0.313693 0.106859
Si Si4 0.631921 0.839090 0.541658
Si Si5 0.262093 0.043656 0.107534
Si Si6 0.895451 0.054812 0.104963
Si Si7 0.772175 0.784825 0.345264
O O1 0.260847 0.638514 0.785143
O O2 0.500485 0.719375 0.598418
O O3 0.183508 0.545376 0.692101
O O4 0.045703 0.743682 0.758828
O O5 0.701663 0.385220 0.100371
O O6 0.479412 0.558496 0.122381
O O7 0.331652 0.484792 0.293475
O O8 0.280688 0.357338 0.204678
O O9 0.806948 0.179712 0.115360
O O10 0.120474 0.337235 0.002917
O O11 0.673899 0.853444 0.445280
O O12 0.331163 0.159657 0.122905
O O13 0.080366 0.059441 0.105646
O O14 0.500000 0.000000 0.000000
O O15 0.000000 0.000000 0.000000
#
# Coordination Sequence:
#
# PCOD8128757 Si02
#       7
#     4   4   4   4   4   4   4
#     4  11  22  44  72  96 133 187 222 292 341 401
#     4  12  26  44  69 105 142 182 229 290 351 417
#     4  11  26  45  68 101 141 185 230 277 360 407
#     4  11  22  47  70  95 141 179 228 281 348 413
#     4  12  23  44  72  99 134 179 239 283 341 415
#     4  12  27  45  70 100 142 182 233 290 344 417
#     4  11  24  42  69 104 133 179 234 282 350 406
#
# _framework density 21.397804000000001
#
# number of rings (size 3 to 8) (size 9 to 14) (size 15 to 20)
#    0.000    0.571    7.143    0.857    6.000    0.000 
#    0.000    0.000    0.000    0.000    0.000    0.000 
#    0.000    0.000    0.000    0.000    0.000    0.000 
#
# Total GULP energy -347125.522040 kJ/mol
# GULP energy per Si atom -12397.340073 kJ/mol
# Density = 2.134910 g / cm^3
# Si number density = 21.397804 Si / 1000 Ang^3
#
#
#
# Elastic Constant Matrix: (Units=GPa)
#
#
# Indices 1 2 3 4 5 6 
#
# 1 58.1933 37.4713 16.4149 0.0000 -3.9167 0.0000
# 2 37.4713 140.4332 37.8551 0.0000 10.0423 0.0000
# 3 16.4149 37.8551 105.5224 0.0000 -0.5943 0.0000
# 4 0.0000 0.0000 0.0000 32.3921 0.0000 -6.9137
# 5 -3.9167 10.0423 -0.5943 0.0000 37.2692 0.0000
# 6 0.0000 0.0000 0.0000 -6.9137 0.0000 34.9660
#
#
#
# Elastic Compliance Matrix: (Units=1/GPa)
#
#
# Indices 1 2 3 4 5 6 
#
# 1 0.021431 -0.005639 -0.001290 0.000000 0.003751 0.000000
# 2 -0.005639 0.009546 -0.002565 0.000000 -0.003206 0.000000
# 3 -0.001290 -0.002565 0.010602 0.000000 0.000725 0.000000
# 4 0.000000 0.000000 0.000000 0.032232 0.000000 0.006373
# 5 0.003751 -0.003206 0.000725 0.000000 0.028101 0.000000
# 6 0.000000 0.000000 0.000000 0.006373 0.000000 0.029859
#
#
# Mechanical properties :
#
#
# Convention : Reuss Voigt Hill
#
# Bulk Modulus (GPa) = 44.26575 54.18129 49.22352
# Shear Modulus (GPa) = 31.58742 35.08598 33.33670
#
# Velocity S-wave (km/s) = 3.84630 4.05371 3.95137
# Velocity P-wave (km/s) = 6.36061 6.87649 6.62357
#
# Compressibility (1/GPa) = 0.02259083
#
# Stress axis : x y z
#
# Youngs Moduli (GPa) = 46.66047 104.75302 94.32437
#
# Poissons Ratio (x) = 0.59071 0.12166
# Poissons Ratio (y) = 0.26312 0.24199
# Poissons Ratio (z) = 0.06018 0.26874
#
# Static dielectric constant tensor:
#      x y z
#    x 4.942960 0.000000 0.053130 
#    y 0.000000 1.747430 0.000000 
#    z 0.053130 0.000000 3.968450 
# 
# 
# High freq. dielectric constant tensor:
#      x y z
#    x 1.826970 0.000000 -0.011140 
#    y 0.000000 1.849960 0.000000 
#    z -0.011140 0.000000 1.850460 
# 
# From -- ./inp_files/65542.got.cif
#   From: 2010.03.12/outbox.cif.g09.slc.cpg/sg14_33_cif.got.tgz:65542.got - 2010.03.31 13:35:05.
