data_PCOD8128368
_publ_section_title
;
Structure prediction by ZEFSAII (Michael W. Deem and Ramdas Pophale) SiO2 
 PCOD8128368
Probable space group: P 21/C
;
_chemical_formula_sum "Si O2"
_cell_formula_units_Z 20
_cell_length_a 9.170459
_cell_length_b 10.364550
_cell_length_c 9.325558
_cell_angle_alpha 90.000000
_cell_angle_beta 106.480428
_cell_angle_gamma 90.000000
_cell_volume 849.957544
_symmetry_space_group_name_H-M "P 21/C"
_symmetry_group_IT_number 14
_symmetry_cell_setting 'monoclinic'
loop_
_space_group_symop_operation_xyz
x,y,z
-x,1/2+y,1/2-z
-x,-y,-z
x,1/2-y,1/2+z
loop_
_atom_site_type_symbol
_atom_site_label
_atom_site_fract_x
_atom_site_fract_y
_atom_site_fract_z
Si Si1 0.059368 0.712120 0.573189
Si Si2 0.226970 0.370681 0.980903
Si Si3 0.692339 0.404588 0.816157
Si Si4 0.659141 0.850758 0.804820
Si Si5 0.154667 0.001412 0.911278
O O1 0.222114 0.766436 0.670611
O O2 0.081966 0.638950 0.426396
O O3 0.946812 0.834110 0.528005
O O4 0.980885 0.605121 0.656196
O O5 0.257840 0.520675 0.024900
O O6 0.338187 0.284849 0.111023
O O7 0.257422 0.340948 0.823835
O O8 0.514198 0.386517 0.768627
O O9 0.738249 0.494881 0.695967
O O10 0.744459 0.957706 0.923724
#
# Coordination Sequence:
#
# PCOD8128368 Si02
#       5
#     4   4   4   4   4
#     4  10  25  43  70 102 138 185 228 287 349 412
#     4  11  25  47  67 104 142 182 231 292 343 420
#     4  12  26  42  79 100 139 183 239 287 348 413
#     4  11  26  46  70 101 145 182 231 288 355 410
#     4  10  25  46  71 100 143 181 235 289 347 414
#
# _framework density 23.530587000000001
#
# number of rings (size 3 to 8) (size 9 to 14) (size 15 to 20)
#    0.000    1.200    0.000    4.200   16.800    1.600 
#    0.000    0.000    0.000    0.000    0.000    0.000 
#    0.000    0.000    0.000    0.000    0.000    0.000 
#
# Total GULP energy -247991.452003 kJ/mol
# GULP energy per Si atom -12399.572600 kJ/mol
# Density = 2.347703 g / cm^3
# Si number density = 23.530587 Si / 1000 Ang^3
#
#
#
# Elastic Constant Matrix: (Units=GPa)
#
#
# Indices 1 2 3 4 5 6 
#
# 1 118.1113 40.7533 24.6411 0.0000 5.3913 0.0000
# 2 40.7533 89.7463 35.3803 0.0000 4.5018 0.0000
# 3 24.6411 35.3803 108.0375 0.0000 -5.8070 0.0000
# 4 0.0000 0.0000 0.0000 33.8752 0.0000 8.2261
# 5 5.3913 4.5018 -5.8070 0.0000 23.9874 0.0000
# 6 0.0000 0.0000 0.0000 8.2261 0.0000 42.1171
#
#
#
# Elastic Compliance Matrix: (Units=1/GPa)
#
#
# Indices 1 2 3 4 5 6 
#
# 1 0.010192 -0.004116 -0.001072 0.000000 -0.001778 0.000000
# 2 -0.004116 0.014747 -0.004042 0.000000 -0.002821 0.000000
# 3 -0.001072 -0.004042 0.011021 0.000000 0.003668 0.000000
# 4 0.000000 0.000000 0.000000 0.030990 0.000000 -0.006053
# 5 -0.001778 -0.002821 0.003668 0.000000 0.043505 0.000000
# 6 0.000000 0.000000 0.000000 -0.006053 0.000000 0.024926
#
#
# Mechanical properties :
#
#
# Convention : Reuss Voigt Hill
#
# Bulk Modulus (GPa) = 57.14593 57.49385 57.31989
# Shear Modulus (GPa) = 31.31374 34.33730 32.82552
#
# Velocity S-wave (km/s) = 3.65193 3.82417 3.73904
# Velocity P-wave (km/s) = 6.49004 6.63218 6.56149
#
# Compressibility (1/GPa) = 0.01749906
#
# Stress axis : x y z
#
# Youngs Moduli (GPa) = 98.11961 67.81211 90.73253
#
# Poissons Ratio (x) = 0.27912 0.09727
# Poissons Ratio (y) = 0.40387 0.36675
# Poissons Ratio (z) = 0.10519 0.27410
#
# Static dielectric constant tensor:
#      x y z
#    x 4.210720 0.000000 -0.088320 
#    y 0.000000 4.300720 0.000000 
#    z -0.088320 0.000000 4.052680 
# 
# 
# High freq. dielectric constant tensor:
#      x y z
#    x 1.939400 0.000000 -0.009730 
#    y 0.000000 1.936670 0.000000 
#    z -0.009730 0.000000 1.920500 
# 
# From -- ./inp_files/7949.got.cif
#   From: 2010.03.12/outbox.cif.g09.slc.cpg/sg14_4_cif.got.tgz:7949.got - 2010.03.31 13:35:05.
