data_PCOD8128000
_publ_section_title
;
Structure prediction by ZEFSAII (Michael W. Deem and Ramdas Pophale) SiO2 
 PCOD8128000
Probable space group: P 21/C
;
_chemical_formula_sum "Si O2"
_cell_formula_units_Z 24
_cell_length_a 11.882269
_cell_length_b 13.947468
_cell_length_c 13.716942
_cell_angle_alpha 90.000000
_cell_angle_beta 150.743488
_cell_angle_gamma 90.000000
_cell_volume 1110.996078
_symmetry_space_group_name_H-M "P 21/C"
_symmetry_group_IT_number 14
_symmetry_cell_setting 'monoclinic'
loop_
_space_group_symop_operation_xyz
x,y,z
-x,1/2+y,1/2-z
-x,-y,-z
x,1/2-y,1/2+z
loop_
_atom_site_type_symbol
_atom_site_label
_atom_site_fract_x
_atom_site_fract_y
_atom_site_fract_z
Si Si1 0.154813 0.176110 0.924218
Si Si2 0.921621 0.867156 0.724703
Si Si3 0.250830 0.569663 0.975341
Si Si4 0.592061 0.437017 0.696407
Si Si5 0.587760 0.362890 0.488358
Si Si6 0.692091 0.831020 0.749075
O O1 0.216840 0.281837 0.932732
O O2 0.905811 0.148801 0.694732
O O3 0.333519 0.098863 0.019581
O O4 0.147840 0.180547 0.035446
O O5 0.864051 0.865320 0.795248
O O6 0.196406 0.855162 0.921356
O O7 0.833740 0.964079 0.610727
O O8 0.245153 0.586350 0.088325
O O9 0.507996 0.584479 0.129180
O O10 0.688448 0.383403 0.673244
O O11 0.581201 0.551067 0.671257
O O12 0.437257 0.267309 0.373873
#
# Coordination Sequence:
#
# PCOD8128000 Si02
#       6
#     4   4   4   4   4   4
#     4  11  23  44  67  97 131 174 226 266 329 394
#     4  12  24  43  68  98 130 173 225 265 330 394
#     4  11  24  45  67 100 133 177 213 273 333 389
#     4  10  23  44  70  95 138 167 222 276 323 388
#     4  11  22  44  70 100 128 179 220 271 330 381
#     4  11  25  44  66  96 136 173 215 277 326 392
#
# _framework density 21.602238
#
# number of rings (size 3 to 8) (size 9 to 14) (size 15 to 20)
#    0.000    1.000    5.000    1.500    0.000    2.667 
#    6.000    0.000    0.000    0.000    0.000    0.000 
#    0.000    0.000    0.000    0.000    0.000    0.000 
#
# Total GULP energy -297707.865398 kJ/mol
# GULP energy per Si atom -12404.494392 kJ/mol
# Density = 2.155307 g / cm^3
# Si number density = 21.602238 Si / 1000 Ang^3
#
#
#
# Elastic Constant Matrix: (Units=GPa)
#
#
# Indices 1 2 3 4 5 6 
#
# 1 138.5245 22.1970 47.3987 0.0000 -14.2100 0.0000
# 2 22.1970 92.2054 31.5497 0.0000 -12.9781 0.0000
# 3 47.3987 31.5497 96.3968 0.0000 -24.4904 0.0000
# 4 0.0000 0.0000 0.0000 13.9436 0.0000 -4.6225
# 5 -14.2100 -12.9781 -24.4904 0.0000 34.8983 0.0000
# 6 0.0000 0.0000 0.0000 -4.6225 0.0000 27.4133
#
#
#
# Elastic Compliance Matrix: (Units=1/GPa)
#
#
# Indices 1 2 3 4 5 6 
#
# 1 0.008729 -0.000680 -0.003932 0.000000 0.000542 0.000000
# 2 -0.000680 0.012395 -0.003191 0.000000 0.002094 0.000000
# 3 -0.003932 -0.003191 0.015386 0.000000 0.008010 0.000000
# 4 0.000000 0.000000 0.000000 0.075964 0.000000 0.012809
# 5 0.000542 0.002094 0.008010 0.000000 0.035275 0.000000
# 6 0.000000 0.000000 0.000000 0.012809 0.000000 0.038639
#
#
# Mechanical properties :
#
#
# Convention : Reuss Voigt Hill
#
# Bulk Modulus (GPa) = 47.83266 58.82418 53.32842
# Shear Modulus (GPa) = 23.92782 30.31644 27.12213
#
# Velocity S-wave (km/s) = 3.33176 3.75025 3.54718
# Velocity P-wave (km/s) = 6.08205 6.78544 6.44335
#
# Compressibility (1/GPa) = 0.02090622
#
# Stress axis : x y z
#
# Youngs Moduli (GPa) = 114.56323 80.67471 64.99250
#
# Poissons Ratio (x) = 0.05483 0.25554
# Poissons Ratio (y) = 0.07786 0.20738
# Poissons Ratio (z) = 0.45044 0.25742
#
# Static dielectric constant tensor:
#      x y z
#    x 4.042900 0.000000 -0.140450 
#    y 0.000000 4.018130 0.000000 
#    z -0.140450 0.000000 3.711220 
# 
# 
# High freq. dielectric constant tensor:
#      x y z
#    x 1.856190 0.000000 -0.009660 
#    y 0.000000 1.863830 0.000000 
#    z -0.009660 0.000000 1.835860 
# 
# From -- ./inp_files/44983.got.cif
#   From: 2010.03.12/outbox.cif.g09.slc.cpg/sg14_23_cif.got.tgz:44983.got - 2010.03.31 13:35:05.
