data_PCOD8128078
_publ_section_title
;
Structure prediction by ZEFSAII (Michael W. Deem and Ramdas Pophale) SiO2 
 PCOD8128078
Probable space group: P 21/C
;
_chemical_formula_sum "Si O2"
_cell_formula_units_Z 32
_cell_length_a 9.737598
_cell_length_b 9.647445
_cell_length_c 25.797418
_cell_angle_alpha 90.000000
_cell_angle_beta 37.421637
_cell_angle_gamma 90.000000
_cell_volume 1472.693373
_symmetry_space_group_name_H-M "P 21/C"
_symmetry_group_IT_number 14
_symmetry_cell_setting 'monoclinic'
loop_
_space_group_symop_operation_xyz
x,y,z
-x,1/2+y,1/2-z
-x,-y,-z
x,1/2-y,1/2+z
loop_
_atom_site_type_symbol
_atom_site_label
_atom_site_fract_x
_atom_site_fract_y
_atom_site_fract_z
Si Si1 0.429179 0.028088 0.345867
Si Si2 0.949178 0.194574 0.636708
Si Si3 0.074535 0.521627 0.332087
Si Si4 0.810365 0.599994 0.184851
Si Si5 0.223402 0.710087 0.585403
Si Si6 0.593412 0.767248 0.554408
Si Si7 0.637929 0.225612 0.138085
Si Si8 0.752004 0.036777 0.013526
O O1 0.662965 0.988500 0.248006
O O2 0.255493 0.089019 0.355969
O O3 0.471701 0.142885 0.376411
O O4 0.348199 0.879107 0.392506
O O5 0.985303 0.319557 0.667469
O O6 0.755051 0.261076 0.658509
O O7 0.178682 0.165639 0.536535
O O8 0.858599 0.056216 0.691330
O O9 0.924826 0.413984 0.342634
O O10 0.999082 0.500872 0.415692
O O11 0.618349 0.670938 0.277407
O O12 0.044802 0.680494 0.116740
O O13 0.392013 0.785667 0.573664
O O14 0.363214 0.639731 0.495296
O O15 0.612029 0.605130 0.563096
O O16 0.772935 0.117946 0.061291
#
# Coordination Sequence:
#
# PCOD8128078 Si02
#       8
#     4   4   4   4   4   4   4   4
#     4  11  24  42  68  97 139 169 225 284 333 394
#     4  10  24  39  67 102 135 172 224 281 340 394
#     4   9  20  43  64  92 133 177 211 280 331 391
#     4  11  24  42  68  98 136 177 221 284 339 391
#     4  10  23  47  66  93 137 179 217 270 337 405
#     4  11  25  43  66 102 131 180 227 268 341 403
#     4  11  22  42  65 105 128 175 229 278 333 398
#     4   9  23  40  71  90 132 176 221 268 329 403
#
# _framework density 21.728895000000001
#
# number of rings (size 3 to 8) (size 9 to 14) (size 15 to 20)
#    0.750    1.000    2.500    0.375    5.250    4.500 
#    2.250    0.000    0.000    0.000    0.000    0.000 
#    0.000    0.000    0.000    0.000    0.000    0.000 
#
# Total GULP energy -396472.464398 kJ/mol
# GULP energy per Si atom -12389.764512 kJ/mol
# Density = 2.167944 g / cm^3
# Si number density = 21.728895 Si / 1000 Ang^3
#
#
#
# Elastic Constant Matrix: (Units=GPa)
#
#
# Indices 1 2 3 4 5 6 
#
# 1 67.9500 40.0476 21.4633 0.0000 -13.9609 0.0000
# 2 40.0476 136.2792 33.6274 0.0000 -6.5326 0.0000
# 3 21.4633 33.6274 67.3079 0.0000 -15.1319 0.0000
# 4 0.0000 0.0000 0.0000 37.6047 0.0000 2.0090
# 5 -13.9609 -6.5326 -15.1319 0.0000 18.0391 0.0000
# 6 0.0000 0.0000 0.0000 2.0090 0.0000 27.2533
#
#
#
# Elastic Compliance Matrix: (Units=1/GPa)
#
#
# Indices 1 2 3 4 5 6 
#
# 1 0.020884 -0.005241 -0.001028 0.000000 0.013402 0.000000
# 2 -0.005241 0.009690 -0.004058 0.000000 -0.003951 0.000000
# 3 -0.001028 -0.004058 0.020585 0.000000 0.015002 0.000000
# 4 0.000000 0.000000 0.000000 0.026698 0.000000 -0.001968
# 5 0.013402 -0.003951 0.015002 0.000000 0.076961 0.000000
# 6 0.000000 0.000000 0.000000 -0.001968 0.000000 0.036838
#
#
# Mechanical properties :
#
#
# Convention : Reuss Voigt Hill
#
# Bulk Modulus (GPa) = 32.78186 51.31263 42.04725
# Shear Modulus (GPa) = 22.47409 28.33932 25.40671
#
# Velocity S-wave (km/s) = 3.21953 3.61532 3.42315
# Velocity P-wave (km/s) = 5.37960 6.41043 5.91750
#
# Compressibility (1/GPa) = 0.03050468
#
# Stress axis : x y z
#
# Youngs Moduli (GPa) = 47.88385 103.19955 48.57852
#
# Poissons Ratio (x) = 0.54086 0.04994
# Poissons Ratio (y) = 0.25095 0.19714
# Poissons Ratio (z) = 0.04923 0.41881
#
# Static dielectric constant tensor:
#      x y z
#    x 3.443490 0.000000 -0.199780 
#    y 0.000000 4.368190 0.000000 
#    z -0.199780 0.000000 3.691360 
# 
# 
# High freq. dielectric constant tensor:
#      x y z
#    x 1.811090 0.000000 -0.021600 
#    y 0.000000 1.883530 0.000000 
#    z -0.021600 0.000000 1.839350 
# 
# From -- ./inp_files/79957.got.cif
#   From: 2010.03.12/outbox.cif.g09.slc.cpg/sg14_40_cif.got.tgz:79957.got - 2010.03.31 13:35:05.
