data_PCOD8128810
_publ_section_title
;
Structure prediction by ZEFSAII (Michael W. Deem and Ramdas Pophale) SiO2 
 PCOD8128810
Probable space group: P 21/C
;
_chemical_formula_sum "Si O2"
_cell_formula_units_Z 20
_cell_length_a 13.662848
_cell_length_b 7.232908
_cell_length_c 22.896109
_cell_angle_alpha 90.000000
_cell_angle_beta 22.918139
_cell_angle_gamma 90.000000
_cell_volume 881.108047
_symmetry_space_group_name_H-M "P 21/C"
_symmetry_group_IT_number 14
_symmetry_cell_setting 'monoclinic'
loop_
_space_group_symop_operation_xyz
x,y,z
-x,1/2+y,1/2-z
-x,-y,-z
x,1/2-y,1/2+z
loop_
_atom_site_type_symbol
_atom_site_label
_atom_site_fract_x
_atom_site_fract_y
_atom_site_fract_z
Si Si1 0.716231 0.356452 0.129043
Si Si2 0.290164 0.885484 0.038162
Si Si3 0.810120 0.621795 0.298367
Si Si4 0.237573 0.029832 0.943820
Si Si5 0.031773 0.884918 0.391622
O O1 0.415612 0.349191 0.302836
O O2 0.803841 0.440380 0.142736
O O3 0.840896 0.155934 0.047802
O O4 0.776418 0.495186 0.042153
O O5 0.048034 0.755358 0.163228
O O6 0.213334 0.053994 0.122535
O O7 0.542889 0.784678 0.925057
O O8 0.367037 0.967807 0.933268
O O9 0.846683 0.443062 0.236492
O O10 0.006468 0.163121 0.087736
#
# Coordination Sequence:
#
# PCOD8128810 Si02
#       5
#     4   4   4   4   4
#     4  11  23  39  64  95 134 184 226 280 345 405
#     4  11  25  45  72  99 139 181 230 286 343 409
#     4  11  24  47  70 101 139 181 231 289 342 408
#     4  12  22  42  65  98 136 184 226 281 349 404
#     4  11  23  41  65  94 138 177 231 284 337 411
#
# _framework density 22.698694
#
# number of rings (size 3 to 8) (size 9 to 14) (size 15 to 20)
#    0.000    0.800    6.000    1.800    0.000    0.800 
#    7.200    0.000    0.000    0.000    0.000    0.000 
#    0.000    0.000    0.000    0.000    0.000    0.000 
#
# Total GULP energy -247845.790695 kJ/mol
# GULP energy per Si atom -12392.289535 kJ/mol
# Density = 2.264703 g / cm^3
# Si number density = 22.698694 Si / 1000 Ang^3
#
#
#
# Elastic Constant Matrix: (Units=GPa)
#
#
# Indices 1 2 3 4 5 6 
#
# 1 71.6799 8.0082 27.9461 0.0000 0.4249 0.0000
# 2 8.0082 90.0489 30.9284 0.0000 -2.7043 0.0000
# 3 27.9461 30.9284 102.7589 0.0000 -3.7707 0.0000
# 4 0.0000 0.0000 0.0000 37.6508 0.0000 1.9328
# 5 0.4249 -2.7043 -3.7707 0.0000 35.0894 0.0000
# 6 0.0000 0.0000 0.0000 1.9328 0.0000 28.7917
#
#
#
# Elastic Compliance Matrix: (Units=1/GPa)
#
#
# Indices 1 2 3 4 5 6 
#
# 1 0.015621 0.000065 -0.004292 0.000000 -0.000645 0.000000
# 2 0.000065 0.012397 -0.003729 0.000000 0.000554 0.000000
# 3 -0.004292 -0.003729 0.012060 0.000000 0.001061 0.000000
# 4 0.000000 0.000000 0.000000 0.026652 0.000000 -0.001789
# 5 -0.000645 0.000554 0.001061 0.000000 0.028663 0.000000
# 6 0.000000 0.000000 0.000000 -0.001789 0.000000 0.034852
#
#
# Mechanical properties :
#
#
# Convention : Reuss Voigt Hill
#
# Bulk Modulus (GPa) = 41.37781 44.25036 42.81408
# Shear Modulus (GPa) = 32.42348 33.48003 32.95176
#
# Velocity S-wave (km/s) = 3.78356 3.84471 3.81426
# Velocity P-wave (km/s) = 6.11194 6.26467 6.18877
#
# Compressibility (1/GPa) = 0.02416754
#
# Stress axis : x y z
#
# Youngs Moduli (GPa) = 64.01813 80.66777 82.92025
#
# Poissons Ratio (x) = -0.00528 0.35585
# Poissons Ratio (y) = -0.00419 0.30918
# Poissons Ratio (z) = 0.27474 0.30078
#
# Static dielectric constant tensor:
#      x y z
#    x 4.065410 0.000000 0.190920 
#    y 0.000000 3.708530 0.000000 
#    z 0.190920 0.000000 4.224150 
# 
# 
# High freq. dielectric constant tensor:
#      x y z
#    x 1.895070 0.000000 0.015800 
#    y 0.000000 1.872850 0.000000 
#    z 0.015800 0.000000 1.905520 
# 
# From -- ./inp_files/72881.got.cif
#   From: 2010.03.12/outbox.cif.g09.slc.cpg/sg14_37_cif.got.tgz:72881.got - 2010.03.31 13:35:05.
