data_PCOD8128483
_publ_section_title
;
Structure prediction by ZEFSAII (Michael W. Deem and Ramdas Pophale) SiO2 
 PCOD8128483
Probable space group: P 21/C
;
_chemical_formula_sum "Si O2"
_cell_formula_units_Z 32
_cell_length_a 21.434943
_cell_length_b 14.228557
_cell_length_c 14.750638
_cell_angle_alpha 90.000000
_cell_angle_beta 159.694515
_cell_angle_gamma 90.000000
_cell_volume 1561.188357
_symmetry_space_group_name_H-M "P 21/C"
_symmetry_group_IT_number 14
_symmetry_cell_setting 'monoclinic'
loop_
_space_group_symop_operation_xyz
x,y,z
-x,1/2+y,1/2-z
-x,-y,-z
x,1/2-y,1/2+z
loop_
_atom_site_type_symbol
_atom_site_label
_atom_site_fract_x
_atom_site_fract_y
_atom_site_fract_z
Si Si1 0.510002 0.077858 0.089641
Si Si2 0.731357 0.737741 0.776928
Si Si3 0.492320 0.341887 0.174265
Si Si4 0.055363 0.476006 0.177730
Si Si5 0.196599 0.691507 0.100940
Si Si6 0.104722 0.675772 0.327324
Si Si7 0.500023 0.760604 0.637069
Si Si8 0.535972 0.952229 0.771726
O O1 0.672205 0.150098 0.297007
O O2 0.532652 0.034340 0.219268
O O3 0.321927 0.132784 0.826050
O O4 0.500000 0.000000 0.000000
O O5 0.644189 0.809660 0.588475
O O6 0.654966 0.762205 0.772411
O O7 0.948821 0.740891 0.069391
O O8 0.698815 0.306740 0.447270
O O9 0.424643 0.303519 0.178570
O O10 0.480269 0.453213 0.145555
O O11 0.048565 0.566169 0.237014
O O12 0.253035 0.434661 0.442858
O O13 0.000000 0.500000 0.000000
O O14 0.940581 0.390237 0.060170
O O15 0.312919 0.717111 0.347407
O O16 0.110490 0.786998 0.940236
O O17 0.448095 0.864366 0.600962
#
# Coordination Sequence:
#
# PCOD8128483 Si02
#       8
#     4   4   4   4   4   4   4   4
#     4  11  20  37  65  92 120 167 215 262 313 375
#     4  11  22  40  63  90 128 166 210 265 320 382
#     4  11  23  43  63  94 128 167 213 268 323 385
#     4  11  23  38  65  98 124 165 224 270 311 387
#     4  11  22  41  63  92 132 169 210 268 327 381
#     4  11  22  42  63  94 132 168 214 271 323 383
#     4  11  22  41  65  93 129 171 212 265 327 380
#     4  11  22  38  64  94 126 164 215 264 323 385
#
# _framework density 20.497205000000001
#
# number of rings (size 3 to 8) (size 9 to 14) (size 15 to 20)
#    0.000    1.000    3.750    6.000    0.000    0.500 
#    4.500    0.000    0.000    1.500    0.000    0.000 
#    0.000    0.000    0.000    0.000    0.000    0.000 
#
# Total GULP energy -396644.096644 kJ/mol
# GULP energy per Si atom -12395.128020 kJ/mol
# Density = 2.045055 g / cm^3
# Si number density = 20.497205 Si / 1000 Ang^3
#
#
#
# Elastic Constant Matrix: (Units=GPa)
#
#
# Indices 1 2 3 4 5 6 
#
# 1 92.2613 38.2981 26.1762 0.0000 -4.5870 0.0000
# 2 38.2981 122.2275 27.3356 0.0000 -2.7629 0.0000
# 3 26.1762 27.3356 70.6294 0.0000 9.3196 0.0000
# 4 0.0000 0.0000 0.0000 36.2062 0.0000 -8.0418
# 5 -4.5870 -2.7629 9.3196 0.0000 11.9273 0.0000
# 6 0.0000 0.0000 0.0000 -8.0418 0.0000 36.1560
#
#
#
# Elastic Compliance Matrix: (Units=1/GPa)
#
#
# Indices 1 2 3 4 5 6 
#
# 1 0.013996 -0.003034 -0.005163 0.000000 0.008714 0.000000
# 2 -0.003034 0.009929 -0.003198 0.000000 0.003632 0.000000
# 3 -0.005163 -0.003198 0.019700 0.000000 -0.018119 0.000000
# 4 0.000000 0.000000 0.000000 0.029055 0.000000 0.006462
# 5 0.008714 0.003632 -0.018119 0.000000 0.102192 0.000000
# 6 0.000000 0.000000 0.000000 0.006462 0.000000 0.029095
#
#
# Mechanical properties :
#
#
# Convention : Reuss Voigt Hill
#
# Bulk Modulus (GPa) = 47.99165 52.08199 50.03682
# Shear Modulus (GPa) = 21.39476 29.74512 25.56994
#
# Velocity S-wave (km/s) = 3.23428 3.81357 3.53581
# Velocity P-wave (km/s) = 6.11653 6.69743 6.41356
#
# Compressibility (1/GPa) = 0.02083696
#
# Stress axis : x y z
#
# Youngs Moduli (GPa) = 71.44825 100.71152 50.76066
#
# Poissons Ratio (x) = 0.30555 0.26206
# Poissons Ratio (y) = 0.21677 0.16232
# Poissons Ratio (z) = 0.36887 0.32205
#
# Static dielectric constant tensor:
#      x y z
#    x 2.269810 0.000000 -0.878530 
#    y 0.000000 4.259400 0.000000 
#    z -0.878530 0.000000 3.239110 
# 
# 
# High freq. dielectric constant tensor:
#      x y z
#    x 1.799400 0.000000 -0.002550 
#    y 0.000000 1.808460 0.000000 
#    z -0.002550 0.000000 1.797650 
# 
# From -- ./inp_files/50694.got.cif
#   From: 2010.03.12/outbox.cif.g09.slc.cpg/sg14_26_cif.got.tgz:50694.got - 2010.03.31 13:35:05.
