data_PCOD8128228
_publ_section_title
;
Structure prediction by ZEFSAII (Michael W. Deem and Ramdas Pophale) SiO2 
 PCOD8128228
Probable space group: P 21/C
;
_chemical_formula_sum "Si O2"
_cell_formula_units_Z 28
_cell_length_a 9.507706
_cell_length_b 8.566541
_cell_length_c 21.898643
_cell_angle_alpha 90.000000
_cell_angle_beta 43.866736
_cell_angle_gamma 90.000000
_cell_volume 1236.007957
_symmetry_space_group_name_H-M "P 21/C"
_symmetry_group_IT_number 14
_symmetry_cell_setting 'monoclinic'
loop_
_space_group_symop_operation_xyz
x,y,z
-x,1/2+y,1/2-z
-x,-y,-z
x,1/2-y,1/2+z
loop_
_atom_site_type_symbol
_atom_site_label
_atom_site_fract_x
_atom_site_fract_y
_atom_site_fract_z
Si Si1 0.810388 0.151192 0.852065
Si Si2 0.809028 0.376825 0.488847
Si Si3 0.583850 0.157104 0.331817
Si Si4 0.848896 0.903174 0.736677
Si Si5 0.513876 0.318411 0.150485
Si Si6 0.829387 0.172309 0.654012
Si Si7 0.835862 0.692350 0.542264
O O1 0.762355 0.081970 0.933597
O O2 0.625800 0.253750 0.882450
O O3 0.000262 0.262501 0.801503
O O4 0.856745 0.003649 0.795728
O O5 0.672087 0.228530 0.548552
O O6 0.746819 0.525890 0.549105
O O7 0.043008 0.331047 0.431727
O O8 0.755216 0.208409 0.229649
O O9 0.351861 0.194132 0.384921
O O10 0.607705 0.971666 0.333428
O O11 0.629010 0.829871 0.793707
O O12 0.905339 0.011636 0.661110
O O13 0.632916 0.361680 0.174739
O O14 0.014379 0.242951 0.557320
#
# Coordination Sequence:
#
# PCOD8128228 Si02
#       7
#     4   4   4   4   4   4   4
#     4  11  26  44  66  99 137 181 223 276 344 414
#     4  10  24  43  68  99 133 179 224 280 351 398
#     4  11  25  44  66 102 137 178 229 279 340 408
#     4  11  25  43  67 101 139 184 228 278 347 408
#     4  11  24  42  70 101 134 178 230 283 343 403
#     4  10  24  43  71 102 132 181 230 286 341 401
#     4  10  24  44  71 100 136 175 231 287 339 403
#
# _framework density 22.653575
#
# number of rings (size 3 to 8) (size 9 to 14) (size 15 to 20)
#    0.000    1.429    0.000    3.429   12.000    5.143 
#    0.000    0.000    0.000    0.000    0.000    0.000 
#    0.000    0.000    0.000    0.000    0.000    0.000 
#
# Total GULP energy -347255.954607 kJ/mol
# GULP energy per Si atom -12401.998379 kJ/mol
# Density = 2.260201 g / cm^3
# Si number density = 22.653575 Si / 1000 Ang^3
#
#
#
# Elastic Constant Matrix: (Units=GPa)
#
#
# Indices 1 2 3 4 5 6 
#
# 1 73.8525 4.9837 12.9235 0.0000 8.3011 0.0000
# 2 4.9837 85.8551 8.4136 0.0000 -6.7419 0.0000
# 3 12.9235 8.4136 50.6753 0.0000 0.2977 0.0000
# 4 0.0000 0.0000 0.0000 31.1037 0.0000 -4.7311
# 5 8.3011 -6.7419 0.2977 0.0000 34.0768 0.0000
# 6 0.0000 0.0000 0.0000 -4.7311 0.0000 36.2200
#
#
#
# Elastic Compliance Matrix: (Units=1/GPa)
#
#
# Indices 1 2 3 4 5 6 
#
# 1 0.014635 -0.000788 -0.003580 0.000000 -0.003690 0.000000
# 2 -0.000788 0.012075 -0.001819 0.000000 0.002597 0.000000
# 3 -0.003580 -0.001819 0.020946 0.000000 0.000329 0.000000
# 4 0.000000 0.000000 0.000000 0.032802 0.000000 0.004285
# 5 -0.003690 0.002597 0.000329 0.000000 0.030755 0.000000
# 6 0.000000 0.000000 0.000000 0.004285 0.000000 0.028169
#
#
# Mechanical properties :
#
#
# Convention : Reuss Voigt Hill
#
# Bulk Modulus (GPa) = 28.34273 29.22493 28.78383
# Shear Modulus (GPa) = 30.57762 32.55090 31.56426
#
# Velocity S-wave (km/s) = 3.67794 3.79476 3.73680
# Velocity P-wave (km/s) = 5.52945 5.66825 5.59928
#
# Compressibility (1/GPa) = 0.03528242
#
# Stress axis : x y z
#
# Youngs Moduli (GPa) = 68.33000 82.81231 47.74077
#
# Poissons Ratio (x) = 0.06529 0.17090
# Poissons Ratio (y) = 0.05388 0.08684
# Poissons Ratio (z) = 0.24460 0.15064
#
# Static dielectric constant tensor:
#      x y z
#    x 4.346390 0.000000 0.120130 
#    y 0.000000 4.086420 0.000000 
#    z 0.120130 0.000000 3.844220 
# 
# 
# High freq. dielectric constant tensor:
#      x y z
#    x 1.902470 0.000000 0.001490 
#    y 0.000000 1.907050 0.000000 
#    z 0.001490 0.000000 1.878160 
# 
# From -- ./inp_files/64993.got.cif
#   From: 2010.03.12/outbox.cif.g09.slc.cpg/sg14_33_cif.got.tgz:64993.got - 2010.03.31 13:35:05.
