data_PCOD8128294
_publ_section_title
;
Structure prediction by ZEFSAII (Michael W. Deem and Ramdas Pophale) SiO2 
 PCOD8128294
Probable space group: P 21/C
;
_chemical_formula_sum "Si O2"
_cell_formula_units_Z 32
_cell_length_a 9.060218
_cell_length_b 14.441778
_cell_length_c 10.220734
_cell_angle_alpha 90.000000
_cell_angle_beta 96.674822
_cell_angle_gamma 90.000000
_cell_volume 1328.273937
_symmetry_space_group_name_H-M "P 21/C"
_symmetry_group_IT_number 14
_symmetry_cell_setting 'monoclinic'
loop_
_space_group_symop_operation_xyz
x,y,z
-x,1/2+y,1/2-z
-x,-y,-z
x,1/2-y,1/2+z
loop_
_atom_site_type_symbol
_atom_site_label
_atom_site_fract_x
_atom_site_fract_y
_atom_site_fract_z
Si Si1 0.842399 0.539258 0.768890
Si Si2 0.210502 0.248033 0.764433
Si Si3 0.378530 0.575562 0.770327
Si Si4 0.089885 0.562495 0.607189
Si Si5 0.579572 0.041669 0.131258
Si Si6 0.771683 0.396162 0.977134
Si Si7 0.456875 0.713131 0.227973
Si Si8 0.020046 0.248527 0.999239
O O1 0.766359 0.639938 0.765907
O O2 0.755208 0.480579 0.646608
O O3 0.831344 0.484680 0.903540
O O4 0.012105 0.551821 0.741726
O O5 0.371999 0.293961 0.798527
O O6 0.127797 0.273377 0.890017
O O7 0.116609 0.288397 0.632386
O O8 0.262118 0.539169 0.647429
O O9 0.520424 0.509818 0.759247
O O10 0.411255 0.683267 0.754309
O O11 0.311527 0.561743 0.906471
O O12 0.000000 0.500000 0.500000
O O13 0.087821 0.667510 0.557786
O O14 0.555246 0.152048 0.139394
O O15 0.500000 0.000000 0.000000
O O16 0.654362 0.332439 0.887711
O O17 0.917890 0.335853 0.029592
#
# Coordination Sequence:
#
# PCOD8128294 Si02
#       8
#     4   4   4   4   4   4   4   4
#     4  10  24  45  65 100 139 186 230 303 360 434
#     4  11  26  44  70 102 143 187 247 298 369 448
#     4  12  26  46  75 110 141 195 251 299 380 445
#     4  11  25  44  71 103 142 182 245 299 361 446
#     4  11  26  45  71 104 143 191 243 294 369 443
#     4  11  26  47  73 101 149 186 243 304 375 444
#     4  11  27  45  74 105 148 195 238 311 368 435
#     4  11  26  45  69 104 139 187 242 297 373 438
#
# _framework density 24.091415999999999
#
# number of rings (size 3 to 8) (size 9 to 14) (size 15 to 20)
#    0.000    1.000    2.500    2.250   10.500    6.000 
#    0.000    0.000    0.000    0.000    0.000    0.000 
#    0.000    0.000    0.000    0.000    0.000    0.000 
#
# Total GULP energy -396768.295649 kJ/mol
# GULP energy per Si atom -12399.009239 kJ/mol
# Density = 2.403658 g / cm^3
# Si number density = 24.091416 Si / 1000 Ang^3
#
#
#
# Elastic Constant Matrix: (Units=GPa)
#
#
# Indices 1 2 3 4 5 6 
#
# 1 79.3767 8.9614 3.6764 0.0000 5.7844 0.0000
# 2 8.9614 73.3409 -6.8107 0.0000 -8.2035 0.0000
# 3 3.6764 -6.8107 89.0186 0.0000 -3.7874 0.0000
# 4 0.0000 0.0000 0.0000 35.2251 0.0000 5.0888
# 5 5.7844 -8.2035 -3.7874 0.0000 29.6824 0.0000
# 6 0.0000 0.0000 0.0000 5.0888 0.0000 31.2904
#
#
#
# Elastic Compliance Matrix: (Units=1/GPa)
#
#
# Indices 1 2 3 4 5 6 
#
# 1 0.013102 -0.002039 -0.000834 0.000000 -0.003223 0.000000
# 2 -0.002039 0.014527 0.001391 0.000000 0.004590 0.000000
# 3 -0.000834 0.001391 0.011460 0.000000 0.002009 0.000000
# 4 0.000000 0.000000 0.000000 0.029072 0.000000 -0.004728
# 5 -0.003223 0.004590 0.002009 0.000000 0.035843 0.000000
# 6 0.000000 0.000000 0.000000 -0.004728 0.000000 0.032728
#
#
# Mechanical properties :
#
#
# Convention : Reuss Voigt Hill
#
# Bulk Modulus (GPa) = 27.68243 28.15448 27.91845
# Shear Modulus (GPa) = 32.95182 34.96685 33.95934
#
# Velocity S-wave (km/s) = 3.70237 3.81389 3.75854
# Velocity P-wave (km/s) = 5.45822 5.57729 5.51808
#
# Compressibility (1/GPa) = 0.03612400
#
# Stress axis : x y z
#
# Youngs Moduli (GPa) = 76.32507 68.83911 87.26037
#
# Poissons Ratio (x) = 0.14036 0.07279
# Poissons Ratio (y) = 0.15562 -0.12137
# Poissons Ratio (z) = 0.06367 -0.09575
#
# Static dielectric constant tensor:
#      x y z
#    x 4.651050 0.000000 -0.101470 
#    y 0.000000 4.476030 0.000000 
#    z -0.101470 0.000000 4.292520 
# 
# 
# High freq. dielectric constant tensor:
#      x y z
#    x 1.976330 0.000000 0.002940 
#    y 0.000000 1.957080 0.000000 
#    z 0.002940 0.000000 1.954080 
# 
# From -- ./inp_files/25528.got.cif
#   From: 2010.03.12/outbox.cif.g09.slc.cpg/sg14_13_cif.got.tgz:25528.got - 2010.03.31 13:35:05.
