data_PCOD8128503
_publ_section_title
;
Structure prediction by ZEFSAII (Michael W. Deem and Ramdas Pophale) SiO2 
 PCOD8128503
Probable space group: P 21/C
;
_chemical_formula_sum "Si O2"
_cell_formula_units_Z 32
_cell_length_a 8.868621
_cell_length_b 13.774264
_cell_length_c 11.378005
_cell_angle_alpha 90.000000
_cell_angle_beta 91.576354
_cell_angle_gamma 90.000000
_cell_volume 1389.396594
_symmetry_space_group_name_H-M "P 21/C"
_symmetry_group_IT_number 14
_symmetry_cell_setting 'monoclinic'
loop_
_space_group_symop_operation_xyz
x,y,z
-x,1/2+y,1/2-z
-x,-y,-z
x,1/2-y,1/2+z
loop_
_atom_site_type_symbol
_atom_site_label
_atom_site_fract_x
_atom_site_fract_y
_atom_site_fract_z
Si Si1 0.992841 0.718823 0.679352
Si Si2 0.788180 0.365182 0.715138
Si Si3 0.227383 0.326340 0.977410
Si Si4 0.520899 0.884772 0.164725
Si Si5 0.204956 0.061297 0.699034
Si Si6 0.211071 0.917353 0.049583
Si Si7 0.298005 0.378080 0.565333
Si Si8 0.532884 0.669223 0.206452
O O1 0.109618 0.768642 0.771782
O O2 0.072938 0.647956 0.588414
O O3 0.907383 0.810139 0.617888
O O4 0.868574 0.653653 0.739628
O O5 0.877253 0.460384 0.767749
O O6 0.742031 0.378542 0.578229
O O7 0.643850 0.355481 0.797960
O O8 0.196788 0.419092 0.059553
O O9 0.223512 0.227512 0.055012
O O10 0.387135 0.349588 0.917714
O O11 0.621703 0.954850 0.249980
O O12 0.345332 0.909777 0.148782
O O13 0.544184 0.783428 0.231845
O O14 0.579094 0.888746 0.033238
O O15 0.175139 0.033923 0.046667
O O16 0.380907 0.390647 0.691342
#
# Coordination Sequence:
#
# PCOD8128503 Si02
#       8
#     4   4   4   4   4   4   4   4
#     4  12  26  44  64 100 136 187 222 270 339 401
#     4  12  26  45  68 101 136 170 232 284 330 400
#     4  11  24  44  67  93 139 184 220 269 338 402
#     4  11  20  41  67 101 128 171 213 285 334 383
#     4  12  25  46  69  97 137 181 224 277 336 402
#     4  12  24  40  71 102 132 170 224 287 336 390
#     4  11  20  40  72  99 130 164 229 279 333 390
#     4  11  22  41  72  98 132 177 220 283 338 393
#
# _framework density 23.031582
#
# number of rings (size 3 to 8) (size 9 to 14) (size 15 to 20)
#    0.000    0.500    7.500    1.875    0.000    5.000 
#    0.000    1.250    0.000    0.000    0.000    0.000 
#    0.000    0.000    0.000    0.000    0.000    0.000 
#
# Total GULP energy -396630.650342 kJ/mol
# GULP energy per Si atom -12394.707823 kJ/mol
# Density = 2.297916 g / cm^3
# Si number density = 23.031582 Si / 1000 Ang^3
#
#
#
# Elastic Constant Matrix: (Units=GPa)
#
#
# Indices 1 2 3 4 5 6 
#
# 1 83.6160 18.5503 30.9677 0.0000 3.6199 0.0000
# 2 18.5503 58.5570 27.7284 0.0000 8.2245 0.0000
# 3 30.9677 27.7284 79.8081 0.0000 0.3540 0.0000
# 4 0.0000 0.0000 0.0000 35.4624 0.0000 6.8975
# 5 3.6199 8.2245 0.3540 0.0000 23.1208 0.0000
# 6 0.0000 0.0000 0.0000 6.8975 0.0000 24.4424
#
#
#
# Elastic Compliance Matrix: (Units=1/GPa)
#
#
# Indices 1 2 3 4 5 6 
#
# 1 0.014258 -0.002033 -0.004820 0.000000 -0.001435 0.000000
# 2 -0.002033 0.021989 -0.006818 0.000000 -0.007399 0.000000
# 3 -0.004820 -0.006818 0.016756 0.000000 0.002923 0.000000
# 4 0.000000 0.000000 0.000000 0.029836 0.000000 -0.008420
# 5 -0.001435 -0.007399 0.002923 0.000000 0.046063 0.000000
# 6 0.000000 0.000000 0.000000 -0.008420 0.000000 0.043288
#
#
# Mechanical properties :
#
#
# Convention : Reuss Voigt Hill
#
# Bulk Modulus (GPa) = 38.96900 41.83044 40.39972
# Shear Modulus (GPa) = 24.02845 26.25409 25.14127
#
# Velocity S-wave (km/s) = 3.23349 3.37993 3.30752
# Velocity P-wave (km/s) = 5.55852 5.78217 5.67145
#
# Compressibility (1/GPa) = 0.02566142
#
# Stress axis : x y z
#
# Youngs Moduli (GPa) = 70.13829 45.47668 59.67938
#
# Poissons Ratio (x) = 0.09245 0.28763
# Poissons Ratio (y) = 0.14258 0.40691
# Poissons Ratio (z) = 0.33804 0.31007
#
# Static dielectric constant tensor:
#      x y z
#    x 3.980220 0.000000 -0.019630 
#    y 0.000000 4.396170 0.000000 
#    z -0.019630 0.000000 3.984350 
# 
# 
# High freq. dielectric constant tensor:
#      x y z
#    x 1.899020 0.000000 0.001830 
#    y 0.000000 1.916540 0.000000 
#    z 0.001830 0.000000 1.897250 
# 
# From -- ./inp_files/25503.got.cif
#   From: 2010.03.12/outbox.cif.g09.slc.cpg/sg14_13_cif.got.tgz:25503.got - 2010.03.31 13:35:05.
