data_PCOD8128615
_publ_section_title
;
Structure prediction by ZEFSAII (Michael W. Deem and Ramdas Pophale) SiO2 
 PCOD8128615
Probable space group: P 21/C
;
_chemical_formula_sum "Si O2"
_cell_formula_units_Z 20
_cell_length_a 8.163237
_cell_length_b 13.770598
_cell_length_c 7.553915
_cell_angle_alpha 90.000000
_cell_angle_beta 95.485291
_cell_angle_gamma 90.000000
_cell_volume 845.267164
_symmetry_space_group_name_H-M "P 21/C"
_symmetry_group_IT_number 14
_symmetry_cell_setting 'monoclinic'
loop_
_space_group_symop_operation_xyz
x,y,z
-x,1/2+y,1/2-z
-x,-y,-z
x,1/2-y,1/2+z
loop_
_atom_site_type_symbol
_atom_site_label
_atom_site_fract_x
_atom_site_fract_y
_atom_site_fract_z
Si Si1 0.453628 0.809433 0.818693
Si Si2 0.094340 0.150446 0.992587
Si Si3 0.696936 0.949784 0.688374
Si Si4 0.242693 0.334667 0.134323
Si Si5 0.723749 0.145370 0.858543
O O1 0.525017 0.892671 0.698763
O O2 0.589394 0.726129 0.863090
O O3 0.293168 0.754096 0.723839
O O4 0.404027 0.862980 0.993453
O O5 0.204411 0.130973 0.828872
O O6 0.907156 0.122174 0.939653
O O7 0.166871 0.084514 0.156009
O O8 0.098519 0.263371 0.049648
O O9 0.754536 0.928307 0.493735
O O10 0.669961 0.064748 0.708175
#
# Coordination Sequence:
#
# PCOD8128615 Si02
#       5
#     4   4   4   4   4
#     4  11  22  44  65  94 135 171 218 273 331 383
#     4  11  22  42  68  96 135 173 218 268 330 386
#     4  11  24  45  69  94 135 178 220 262 336 396
#     4  11  21  43  70  89 134 184 207 264 340 391
#     4  12  25  42  67 103 128 170 227 280 316 390
#
# _framework density 23.661158
#
# number of rings (size 3 to 8) (size 9 to 14) (size 15 to 20)
#    0.000    0.800    6.000    3.600    0.000    1.600 
#    3.600    0.000    0.000    0.000    0.000    0.000 
#    0.000    0.000    0.000    0.000    0.000    0.000 
#
# Total GULP energy -248026.926631 kJ/mol
# GULP energy per Si atom -12401.346332 kJ/mol
# Density = 2.360730 g / cm^3
# Si number density = 23.661158 Si / 1000 Ang^3
#
#
#
# Elastic Constant Matrix: (Units=GPa)
#
#
# Indices 1 2 3 4 5 6 
#
# 1 93.7649 11.9242 11.1352 0.0000 -4.7613 0.0000
# 2 11.9242 47.5827 -21.8148 0.0000 4.2705 0.0000
# 3 11.1352 -21.8148 69.6811 0.0000 2.0595 0.0000
# 4 0.0000 0.0000 0.0000 28.7830 0.0000 0.9473
# 5 -4.7613 4.2705 2.0595 0.0000 23.2107 0.0000
# 6 0.0000 0.0000 0.0000 0.9473 0.0000 23.4279
#
#
#
# Elastic Compliance Matrix: (Units=1/GPa)
#
#
# Indices 1 2 3 4 5 6 
#
# 1 0.011902 -0.004943 -0.003558 0.000000 0.003667 0.000000
# 2 -0.004943 0.027236 0.009519 0.000000 -0.006870 0.000000
# 3 -0.003558 0.009519 0.018020 0.000000 -0.004080 0.000000
# 4 0.000000 0.000000 0.000000 0.034789 0.000000 -0.001407
# 5 0.003667 -0.006870 -0.004080 0.000000 0.045462 0.000000
# 6 0.000000 0.000000 0.000000 -0.001407 0.000000 0.042741
#
#
# Mechanical properties :
#
#
# Convention : Reuss Voigt Hill
#
# Bulk Modulus (GPa) = 16.89314 23.72424 20.30869
# Shear Modulus (GPa) = 25.27235 29.06990 27.17113
#
# Velocity S-wave (km/s) = 3.27172 3.50893 3.39240
# Velocity P-wave (km/s) = 4.62896 5.14444 4.89349
#
# Compressibility (1/GPa) = 0.05919563
#
# Stress axis : x y z
#
# Youngs Moduli (GPa) = 84.01752 36.71670 55.49251
#
# Poissons Ratio (x) = 0.18149 0.19743
# Poissons Ratio (y) = 0.41529 -0.52826
# Poissons Ratio (z) = 0.29892 -0.34952
#
# Static dielectric constant tensor:
#      x y z
#    x 4.182270 0.000000 0.098280 
#    y 0.000000 4.230100 0.000000 
#    z 0.098280 0.000000 4.308680 
# 
# 
# High freq. dielectric constant tensor:
#      x y z
#    x 1.929510 0.000000 0.003520 
#    y 0.000000 1.924340 0.000000 
#    z 0.003520 0.000000 1.944010 
# 
# From -- ./inp_files/7956.got.cif
#   From: 2010.03.12/outbox.cif.g09.slc.cpg/sg14_4_cif.got.tgz:7956.got - 2010.03.31 13:35:05.
