data_PCOD8128829
_publ_section_title
;
Structure prediction by ZEFSAII (Michael W. Deem and Ramdas Pophale) SiO2 
 PCOD8128829
Probable space group: P 21/C
;
_chemical_formula_sum "Si O2"
_cell_formula_units_Z 32
_cell_length_a 20.975264
_cell_length_b 16.415619
_cell_length_c 9.970431
_cell_angle_alpha 90.000000
_cell_angle_beta 153.190705
_cell_angle_gamma 90.000000
_cell_volume 1548.376899
_symmetry_space_group_name_H-M "P 21/C"
_symmetry_group_IT_number 14
_symmetry_cell_setting 'monoclinic'
loop_
_space_group_symop_operation_xyz
x,y,z
-x,1/2+y,1/2-z
-x,-y,-z
x,1/2-y,1/2+z
loop_
_atom_site_type_symbol
_atom_site_label
_atom_site_fract_x
_atom_site_fract_y
_atom_site_fract_z
Si Si1 0.390541 0.507056 0.174460
Si Si2 0.895819 0.571882 0.340349
Si Si3 0.145627 0.147983 0.964428
Si Si4 0.319856 0.678684 0.659948
Si Si5 0.025628 0.592209 0.092537
Si Si6 0.277468 0.682099 0.873052
Si Si7 0.044597 0.179984 0.287351
Si Si8 0.448577 0.068107 0.506835
O O1 0.500000 0.500000 0.500000
O O2 0.265308 0.449879 0.987137
O O3 0.320399 0.594078 0.010340
O O4 0.465895 0.471451 0.184896
O O5 0.921945 0.594927 0.543490
O O6 0.918853 0.649143 0.290897
O O7 0.000000 0.500000 0.500000
O O8 0.147854 0.243059 0.013950
O O9 0.035606 0.150184 0.636679
O O10 0.291811 0.105935 0.192196
O O11 0.191579 0.612879 0.420352
O O12 0.366724 0.698140 0.902836
O O13 0.291902 0.761196 0.528677
O O14 0.448225 0.643391 0.815687
O O15 0.937199 0.611347 0.062531
O O16 0.000000 0.500000 0.000000
O O17 0.121102 0.698677 0.523801
O O18 0.500000 0.000000 0.500000
#
# Coordination Sequence:
#
# PCOD8128829 Si02
#       8
#     4   4   4   4   4   4   4   4
#     4  11  26  44  68  99 134 177 233 278 339 412
#     4  11  23  41  69  95 134 174 218 282 337 396
#     4  11  24  41  65  98 134 173 221 279 344 395
#     4  11  25  44  69  97 136 179 223 279 343 409
#     4  11  23  40  68 100 128 175 232 270 336 414
#     4  11  24  44  69  99 132 176 225 277 343 407
#     4  11  23  43  65 100 137 169 222 287 337 403
#     4  11  24  47  67  94 139 182 224 285 339 407
#
# _framework density 20.666802000000001
#
# number of rings (size 3 to 8) (size 9 to 14) (size 15 to 20)
#    0.000    1.000    3.750    2.250    7.000    4.000 
#    4.500    0.000    0.000    0.000    0.000    0.000 
#    0.000    0.000    0.000    0.000    0.000    0.000 
#
# Total GULP energy -396581.978788 kJ/mol
# GULP energy per Si atom -12393.186837 kJ/mol
# Density = 2.061976 g / cm^3
# Si number density = 20.666802 Si / 1000 Ang^3
#
#
#
# Elastic Constant Matrix: (Units=GPa)
#
#
# Indices 1 2 3 4 5 6 
#
# 1 123.7549 33.7649 35.2193 0.0000 4.7143 0.0000
# 2 33.7649 95.7243 11.1677 0.0000 4.4632 0.0000
# 3 35.2193 11.1677 69.4798 0.0000 -13.3571 0.0000
# 4 0.0000 0.0000 0.0000 35.5237 0.0000 -1.6047
# 5 4.7143 4.4632 -13.3571 0.0000 24.2822 0.0000
# 6 0.0000 0.0000 0.0000 -1.6047 0.0000 44.1480
#
#
#
# Elastic Compliance Matrix: (Units=1/GPa)
#
#
# Indices 1 2 3 4 5 6 
#
# 1 0.010725 -0.002871 -0.005898 0.000000 -0.004799 0.000000
# 2 -0.002871 0.011648 -0.000806 0.000000 -0.002027 0.000000
# 3 -0.005898 -0.000806 0.019861 0.000000 0.012218 0.000000
# 4 0.000000 0.000000 0.000000 0.028197 0.000000 0.001025
# 5 -0.004799 -0.002027 0.012218 0.000000 0.049208 0.000000
# 6 0.000000 0.000000 0.000000 0.001025 0.000000 0.022688
#
#
# Mechanical properties :
#
#
# Convention : Reuss Voigt Hill
#
# Bulk Modulus (GPa) = 43.32160 49.91809 46.61985
# Shear Modulus (GPa) = 29.55587 34.71125 32.13356
#
# Velocity S-wave (km/s) = 3.78579 4.10270 3.94742
# Velocity P-wave (km/s) = 6.33380 6.83001 6.58658
#
# Compressibility (1/GPa) = 0.02308317
#
# Stress axis : x y z
#
# Youngs Moduli (GPa) = 93.23964 85.85116 50.35085
#
# Poissons Ratio (x) = 0.24650 0.29695
# Poissons Ratio (y) = 0.26772 0.04061
# Poissons Ratio (z) = 0.54988 0.06924
#
# Static dielectric constant tensor:
#      x y z
#    x 3.672930 0.000000 -0.373120 
#    y 0.000000 3.747220 0.000000 
#    z -0.373120 0.000000 3.633160 
# 
# 
# High freq. dielectric constant tensor:
#      x y z
#    x 1.830750 0.000000 -0.011710 
#    y 0.000000 1.816890 0.000000 
#    z -0.011710 0.000000 1.795810 
# 
# From -- ./inp_files/19187.got.cif
#   From: 2010.03.12/outbox.cif.g09.slc.cpg/sg14_10_cif.got.tgz:19187.got - 2010.03.31 13:35:05.
