data_PCOD8128727
_publ_section_title
;
Structure prediction by ZEFSAII (Michael W. Deem and Ramdas Pophale) SiO2 
 PCOD8128727
Probable space group: P 21/C
;
_chemical_formula_sum "Si O2"
_cell_formula_units_Z 24
_cell_length_a 9.898448
_cell_length_b 12.407606
_cell_length_c 9.194878
_cell_angle_alpha 90.000000
_cell_angle_beta 113.698588
_cell_angle_gamma 90.000000
_cell_volume 1034.049293
_symmetry_space_group_name_H-M "P 21/C"
_symmetry_group_IT_number 14
_symmetry_cell_setting 'monoclinic'
loop_
_space_group_symop_operation_xyz
x,y,z
-x,1/2+y,1/2-z
-x,-y,-z
x,1/2-y,1/2+z
loop_
_atom_site_type_symbol
_atom_site_label
_atom_site_fract_x
_atom_site_fract_y
_atom_site_fract_z
Si Si1 0.656542 0.585003 0.911855
Si Si2 0.579852 0.278195 0.041880
Si Si3 0.791254 0.950759 0.773885
Si Si4 0.493799 0.608287 0.278164
Si Si5 0.087034 0.271300 0.090139
Si Si6 0.904657 0.171675 0.768529
O O1 0.499346 0.630282 0.896364
O O2 0.625594 0.487635 0.787135
O O3 0.754872 0.678046 0.881939
O O4 0.737210 0.533951 0.085445
O O5 0.518661 0.161152 0.067018
O O6 0.752786 0.278693 0.146022
O O7 0.540695 0.297350 0.856032
O O8 0.657336 0.939007 0.829690
O O9 0.891967 0.845813 0.829632
O O10 0.883845 0.059246 0.846650
O O11 0.009780 0.348255 0.174827
O O12 0.981189 0.259478 0.905624
#
# Coordination Sequence:
#
# PCOD8128727 Si02
#       6
#     4   4   4   4   4   4
#     4  11  22  45  73  94 132 182 227 270 334 402
#     4  11  22  42  70  98 131 175 226 277 328 394
#     4  11  22  45  68  99 132 182 224 277 339 392
#     4  11  22  43  76  98 131 177 230 280 326 400
#     4  12  26  43  69 100 140 176 222 283 334 406
#     4  12  25  43  68 101 139 176 223 279 340 400
#
# _framework density 23.209723
#
# number of rings (size 3 to 8) (size 9 to 14) (size 15 to 20)
#    0.000    0.667    6.667    2.500    0.000    2.000 
#    0.000    2.500    0.000    0.000    0.000    0.000 
#    0.000    0.000    0.000    0.000    0.000    0.000 
#
# Total GULP energy -297695.183235 kJ/mol
# GULP energy per Si atom -12403.965968 kJ/mol
# Density = 2.315690 g / cm^3
# Si number density = 23.209723 Si / 1000 Ang^3
#
#
#
# Elastic Constant Matrix: (Units=GPa)
#
#
# Indices 1 2 3 4 5 6 
#
# 1 101.5708 18.7597 25.0772 0.0000 4.2043 0.0000
# 2 18.7597 75.8193 12.8432 0.0000 -5.2681 0.0000
# 3 25.0772 12.8432 51.9426 0.0000 5.5314 0.0000
# 4 0.0000 0.0000 0.0000 35.0054 0.0000 1.2027
# 5 4.2043 -5.2681 5.5314 0.0000 24.2442 0.0000
# 6 0.0000 0.0000 0.0000 1.2027 0.0000 38.9552
#
#
#
# Elastic Compliance Matrix: (Units=1/GPa)
#
#
# Indices 1 2 3 4 5 6 
#
# 1 0.011497 -0.002110 -0.004886 0.000000 -0.001337 0.000000
# 2 -0.002110 0.014515 -0.003019 0.000000 0.004209 0.000000
# 3 -0.004886 -0.003019 0.022893 0.000000 -0.005032 0.000000
# 4 0.000000 0.000000 0.000000 0.028597 0.000000 -0.000883
# 5 -0.001337 0.004209 -0.005032 0.000000 0.043541 0.000000
# 6 0.000000 0.000000 0.000000 -0.000883 0.000000 0.025698
#
#
# Mechanical properties :
#
#
# Convention : Reuss Voigt Hill
#
# Bulk Modulus (GPa) = 34.63133 38.07698 36.35415
# Shear Modulus (GPa) = 28.34526 31.15114 29.74820
#
# Velocity S-wave (km/s) = 3.49845 3.66752 3.58399
# Velocity P-wave (km/s) = 5.59217 5.86307 5.72922
#
# Compressibility (1/GPa) = 0.02887559
#
# Stress axis : x y z
#
# Youngs Moduli (GPa) = 86.98067 68.89417 43.68089
#
# Poissons Ratio (x) = 0.14535 0.21344
# Poissons Ratio (y) = 0.18351 0.13185
# Poissons Ratio (z) = 0.42502 0.20796
#
# Static dielectric constant tensor:
#      x y z
#    x 4.146010 0.000000 0.042920 
#    y 0.000000 4.085760 0.000000 
#    z 0.042920 0.000000 4.044540 
# 
# 
# High freq. dielectric constant tensor:
#      x y z
#    x 1.918530 0.000000 0.011250 
#    y 0.000000 1.915830 0.000000 
#    z 0.011250 0.000000 1.905400 
# 
# From -- ./inp_files/24277.got.cif
#   From: 2010.03.12/outbox.cif.g09.slc.cpg/sg14_13_cif.got.tgz:24277.got - 2010.03.31 13:35:05.
