data_PCOD8128034
_publ_section_title
;
Structure prediction by ZEFSAII (Michael W. Deem and Ramdas Pophale) SiO2 
 PCOD8128034
Probable space group: P 21/C
;
_chemical_formula_sum "Si O2"
_cell_formula_units_Z 24
_cell_length_a 14.607498
_cell_length_b 12.761138
_cell_length_c 6.978301
_cell_angle_alpha 90.000000
_cell_angle_beta 42.948245
_cell_angle_gamma 90.000000
_cell_volume 886.292761
_symmetry_space_group_name_H-M "P 21/C"
_symmetry_group_IT_number 14
_symmetry_cell_setting 'monoclinic'
loop_
_space_group_symop_operation_xyz
x,y,z
-x,1/2+y,1/2-z
-x,-y,-z
x,1/2-y,1/2+z
loop_
_atom_site_type_symbol
_atom_site_label
_atom_site_fract_x
_atom_site_fract_y
_atom_site_fract_z
Si Si1 0.411683 0.564746 0.989409
Si Si2 0.672977 0.847952 0.983981
Si Si3 0.948635 0.129810 0.088617
Si Si4 0.806055 0.336740 0.439175
Si Si5 0.250494 0.125647 0.707149
Si Si6 0.875995 0.001455 0.544924
O O1 0.331166 0.656516 0.226168
O O2 0.307016 0.486365 0.038542
O O3 0.500000 0.500000 0.000000
O O4 0.519446 0.615580 0.678544
O O5 0.735229 0.889100 0.087104
O O6 0.659399 0.722695 0.999621
O O7 0.781191 0.897529 0.668138
O O8 0.846699 0.218964 0.322062
O O9 0.920694 0.024470 0.256165
O O10 0.923125 0.113762 0.899845
O O11 0.101371 0.162367 0.883970
O O12 0.788630 0.403081 0.270107
O O13 0.000000 0.000000 0.500000
#
# Coordination Sequence:
#
# PCOD8128034 Si02
#       6
#     4   4   4   4   4   4
#     4  10  23  45  69  94 145 192 229 297 354 416
#     4  11  24  44  72  96 144 188 234 292 357 425
#     4  12  25  41  75 112 142 186 238 290 363 423
#     4  12  24  43  72 105 143 183 236 291 354 423
#     4  11  23  44  67 100 138 187 231 296 356 418
#     4  12  23  45  68 103 146 183 231 298 353 413
#
# _framework density 27.079089
#
# number of rings (size 3 to 8) (size 9 to 14) (size 15 to 20)
#    0.000    0.667    6.667    2.000    0.000    8.000 
#    0.000    1.667    0.000    0.000    0.000    0.000 
#    0.000    0.000    0.000    0.000    0.000    0.000 
#
# Total GULP energy -297551.418347 kJ/mol
# GULP energy per Si atom -12397.975764 kJ/mol
# Density = 2.701746 g / cm^3
# Si number density = 27.079089 Si / 1000 Ang^3
#
#
#
# Elastic Constant Matrix: (Units=GPa)
#
#
# Indices 1 2 3 4 5 6 
#
# 1 79.1559 -1.1602 25.5142 0.0000 -3.2153 0.0000
# 2 -1.1602 125.7420 44.9464 0.0000 -11.7907 0.0000
# 3 25.5142 44.9464 137.9991 0.0000 -20.4227 0.0000
# 4 0.0000 0.0000 0.0000 59.0061 0.0000 -5.8275
# 5 -3.2153 -11.7907 -20.4227 0.0000 52.2864 0.0000
# 6 0.0000 0.0000 0.0000 -5.8275 0.0000 36.1071
#
#
#
# Elastic Compliance Matrix: (Units=1/GPa)
#
#
# Indices 1 2 3 4 5 6 
#
# 1 0.013581 0.001156 -0.002893 0.000000 -0.000034 0.000000
# 2 0.001156 0.009143 -0.003052 0.000000 0.000941 0.000000
# 3 -0.002893 -0.003052 0.009178 0.000000 0.002719 0.000000
# 4 0.000000 0.000000 0.000000 0.017222 0.000000 0.002780
# 5 -0.000034 0.000941 0.002719 0.000000 0.020397 0.000000
# 6 0.000000 0.000000 0.000000 0.002780 0.000000 0.028144
#
#
# Mechanical properties :
#
#
# Convention : Reuss Voigt Hill
#
# Bulk Modulus (GPa) = 44.79485 53.49977 49.14731
# Shear Modulus (GPa) = 43.59815 47.71968 45.65892
#
# Velocity S-wave (km/s) = 4.01687 4.20245 4.11071
# Velocity P-wave (km/s) = 6.17186 6.58386 6.38118
#
# Compressibility (1/GPa) = 0.02232399
#
# Stress axis : x y z
#
# Youngs Moduli (GPa) = 73.63115 109.37671 108.95991
#
# Poissons Ratio (x) = -0.12645 0.31517
# Poissons Ratio (y) = -0.08512 0.33258
# Poissons Ratio (z) = 0.21298 0.33385
#
# Static dielectric constant tensor:
#      x y z
#    x 5.172800 0.000000 -0.145460 
#    y 0.000000 5.164590 0.000000 
#    z -0.145460 0.000000 5.602370 
# 
# 
# High freq. dielectric constant tensor:
#      x y z
#    x 2.084730 0.000000 -0.004650 
#    y 0.000000 2.099590 0.000000 
#    z -0.004650 0.000000 2.098810 
# 
# From -- ./inp_files/17887.got.cif
#   From: 2010.03.12/outbox.cif.g09.slc.cpg/sg14_9_cif.got.tgz:17887.got - 2010.03.31 13:35:05.
