data_PCOD8128185
_publ_section_title
;
Structure prediction by ZEFSAII (Michael W. Deem and Ramdas Pophale) SiO2 
 PCOD8128185
Probable space group: P 21/C
;
_chemical_formula_sum "Si O2"
_cell_formula_units_Z 20
_cell_length_a 25.633182
_cell_length_b 8.907268
_cell_length_c 10.105355
_cell_angle_alpha 90.000000
_cell_angle_beta 23.232524
_cell_angle_gamma 90.000000
_cell_volume 910.134428
_symmetry_space_group_name_H-M "P 21/C"
_symmetry_group_IT_number 14
_symmetry_cell_setting 'monoclinic'
loop_
_space_group_symop_operation_xyz
x,y,z
-x,1/2+y,1/2-z
-x,-y,-z
x,1/2-y,1/2+z
loop_
_atom_site_type_symbol
_atom_site_label
_atom_site_fract_x
_atom_site_fract_y
_atom_site_fract_z
Si Si1 0.920579 0.431251 0.063393
Si Si2 0.682505 0.829709 0.843309
Si Si3 0.024962 0.111077 0.820444
Si Si4 0.636521 0.426661 0.637137
Si Si5 0.465077 0.170636 0.076491
O O1 0.762640 0.468499 0.435938
O O2 0.986316 0.507030 0.781998
O O3 0.000000 0.500000 0.000000
O O4 0.922548 0.249453 0.053320
O O5 0.837710 0.797850 0.487783
O O6 0.638287 0.795887 0.798585
O O7 0.601247 0.723790 0.132728
O O8 0.663712 0.006511 0.926906
O O9 0.000000 0.000000 0.000000
O O10 0.500000 0.500000 0.000000
O O11 0.605558 0.249867 0.713071
O O12 0.500000 0.000000 0.000000
#
# Coordination Sequence:
#
# PCOD8128185 Si02
#       5
#     4   4   4   4   4
#     4  11  25  45  73 101 138 188 229 294 353 419
#     4  10  24  42  68  97 140 178 228 286 347 417
#     4  11  26  45  68 102 141 181 240 286 352 425
#     4   9  22  44  64  99 137 173 230 278 340 418
#     4  11  23  42  70 100 135 182 228 289 349 412
#
# _framework density 21.974774
#
# number of rings (size 3 to 8) (size 9 to 14) (size 15 to 20)
#    0.000    1.600    0.000    2.400   14.000    0.000 
#   10.800    0.000    0.000    0.000    0.000    0.000 
#    0.000    0.000    0.000    0.000    0.000    0.000 
#
# Total GULP energy -247862.646527 kJ/mol
# GULP energy per Si atom -12393.132326 kJ/mol
# Density = 2.192476 g / cm^3
# Si number density = 21.974774 Si / 1000 Ang^3
#
#
#
# Elastic Constant Matrix: (Units=GPa)
#
#
# Indices 1 2 3 4 5 6 
#
# 1 138.2185 42.0942 31.9238 0.0000 -0.9926 0.0000
# 2 42.0942 151.7626 37.6489 0.0000 2.1573 0.0000
# 3 31.9238 37.6489 96.2600 0.0000 -13.1803 0.0000
# 4 0.0000 0.0000 0.0000 30.4912 0.0000 -1.3610
# 5 -0.9926 2.1573 -13.1803 0.0000 35.1648 0.0000
# 6 0.0000 0.0000 0.0000 -1.3610 0.0000 36.8261
#
#
#
# Elastic Compliance Matrix: (Units=1/GPa)
#
#
# Indices 1 2 3 4 5 6 
#
# 1 0.008255 -0.001760 -0.002111 0.000000 -0.000450 0.000000
# 2 -0.001760 0.007759 -0.002659 0.000000 -0.001522 0.000000
# 3 -0.002111 -0.002659 0.012800 0.000000 0.004901 0.000000
# 4 0.000000 0.000000 0.000000 0.032851 0.000000 0.001214
# 5 -0.000450 -0.001522 0.004901 0.000000 0.030355 0.000000
# 6 0.000000 0.000000 0.000000 0.001214 0.000000 0.027200
#
#
# Mechanical properties :
#
#
# Convention : Reuss Voigt Hill
#
# Bulk Modulus (GPa) = 63.47882 67.73054 65.60468
# Shear Modulus (GPa) = 36.35550 38.80137 37.57843
#
# Velocity S-wave (km/s) = 4.07187 4.20661 4.13979
# Velocity P-wave (km/s) = 7.14539 7.38126 7.26428
#
# Compressibility (1/GPa) = 0.01575329
#
# Stress axis : x y z
#
# Youngs Moduli (GPa) = 121.13598 128.88786 78.12535
#
# Poissons Ratio (x) = 0.22679 0.16494
# Poissons Ratio (y) = 0.21315 0.20777
# Poissons Ratio (z) = 0.25574 0.34277
#
# Static dielectric constant tensor:
#      x y z
#    x 3.889320 0.000000 -0.049410 
#    y 0.000000 4.919760 0.000000 
#    z -0.049410 0.000000 4.383920 
# 
# 
# High freq. dielectric constant tensor:
#      x y z
#    x 1.863750 0.000000 -0.009160 
#    y 0.000000 1.876290 0.000000 
#    z -0.009160 0.000000 1.867870 
# 
# From -- ./inp_files/36371.got.cif
#   From: 2010.03.12/outbox.cif.g09.slc.cpg/sg14_19_cif.got.tgz:36371.got - 2010.03.31 13:35:05.
