data_PCOD8128950
_publ_section_title
;
Structure prediction by ZEFSAII (Michael W. Deem and Ramdas Pophale) SiO2 
 PCOD8128950
Probable space group: P 21/C
;
_chemical_formula_sum "Si O2"
_cell_formula_units_Z 24
_cell_length_a 10.899906
_cell_length_b 10.256695
_cell_length_c 10.809170
_cell_angle_alpha 90.000000
_cell_angle_beta 53.571403
_cell_angle_gamma 90.000000
_cell_volume 972.302109
_symmetry_space_group_name_H-M "P 21/C"
_symmetry_group_IT_number 14
_symmetry_cell_setting 'monoclinic'
loop_
_space_group_symop_operation_xyz
x,y,z
-x,1/2+y,1/2-z
-x,-y,-z
x,1/2-y,1/2+z
loop_
_atom_site_type_symbol
_atom_site_label
_atom_site_fract_x
_atom_site_fract_y
_atom_site_fract_z
Si Si1 0.848067 0.786614 0.578546
Si Si2 0.298293 0.298771 0.569923
Si Si3 0.580051 0.337602 0.934563
Si Si4 0.625145 0.074741 0.042503
Si Si5 0.197120 0.729912 0.393061
Si Si6 0.357701 0.513281 0.870092
O O1 0.782954 0.751979 0.754220
O O2 0.804407 0.686267 0.493568
O O3 0.029207 0.784571 0.480532
O O4 0.792833 0.927161 0.563414
O O5 0.418804 0.181759 0.455691
O O6 0.353249 0.449605 0.560414
O O7 0.740884 0.340481 0.767309
O O8 0.551987 0.196653 0.016718
O O9 0.589881 0.461475 0.018933
O O10 0.786493 0.126148 0.004030
O O11 0.513580 0.040047 0.221063
O O12 0.316884 0.846180 0.340104
#
# Coordination Sequence:
#
# PCOD8128950 Si02
#       6
#     4   4   4   4   4   4
#     4  12  28  46  71 108 151 189 237 304 373 430
#     4  12  25  47  74 106 146 194 243 298 363 437
#     4  11  23  44  75 103 140 192 250 297 351 439
#     4  11  23  44  76 101 140 193 248 298 355 432
#     4  11  26  45  69 109 144 189 244 299 364 438
#     4  11  23  45  77 105 141 195 245 299 360 434
#
# _framework density 24.683686999999999
#
# number of rings (size 3 to 8) (size 9 to 14) (size 15 to 20)
#    0.000    0.667    3.333    4.000    4.667    4.667 
#    0.000    0.000    0.000    0.000    0.000    0.000 
#    0.000    0.000    0.000    0.000    0.000    0.000 
#
# Total GULP energy -297441.808947 kJ/mol
# GULP energy per Si atom -12393.408706 kJ/mol
# Density = 2.462751 g / cm^3
# Si number density = 24.683687 Si / 1000 Ang^3
#
#
#
# Elastic Constant Matrix: (Units=GPa)
#
#
# Indices 1 2 3 4 5 6 
#
# 1 132.7018 29.3367 48.5709 0.0000 -17.3163 0.0000
# 2 29.3367 89.6083 3.5535 0.0000 -3.3798 0.0000
# 3 48.5709 3.5535 118.9340 0.0000 -2.7014 0.0000
# 4 0.0000 0.0000 0.0000 39.5524 0.0000 10.3194
# 5 -17.3163 -3.3798 -2.7014 0.0000 34.4945 0.0000
# 6 0.0000 0.0000 0.0000 10.3194 0.0000 25.0398
#
#
#
# Elastic Compliance Matrix: (Units=1/GPa)
#
#
# Indices 1 2 3 4 5 6 
#
# 1 0.010261 -0.003030 -0.003997 0.000000 0.004541 0.000000
# 2 -0.003030 0.012107 0.000869 0.000000 -0.000266 0.000000
# 3 -0.003997 0.000869 0.009988 0.000000 -0.001139 0.000000
# 4 0.000000 0.000000 0.000000 0.028329 0.000000 -0.011675
# 5 0.004541 -0.000266 -0.001139 0.000000 0.031154 0.000000
# 6 0.000000 0.000000 0.000000 -0.011675 0.000000 0.044748
#
#
# Mechanical properties :
#
#
# Convention : Reuss Voigt Hill
#
# Bulk Modulus (GPa) = 49.89375 56.01849 52.95612
# Shear Modulus (GPa) = 32.13739 37.13621 34.63680
#
# Velocity S-wave (km/s) = 3.61219 3.88298 3.75003
# Velocity P-wave (km/s) = 6.13632 6.54577 6.34435
#
# Compressibility (1/GPa) = 0.02004259
#
# Stress axis : x y z
#
# Youngs Moduli (GPa) = 97.45751 82.59702 100.11623
#
# Poissons Ratio (x) = 0.25023 0.40014
# Poissons Ratio (y) = 0.29525 -0.08704
# Poissons Ratio (z) = 0.38951 -0.07181
#
# Static dielectric constant tensor:
#      x y z
#    x 4.632300 0.000000 0.399290 
#    y 0.000000 4.641130 0.000000 
#    z 0.399290 0.000000 4.158230 
# 
# 
# High freq. dielectric constant tensor:
#      x y z
#    x 2.002650 0.000000 0.026500 
#    y 0.000000 2.010950 0.000000 
#    z 0.026500 0.000000 1.962950 
# 
# From -- ./inp_files/28478.got.cif
#   From: 2010.03.12/outbox.cif.g09.slc.cpg/sg14_15_cif.got.tgz:28478.got - 2010.03.31 13:35:05.
