data_PCOD8128546
_publ_section_title
;
Structure prediction by ZEFSAII (Michael W. Deem and Ramdas Pophale) SiO2 
 PCOD8128546
Probable space group: P 21/C
;
_chemical_formula_sum "Si O2"
_cell_formula_units_Z 32
_cell_length_a 11.782387
_cell_length_b 14.241172
_cell_length_c 8.885807
_cell_angle_alpha 90.000000
_cell_angle_beta 89.083087
_cell_angle_gamma 90.000000
_cell_volume 1490.803066
_symmetry_space_group_name_H-M "P 21/C"
_symmetry_group_IT_number 14
_symmetry_cell_setting 'monoclinic'
loop_
_space_group_symop_operation_xyz
x,y,z
-x,1/2+y,1/2-z
-x,-y,-z
x,1/2-y,1/2+z
loop_
_atom_site_type_symbol
_atom_site_label
_atom_site_fract_x
_atom_site_fract_y
_atom_site_fract_z
Si Si1 0.506912 0.741516 0.172507
Si Si2 0.593592 0.446405 0.695682
Si Si3 0.332252 0.272588 0.086307
Si Si4 0.841369 0.480731 0.203136
Si Si5 0.783245 0.960967 0.385550
Si Si6 0.110776 0.167251 0.123593
Si Si7 0.385829 0.578625 0.645134
Si Si8 0.034261 0.147675 0.796099
O O1 0.471294 0.641036 0.232671
O O2 0.627183 0.774147 0.242259
O O3 0.402111 0.812961 0.193639
O O4 0.546924 0.742752 0.998537
O O5 0.694799 0.470954 0.806451
O O6 0.504950 0.530544 0.682312
O O7 0.645208 0.425844 0.530451
O O8 0.278436 0.371304 0.038815
O O9 0.239765 0.189896 0.068366
O O10 0.894717 0.573567 0.276799
O O11 0.711968 0.469016 0.256570
O O12 0.910403 0.388319 0.250373
O O13 0.845214 0.486398 0.021741
O O14 0.874488 0.928692 0.260809
O O15 0.058961 0.251120 0.223829
O O16 0.035698 0.153880 0.976357
#
# Coordination Sequence:
#
# PCOD8128546 Si02
#       8
#     4   4   4   4   4   4   4   4
#     4  12  23  39  62  97 137 175 215 273 333 403
#     4  11  24  42  66  94 139 178 222 276 341 401
#     4  11  21  38  66  99 130 172 225 274 321 400
#     4  12  26  45  69 102 137 178 227 281 344 406
#     4  11  23  41  71  97 133 174 232 283 333 400
#     4  11  23  45  73 101 131 180 229 285 334 395
#     4  11  25  43  62 100 137 180 218 273 341 409
#     4  11  25  47  71 102 130 176 231 284 338 403
#
# _framework density 21.464939999999999
#
# number of rings (size 3 to 8) (size 9 to 14) (size 15 to 20)
#    0.000    0.750    2.500    6.750    3.500    1.000 
#    6.750    0.000    0.000    0.000    0.000    0.000 
#    0.000    0.000    0.000    0.000    0.000    0.000 
#
# Total GULP energy -396945.483714 kJ/mol
# GULP energy per Si atom -12404.546366 kJ/mol
# Density = 2.141609 g / cm^3
# Si number density = 21.464940 Si / 1000 Ang^3
#
#
#
# Elastic Constant Matrix: (Units=GPa)
#
#
# Indices 1 2 3 4 5 6 
#
# 1 59.1956 16.1995 22.9347 0.0000 17.1920 0.0000
# 2 16.1995 70.4973 27.1264 0.0000 6.9062 0.0000
# 3 22.9347 27.1264 103.3209 0.0000 28.0593 0.0000
# 4 0.0000 0.0000 0.0000 29.3605 0.0000 6.4160
# 5 17.1920 6.9062 28.0593 0.0000 36.9607 0.0000
# 6 0.0000 0.0000 0.0000 6.4160 0.0000 35.5347
#
#
#
# Elastic Compliance Matrix: (Units=1/GPa)
#
#
# Indices 1 2 3 4 5 6 
#
# 1 0.020696 -0.003380 -0.001592 0.000000 -0.007787 0.000000
# 2 -0.003380 0.016333 -0.003950 0.000000 0.001520 0.000000
# 3 -0.001592 -0.003950 0.013438 0.000000 -0.008723 0.000000
# 4 0.000000 0.000000 0.000000 0.035458 0.000000 -0.006402
# 5 -0.007787 0.001520 -0.008723 0.000000 0.037016 0.000000
# 6 0.000000 0.000000 0.000000 -0.006402 0.000000 0.029297
#
#
# Mechanical properties :
#
#
# Convention : Reuss Voigt Hill
#
# Bulk Modulus (GPa) = 30.65428 40.61499 35.63463
# Shear Modulus (GPa) = 27.63058 31.48807 29.55933
#
# Velocity S-wave (km/s) = 3.59171 3.83424 3.71495
# Velocity P-wave (km/s) = 5.61361 6.21003 5.91933
#
# Compressibility (1/GPa) = 0.03262187
#
# Stress axis : x y z
#
# Youngs Moduli (GPa) = 48.31739 61.22602 74.41533
#
# Poissons Ratio (x) = 0.20697 0.11847
# Poissons Ratio (y) = 0.16333 0.29397
# Poissons Ratio (z) = 0.07692 0.24187
#
# Static dielectric constant tensor:
#      x y z
#    x 3.698990 0.000000 0.119010 
#    y 0.000000 3.832130 0.000000 
#    z 0.119010 0.000000 3.936840 
# 
# 
# High freq. dielectric constant tensor:
#      x y z
#    x 1.830020 0.000000 0.008510 
#    y 0.000000 1.844580 0.000000 
#    z 0.008510 0.000000 1.857860 
# 
# From -- ./inp_files/13096.got.cif
#   From: 2010.03.12/outbox.cif.g09.slc.cpg/sg14_7_cif.got.tgz:13096.got - 2010.03.31 13:35:05.
