data_PCOD8128566
_publ_section_title
;
Structure prediction by ZEFSAII (Michael W. Deem and Ramdas Pophale) SiO2 
 PCOD8128566
Probable space group: P 21/C
;
_chemical_formula_sum "Si O2"
_cell_formula_units_Z 32
_cell_length_a 15.469516
_cell_length_b 19.852806
_cell_length_c 14.975058
_cell_angle_alpha 90.000000
_cell_angle_beta 18.697207
_cell_angle_gamma 90.000000
_cell_volume 1474.299445
_symmetry_space_group_name_H-M "P 21/C"
_symmetry_group_IT_number 14
_symmetry_cell_setting 'monoclinic'
loop_
_space_group_symop_operation_xyz
x,y,z
-x,1/2+y,1/2-z
-x,-y,-z
x,1/2-y,1/2+z
loop_
_atom_site_type_symbol
_atom_site_label
_atom_site_fract_x
_atom_site_fract_y
_atom_site_fract_z
Si Si1 0.476730 0.043496 0.846202
Si Si2 0.527669 0.392061 0.687533
Si Si3 0.016827 0.151428 0.590699
Si Si4 0.821021 0.732160 0.340851
Si Si5 0.103501 0.694543 0.320911
Si Si6 0.014057 0.406820 0.905953
Si Si7 0.321862 0.687265 0.296147
Si Si8 0.397508 0.341283 0.283983
O O1 0.711424 0.076467 0.674837
O O2 0.416712 0.088717 0.818039
O O3 0.557134 0.969955 0.733694
O O4 0.217712 0.038158 0.165051
O O5 0.800176 0.377930 0.369532
O O6 0.564120 0.374422 0.756608
O O7 0.298021 0.345587 0.868354
O O8 0.942992 0.225206 0.624668
O O9 0.038908 0.097612 0.488224
O O10 0.571293 0.763164 0.530214
O O11 0.714291 0.719631 0.545300
O O12 0.901109 0.664067 0.216070
O O13 0.083714 0.779071 0.087635
O O14 0.209656 0.664248 0.310300
O O15 0.825349 0.653952 0.576144
O O16 0.310219 0.678448 0.038923
#
# Coordination Sequence:
#
# PCOD8128566 Si02
#       8
#     4   4   4   4   4   4   4   4
#     4  11  25  44  64  89 132 173 224 244 308 382
#     4  12  27  43  62  93 129 178 209 262 308 382
#     4  12  25  40  66  99 131 155 215 262 330 379
#     4  11  21  40  64  95 125 164 205 259 335 374
#     4  12  24  40  65 102 126 158 211 273 323 377
#     4  11  23  40  67  97 124 171 201 269 310 381
#     4  12  24  41  64  93 134 163 206 267 330 373
#     4  11  23  40  66  92 124 171 214 259 309 383
#
# _framework density 21.705223
#
# number of rings (size 3 to 8) (size 9 to 14) (size 15 to 20)
#    0.000    0.500    1.250    9.750    1.750    3.000 
#    0.000    1.250    0.000    0.000    0.000    0.000 
#    0.000    0.000    0.000    0.000    0.000    0.000 
#
# Total GULP energy -396964.774801 kJ/mol
# GULP energy per Si atom -12405.149213 kJ/mol
# Density = 2.165582 g / cm^3
# Si number density = 21.705223 Si / 1000 Ang^3
#
#
#
# Elastic Constant Matrix: (Units=GPa)
#
#
# Indices 1 2 3 4 5 6 
#
# 1 115.5831 44.0018 30.0231 0.0000 -14.5948 0.0000
# 2 44.0018 80.9787 47.0576 0.0000 0.8992 0.0000
# 3 30.0231 47.0576 156.8220 0.0000 -8.7429 0.0000
# 4 0.0000 0.0000 0.0000 61.4288 0.0000 -3.8069
# 5 -14.5948 0.8992 -8.7429 0.0000 41.2343 0.0000
# 6 0.0000 0.0000 0.0000 -3.8069 0.0000 16.0555
#
#
#
# Elastic Compliance Matrix: (Units=1/GPa)
#
#
# Indices 1 2 3 4 5 6 
#
# 1 0.011608 -0.006298 -0.000097 0.000000 0.004226 0.000000
# 2 -0.006298 0.018443 -0.004529 0.000000 -0.003592 0.000000
# 3 -0.000097 -0.004529 0.007850 0.000000 0.001729 0.000000
# 4 0.000000 0.000000 0.000000 0.016522 0.000000 0.003917
# 5 0.004226 -0.003592 0.001729 0.000000 0.026192 0.000000
# 6 0.000000 0.000000 0.000000 0.003917 0.000000 0.063213
#
#
# Mechanical properties :
#
#
# Convention : Reuss Voigt Hill
#
# Bulk Modulus (GPa) = 62.28955 66.17208 64.23082
# Shear Modulus (GPa) = 29.23517 39.23046 34.23282
#
# Velocity S-wave (km/s) = 3.67402 4.25599 3.97567
# Velocity P-wave (km/s) = 6.83799 7.39623 7.12258
#
# Compressibility (1/GPa) = 0.01605406
#
# Stress axis : x y z
#
# Youngs Moduli (GPa) = 86.14594 54.22195 127.38082
#
# Poissons Ratio (x) = 0.34150 0.01234
# Poissons Ratio (y) = 0.54257 0.57685
# Poissons Ratio (z) = 0.00834 0.24555
#
# Static dielectric constant tensor:
#      x y z
#    x 4.102430 0.000000 -0.309290 
#    y 0.000000 3.833520 0.000000 
#    z -0.309290 0.000000 5.026450 
# 
# 
# High freq. dielectric constant tensor:
#      x y z
#    x 1.859450 0.000000 -0.007500 
#    y 0.000000 1.828260 0.000000 
#    z -0.007500 0.000000 1.875720 
# 
# From -- ./inp_files/47608.got.cif
#   From: 2010.03.12/outbox.cif.g09.slc.cpg/sg14_24_cif.got.tgz:47608.got - 2010.03.31 13:35:05.
