data_PCOD8128552
_publ_section_title
;
Structure prediction by ZEFSAII (Michael W. Deem and Ramdas Pophale) SiO2 
 PCOD8128552
Probable space group: P 21/C
;
_chemical_formula_sum "Si O2"
_cell_formula_units_Z 20
_cell_length_a 4.900257
_cell_length_b 8.175632
_cell_length_c 24.023063
_cell_angle_alpha 90.000000
_cell_angle_beta 103.870877
_cell_angle_gamma 90.000000
_cell_volume 934.362815
_symmetry_space_group_name_H-M "P 21/C"
_symmetry_group_IT_number 14
_symmetry_cell_setting 'monoclinic'
loop_
_space_group_symop_operation_xyz
x,y,z
-x,1/2+y,1/2-z
-x,-y,-z
x,1/2-y,1/2+z
loop_
_atom_site_type_symbol
_atom_site_label
_atom_site_fract_x
_atom_site_fract_y
_atom_site_fract_z
Si Si1 0.798928 0.011758 0.541491
Si Si2 0.556967 0.043636 0.166335
Si Si3 0.789650 0.699740 0.147234
Si Si4 0.027722 0.258388 0.635740
Si Si5 0.663684 0.046671 0.298106
O O1 0.869172 0.184456 0.574414
O O2 0.500000 0.000000 0.500000
O O3 0.828911 0.862136 0.586061
O O4 0.000000 0.000000 0.500000
O O5 0.250288 0.100021 0.128754
O O6 0.531253 0.021220 0.231166
O O7 0.790310 0.178386 0.165534
O O8 0.655538 0.878947 0.140429
O O9 0.585700 0.579063 0.170868
O O10 0.102324 0.692412 0.189814
O O11 0.195817 0.122518 0.677894
#
# Coordination Sequence:
#
# PCOD8128552 Si02
#       5
#     4   4   4   4   4
#     4  11  23  45  66  82 114 166 213 257 304 361
#     4  12  22  38  60  95 131 153 190 257 304 355
#     4  11  24  39  62  93 121 160 209 245 299 370
#     4  11  24  39  62  93 122 161 208 244 299 369
#     4  11  21  39  61  89 128 170 193 227 300 385
#
# _framework density 21.404962000000001
#
# number of rings (size 3 to 8) (size 9 to 14) (size 15 to 20)
#    0.000    0.800    0.000   10.800    0.000    0.000 
#    0.000    6.000    0.000    0.000    0.000    0.000 
#    0.000    0.000    0.000    0.000    0.000    0.000 
#
# Total GULP energy -248027.708340 kJ/mol
# GULP energy per Si atom -12401.385417 kJ/mol
# Density = 2.135624 g / cm^3
# Si number density = 21.404962 Si / 1000 Ang^3
#
#
#
# Elastic Constant Matrix: (Units=GPa)
#
#
# Indices 1 2 3 4 5 6 
#
# 1 132.8983 17.8497 61.9353 0.0000 -7.3908 0.0000
# 2 17.8497 81.7018 56.3633 0.0000 -3.5037 0.0000
# 3 61.9353 56.3633 139.8729 0.0000 -11.0005 0.0000
# 4 0.0000 0.0000 0.0000 17.0694 0.0000 3.6998
# 5 -7.3908 -3.5037 -11.0005 0.0000 47.1279 0.0000
# 6 0.0000 0.0000 0.0000 3.6998 0.0000 46.1157
#
#
#
# Elastic Compliance Matrix: (Units=1/GPa)
#
#
# Indices 1 2 3 4 5 6 
#
# 1 0.009570 0.001145 -0.004660 0.000000 0.000498 0.000000
# 2 0.001145 0.017095 -0.007418 0.000000 -0.000281 0.000000
# 3 -0.004660 -0.007418 0.012327 0.000000 0.001595 0.000000
# 4 0.000000 0.000000 0.000000 0.059621 0.000000 -0.004783
# 5 0.000498 -0.000281 0.001595 0.000000 0.021648 0.000000
# 6 0.000000 0.000000 0.000000 -0.004783 0.000000 0.022068
#
#
# Mechanical properties :
#
#
# Convention : Reuss Voigt Hill
#
# Bulk Modulus (GPa) = 58.38635 69.64105 64.01370
# Shear Modulus (GPa) = 29.42848 36.61760 33.02304
#
# Velocity S-wave (km/s) = 3.71191 4.14056 3.93208
# Velocity P-wave (km/s) = 6.76072 7.44745 7.11238
#
# Compressibility (1/GPa) = 0.01712729
#
# Stress axis : x y z
#
# Youngs Moduli (GPa) = 104.49176 58.49814 81.12119
#
# Poissons Ratio (x) = -0.06700 0.37802
# Poissons Ratio (y) = -0.11967 0.60173
# Poissons Ratio (z) = 0.48693 0.43392
#
# Static dielectric constant tensor:
#      x y z
#    x 3.972950 0.000000 -0.626920 
#    y 0.000000 3.826530 0.000000 
#    z -0.626920 0.000000 2.338740 
# 
# 
# High freq. dielectric constant tensor:
#      x y z
#    x 1.870860 0.000000 -0.006400 
#    y 0.000000 1.838630 0.000000 
#    z -0.006400 0.000000 1.826210 
# 
# From -- ./inp_files/63101.got.cif
#   From: 2010.03.12/outbox.cif.g09.slc.cpg/sg14_32_cif.got.tgz:63101.got - 2010.03.31 13:35:05.
