data_PCOD8128392
_publ_section_title
;
Structure prediction by ZEFSAII (Michael W. Deem and Ramdas Pophale) SiO2 
 PCOD8128392
Probable space group: P 21/C
;
_chemical_formula_sum "Si O2"
_cell_formula_units_Z 20
_cell_length_a 5.051035
_cell_length_b 8.568119
_cell_length_c 17.726156
_cell_angle_alpha 90.000000
_cell_angle_beta 106.577018
_cell_angle_gamma 90.000000
_cell_volume 735.265260
_symmetry_space_group_name_H-M "P 21/C"
_symmetry_group_IT_number 14
_symmetry_cell_setting 'monoclinic'
loop_
_space_group_symop_operation_xyz
x,y,z
-x,1/2+y,1/2-z
-x,-y,-z
x,1/2-y,1/2+z
loop_
_atom_site_type_symbol
_atom_site_label
_atom_site_fract_x
_atom_site_fract_y
_atom_site_fract_z
Si Si1 0.747321 0.783077 0.496855
Si Si2 0.907119 0.607087 0.642143
Si Si3 0.981358 0.530823 0.885409
Si Si4 0.547179 0.280369 0.801539
Si Si5 0.699536 0.274152 0.653732
O O1 0.828050 0.623270 0.546760
O O2 0.942774 0.831751 0.443770
O O3 0.444912 0.755469 0.438540
O O4 0.777287 0.917089 0.563683
O O5 0.728745 0.735092 0.676039
O O6 0.871404 0.432837 0.667553
O O7 0.230250 0.642355 0.673130
O O8 0.693958 0.440237 0.844118
O O9 0.094024 0.623422 0.820179
O O10 0.485926 0.287773 0.706442
#
# Coordination Sequence:
#
# PCOD8128392 Si02
#       5
#     4   4   4   4   4
#     4  10  25  45  73 102 144 188 245 289 362 426
#     4  11  28  48  70 109 146 188 239 307 352 428
#     4  10  25  46  73 103 141 194 239 292 358 437
#     4  11  28  47  72 105 152 185 241 293 371 424
#     4  12  26  43  77 103 144 189 245 296 362 422
#
# _framework density 27.201066999999998
#
# number of rings (size 3 to 8) (size 9 to 14) (size 15 to 20)
#    0.000    1.200    0.000    2.400   22.400    0.800 
#    0.000    0.000    0.000    0.000    0.000    0.000 
#    0.000    0.000    0.000    0.000    0.000    0.000 
#
# Total GULP energy -247828.952665 kJ/mol
# GULP energy per Si atom -12391.447633 kJ/mol
# Density = 2.713916 g / cm^3
# Si number density = 27.201067 Si / 1000 Ang^3
#
#
#
# Elastic Constant Matrix: (Units=GPa)
#
#
# Indices 1 2 3 4 5 6 
#
# 1 22.8349 -11.9831 -3.3184 0.0000 -0.2788 0.0000
# 2 -11.9831 66.4915 19.6439 0.0000 -1.1917 0.0000
# 3 -3.3184 19.6439 94.6908 0.0000 -5.3741 0.0000
# 4 0.0000 0.0000 0.0000 27.0614 0.0000 -5.6815
# 5 -0.2788 -1.1917 -5.3741 0.0000 36.0432 0.0000
# 6 0.0000 0.0000 0.0000 -5.6815 0.0000 23.3288
#
#
#
# Elastic Compliance Matrix: (Units=1/GPa)
#
#
# Indices 1 2 3 4 5 6 
#
# 1 0.048383 0.008756 -0.000084 0.000000 0.000651 0.000000
# 2 0.008756 0.017606 -0.003337 0.000000 0.000152 0.000000
# 3 -0.000084 -0.003337 0.011340 0.000000 0.001580 0.000000
# 4 0.000000 0.000000 0.000000 0.038944 0.000000 0.009485
# 5 0.000651 0.000152 0.001580 0.000000 0.027990 0.000000
# 6 0.000000 0.000000 0.000000 0.009485 0.000000 0.045175
#
#
# Mechanical properties :
#
#
# Convention : Reuss Voigt Hill
#
# Bulk Modulus (GPa) = 11.36371 21.41133 16.38752
# Shear Modulus (GPa) = 24.02676 29.26503 26.64589
#
# Velocity S-wave (km/s) = 2.97526 3.28362 3.13324
# Velocity P-wave (km/s) = 3.99871 4.71856 4.37347
#
# Compressibility (1/GPa) = 0.08799944
#
# Stress axis : x y z
#
# Youngs Moduli (GPa) = 20.66831 56.79848 88.18605
#
# Poissons Ratio (x) = -0.49733 0.00740
# Poissons Ratio (y) = -0.18097 0.29427
# Poissons Ratio (z) = 0.00173 0.18953
#
# Static dielectric constant tensor:
#      x y z
#    x 4.397230 0.000000 -0.051020 
#    y 0.000000 4.979150 0.000000 
#    z -0.051020 0.000000 5.213260 
# 
# 
# High freq. dielectric constant tensor:
#      x y z
#    x 2.078580 0.000000 -0.001880 
#    y 0.000000 2.095170 0.000000 
#    z -0.001880 0.000000 2.110480 
# 
# From -- ./inp_files/52721.got.cif
#   From: 2010.03.12/outbox.cif.g09.slc.cpg/sg14_27_cif.got.tgz:52721.got - 2010.03.31 13:35:05.
