data_PCOD8128045
_publ_section_title
;
Structure prediction by ZEFSAII (Michael W. Deem and Ramdas Pophale) SiO2 
 PCOD8128045
Probable space group: P 21/C
;
_chemical_formula_sum "Si O2"
_cell_formula_units_Z 20
_cell_length_a 19.093378
_cell_length_b 8.645064
_cell_length_c 11.668421
_cell_angle_alpha 90.000000
_cell_angle_beta 153.070868
_cell_angle_gamma 90.000000
_cell_volume 872.276090
_symmetry_space_group_name_H-M "P 21/C"
_symmetry_group_IT_number 14
_symmetry_cell_setting 'monoclinic'
loop_
_space_group_symop_operation_xyz
x,y,z
-x,1/2+y,1/2-z
-x,-y,-z
x,1/2-y,1/2+z
loop_
_atom_site_type_symbol
_atom_site_label
_atom_site_fract_x
_atom_site_fract_y
_atom_site_fract_z
Si Si1 0.180018 0.472272 0.773343
Si Si2 0.588914 0.059717 0.019696
Si Si3 0.149037 0.846482 0.443439
Si Si4 0.360640 0.186865 0.101934
Si Si5 0.815808 0.997812 0.971394
O O1 0.238393 0.577486 0.964453
O O2 0.255683 0.516594 0.761286
O O3 0.000000 0.500000 0.500000
O O4 0.216177 0.293622 0.853467
O O5 0.761842 0.107584 0.310240
O O6 0.507517 0.208357 0.845990
O O7 0.500000 0.000000 0.000000
O O8 0.594333 0.924691 0.935188
O O9 0.149501 0.663572 0.423179
O O10 0.972842 0.899630 0.197354
O O11 0.313048 0.088957 0.143301
#
# Coordination Sequence:
#
# PCOD8128045 Si02
#       5
#     4   4   4   4   4
#     4  10  23  45  72 105 145 183 236 296 356 424
#     4  12  29  49  73 105 152 191 247 294 366 433
#     4  11  26  46  76 110 145 191 239 301 360 435
#     4  12  28  48  74 104 147 196 241 303 359 427
#     4  11  26  47  76 106 148 186 247 298 362 424
#
# _framework density 22.928521
#
# number of rings (size 3 to 8) (size 9 to 14) (size 15 to 20)
#    0.000    0.800    2.000    3.600   14.000    1.600 
#    0.000    0.000    0.000    0.000    0.000    0.000 
#    0.000    0.000    0.000    0.000    0.000    0.000 
#
# Total GULP energy -248063.823558 kJ/mol
# GULP energy per Si atom -12403.191178 kJ/mol
# Density = 2.287634 g / cm^3
# Si number density = 22.928521 Si / 1000 Ang^3
#
#
#
# Elastic Constant Matrix: (Units=GPa)
#
#
# Indices 1 2 3 4 5 6 
#
# 1 171.7902 85.6572 34.2742 0.0000 -21.7067 0.0000
# 2 85.6572 186.1450 41.2620 0.0000 -13.0478 0.0000
# 3 34.2742 41.2620 97.9814 0.0000 -24.9618 0.0000
# 4 0.0000 0.0000 0.0000 38.4484 0.0000 6.7377
# 5 -21.7067 -13.0478 -24.9618 0.0000 29.1409 0.0000
# 6 0.0000 0.0000 0.0000 6.7377 0.0000 46.5642
#
#
#
# Elastic Compliance Matrix: (Units=1/GPa)
#
#
# Indices 1 2 3 4 5 6 
#
# 1 0.008096 -0.003353 -0.000340 0.000000 0.004238 0.000000
# 2 -0.003353 0.007324 -0.002190 0.000000 -0.001094 0.000000
# 3 -0.000340 -0.002190 0.013985 0.000000 0.010745 0.000000
# 4 0.000000 0.000000 0.000000 0.026686 0.000000 -0.003861
# 5 0.004238 -0.001094 0.010745 0.000000 0.046187 0.000000
# 6 0.000000 0.000000 0.000000 -0.003861 0.000000 0.022034
#
#
# Mechanical properties :
#
#
# Convention : Reuss Voigt Hill
#
# Bulk Modulus (GPa) = 56.69660 86.47813 71.58737
# Shear Modulus (GPa) = 35.22153 42.47892 38.85022
#
# Velocity S-wave (km/s) = 3.92362 4.30893 4.12078
# Velocity P-wave (km/s) = 6.73109 7.90912 7.34376
#
# Compressibility (1/GPa) = 0.01763774
#
# Stress axis : x y z
#
# Youngs Moduli (GPa) = 123.51188 136.53897 71.50606
#
# Poissons Ratio (x) = 0.45784 0.02434
# Poissons Ratio (y) = 0.41415 0.15661
# Poissons Ratio (z) = 0.04204 0.29904
#
# Static dielectric constant tensor:
#      x y z
#    x 4.797040 0.000000 -0.593430 
#    y 0.000000 4.258380 0.000000 
#    z -0.593430 0.000000 4.659510 
# 
# 
# High freq. dielectric constant tensor:
#      x y z
#    x 1.915220 0.000000 -0.012250 
#    y 0.000000 1.916750 0.000000 
#    z -0.012250 0.000000 1.913010 
# 
# From -- ./inp_files/33690.got.cif
#   From: 2010.03.12/outbox.cif.g09.slc.cpg/sg14_17_cif.got.tgz:33690.got - 2010.03.31 13:35:05.
