data_PCOD8128053
_publ_section_title
;
Structure prediction by ZEFSAII (Michael W. Deem and Ramdas Pophale) SiO2 
 PCOD8128053
Probable space group: P 21/C
;
_chemical_formula_sum "Si O2"
_cell_formula_units_Z 28
_cell_length_a 11.420205
_cell_length_b 9.559261
_cell_length_c 14.226648
_cell_angle_alpha 90.000000
_cell_angle_beta 54.524561
_cell_angle_gamma 90.000000
_cell_volume 1264.793345
_symmetry_space_group_name_H-M "P 21/C"
_symmetry_group_IT_number 14
_symmetry_cell_setting 'monoclinic'
loop_
_space_group_symop_operation_xyz
x,y,z
-x,1/2+y,1/2-z
-x,-y,-z
x,1/2-y,1/2+z
loop_
_atom_site_type_symbol
_atom_site_label
_atom_site_fract_x
_atom_site_fract_y
_atom_site_fract_z
Si Si1 0.866293 0.127350 0.832451
Si Si2 0.441727 0.795620 0.379869
Si Si3 0.878410 0.323354 0.987740
Si Si4 0.276247 0.104182 0.981995
Si Si5 0.565996 0.237748 0.908564
Si Si6 0.075683 0.140114 0.563586
Si Si7 0.568779 0.058721 0.236670
O O1 0.935475 0.249772 0.865872
O O2 0.715122 0.159546 0.854049
O O3 0.988340 0.108762 0.698410
O O4 0.834225 0.982553 0.901742
O O5 0.277798 0.752745 0.432297
O O6 0.479454 0.811550 0.471738
O O7 0.518194 0.660470 0.296116
O O8 0.461434 0.937956 0.316252
O O9 0.861601 0.490218 0.993338
O O10 0.976572 0.286295 0.030902
O O11 0.212729 0.259764 0.007440
O O12 0.440914 0.126556 0.941360
O O13 0.292750 0.020178 0.875242
O O14 0.605081 0.353872 0.813104
#
# Coordination Sequence:
#
# PCOD8128053 Si02
#       7
#     4   4   4   4   4   4   4
#     4  11  24  45  71  98 133 179 225 284 339 400
#     4  11  24  43  70  98 139 178 225 282 341 409
#     4  10  23  46  64  95 133 181 222 272 336 404
#     4  12  25  45  69 108 131 182 232 281 342 413
#     4  11  24  45  71 102 139 177 229 286 344 405
#     4  11  25  44  68  94 141 177 227 276 338 406
#     4  12  23  42  67 104 136 177 225 282 345 398
#
# _framework density 22.138003999999999
#
# number of rings (size 3 to 8) (size 9 to 14) (size 15 to 20)
#    0.000    0.857    4.286    3.429    0.000    1.714 
#   10.286    0.000    0.000    0.000    0.000    0.000 
#    0.000    0.000    0.000    0.000    0.000    0.000 
#
# Total GULP energy -346951.967907 kJ/mol
# GULP energy per Si atom -12391.141711 kJ/mol
# Density = 2.208762 g / cm^3
# Si number density = 22.138004 Si / 1000 Ang^3
#
#
#
# Elastic Constant Matrix: (Units=GPa)
#
#
# Indices 1 2 3 4 5 6 
#
# 1 55.9782 9.5082 23.8080 0.0000 18.5935 0.0000
# 2 9.5082 90.1600 29.4347 0.0000 12.9839 0.0000
# 3 23.8080 29.4347 121.3985 0.0000 25.6942 0.0000
# 4 0.0000 0.0000 0.0000 43.7820 0.0000 0.1130
# 5 18.5935 12.9839 25.6942 0.0000 18.4970 0.0000
# 6 0.0000 0.0000 0.0000 0.1130 0.0000 31.3625
#
#
#
# Elastic Compliance Matrix: (Units=1/GPa)
#
#
# Indices 1 2 3 4 5 6 
#
# 1 0.026950 0.001110 0.000488 0.000000 -0.028548 0.000000
# 2 0.001110 0.012620 -0.001652 0.000000 -0.007679 0.000000
# 3 0.000488 -0.001652 0.011899 0.000000 -0.015859 0.000000
# 4 0.000000 0.000000 0.000000 0.022841 0.000000 -0.000082
# 5 -0.028548 -0.007679 -0.015859 0.000000 0.110180 0.000000
# 6 0.000000 0.000000 0.000000 -0.000082 0.000000 0.031885
#
#
# Mechanical properties :
#
#
# Convention : Reuss Voigt Hill
#
# Bulk Modulus (GPa) = 19.47062 43.67093 31.57077
# Shear Modulus (GPa) = 21.40371 32.38068 26.89219
#
# Velocity S-wave (km/s) = 3.11276 3.82864 3.48911
# Velocity P-wave (km/s) = 4.66190 6.27010 5.52483
#
# Compressibility (1/GPa) = 0.05135944
#
# Stress axis : x y z
#
# Youngs Moduli (GPa) = 37.10518 79.24203 84.04093
#
# Poissons Ratio (x) = -0.08794 -0.04099
# Poissons Ratio (y) = -0.04118 0.13885
# Poissons Ratio (z) = -0.01810 0.13092
#
# Static dielectric constant tensor:
#      x y z
#    x 3.725370 0.000000 0.248610 
#    y 0.000000 4.086400 0.000000 
#    z 0.248610 0.000000 4.308100 
# 
# 
# High freq. dielectric constant tensor:
#      x y z
#    x 1.842150 0.000000 0.010650 
#    y 0.000000 1.889950 0.000000 
#    z 0.010650 0.000000 1.888440 
# 
# From -- ./inp_files/43312.got.cif
#   From: 2010.03.12/outbox.cif.g09.slc.cpg/sg14_22_cif.got.tgz:43312.got - 2010.03.31 13:35:05.
