data_PCOD8128679
_publ_section_title
;
Structure prediction by ZEFSAII (Michael W. Deem and Ramdas Pophale) SiO2 
 PCOD8128679
Probable space group: P 21/C
;
_chemical_formula_sum "Si O2"
_cell_formula_units_Z 32
_cell_length_a 10.319090
_cell_length_b 8.717947
_cell_length_c 27.828108
_cell_angle_alpha 90.000000
_cell_angle_beta 34.389958
_cell_angle_gamma 90.000000
_cell_volume 1414.005835
_symmetry_space_group_name_H-M "P 21/C"
_symmetry_group_IT_number 14
_symmetry_cell_setting 'monoclinic'
loop_
_space_group_symop_operation_xyz
x,y,z
-x,1/2+y,1/2-z
-x,-y,-z
x,1/2-y,1/2+z
loop_
_atom_site_type_symbol
_atom_site_label
_atom_site_fract_x
_atom_site_fract_y
_atom_site_fract_z
Si Si1 0.226415 0.386991 0.246397
Si Si2 0.896109 0.377838 0.641810
Si Si3 0.408797 0.879658 0.854372
Si Si4 0.677317 0.071053 0.012115
Si Si5 0.242807 0.607808 0.656843
Si Si6 0.812646 0.433745 0.219544
Si Si7 0.211036 0.599904 0.061846
Si Si8 0.576928 0.429531 0.901732
O O1 0.247178 0.488200 0.288096
O O2 0.384133 0.240595 0.204512
O O3 0.300621 0.480510 0.177661
O O4 0.956437 0.345336 0.319968
O O5 0.778987 0.333773 0.627236
O O6 0.894545 0.231067 0.676457
O O7 0.156398 0.432406 0.554033
O O8 0.280346 0.895984 0.944416
O O9 0.537673 0.037728 0.799179
O O10 0.410264 0.025121 0.084246
O O11 0.733457 0.222122 0.964200
O O12 0.127928 0.552719 0.741775
O O13 0.412466 0.750646 0.614823
O O14 0.939332 0.565499 0.148725
O O15 0.303080 0.537434 0.084366
O O16 0.317370 0.494245 0.986630
#
# Coordination Sequence:
#
# PCOD8128679 Si02
#       8
#     4   4   4   4   4   4   4   4
#     4  12  24  43  73 100 139 182 228 286 350 416
#     4  12  25  44  70  98 136 191 240 278 338 412
#     4  11  25  46  67  98 138 187 238 287 334 405
#     4  11  25  44  70 100 141 180 229 288 344 411
#     4  11  24  42  68 105 137 174 223 286 360 405
#     4  11  23  41  68  96 136 176 228 294 339 407
#     4  11  23  41  65 100 138 176 218 280 354 409
#     4  11  22  39  64  97 139 168 216 277 345 418
#
# _framework density 22.630739999999999
#
# number of rings (size 3 to 8) (size 9 to 14) (size 15 to 20)
#    0.000    0.750    3.750    4.125    1.750    4.000 
#    0.000    0.625    0.000    0.000    0.000    0.000 
#    0.000    0.000    0.000    0.000    0.000    0.000 
#
# Total GULP energy -396750.509589 kJ/mol
# GULP energy per Si atom -12398.453425 kJ/mol
# Density = 2.257923 g / cm^3
# Si number density = 22.630740 Si / 1000 Ang^3
#
#
#
# Elastic Constant Matrix: (Units=GPa)
#
#
# Indices 1 2 3 4 5 6 
#
# 1 75.0230 8.7333 23.4680 0.0000 0.7632 0.0000
# 2 8.7333 104.2646 46.9702 0.0000 0.7872 0.0000
# 3 23.4680 46.9702 124.0349 0.0000 15.2153 0.0000
# 4 0.0000 0.0000 0.0000 49.5091 0.0000 5.4263
# 5 0.7632 0.7872 15.2153 0.0000 23.5280 0.0000
# 6 0.0000 0.0000 0.0000 5.4263 0.0000 23.7429
#
#
#
# Elastic Compliance Matrix: (Units=1/GPa)
#
#
# Indices 1 2 3 4 5 6 
#
# 1 0.014210 0.000106 -0.002902 0.000000 0.001412 0.000000
# 2 0.000106 0.011719 -0.004789 0.000000 0.002702 0.000000
# 3 -0.002902 -0.004789 0.011289 0.000000 -0.007046 0.000000
# 4 0.000000 0.000000 0.000000 0.020717 0.000000 -0.004735
# 5 0.001412 0.002702 -0.007046 0.000000 0.046923 0.000000
# 6 0.000000 0.000000 0.000000 -0.004735 0.000000 0.043200
#
#
# Mechanical properties :
#
#
# Convention : Reuss Voigt Hill
#
# Bulk Modulus (GPa) = 45.35438 51.29616 48.32527
# Shear Modulus (GPa) = 29.31187 34.29941 31.80564
#
# Velocity S-wave (km/s) = 3.60283 3.89731 3.75296
# Velocity P-wave (km/s) = 6.11488 6.55498 6.33875
#
# Compressibility (1/GPa) = 0.02204859
#
# Stress axis : x y z
#
# Youngs Moduli (GPa) = 70.37136 85.32944 88.57828
#
# Poissons Ratio (x) = -0.00909 0.25708
# Poissons Ratio (y) = -0.00749 0.42424
# Poissons Ratio (z) = 0.20423 0.40868
#
# Static dielectric constant tensor:
#      x y z
#    x 3.674030 0.000000 0.175910 
#    y 0.000000 4.133970 0.000000 
#    z 0.175910 0.000000 4.512740 
# 
# 
# High freq. dielectric constant tensor:
#      x y z
#    x 1.854900 0.000000 0.019030 
#    y 0.000000 1.896060 0.000000 
#    z 0.019030 0.000000 1.925190 
# 
# From -- ./inp_files/79948.got.cif
#   From: 2010.03.12/outbox.cif.g09.slc.cpg/sg14_40_cif.got.tgz:79948.got - 2010.03.31 13:35:05.
