data_PCOD8128286
_publ_section_title
;
Structure prediction by ZEFSAII (Michael W. Deem and Ramdas Pophale) SiO2 
 PCOD8128286
Probable space group: P 21/C
;
_chemical_formula_sum "Si O2"
_cell_formula_units_Z 28
_cell_length_a 11.633661
_cell_length_b 8.171247
_cell_length_c 20.597082
_cell_angle_alpha 90.000000
_cell_angle_beta 141.093063
_cell_angle_gamma 90.000000
_cell_volume 1229.729789
_symmetry_space_group_name_H-M "P 21/C"
_symmetry_group_IT_number 14
_symmetry_cell_setting 'monoclinic'
loop_
_space_group_symop_operation_xyz
x,y,z
-x,1/2+y,1/2-z
-x,-y,-z
x,1/2-y,1/2+z
loop_
_atom_site_type_symbol
_atom_site_label
_atom_site_fract_x
_atom_site_fract_y
_atom_site_fract_z
Si Si1 0.536800 0.354904 0.209494
Si Si2 0.906461 0.993518 0.890304
Si Si3 0.910432 0.849799 0.143627
Si Si4 0.251777 0.945125 0.651044
Si Si5 0.456442 0.348282 0.026576
Si Si6 0.804955 0.217509 0.128072
Si Si7 0.940191 0.346123 0.061347
O O1 0.690333 0.481473 0.301068
O O2 0.607543 0.168785 0.247611
O O3 0.357054 0.390753 0.173977
O O4 0.484047 0.397103 0.113107
O O5 0.938863 0.815777 0.874657
O O6 0.989843 0.140137 0.882611
O O7 0.000000 0.000000 0.000000
O O8 0.051975 0.790268 0.258770
O O9 0.841615 0.030718 0.128192
O O10 0.746522 0.720747 0.071022
O O11 0.179338 0.842445 0.556964
O O12 0.080463 0.999791 0.620887
O O13 0.604045 0.212203 0.070936
O O14 0.500000 0.500000 0.000000
O O15 0.809460 0.342493 0.067356
#
# Coordination Sequence:
#
# PCOD8128286 Si02
#       7
#     4   4   4   4   4   4   4
#     4  12  26  43  71 102 143 180 237 297 352 426
#     4  11  23  46  71 102 137 184 238 290 356 423
#     4  11  26  44  76 102 143 189 232 298 356 428
#     4  11  25  43  67 105 135 188 230 290 357 415
#     4  12  27  46  70 105 143 188 239 293 353 431
#     4  11  24  47  68 106 139 187 236 286 358 421
#     4  10  24  44  71  97 143 180 230 291 347 424
#
# _framework density 22.769231000000001
#
# number of rings (size 3 to 8) (size 9 to 14) (size 15 to 20)
#    0.000    0.857    2.857    3.000    8.000    1.143 
#    2.571    0.000    0.000    0.000    0.000    0.000 
#    0.000    0.000    0.000    0.000    0.000    0.000 
#
# Total GULP energy -347237.049114 kJ/mol
# GULP energy per Si atom -12401.323183 kJ/mol
# Density = 2.271741 g / cm^3
# Si number density = 22.769231 Si / 1000 Ang^3
#
#
#
# Elastic Constant Matrix: (Units=GPa)
#
#
# Indices 1 2 3 4 5 6 
#
# 1 70.7153 -3.5897 25.3535 0.0000 0.5731 0.0000
# 2 -3.5897 75.0601 15.5068 0.0000 -4.8707 0.0000
# 3 25.3535 15.5068 90.0112 0.0000 -16.2886 0.0000
# 4 0.0000 0.0000 0.0000 38.8828 0.0000 12.6362
# 5 0.5731 -4.8707 -16.2886 0.0000 41.2240 0.0000
# 6 0.0000 0.0000 0.0000 12.6362 0.0000 -25.1342
#
#
#
# Elastic Compliance Matrix: (Units=1/GPa)
#
#
# Indices 1 2 3 4 5 6 
#
# 1 0.016113 0.001712 -0.005210 0.000000 -0.002080 0.000000
# 2 0.001712 0.014017 -0.002802 0.000000 0.000525 0.000000
# 3 -0.005210 -0.002802 0.014015 0.000000 0.005279 0.000000
# 4 0.000000 0.000000 0.000000 0.022106 0.000000 0.011114
# 5 -0.002080 0.000525 0.005279 0.000000 0.026435 0.000000
# 6 0.000000 0.000000 0.000000 0.011114 0.000000 -0.034199
#
#
# Mechanical properties :
#
#
# Convention : Reuss Voigt Hill
#
# Bulk Modulus (GPa) = 31.70014 34.48087 33.09050
# Shear Modulus (GPa) = 61.27216 24.22890 42.75053
#
# Velocity S-wave (km/s) = 5.19312 3.26560 4.33778
# Velocity P-wave (km/s) = 7.06474 5.42175 6.29706
#
# Compressibility (1/GPa) = 0.03154560
#
# Stress axis : x y z
#
# Youngs Moduli (GPa) = 62.06216 71.33942 71.35088
#
# Poissons Ratio (x) = -0.12213 0.37173
# Poissons Ratio (y) = -0.10625 0.19993
# Poissons Ratio (z) = 0.32334 0.19990
#
# Static dielectric constant tensor:
#      x y z
#    x 4.563700 0.000000 0.068720 
#    y 0.000000 4.449980 0.000000 
#    z 0.068720 0.000000 3.974190 
# 
# 
# High freq. dielectric constant tensor:
#      x y z
#    x 1.914140 0.000000 0.005150 
#    y 0.000000 1.904570 0.000000 
#    z 0.005150 0.000000 1.899100 
# 
# From -- ./inp_files/67072.got.cif
#   From: 2010.03.12/outbox.cif.g09.slc.cpg/sg14_34_cif.got.tgz:67072.got - 2010.03.31 13:35:05.
