data_PCOD8128886
_publ_section_title
;
Structure prediction by ZEFSAII (Michael W. Deem and Ramdas Pophale) SiO2 
 PCOD8128886
Probable space group: P 21/C
;
_chemical_formula_sum "Si O2"
_cell_formula_units_Z 24
_cell_length_a 8.369036
_cell_length_b 13.932173
_cell_length_c 9.283569
_cell_angle_alpha 90.000000
_cell_angle_beta 86.144926
_cell_angle_gamma 90.000000
_cell_volume 1080.004274
_symmetry_space_group_name_H-M "P 21/C"
_symmetry_group_IT_number 14
_symmetry_cell_setting 'monoclinic'
loop_
_space_group_symop_operation_xyz
x,y,z
-x,1/2+y,1/2-z
-x,-y,-z
x,1/2-y,1/2+z
loop_
_atom_site_type_symbol
_atom_site_label
_atom_site_fract_x
_atom_site_fract_y
_atom_site_fract_z
Si Si1 0.913793 0.196682 0.678850
Si Si2 0.752011 0.506900 0.619665
Si Si3 0.610496 0.306368 0.595258
Si Si4 0.410814 0.201112 0.835096
Si Si5 0.108511 0.496318 0.697304
Si Si6 0.112200 0.177584 0.390525
O O1 0.775594 0.250692 0.601701
O O2 0.035658 0.159696 0.550529
O O3 0.996896 0.266520 0.787587
O O4 0.843303 0.104816 0.766265
O O5 0.635223 0.415965 0.643866
O O6 0.656960 0.595262 0.696714
O O7 0.793687 0.532163 0.451478
O O8 0.917452 0.487256 0.691340
O O9 0.467503 0.255005 0.688713
O O10 0.562991 0.304771 0.431019
O O11 0.269237 0.261550 0.915025
O O12 0.161022 0.424700 0.820509
#
# Coordination Sequence:
#
# PCOD8128886 Si02
#       6
#     4   4   4   4   4   4
#     4  12  24  44  70 102 138 181 234 281 338 408
#     4  11  23  44  72  99 135 184 233 279 344 406
#     4  12  26  44  68 102 140 181 224 284 349 410
#     4  12  26  44  68 102 140 181 224 284 349 410
#     4  11  23  42  74 104 131 179 239 289 326 402
#     4  12  24  44  70 102 138 181 234 281 338 408
#
# _framework density 22.222134
#
# number of rings (size 3 to 8) (size 9 to 14) (size 15 to 20)
#    0.000    0.333    3.333    7.000    0.000    1.333 
#    0.000    1.667    0.000    0.000    0.000    0.000 
#    0.000    0.000    0.000    0.000    0.000    0.000 
#
# Total GULP energy -297778.547664 kJ/mol
# GULP energy per Si atom -12407.439486 kJ/mol
# Density = 2.217156 g / cm^3
# Si number density = 22.222134 Si / 1000 Ang^3
#
#
#
# Elastic Constant Matrix: (Units=GPa)
#
#
# Indices 1 2 3 4 5 6 
#
# 1 73.4411 26.3102 1.1849 0.0000 6.3896 0.0000
# 2 26.3102 113.2142 10.4832 0.0000 -3.1392 0.0000
# 3 1.1849 10.4832 53.4032 0.0000 -5.7661 0.0000
# 4 0.0000 0.0000 0.0000 38.2603 0.0000 -4.5958
# 5 6.3896 -3.1392 -5.7661 0.0000 37.6313 0.0000
# 6 0.0000 0.0000 0.0000 -4.5958 0.0000 38.7902
#
#
#
# Elastic Compliance Matrix: (Units=1/GPa)
#
#
# Indices 1 2 3 4 5 6 
#
# 1 0.015157 -0.003608 0.000063 0.000000 -0.002865 0.000000
# 2 -0.003608 0.009864 -0.001730 0.000000 0.001170 0.000000
# 3 0.000063 -0.001730 0.019367 0.000000 0.002813 0.000000
# 4 0.000000 0.000000 0.000000 0.026514 0.000000 0.003141
# 5 -0.002865 0.001170 0.002813 0.000000 0.027589 0.000000
# 6 0.000000 0.000000 0.000000 0.003141 0.000000 0.026152
#
#
# Mechanical properties :
#
#
# Convention : Reuss Voigt Hill
#
# Bulk Modulus (GPa) = 29.55233 35.11280 32.33256
# Shear Modulus (GPa) = 34.13616 36.40837 35.27226
#
# Velocity S-wave (km/s) = 3.92361 4.05209 3.98836
# Velocity P-wave (km/s) = 5.81839 6.14228 5.98253
#
# Compressibility (1/GPa) = 0.03383828
#
# Stress axis : x y z
#
# Youngs Moduli (GPa) = 65.97602 101.38054 51.63327
#
# Poissons Ratio (x) = 0.36574 -0.00323
# Poissons Ratio (y) = 0.23802 0.08932
# Poissons Ratio (z) = -0.00413 0.17538
#
# Static dielectric constant tensor:
#      x y z
#    x 4.023990 0.000000 0.023090 
#    y 0.000000 4.113190 0.000000 
#    z 0.023090 0.000000 3.880110 
# 
# 
# High freq. dielectric constant tensor:
#      x y z
#    x 1.880310 0.000000 0.002030 
#    y 0.000000 1.887750 0.000000 
#    z 0.002030 0.000000 1.869810 
# 
# From -- ./inp_files/8448.got.cif
#   From: 2010.03.12/outbox.cif.g09.slc.cpg/sg14_5_cif.got.tgz:8448.got - 2010.03.31 13:35:05.
