data_PCOD8128576
_publ_section_title
;
Structure prediction by ZEFSAII (Michael W. Deem and Ramdas Pophale) SiO2 
 PCOD8128576
Probable space group: P 21/C
;
_chemical_formula_sum "Si O2"
_cell_formula_units_Z 24
_cell_length_a 14.743087
_cell_length_b 8.554407
_cell_length_c 15.353082
_cell_angle_alpha 90.000000
_cell_angle_beta 32.221623
_cell_angle_gamma 90.000000
_cell_volume 1032.429610
_symmetry_space_group_name_H-M "P 21/C"
_symmetry_group_IT_number 14
_symmetry_cell_setting 'monoclinic'
loop_
_space_group_symop_operation_xyz
x,y,z
-x,1/2+y,1/2-z
-x,-y,-z
x,1/2-y,1/2+z
loop_
_atom_site_type_symbol
_atom_site_label
_atom_site_fract_x
_atom_site_fract_y
_atom_site_fract_z
Si Si1 0.859418 0.712117 0.652062
Si Si2 0.221182 0.775609 0.106452
Si Si3 0.224067 0.862250 0.783375
Si Si4 0.026256 0.075669 0.289356
Si Si5 0.707145 0.592808 0.129899
Si Si6 0.441440 0.726986 0.758909
O O1 0.773006 0.545600 0.739888
O O2 0.729877 0.816121 0.701467
O O3 0.035496 0.696963 0.457375
O O4 0.887666 0.792466 0.721524
O O5 0.292832 0.733665 0.143912
O O6 0.057220 0.663160 0.224995
O O7 0.359870 0.744136 0.920770
O O8 0.169163 0.956715 0.140617
O O9 0.346376 0.832577 0.765486
O O10 0.885569 0.981279 0.458168
O O11 0.567972 0.455146 0.260115
O O12 0.634769 0.710211 0.113569
#
# Coordination Sequence:
#
# PCOD8128576 Si02
#       6
#     4   4   4   4   4   4
#     4  11  21  40  70  95 124 176 215 262 326 386
#     4  11  23  39  66  97 129 165 220 272 315 390
#     4  11  22  41  67  97 130 168 216 269 322 386
#     4  11  22  40  64  98 129 168 221 268 321 375
#     4  11  22  42  64  92 132 174 211 264 326 383
#     4  11  25  43  65  96 133 173 213 266 335 381
#
# _framework density 23.246137000000001
#
# number of rings (size 3 to 8) (size 9 to 14) (size 15 to 20)
#    0.000    1.000    5.000    3.500    2.333    1.333 
#    0.000   12.500    0.000    0.000    0.000    0.000 
#    0.000    0.000    0.000    0.000    0.000    0.000 
#
# Total GULP energy -297719.438156 kJ/mol
# GULP energy per Si atom -12404.976590 kJ/mol
# Density = 2.319323 g / cm^3
# Si number density = 23.246137 Si / 1000 Ang^3
#
#
#
# Elastic Constant Matrix: (Units=GPa)
#
#
# Indices 1 2 3 4 5 6 
#
# 1 95.4169 10.5725 12.1758 0.0000 3.5666 0.0000
# 2 10.5725 103.6495 -1.6105 0.0000 -2.7316 0.0000
# 3 12.1758 -1.6105 22.3931 0.0000 15.5904 0.0000
# 4 0.0000 0.0000 0.0000 18.5470 0.0000 2.6692
# 5 3.5666 -2.7316 15.5904 0.0000 30.6430 0.0000
# 6 0.0000 0.0000 0.0000 2.6692 0.0000 59.7736
#
#
#
# Elastic Compliance Matrix: (Units=1/GPa)
#
#
# Indices 1 2 3 4 5 6 
#
# 1 0.011574 -0.001237 -0.008312 0.000000 0.002771 0.000000
# 2 -0.001237 0.009803 0.001036 0.000000 0.000491 0.000000
# 3 -0.008312 0.001036 0.075123 0.000000 -0.037161 0.000000
# 4 0.000000 0.000000 0.000000 0.054266 0.000000 -0.002423
# 5 0.002771 0.000491 -0.037161 0.000000 0.051262 0.000000
# 6 0.000000 0.000000 0.000000 -0.002423 0.000000 0.016838
#
#
# Mechanical properties :
#
#
# Convention : Reuss Voigt Hill
#
# Bulk Modulus (GPa) = 12.58265 29.30390 20.94327
# Shear Modulus (GPa) = 19.05613 35.14750 27.10181
#
# Velocity S-wave (km/s) = 2.86624 3.89263 3.41818
# Velocity P-wave (km/s) = 4.04702 5.73033 4.96060
#
# Compressibility (1/GPa) = 0.07947451
#
# Stress axis : x y z
#
# Youngs Moduli (GPa) = 86.39744 102.00870 13.31155
#
# Poissons Ratio (x) = 0.12616 0.11064
# Poissons Ratio (y) = 0.10685 -0.01379
# Poissons Ratio (z) = 0.71813 -0.10566
#
# Static dielectric constant tensor:
#      x y z
#    x 4.264640 0.000000 -0.081960 
#    y 0.000000 4.609850 0.000000 
#    z -0.081960 0.000000 3.688750 
# 
# 
# High freq. dielectric constant tensor:
#      x y z
#    x 1.931450 0.000000 0.003320 
#    y 0.000000 1.940690 0.000000 
#    z 0.003320 0.000000 1.882440 
# 
# From -- ./inp_files/46373.got.cif
#   From: 2010.03.12/outbox.cif.g09.slc.cpg/sg14_24_cif.got.tgz:46373.got - 2010.03.31 13:35:05.
