data_PCOD8128588
_publ_section_title
;
Structure prediction by ZEFSAII (Michael W. Deem and Ramdas Pophale) SiO2 
 PCOD8128588
Probable space group: P 21/C
;
_chemical_formula_sum "Si O2"
_cell_formula_units_Z 28
_cell_length_a 27.754142
_cell_length_b 5.278810
_cell_length_c 19.050680
_cell_angle_alpha 90.000000
_cell_angle_beta 26.641868
_cell_angle_gamma 90.000000
_cell_volume 1251.560625
_symmetry_space_group_name_H-M "P 21/C"
_symmetry_group_IT_number 14
_symmetry_cell_setting 'monoclinic'
loop_
_space_group_symop_operation_xyz
x,y,z
-x,1/2+y,1/2-z
-x,-y,-z
x,1/2-y,1/2+z
loop_
_atom_site_type_symbol
_atom_site_label
_atom_site_fract_x
_atom_site_fract_y
_atom_site_fract_z
Si Si1 0.096167 0.609497 0.550096
Si Si2 0.430156 0.570460 0.658517
Si Si3 0.976661 0.937235 0.609112
Si Si4 0.760533 0.747386 0.934002
Si Si5 0.885050 0.341617 0.832304
Si Si6 0.461080 0.149014 0.836979
Si Si7 0.290539 0.430111 0.352483
O O1 0.152561 0.747797 0.543155
O O2 0.192605 0.399989 0.421063
O O3 0.081685 0.781582 0.499869
O O4 0.976099 0.549863 0.732700
O O5 0.500000 0.500000 0.500000
O O6 0.510269 0.599434 0.619948
O O7 0.352877 0.334003 0.773041
O O8 0.367305 0.835866 0.730748
O O9 0.868128 0.777036 0.748596
O O10 0.954560 0.176631 0.687186
O O11 0.000000 0.000000 0.500000
O O12 0.775026 0.460561 0.944274
O O13 0.662565 0.767184 0.008399
O O14 0.755014 0.949625 0.006371
O O15 0.527741 0.387380 0.720565
#
# Coordination Sequence:
#
# PCOD8128588 Si02
#       7
#     4   4   4   4   4   4   4
#     4  11  22  39  72 102 134 194 242 291 359 452
#     4  12  27  48  71 108 149 183 248 319 377 429
#     4  11  26  44  66 108 152 185 241 315 372 436
#     4  11  24  41  72 102 138 193 248 299 364 451
#     4  11  21  41  69 100 142 187 246 297 360 448
#     4  12  25  46  74 106 140 195 252 307 369 444
#     4  12  24  44  76 106 139 196 247 301 363 453
#
# _framework density 22.372067999999999
#
# number of rings (size 3 to 8) (size 9 to 14) (size 15 to 20)
#    0.000    0.571    5.714    2.143    4.000    3.429 
#    2.571    0.000    0.000    0.000    0.000    0.000 
#    0.000    0.000    0.000    0.000    0.000    0.000 
#
# Total GULP energy -346872.301878 kJ/mol
# GULP energy per Si atom -12388.296496 kJ/mol
# Density = 2.232115 g / cm^3
# Si number density = 22.372068 Si / 1000 Ang^3
#
#
#
# Elastic Constant Matrix: (Units=GPa)
#
#
# Indices 1 2 3 4 5 6 
#
# 1 161.6660 26.2394 50.5795 0.0000 -24.1411 0.0000
# 2 26.2394 69.3018 4.6425 0.0000 -14.4031 0.0000
# 3 50.5795 4.6425 75.3374 0.0000 -4.8299 0.0000
# 4 0.0000 0.0000 0.0000 29.5148 0.0000 -10.1250
# 5 -24.1411 -14.4031 -4.8299 0.0000 49.4498 0.0000
# 6 0.0000 0.0000 0.0000 -10.1250 0.0000 34.9074
#
#
#
# Elastic Compliance Matrix: (Units=1/GPa)
#
#
# Indices 1 2 3 4 5 6 
#
# 1 0.008748 -0.002306 -0.005535 0.000000 0.003059 0.000000
# 2 -0.002306 0.016000 0.000794 0.000000 0.003612 0.000000
# 3 -0.005535 0.000794 0.016888 0.000000 -0.000822 0.000000
# 4 0.000000 0.000000 0.000000 0.037625 0.000000 0.010913
# 5 0.003059 0.003612 -0.000822 0.000000 0.022688 0.000000
# 6 0.000000 0.000000 0.000000 0.010913 0.000000 0.031813
#
#
# Mechanical properties :
#
#
# Convention : Reuss Voigt Hill
#
# Bulk Modulus (GPa) = 36.30813 52.13644 44.22228
# Shear Modulus (GPa) = 31.83950 37.76399 34.80175
#
# Velocity S-wave (km/s) = 3.77660 4.11298 3.94837
# Velocity P-wave (km/s) = 5.93981 6.77572 6.37149
#
# Compressibility (1/GPa) = 0.02754204
#
# Stress axis : x y z
#
# Youngs Moduli (GPa) = 114.30713 62.49903 59.21284
#
# Poissons Ratio (x) = 0.14411 0.32776
# Poissons Ratio (y) = 0.26358 -0.04700
# Poissons Ratio (z) = 0.63272 -0.04960
#
# Static dielectric constant tensor:
#      x y z
#    x 4.139410 0.000000 -0.284920 
#    y 0.000000 5.131050 0.000000 
#    z -0.284920 0.000000 4.116800 
# 
# 
# High freq. dielectric constant tensor:
#      x y z
#    x 1.884140 0.000000 -0.027510 
#    y 0.000000 1.897520 0.000000 
#    z -0.027510 0.000000 1.869890 
# 
# From -- ./inp_files/62142.got.cif
#   From: 2010.03.12/outbox.cif.g09.slc.cpg/sg14_32_cif.got.tgz:62142.got - 2010.03.31 13:35:05.
