data_PCOD8128851
_publ_section_title
;
Structure prediction by ZEFSAII (Michael W. Deem and Ramdas Pophale) SiO2 
 PCOD8128851
Probable space group: P 21/C
;
_chemical_formula_sum "Si O2"
_cell_formula_units_Z 32
_cell_length_a 24.433091
_cell_length_b 9.566845
_cell_length_c 8.914477
_cell_angle_alpha 90.000000
_cell_angle_beta 49.242179
_cell_angle_gamma 90.000000
_cell_volume 1578.380926
_symmetry_space_group_name_H-M "P 21/C"
_symmetry_group_IT_number 14
_symmetry_cell_setting 'monoclinic'
loop_
_space_group_symop_operation_xyz
x,y,z
-x,1/2+y,1/2-z
-x,-y,-z
x,1/2-y,1/2+z
loop_
_atom_site_type_symbol
_atom_site_label
_atom_site_fract_x
_atom_site_fract_y
_atom_site_fract_z
Si Si1 0.174238 0.672374 0.180949
Si Si2 0.545101 0.818173 0.036661
Si Si3 0.278608 0.068623 0.583001
Si Si4 0.187976 0.561031 0.822993
Si Si5 0.955133 0.607222 0.985066
Si Si6 0.444193 0.058480 0.304974
Si Si7 0.709093 0.834808 0.766991
Si Si8 0.989048 0.354552 0.442599
O O1 0.221133 0.557725 0.188541
O O2 0.205206 0.826792 0.161507
O O3 0.093603 0.688177 0.388408
O O4 0.174496 0.641896 0.004053
O O5 0.530518 0.654533 0.099729
O O6 0.489672 0.916645 0.225404
O O7 0.539167 0.846588 0.870877
O O8 0.624939 0.848552 0.955987
O O9 0.360149 0.012154 0.461589
O O10 0.258947 0.183465 0.743826
O O11 0.272801 0.152732 0.439106
O O12 0.257849 0.464393 0.702538
O O13 0.122972 0.455545 0.905162
O O14 0.996345 0.639965 0.758588
O O15 0.000000 0.500000 0.000000
O O16 0.953231 0.749714 0.084386
O O17 0.000000 0.500000 0.500000
#
# Coordination Sequence:
#
# PCOD8128851 Si02
#       8
#     4   4   4   4   4   4   4   4
#     4  11  23  42  58  85 117 149 189 237 286 342
#     4   9  18  34  55  82 115 148 188 230 278 330
#     4   9  20  38  58  82 114 148 190 231 283 333
#     4  11  24  40  59  84 116 151 191 237 289 343
#     4  12  25  43  62  89 115 151 192 239 292 342
#     4   9  18  34  56  82 114 150 185 233 276 332
#     4   9  20  37  57  83 112 148 190 233 279 339
#     4  12  24  42  63  87 117 149 191 239 287 345
#
# _framework density 20.27394
#
# number of rings (size 3 to 8) (size 9 to 14) (size 15 to 20)
#    0.000    1.750    2.500    1.500    1.750    2.500 
#    0.000    0.000    0.000    0.000    0.000    0.000 
#    0.000    0.000    0.000    0.000    0.000    0.000 
#
# Total GULP energy -396771.965697 kJ/mol
# GULP energy per Si atom -12399.123928 kJ/mol
# Density = 2.022780 g / cm^3
# Si number density = 20.273940 Si / 1000 Ang^3
#
#
#
# Elastic Constant Matrix: (Units=GPa)
#
#
# Indices 1 2 3 4 5 6 
#
# 1 79.6906 42.6127 20.3624 0.0000 0.6519 0.0000
# 2 42.6127 106.0982 24.1113 0.0000 -0.9772 0.0000
# 3 20.3624 24.1113 56.4877 0.0000 2.2753 0.0000
# 4 0.0000 0.0000 0.0000 29.1394 0.0000 5.5794
# 5 0.6519 -0.9772 2.2753 0.0000 23.9055 0.0000
# 6 0.0000 0.0000 0.0000 5.5794 0.0000 49.4320
#
#
#
# Elastic Compliance Matrix: (Units=1/GPa)
#
#
# Indices 1 2 3 4 5 6 
#
# 1 0.016576 -0.005876 -0.003452 0.000000 -0.000364 0.000000
# 2 -0.005876 0.012538 -0.003273 0.000000 0.000984 0.000000
# 3 -0.003452 -0.003273 0.020424 0.000000 -0.001984 0.000000
# 4 0.000000 0.000000 0.000000 0.035076 0.000000 -0.003959
# 5 -0.000364 0.000984 -0.001984 0.000000 0.042070 0.000000
# 6 0.000000 0.000000 0.000000 -0.003959 0.000000 0.020677
#
#
# Mechanical properties :
#
#
# Convention : Reuss Voigt Hill
#
# Bulk Modulus (GPa) = 41.09309 46.27215 43.68262
# Shear Modulus (GPa) = 27.67374 30.84137 29.25756
#
# Velocity S-wave (km/s) = 3.69859 3.90453 3.80295
# Velocity P-wave (km/s) = 6.20905 6.57268 6.39345
#
# Compressibility (1/GPa) = 0.02433499
#
# Stress axis : x y z
#
# Youngs Moduli (GPa) = 60.32896 79.75591 48.96082
#
# Poissons Ratio (x) = 0.46866 0.16903
# Poissons Ratio (y) = 0.35451 0.16026
# Poissons Ratio (z) = 0.20827 0.26106
#
# Static dielectric constant tensor:
#      x y z
#    x 3.845410 0.000000 0.040880 
#    y 0.000000 3.593520 0.000000 
#    z 0.040880 0.000000 3.464120 
# 
# 
# High freq. dielectric constant tensor:
#      x y z
#    x 1.801170 0.000000 0.003570 
#    y 0.000000 1.799450 0.000000 
#    z 0.003570 0.000000 1.779660 
# 
# From -- ./inp_files/19654.got.cif
#   From: 2010.03.12/outbox.cif.g09.slc.cpg/sg14_10_cif.got.tgz:19654.got - 2010.03.31 13:35:05.
