data_PCOD8128048
_publ_section_title
;
Structure prediction by ZEFSAII (Michael W. Deem and Ramdas Pophale) SiO2 
 PCOD8128048
Probable space group: P 21/C
;
_chemical_formula_sum "Si O2"
_cell_formula_units_Z 32
_cell_length_a 6.780853
_cell_length_b 28.541346
_cell_length_c 7.503595
_cell_angle_alpha 90.000000
_cell_angle_beta 73.064218
_cell_angle_gamma 90.000000
_cell_volume 1389.226316
_symmetry_space_group_name_H-M "P 21/C"
_symmetry_group_IT_number 14
_symmetry_cell_setting 'monoclinic'
loop_
_space_group_symop_operation_xyz
x,y,z
-x,1/2+y,1/2-z
-x,-y,-z
x,1/2-y,1/2+z
loop_
_atom_site_type_symbol
_atom_site_label
_atom_site_fract_x
_atom_site_fract_y
_atom_site_fract_z
Si Si1 0.797506 0.962110 0.729653
Si Si2 0.489704 0.383335 0.168351
Si Si3 0.124704 0.937391 0.359798
Si Si4 0.131921 0.067136 0.927579
Si Si5 0.843662 0.803909 0.657786
Si Si6 0.189571 0.200343 0.744299
Si Si7 0.517192 0.619012 0.245379
Si Si8 0.073784 0.655947 0.401582
O O1 0.588446 0.931380 0.805584
O O2 0.959480 0.932540 0.564111
O O3 0.758324 0.012483 0.647162
O O4 0.876511 0.972185 0.913491
O O5 0.723054 0.392439 0.175896
O O6 0.357924 0.425815 0.285434
O O7 0.388265 0.332513 0.239204
O O8 0.497606 0.389747 0.957945
O O9 0.023016 0.939266 0.193493
O O10 0.082391 0.112936 0.057401
O O11 0.747848 0.753793 0.737596
O O12 0.888779 0.807843 0.436421
O O13 0.671596 0.840458 0.762123
O O14 0.049541 0.815853 0.719677
O O15 0.991502 0.189894 0.919041
O O16 0.299793 0.635842 0.379017
#
# Coordination Sequence:
#
# PCOD8128048 Si02
#       8
#     4   4   4   4   4   4   4   4
#     4  11  24  46  69  98 144 184 233 294 337 411
#     4  10  24  43  69 102 137 181 227 287 342 406
#     4  11  25  46  68 101 142 187 234 284 350 407
#     4  11  23  44  68 101 134 184 232 280 341 412
#     4  11  22  47  67  96 139 170 225 284 335 411
#     4  10  23  45  73  98 137 173 225 286 337 418
#     4  11  24  45  67 102 137 179 228 280 345 407
#     4  11  24  42  70  97 132 183 217 278 349 404
#
# _framework density 23.034406000000001
#
# number of rings (size 3 to 8) (size 9 to 14) (size 15 to 20)
#    0.000    1.250    3.750    1.125    1.750    1.000 
#    6.750    1.250    0.000    0.000    0.000    0.000 
#    0.000    0.000    0.000    0.000    0.000    0.000 
#
# Total GULP energy -396584.159567 kJ/mol
# GULP energy per Si atom -12393.254986 kJ/mol
# Density = 2.298198 g / cm^3
# Si number density = 23.034406 Si / 1000 Ang^3
#
#
#
# Elastic Constant Matrix: (Units=GPa)
#
#
# Indices 1 2 3 4 5 6 
#
# 1 94.3061 28.0142 38.9112 0.0000 -2.6595 0.0000
# 2 28.0142 73.4440 22.3154 0.0000 -7.7231 0.0000
# 3 38.9112 22.3154 113.7726 0.0000 12.1806 0.0000
# 4 0.0000 0.0000 0.0000 29.1942 0.0000 4.6142
# 5 -2.6595 -7.7231 12.1806 0.0000 30.5294 0.0000
# 6 0.0000 0.0000 0.0000 4.6142 0.0000 27.9150
#
#
#
# Elastic Compliance Matrix: (Units=1/GPa)
#
#
# Indices 1 2 3 4 5 6 
#
# 1 0.013432 -0.003691 -0.004069 0.000000 0.001860 0.000000
# 2 -0.003691 0.016266 -0.002438 0.000000 0.004766 0.000000
# 3 -0.004069 -0.002438 0.011243 0.000000 -0.005457 0.000000
# 4 0.000000 0.000000 0.000000 0.035172 0.000000 -0.005814
# 5 0.001860 0.004766 -0.005457 0.000000 0.036300 0.000000
# 6 0.000000 0.000000 0.000000 -0.005814 0.000000 0.036784
#
#
# Mechanical properties :
#
#
# Convention : Reuss Voigt Hill
#
# Bulk Modulus (GPa) = 48.67557 51.11159 49.89358
# Shear Modulus (GPa) = 28.33788 30.34651 29.34219
#
# Velocity S-wave (km/s) = 3.51128 3.63360 3.57296
# Velocity P-wave (km/s) = 6.13322 6.31201 6.22326
#
# Compressibility (1/GPa) = 0.02054419
#
# Stress axis : x y z
#
# Youngs Moduli (GPa) = 74.45138 61.47847 88.94052
#
# Poissons Ratio (x) = 0.22695 0.36188
# Poissons Ratio (y) = 0.27484 0.21685
# Poissons Ratio (z) = 0.30292 0.14989
#
# Static dielectric constant tensor:
#      x y z
#    x 3.993860 0.000000 0.022340 
#    y 0.000000 4.263850 0.000000 
#    z 0.022340 0.000000 4.357990 
# 
# 
# High freq. dielectric constant tensor:
#      x y z
#    x 1.886060 0.000000 0.015130 
#    y 0.000000 1.908320 0.000000 
#    z 0.015130 0.000000 1.929470 
# 
# From -- ./inp_files/6953.got.cif
#   From: 2010.03.12/outbox.cif.g09.slc.cpg/sg14_4_cif.got.tgz:6953.got - 2010.03.31 13:35:05.
