data_PCOD8128334
_publ_section_title
;
Structure prediction by ZEFSAII (Michael W. Deem and Ramdas Pophale) SiO2 
 PCOD8128334
Probable space group: P 21/C
;
_chemical_formula_sum "Si O2"
_cell_formula_units_Z 20
_cell_length_a 8.910256
_cell_length_b 9.966432
_cell_length_c 9.966955
_cell_angle_alpha 90.000000
_cell_angle_beta 95.545144
_cell_angle_gamma 90.000000
_cell_volume 880.958155
_symmetry_space_group_name_H-M "P 21/C"
_symmetry_group_IT_number 14
_symmetry_cell_setting 'monoclinic'
loop_
_space_group_symop_operation_xyz
x,y,z
-x,1/2+y,1/2-z
-x,-y,-z
x,1/2-y,1/2+z
loop_
_atom_site_type_symbol
_atom_site_label
_atom_site_fract_x
_atom_site_fract_y
_atom_site_fract_z
Si Si1 0.012695 0.150055 0.137970
Si Si2 0.488262 0.633962 0.649989
Si Si3 0.073973 0.558062 0.874877
Si Si4 0.751689 0.522586 0.518487
Si Si5 0.416308 0.629351 0.942901
O O1 0.010611 0.305809 0.181569
O O2 0.131806 0.133677 0.026755
O O3 0.066418 0.054635 0.261654
O O4 0.844986 0.107560 0.075930
O O5 0.658008 0.582538 0.635486
O O6 0.365730 0.517718 0.609031
O O7 0.478768 0.676874 0.803804
O O8 0.449523 0.757082 0.552422
O O9 0.242257 0.596773 0.922806
O O10 0.000000 0.500000 0.000000
O O11 0.500000 0.500000 0.000000
#
# Coordination Sequence:
#
# PCOD8128334 Si02
#       5
#     4   4   4   4   4
#     4  11  26  49  76 111 151 196 257 309 386 451
#     4  11  26  49  75 109 150 199 255 311 383 445
#     4  12  30  47  77 111 152 200 255 316 378 459
#     4  10  24  46  76 104 150 203 245 315 372 453
#     4  12  30  49  76 110 152 198 261 312 379 461
#
# _framework density 22.702553000000002
#
# number of rings (size 3 to 8) (size 9 to 14) (size 15 to 20)
#    0.000    0.800    4.000    0.000   19.600    0.000 
#    0.000    0.000    0.000    0.000    0.000    0.000 
#    0.000    0.000    0.000    0.000    0.000    0.000 
#
# Total GULP energy -248091.202325 kJ/mol
# GULP energy per Si atom -12404.560116 kJ/mol
# Density = 2.265088 g / cm^3
# Si number density = 22.702553 Si / 1000 Ang^3
#
#
#
# Elastic Constant Matrix: (Units=GPa)
#
#
# Indices 1 2 3 4 5 6 
#
# 1 147.0433 54.8256 51.8013 0.0000 -23.4017 0.0000
# 2 54.8256 152.2960 58.2321 0.0000 -8.8640 0.0000
# 3 51.8013 58.2321 152.7481 0.0000 -25.2291 0.0000
# 4 0.0000 0.0000 0.0000 46.2739 0.0000 6.4512
# 5 -23.4017 -8.8640 -25.2291 0.0000 33.2166 0.0000
# 6 0.0000 0.0000 0.0000 6.4512 0.0000 25.0465
#
#
#
# Elastic Compliance Matrix: (Units=1/GPa)
#
#
# Indices 1 2 3 4 5 6 
#
# 1 0.008911 -0.002429 -0.001333 0.000000 0.004617 0.000000
# 2 -0.002429 0.008350 -0.002600 0.000000 -0.001458 0.000000
# 3 -0.001333 -0.002600 0.008828 0.000000 0.005072 0.000000
# 4 0.000000 0.000000 0.000000 0.022415 0.000000 -0.005774
# 5 0.004617 -0.001458 0.005072 0.000000 0.036821 0.000000
# 6 0.000000 0.000000 0.000000 -0.005774 0.000000 0.041413
#
#
# Mechanical properties :
#
#
# Convention : Reuss Voigt Hill
#
# Bulk Modulus (GPa) = 74.83271 86.86726 80.84998
# Shear Modulus (GPa) = 34.74182 40.05596 37.39889
#
# Velocity S-wave (km/s) = 3.91615 4.20501 4.06315
# Velocity P-wave (km/s) = 7.31315 7.86908 7.59620
#
# Compressibility (1/GPa) = 0.01336314
#
# Stress axis : x y z
#
# Youngs Moduli (GPa) = 112.22089 119.75893 113.27739
#
# Poissons Ratio (x) = 0.29094 0.15102
# Poissons Ratio (y) = 0.27263 0.29455
# Poissons Ratio (z) = 0.14962 0.31141
#
# Static dielectric constant tensor:
#      x y z
#    x 4.220960 0.000000 -0.057760 
#    y 0.000000 3.993700 0.000000 
#    z -0.057760 0.000000 4.151280 
# 
# 
# High freq. dielectric constant tensor:
#      x y z
#    x 1.917580 0.000000 -0.006610 
#    y 0.000000 1.900120 0.000000 
#    z -0.006610 0.000000 1.894660 
# 
# From -- ./inp_files/23069.got.cif
#   From: 2010.03.12/outbox.cif.g09.slc.cpg/sg14_12_cif.got.tgz:23069.got - 2010.03.31 13:35:05.
