data_PCOD8128148
_publ_section_title
;
Structure prediction by ZEFSAII (Michael W. Deem and Ramdas Pophale) SiO2 
 PCOD8128148
Probable space group: P 21/C
;
_chemical_formula_sum "Si O2"
_cell_formula_units_Z 20
_cell_length_a 9.276920
_cell_length_b 7.566799
_cell_length_c 24.839067
_cell_angle_alpha 90.000000
_cell_angle_beta 35.660312
_cell_angle_gamma 90.000000
_cell_volume 1016.491767
_symmetry_space_group_name_H-M "P 21/C"
_symmetry_group_IT_number 14
_symmetry_cell_setting 'monoclinic'
loop_
_space_group_symop_operation_xyz
x,y,z
-x,1/2+y,1/2-z
-x,-y,-z
x,1/2-y,1/2+z
loop_
_atom_site_type_symbol
_atom_site_label
_atom_site_fract_x
_atom_site_fract_y
_atom_site_fract_z
Si Si1 0.515182 0.673521 0.103578
Si Si2 0.188431 0.541443 0.286508
Si Si3 0.047658 0.841115 0.946539
Si Si4 0.494369 0.203220 0.634034
Si Si5 0.333296 0.502478 0.602656
O O1 0.394958 0.679485 0.200529
O O2 0.506862 0.465224 0.088781
O O3 0.337915 0.794217 0.120669
O O4 0.796042 0.735825 0.014012
O O5 0.285750 0.341380 0.243146
O O6 0.151241 0.575452 0.360203
O O7 0.935954 0.567616 0.329971
O O8 0.247318 0.712907 0.912587
O O9 0.000000 0.000000 0.000000
O O10 0.442930 0.381471 0.617140
O O11 0.500000 0.500000 0.500000
#
# Coordination Sequence:
#
# PCOD8128148 Si02
#       5
#     4   4   4   4   4
#     4  10  24  41  69  95 133 172 222 270 328 397
#     4  10  25  41  67  99 132 175 220 271 331 394
#     4  12  22  45  67  98 134 173 221 271 332 393
#     4  10  25  40  68  95 131 176 222 270 333 393
#     4  12  21  46  66  96 136 171 223 277 328 391
#
# _framework density 19.675516999999999
#
# number of rings (size 3 to 8) (size 9 to 14) (size 15 to 20)
#    1.200    0.000    4.000    1.800    2.800    0.800 
#    0.000    2.000    0.000    0.000    0.000    0.000 
#    0.000    0.000    0.000    0.000    0.000    0.000 
#
# Total GULP energy -247761.728642 kJ/mol
# GULP energy per Si atom -12388.086432 kJ/mol
# Density = 1.963073 g / cm^3
# Si number density = 19.675517 Si / 1000 Ang^3
#
#
#
# Elastic Constant Matrix: (Units=GPa)
#
#
# Indices 1 2 3 4 5 6 
#
# 1 55.6051 34.3045 29.3780 0.0000 11.7140 0.0000
# 2 34.3045 92.7632 28.5683 0.0000 8.0295 0.0000
# 3 29.3780 28.5683 136.4701 0.0000 14.5052 0.0000
# 4 0.0000 0.0000 0.0000 34.9960 0.0000 -3.8886
# 5 11.7140 8.0295 14.5052 0.0000 35.4041 0.0000
# 6 0.0000 0.0000 0.0000 -3.8886 0.0000 27.7544
#
#
#
# Elastic Compliance Matrix: (Units=1/GPa)
#
#
# Indices 1 2 3 4 5 6 
#
# 1 0.025840 -0.008075 -0.003302 0.000000 -0.005366 0.000000
# 2 -0.008075 0.014145 -0.001219 0.000000 -0.000037 0.000000
# 3 -0.003302 -0.001219 0.008519 0.000000 -0.002121 0.000000
# 4 0.000000 0.000000 0.000000 0.029027 0.000000 0.004067
# 5 -0.005366 -0.000037 -0.002121 0.000000 0.030898 0.000000
# 6 0.000000 0.000000 0.000000 0.004067 0.000000 0.036600
#
#
# Mechanical properties :
#
#
# Convention : Reuss Voigt Hill
#
# Bulk Modulus (GPa) = 42.89426 52.14890 47.52158
# Shear Modulus (GPa) = 28.09129 32.47006 30.28067
#
# Velocity S-wave (km/s) = 3.78263 4.06677 3.92727
# Velocity P-wave (km/s) = 6.39733 6.97234 6.69101
#
# Compressibility (1/GPa) = 0.02331314
#
# Stress axis : x y z
#
# Youngs Moduli (GPa) = 38.69921 70.69767 117.38355
#
# Poissons Ratio (x) = 0.57085 0.38761
# Poissons Ratio (y) = 0.31248 0.14308
# Poissons Ratio (z) = 0.12779 0.08617
#
# Static dielectric constant tensor:
#      x y z
#    x 3.601310 0.000000 -0.235740 
#    y 0.000000 3.601150 0.000000 
#    z -0.235740 0.000000 3.831580 
# 
# 
# High freq. dielectric constant tensor:
#      x y z
#    x 1.760350 0.000000 -0.014460 
#    y 0.000000 1.761880 0.000000 
#    z -0.014460 0.000000 1.779480 
# 
# From -- ./inp_files/71852.got.cif
#   From: 2010.03.12/outbox.cif.g09.slc.cpg/sg14_36_cif.got.tgz:71852.got - 2010.03.31 13:35:05.
