data_PCOD8128443
_publ_section_title
;
Structure prediction by ZEFSAII (Michael W. Deem and Ramdas Pophale) SiO2 
 PCOD8128443
Probable space group: P 21/C
;
_chemical_formula_sum "Si O2"
_cell_formula_units_Z 32
_cell_length_a 11.675956
_cell_length_b 16.312625
_cell_length_c 11.966823
_cell_angle_alpha 90.000000
_cell_angle_beta 141.780791
_cell_angle_gamma 90.000000
_cell_volume 1410.118173
_symmetry_space_group_name_H-M "P 21/C"
_symmetry_group_IT_number 14
_symmetry_cell_setting 'monoclinic'
loop_
_space_group_symop_operation_xyz
x,y,z
-x,1/2+y,1/2-z
-x,-y,-z
x,1/2-y,1/2+z
loop_
_atom_site_type_symbol
_atom_site_label
_atom_site_fract_x
_atom_site_fract_y
_atom_site_fract_z
Si Si1 0.567201 0.934524 0.705470
Si Si2 0.964101 0.924948 0.059704
Si Si3 0.364873 0.571429 0.425345
Si Si4 0.291440 0.133549 0.417995
Si Si5 0.959008 0.504774 0.161203
Si Si6 0.054154 0.798692 0.961563
Si Si7 0.248923 0.627077 0.109339
Si Si8 0.577017 0.383643 0.296021
O O1 0.608187 0.914935 0.606746
O O2 0.399394 0.879136 0.624841
O O3 0.530536 0.030862 0.696832
O O4 0.746822 0.915465 0.917014
O O5 0.064860 0.942817 0.252300
O O6 0.029659 0.835317 0.067363
O O7 0.000000 0.000000 0.000000
O O8 0.500000 0.500000 0.500000
O O9 0.346399 0.630905 0.304989
O O10 0.471188 0.616362 0.609510
O O11 0.166236 0.535971 0.307738
O O12 0.448439 0.176573 0.619727
O O13 0.141758 0.197239 0.254028
O O14 0.179212 0.078314 0.420002
O O15 0.887325 0.452256 0.999799
O O16 0.123041 0.706916 0.004431
O O17 0.207984 0.860437 0.031873
#
# Coordination Sequence:
#
# PCOD8128443 Si02
#       8
#     4   4   4   4   4   4   4   4
#     4  11  20  41  71 107 136 182 249 298 357 443
#     4  11  18  39  74 101 135 185 244 309 358 416
#     4  12  23  46  69 101 147 198 255 288 353 460
#     4  11  22  42  75 110 129 181 252 303 361 422
#     4  12  21  42  75 100 136 194 252 297 352 439
#     4  11  25  46  65 109 152 176 240 316 371 420
#     4  12  28  42  66 108 153 198 231 303 386 430
#     4  12  21  41  76 101 138 189 239 299 352 432
#
# _framework density 22.693134000000001
#
# number of rings (size 3 to 8) (size 9 to 14) (size 15 to 20)
#    0.000    0.500    8.750    0.750    1.750    1.000 
#    4.500    2.500    0.000    0.000    0.000    0.000 
#    0.000    0.000    0.000    0.000    0.000    0.000 
#
# Total GULP energy -396432.296847 kJ/mol
# GULP energy per Si atom -12388.509276 kJ/mol
# Density = 2.264148 g / cm^3
# Si number density = 22.693134 Si / 1000 Ang^3
#
#
#
# Elastic Constant Matrix: (Units=GPa)
#
#
# Indices 1 2 3 4 5 6 
#
# 1 97.2947 30.4500 44.8260 0.0000 9.9990 0.0000
# 2 30.4500 73.3013 9.8024 0.0000 3.1449 0.0000
# 3 44.8260 9.8024 125.5020 0.0000 -15.0121 0.0000
# 4 0.0000 0.0000 0.0000 26.6044 0.0000 7.2543
# 5 9.9990 3.1449 -15.0121 0.0000 40.2828 0.0000
# 6 0.0000 0.0000 0.0000 7.2543 0.0000 29.8922
#
#
#
# Elastic Compliance Matrix: (Units=1/GPa)
#
#
# Indices 1 2 3 4 5 6 
#
# 1 0.015078 -0.005279 -0.005622 0.000000 -0.005426 0.000000
# 2 -0.005279 0.015727 0.000698 0.000000 0.000343 0.000000
# 3 -0.005622 0.000698 0.010552 0.000000 0.005274 0.000000
# 4 0.000000 0.000000 0.000000 0.040251 0.000000 -0.009768
# 5 -0.005426 0.000343 0.005274 0.000000 0.028110 0.000000
# 6 0.000000 0.000000 0.000000 -0.009768 0.000000 0.035824
#
#
# Mechanical properties :
#
#
# Convention : Reuss Voigt Hill
#
# Bulk Modulus (GPa) = 47.72905 51.80609 49.76757
# Shear Modulus (GPa) = 28.91297 33.42385 31.16841
#
# Velocity S-wave (km/s) = 3.57330 3.84195 3.71006
# Velocity P-wave (km/s) = 6.17274 6.52375 6.35067
#
# Compressibility (1/GPa) = 0.02095160
#
# Stress axis : x y z
#
# Youngs Moduli (GPa) = 66.32151 63.58412 94.76540
#
# Poissons Ratio (x) = 0.33566 0.53279
# Poissons Ratio (y) = 0.35011 -0.06616
# Poissons Ratio (z) = 0.37287 -0.04439
#
# Static dielectric constant tensor:
#      x y z
#    x 4.012020 0.000000 0.252870 
#    y 0.000000 3.624030 0.000000 
#    z 0.252870 0.000000 5.222750 
# 
# 
# High freq. dielectric constant tensor:
#      x y z
#    x 1.900330 0.000000 0.008340 
#    y 0.000000 1.846440 0.000000 
#    z 0.008340 0.000000 1.921680 
# 
# From -- ./inp_files/30455.got.cif
#   From: 2010.03.12/outbox.cif.g09.slc.cpg/sg14_16_cif.got.tgz:30455.got - 2010.03.31 13:35:05.
