data_PCOD8128595
_publ_section_title
;
Structure prediction by ZEFSAII (Michael W. Deem and Ramdas Pophale) SiO2 
 PCOD8128595
Probable space group: P 21/C
;
_chemical_formula_sum "Si O2"
_cell_formula_units_Z 28
_cell_length_a 32.369964
_cell_length_b 8.101465
_cell_length_c 32.729420
_cell_angle_alpha 90.000000
_cell_angle_beta 8.638100
_cell_angle_gamma 90.000000
_cell_volume 1289.119600
_symmetry_space_group_name_H-M "P 21/C"
_symmetry_group_IT_number 14
_symmetry_cell_setting 'monoclinic'
loop_
_space_group_symop_operation_xyz
x,y,z
-x,1/2+y,1/2-z
-x,-y,-z
x,1/2-y,1/2+z
loop_
_atom_site_type_symbol
_atom_site_label
_atom_site_fract_x
_atom_site_fract_y
_atom_site_fract_z
Si Si1 0.209712 0.405752 0.912832
Si Si2 0.703545 0.306861 0.903016
Si Si3 0.958843 0.732301 0.138255
Si Si4 0.726011 0.778900 0.000933
Si Si5 0.481988 0.360367 0.875993
Si Si6 0.762069 0.491036 0.024450
Si Si7 0.220737 0.013403 0.749513
O O1 0.982269 0.271364 0.147816
O O2 0.070983 0.548028 0.020294
O O3 0.458185 0.326945 0.644116
O O4 0.310896 0.486811 0.856272
O O5 0.622675 0.457343 0.011084
O O6 0.773368 0.364663 0.788873
O O7 0.703557 0.724207 0.419257
O O8 0.837806 0.811972 0.215287
O O9 0.201110 0.846920 0.920088
O O10 0.557497 0.666693 0.133431
O O11 0.829576 0.663968 0.936658
O O12 0.512456 0.913668 0.227364
O O13 0.985990 0.866086 0.726308
O O14 0.500000 0.000000 0.500000
O O15 0.000000 0.000000 0.000000
#
# Coordination Sequence:
#
# PCOD8128595 Si02
#       7
#     4   4   4   4   4   4   4
#     4  12  23  43  63  99 134 169 223 273 325 383
#     4  11  25  39  70  98 129 171 221 268 325 397
#     4  11  22  42  70  93 126 179 212 267 326 403
#     4  12  25  44  63  96 131 175 227 274 335 375
#     4  11  21  42  64  91 127 177 225 257 319 400
#     4  12  27  43  66  94 139 175 222 281 329 382
#     4  11  23  45  69  99 132 169 217 271 334 413
#
# _framework density 21.72025
#
# number of rings (size 3 to 8) (size 9 to 14) (size 15 to 20)
#    0.000    0.571    2.857    6.857    4.000    0.000 
#    0.000    4.286    0.000    0.000    0.000    0.000 
#    0.000    0.000    0.000    0.000    0.000    0.000 
#
# Total GULP energy -347276.897254 kJ/mol
# GULP energy per Si atom -12402.746331 kJ/mol
# Density = 2.167081 g / cm^3
# Si number density = 21.720250 Si / 1000 Ang^3
#
#
#
# Elastic Constant Matrix: (Units=GPa)
#
#
# Indices 1 2 3 4 5 6 
#
# 1 88.9284 42.5377 38.9576 0.0000 7.2142 0.0000
# 2 42.5377 101.6844 22.8677 0.0000 5.2807 0.0000
# 3 38.9576 22.8677 117.3268 0.0000 2.6449 0.0000
# 4 0.0000 0.0000 0.0000 46.4985 0.0000 -0.4855
# 5 7.2142 5.2807 2.6449 0.0000 34.0150 0.0000
# 6 0.0000 0.0000 0.0000 -0.4855 0.0000 24.2217
#
#
#
# Elastic Compliance Matrix: (Units=1/GPa)
#
#
# Indices 1 2 3 4 5 6 
#
# 1 0.015924 -0.005616 -0.004144 0.000000 -0.002183 0.000000
# 2 -0.005616 0.012337 -0.000524 0.000000 -0.000683 0.000000
# 3 -0.004144 -0.000524 0.009997 0.000000 0.000183 0.000000
# 4 0.000000 0.000000 0.000000 0.021511 0.000000 0.000431
# 5 -0.002183 -0.000683 0.000183 0.000000 0.029954 0.000000
# 6 0.000000 0.000000 0.000000 0.000431 0.000000 0.041294
#
#
# Mechanical properties :
#
#
# Convention : Reuss Voigt Hill
#
# Bulk Modulus (GPa) = 56.52951 57.40729 56.96840
# Shear Modulus (GPa) = 31.74986 34.51880 33.13433
#
# Velocity S-wave (km/s) = 3.82745 3.99086 3.91001
# Velocity P-wave (km/s) = 6.75390 6.90823 6.83150
#
# Compressibility (1/GPa) = 0.01768988
#
# Stress axis : x y z
#
# Youngs Moduli (GPa) = 62.79949 81.05587 100.02881
#
# Poissons Ratio (x) = 0.45522 0.41447
# Poissons Ratio (y) = 0.35269 0.05245
# Poissons Ratio (z) = 0.26021 0.04250
#
# Static dielectric constant tensor:
#      x y z
#    x 2.979440 0.000000 -0.110920 
#    y 0.000000 4.044140 0.000000 
#    z -0.110920 0.000000 4.080860 
# 
# 
# High freq. dielectric constant tensor:
#      x y z
#    x 1.834760 0.000000 -0.001070 
#    y 0.000000 1.859640 0.000000 
#    z -0.001070 0.000000 1.877830 
# 
# From -- ./inp_files/80965.got.cif
#   From: 2010.03.12/outbox.cif.g09.slc.cpg/sg14_41_cif.got.tgz:80965.got - 2010.03.31 13:35:05.
