data_PCOD8128519
_publ_section_title
;
Structure prediction by ZEFSAII (Michael W. Deem and Ramdas Pophale) SiO2 
 PCOD8128519
Probable space group: P 21/C
;
_chemical_formula_sum "Si O2"
_cell_formula_units_Z 24
_cell_length_a 9.014629
_cell_length_b 18.700422
_cell_length_c 8.701201
_cell_angle_alpha 90.000000
_cell_angle_beta 117.663928
_cell_angle_gamma 90.000000
_cell_volume 1299.147005
_symmetry_space_group_name_H-M "P 21/C"
_symmetry_group_IT_number 14
_symmetry_cell_setting 'monoclinic'
loop_
_space_group_symop_operation_xyz
x,y,z
-x,1/2+y,1/2-z
-x,-y,-z
x,1/2-y,1/2+z
loop_
_atom_site_type_symbol
_atom_site_label
_atom_site_fract_x
_atom_site_fract_y
_atom_site_fract_z
Si Si1 0.344392 0.913595 0.012493
Si Si2 0.504400 0.835361 0.664673
Si Si3 0.325846 0.069872 0.035499
Si Si4 0.172115 0.084527 0.660111
Si Si5 0.531247 0.819147 0.317508
Si Si6 0.190897 0.582032 0.136709
O O1 0.369929 0.855285 0.157683
O O2 0.305297 0.988067 0.078979
O O3 0.507845 0.919816 0.985359
O O4 0.196211 0.894823 0.820174
O O5 0.659399 0.883585 0.802486
O O6 0.519112 0.821973 0.493197
O O7 0.525010 0.762668 0.767600
O O8 0.328594 0.874857 0.607070
O O9 0.174265 0.092044 0.847915
O O10 0.298611 0.141137 0.647060
O O11 0.988291 0.104145 0.514575
O O12 0.224538 0.003478 0.637951
#
# Coordination Sequence:
#
# PCOD8128519 Si02
#       6
#     4   4   4   4   4   4
#     4   8  15  30  51  73 100 134 170 208 253 307
#     4  11  21  34  52  76 106 141 181 216 255 311
#     4   8  15  30  51  73 100 134 170 208 253 307
#     4   9  18  35  58  81 106 136 171 215 265 311
#     4  11  21  34  52  76 106 141 181 216 255 311
#     4   9  18  35  58  81 106 136 171 215 265 311
#
# _framework density 18.473659000000001
#
# number of rings (size 3 to 8) (size 9 to 14) (size 15 to 20)
#    0.000    2.667    0.000    6.000    0.000    2.667 
#    0.000    8.333    0.000    6.000    0.000    0.000 
#    0.000    0.000    0.000    0.000    0.000    0.000 
#
# Total GULP energy -297404.262750 kJ/mol
# GULP energy per Si atom -12391.844281 kJ/mol
# Density = 1.843161 g / cm^3
# Si number density = 18.473659 Si / 1000 Ang^3
#
#
#
# Elastic Constant Matrix: (Units=GPa)
#
#
# Indices 1 2 3 4 5 6 
#
# 1 38.8982 13.4591 20.8497 0.0000 17.2918 0.0000
# 2 13.4591 45.5177 4.8163 0.0000 12.9912 0.0000
# 3 20.8497 4.8163 115.9635 0.0000 22.8183 0.0000
# 4 0.0000 0.0000 0.0000 36.0055 0.0000 -3.8724
# 5 17.2918 12.9912 22.8183 0.0000 35.4196 0.0000
# 6 0.0000 0.0000 0.0000 -3.8724 0.0000 16.0629
#
#
#
# Elastic Compliance Matrix: (Units=1/GPa)
#
#
# Indices 1 2 3 4 5 6 
#
# 1 0.035516 -0.006519 -0.003634 0.000000 -0.012606 0.000000
# 2 -0.006519 0.025810 0.001531 0.000000 -0.007270 0.000000
# 3 -0.003634 0.001531 0.010277 0.000000 -0.005408 0.000000
# 4 0.000000 0.000000 0.000000 0.028513 0.000000 0.006874
# 5 -0.012606 -0.007270 -0.005408 0.000000 0.040538 0.000000
# 6 0.000000 0.000000 0.000000 0.006874 0.000000 0.063912
#
#
# Mechanical properties :
#
#
# Convention : Reuss Voigt Hill
#
# Bulk Modulus (GPa) = 18.39651 30.95883 24.67767
# Shear Modulus (GPa) = 20.83929 28.24787 24.54358
#
# Velocity S-wave (km/s) = 3.36230 3.91460 3.64891
# Velocity P-wave (km/s) = 5.00532 6.10138 5.58033
#
# Compressibility (1/GPa) = 0.05435812
#
# Stress axis : x y z
#
# Youngs Moduli (GPa) = 28.15647 38.74445 97.30058
#
# Poissons Ratio (x) = 0.25258 0.35361
# Poissons Ratio (y) = 0.18355 -0.14894
# Poissons Ratio (z) = 0.10233 -0.05931
#
# Static dielectric constant tensor:
#      x y z
#    x 2.904070 0.000000 0.329560 
#    y 0.000000 3.503610 0.000000 
#    z 0.329560 0.000000 4.085430 
# 
# 
# High freq. dielectric constant tensor:
#      x y z
#    x 1.656620 0.000000 0.017130 
#    y 0.000000 1.720500 0.000000 
#    z 0.017130 0.000000 1.745160 
# 
# From -- ./inp_files/13610.got.cif
#   From: 2010.03.12/outbox.cif.g09.slc.cpg/sg14_7_cif.got.tgz:13610.got - 2010.03.31 13:35:05.
