data_PCOD8128263
_publ_section_title
;
Structure prediction by ZEFSAII (Michael W. Deem and Ramdas Pophale) SiO2 
 PCOD8128263
Probable space group: P 21/C
;
_chemical_formula_sum "Si O2"
_cell_formula_units_Z 24
_cell_length_a 4.968166
_cell_length_b 13.908639
_cell_length_c 14.412873
_cell_angle_alpha 90.000000
_cell_angle_beta 119.205021
_cell_angle_gamma 90.000000
_cell_volume 869.331664
_symmetry_space_group_name_H-M "P 21/C"
_symmetry_group_IT_number 14
_symmetry_cell_setting 'monoclinic'
loop_
_space_group_symop_operation_xyz
x,y,z
-x,1/2+y,1/2-z
-x,-y,-z
x,1/2-y,1/2+z
loop_
_atom_site_type_symbol
_atom_site_label
_atom_site_fract_x
_atom_site_fract_y
_atom_site_fract_z
Si Si1 0.363196 0.610463 0.944559
Si Si2 0.444049 0.252367 0.307727
Si Si3 0.458051 0.952996 0.265884
Si Si4 0.103484 0.389389 0.619578
Si Si5 0.072901 0.905360 0.585270
Si Si6 0.525192 0.815394 0.987461
O O1 0.304570 0.549789 0.842087
O O2 0.325677 0.723338 0.917921
O O3 0.127301 0.569877 0.983695
O O4 0.709309 0.597267 0.044693
O O5 0.455158 0.344642 0.244069
O O6 0.208684 0.174729 0.225460
O O7 0.777750 0.200971 0.375159
O O8 0.323958 0.290858 0.387442
O O9 0.219614 0.001088 0.153365
O O10 0.762793 0.019547 0.318066
O O11 0.214410 0.343944 0.541444
O O12 0.733825 0.398553 0.551162
#
# Coordination Sequence:
#
# PCOD8128263 Si02
#       6
#     4   4   4   4   4   4
#     4  11  22  45  73  99 136 183 234 296 348 392
#     4  10  24  44  71 102 136 195 228 283 355 413
#     4  11  24  43  71 105 141 183 233 287 351 415
#     4  11  26  47  67 106 142 179 239 290 340 423
#     4  10  24  44  67 104 139 176 241 293 335 409
#     4  11  24  47  71  97 146 184 229 289 346 420
#
# _framework density 27.607413000000001
#
# number of rings (size 3 to 8) (size 9 to 14) (size 15 to 20)
#    0.000    1.333    1.667    3.000    0.000   12.000 
#    0.000    0.000    0.000    0.000    0.000    0.000 
#    0.000    0.000    0.000    0.000    0.000    0.000 
#
# Total GULP energy -297671.764728 kJ/mol
# GULP energy per Si atom -12402.990197 kJ/mol
# Density = 2.754458 g / cm^3
# Si number density = 27.607413 Si / 1000 Ang^3
#
#
#
# Elastic Constant Matrix: (Units=GPa)
#
#
# Indices 1 2 3 4 5 6 
#
# 1 99.0349 -16.1060 28.8396 0.0000 -1.4086 0.0000
# 2 -16.1060 83.7781 11.8045 0.0000 -2.0252 0.0000
# 3 28.8396 11.8045 93.8918 0.0000 -24.7125 0.0000
# 4 0.0000 0.0000 0.0000 51.5568 0.0000 2.7804
# 5 -1.4086 -2.0252 -24.7125 0.0000 25.4762 0.0000
# 6 0.0000 0.0000 0.0000 2.7804 0.0000 29.0850
#
#
#
# Elastic Compliance Matrix: (Units=1/GPa)
#
#
# Indices 1 2 3 4 5 6 
#
# 1 0.012011 0.002934 -0.005132 0.000000 -0.004081 0.000000
# 2 0.002934 0.012877 -0.002965 0.000000 -0.001690 0.000000
# 3 -0.005132 -0.002965 0.016736 0.000000 0.015715 0.000000
# 4 0.000000 0.000000 0.000000 0.019497 0.000000 -0.001864
# 5 -0.004081 -0.001690 0.015715 0.000000 0.054136 0.000000
# 6 0.000000 0.000000 0.000000 -0.001864 0.000000 0.034560
#
#
# Mechanical properties :
#
#
# Convention : Reuss Voigt Hill
#
# Bulk Modulus (GPa) = 31.95205 36.19790 34.07497
# Shear Modulus (GPa) = 29.31242 38.03472 33.67357
#
# Velocity S-wave (km/s) = 3.26200 3.71576 3.49625
# Velocity P-wave (km/s) = 5.07803 5.61688 5.35424
#
# Compressibility (1/GPa) = 0.03129689
#
# Stress axis : x y z
#
# Youngs Moduli (GPa) = 83.25675 77.65688 59.75193
#
# Poissons Ratio (x) = -0.22781 0.30666
# Poissons Ratio (y) = -0.24424 0.17716
# Poissons Ratio (z) = 0.42729 0.23024
#
# Static dielectric constant tensor:
#      x y z
#    x 4.717310 0.000000 -0.068970 
#    y 0.000000 5.561940 0.000000 
#    z -0.068970 0.000000 4.971960 
# 
# 
# High freq. dielectric constant tensor:
#      x y z
#    x 2.102150 0.000000 -0.004660 
#    y 0.000000 2.136200 0.000000 
#    z -0.004660 0.000000 2.110370 
# 
# From -- ./inp_files/37414.got.cif
#   From: 2010.03.12/outbox.cif.g09.slc.cpg/sg14_19_cif.got.tgz:37414.got - 2010.03.31 13:35:05.
