data_PCOD8128305
_publ_section_title
;
Structure prediction by ZEFSAII (Michael W. Deem and Ramdas Pophale) SiO2 
 PCOD8128305
Probable space group: P 21/C
;
_chemical_formula_sum "Si O2"
_cell_formula_units_Z 32
_cell_length_a 10.802457
_cell_length_b 12.191903
_cell_length_c 11.382648
_cell_angle_alpha 90.000000
_cell_angle_beta 109.146843
_cell_angle_gamma 90.000000
_cell_volume 1416.193399
_symmetry_space_group_name_H-M "P 21/C"
_symmetry_group_IT_number 14
_symmetry_cell_setting 'monoclinic'
loop_
_space_group_symop_operation_xyz
x,y,z
-x,1/2+y,1/2-z
-x,-y,-z
x,1/2-y,1/2+z
loop_
_atom_site_type_symbol
_atom_site_label
_atom_site_fract_x
_atom_site_fract_y
_atom_site_fract_z
Si Si1 0.133393 0.860992 0.845788
Si Si2 0.853049 0.544944 0.479858
Si Si3 0.444795 0.423606 0.379823
Si Si4 0.840877 0.930203 0.724379
Si Si5 0.310561 0.899153 0.701026
Si Si6 0.249846 0.634791 0.921018
Si Si7 0.470773 0.695187 0.807605
Si Si8 0.288627 0.251661 0.473099
O O1 0.180220 0.854847 0.725312
O O2 0.172427 0.747318 0.919856
O O3 0.979206 0.875239 0.795555
O O4 0.205469 0.958625 0.943205
O O5 0.774424 0.547398 0.331627
O O6 0.832806 0.669095 0.524349
O O7 0.000000 0.500000 0.500000
O O8 0.500000 0.500000 0.500000
O O9 0.337438 0.484333 0.267929
O O10 0.549820 0.378999 0.316126
O O11 0.386050 0.316812 0.420223
O O12 0.760612 0.850326 0.617092
O O13 0.852569 0.048710 0.666897
O O14 0.291695 0.914826 0.558004
O O15 0.430617 0.818829 0.764933
O O16 0.379764 0.646612 0.882576
O O17 0.623960 0.702089 0.893425
#
# Coordination Sequence:
#
# PCOD8128305 Si02
#       8
#     4   4   4   4   4   4   4   4
#     4  10  25  45  72 101 143 192 243 295 364 430
#     4  10  24  45  71 103 145 187 241 296 362 424
#     4  12  25  42  70 103 142 190 237 293 359 439
#     4  11  27  44  73 107 142 192 239 309 358 434
#     4  11  24  44  68 103 141 189 235 299 361 432
#     4  11  27  44  72 106 144 194 243 300 370 428
#     4  11  26  44  70 103 151 185 242 300 365 436
#     4  12  24  45  73 109 144 191 244 297 371 428
#
# _framework density 22.595782
#
# number of rings (size 3 to 8) (size 9 to 14) (size 15 to 20)
#    0.000    1.000    2.500    2.250   10.500    4.500 
#    0.000    0.000    0.000    0.000    0.000    0.000 
#    0.000    0.000    0.000    0.000    0.000    0.000 
#
# Total GULP energy -396614.482499 kJ/mol
# GULP energy per Si atom -12394.202578 kJ/mol
# Density = 2.254435 g / cm^3
# Si number density = 22.595782 Si / 1000 Ang^3
#
#
#
# Elastic Constant Matrix: (Units=GPa)
#
#
# Indices 1 2 3 4 5 6 
#
# 1 78.7743 26.9774 38.5556 0.0000 -5.5281 0.0000
# 2 26.9774 117.8166 55.2765 0.0000 -1.6771 0.0000
# 3 38.5556 55.2765 147.8779 0.0000 -18.9264 0.0000
# 4 0.0000 0.0000 0.0000 46.8756 0.0000 -2.0850
# 5 -5.5281 -1.6771 -18.9264 0.0000 34.9096 0.0000
# 6 0.0000 0.0000 0.0000 -2.0850 0.0000 31.2556
#
#
#
# Elastic Compliance Matrix: (Units=1/GPa)
#
#
# Indices 1 2 3 4 5 6 
#
# 1 0.014915 -0.001962 -0.003079 0.000000 0.000599 0.000000
# 2 -0.001962 0.010647 -0.003699 0.000000 -0.001805 0.000000
# 3 -0.003079 -0.003699 0.009523 0.000000 0.004498 0.000000
# 4 0.000000 0.000000 0.000000 0.021397 0.000000 0.001427
# 5 0.000599 -0.001805 0.004498 0.000000 0.031092 0.000000
# 6 0.000000 0.000000 0.000000 0.001427 0.000000 0.032090
#
#
# Mechanical properties :
#
#
# Convention : Reuss Voigt Hill
#
# Bulk Modulus (GPa) = 56.80077 65.12085 60.96081
# Shear Modulus (GPa) = 34.96191 37.51878 36.24035
#
# Velocity S-wave (km/s) = 3.93781 4.07926 4.00916
# Velocity P-wave (km/s) = 6.77255 7.14630 6.96194
#
# Compressibility (1/GPa) = 0.01760539
#
# Stress axis : x y z
#
# Youngs Moduli (GPa) = 67.04488 93.92354 105.00393
#
# Poissons Ratio (x) = 0.18431 0.32328
# Poissons Ratio (y) = 0.13156 0.38843
# Poissons Ratio (z) = 0.20641 0.34744
#
# Static dielectric constant tensor:
#      x y z
#    x 3.983070 0.000000 -0.281480 
#    y 0.000000 4.394210 0.000000 
#    z -0.281480 0.000000 4.674970 
# 
# 
# High freq. dielectric constant tensor:
#      x y z
#    x 1.873380 0.000000 -0.017370 
#    y 0.000000 1.902690 0.000000 
#    z -0.017370 0.000000 1.908250 
# 
# From -- ./inp_files/29383.got.cif
#   From: 2010.03.12/outbox.cif.g09.slc.cpg/sg14_15_cif.got.tgz:29383.got - 2010.03.31 13:35:05.
