data_PCOD8128557
_publ_section_title
;
Structure prediction by ZEFSAII (Michael W. Deem and Ramdas Pophale) SiO2 
 PCOD8128557
Probable space group: P 21/C
;
_chemical_formula_sum "Si O2"
_cell_formula_units_Z 32
_cell_length_a 10.705846
_cell_length_b 15.540274
_cell_length_c 14.270722
_cell_angle_alpha 90.000000
_cell_angle_beta 38.420871
_cell_angle_gamma 90.000000
_cell_volume 1475.434963
_symmetry_space_group_name_H-M "P 21/C"
_symmetry_group_IT_number 14
_symmetry_cell_setting 'monoclinic'
loop_
_space_group_symop_operation_xyz
x,y,z
-x,1/2+y,1/2-z
-x,-y,-z
x,1/2-y,1/2+z
loop_
_atom_site_type_symbol
_atom_site_label
_atom_site_fract_x
_atom_site_fract_y
_atom_site_fract_z
Si Si1 0.573217 0.148619 0.156218
Si Si2 0.697395 0.834701 0.008442
Si Si3 0.783451 0.519084 0.587144
Si Si4 0.724248 0.284807 0.216326
Si Si5 0.837022 0.802971 0.564511
Si Si6 0.448936 0.418233 0.095130
Si Si7 0.270895 0.766093 0.578238
Si Si8 0.170371 0.234217 0.731961
O O1 0.682625 0.214585 0.162041
O O2 0.340211 0.126082 0.320539
O O3 0.697586 0.062183 0.082861
O O4 0.572479 0.195105 0.054566
O O5 0.817200 0.913285 0.983094
O O6 0.461618 0.850898 0.169789
O O7 0.786774 0.747558 0.999739
O O8 0.731361 0.817782 0.878015
O O9 0.634014 0.549293 0.756596
O O10 0.000000 0.500000 0.500000
O O11 0.739910 0.233454 0.303970
O O12 0.932748 0.337485 0.074727
O O13 0.812494 0.738578 0.666235
O O14 0.286059 0.355429 0.138536
O O15 0.500000 0.500000 0.000000
O O16 0.651658 0.361969 0.995785
O O17 0.062219 0.735926 0.657150
#
# Coordination Sequence:
#
# PCOD8128557 Si02
#       8
#     4   4   4   4   4   4   4   4
#     4  11  23  41  67  96 138 179 228 288 351 418
#     4  11  23  41  68  96 137 179 231 283 352 420
#     4  12  26  44  67 103 141 178 235 300 351 414
#     4  11  21  39  68  98 127 179 234 279 344 421
#     4  11  21  40  66  95 129 180 234 278 338 431
#     4  12  26  45  70 108 143 172 245 308 338 409
#     4  12  23  42  68 101 141 187 227 283 359 431
#     4  12  23  42  70 102 137 187 231 282 365 429
#
# _framework density 21.68852
#
# number of rings (size 3 to 8) (size 9 to 14) (size 15 to 20)
#    0.000    0.500    6.250    3.000    3.500    0.000 
#    0.000    3.125    0.000    0.000    0.000    0.000 
#    0.000    0.000    0.000    0.000    0.000    0.000 
#
# Total GULP energy -396527.847325 kJ/mol
# GULP energy per Si atom -12391.495229 kJ/mol
# Density = 2.163916 g / cm^3
# Si number density = 21.688520 Si / 1000 Ang^3
#
#
#
# Elastic Constant Matrix: (Units=GPa)
#
#
# Indices 1 2 3 4 5 6 
#
# 1 71.0174 8.1486 26.3949 0.0000 -16.9169 0.0000
# 2 8.1486 81.7343 22.6433 0.0000 -1.7417 0.0000
# 3 26.3949 22.6433 109.4647 0.0000 -14.6743 0.0000
# 4 0.0000 0.0000 0.0000 25.5641 0.0000 -2.2807
# 5 -16.9169 -1.7417 -14.6743 0.0000 54.3182 0.0000
# 6 0.0000 0.0000 0.0000 -2.2807 0.0000 37.5098
#
#
#
# Elastic Compliance Matrix: (Units=1/GPa)
#
#
# Indices 1 2 3 4 5 6 
#
# 1 0.016362 -0.000641 -0.003250 0.000000 0.004197 0.000000
# 2 -0.000641 0.013009 -0.002601 0.000000 -0.000485 0.000000
# 3 -0.003250 -0.002601 0.010698 0.000000 0.001794 0.000000
# 4 0.000000 0.000000 0.000000 0.039331 0.000000 0.002391
# 5 0.004197 -0.000485 0.001794 0.000000 0.020186 0.000000
# 6 0.000000 0.000000 0.000000 0.002391 0.000000 0.026805
#
#
# Mechanical properties :
#
#
# Convention : Reuss Voigt Hill
#
# Bulk Modulus (GPa) = 36.92300 41.84335 39.38318
# Shear Modulus (GPa) = 33.69155 37.14704 35.41930
#
# Velocity S-wave (km/s) = 3.94563 4.14303 4.04553
# Velocity P-wave (km/s) = 6.14968 6.49777 6.32612
#
# Compressibility (1/GPa) = 0.02708339
#
# Stress axis : x y z
#
# Youngs Moduli (GPa) = 61.11556 76.86951 93.47799
#
# Poissons Ratio (x) = 0.04931 0.30381
# Poissons Ratio (y) = 0.03920 0.24317
# Poissons Ratio (z) = 0.19863 0.19997
#
# Static dielectric constant tensor:
#      x y z
#    x 4.296720 0.000000 -0.177680 
#    y 0.000000 3.582640 0.000000 
#    z -0.177680 0.000000 4.481340 
# 
# 
# High freq. dielectric constant tensor:
#      x y z
#    x 1.869980 0.000000 -0.005890 
#    y 0.000000 1.799040 0.000000 
#    z -0.005890 0.000000 1.878780 
# 
# From -- ./inp_files/45093.got.cif
#   From: 2010.03.12/outbox.cif.g09.slc.cpg/sg14_23_cif.got.tgz:45093.got - 2010.03.31 13:35:05.
