data_PCOD8128190
_publ_section_title
;
Structure prediction by ZEFSAII (Michael W. Deem and Ramdas Pophale) SiO2 
 PCOD8128190
Probable space group: P 21/C
;
_chemical_formula_sum "Si O2"
_cell_formula_units_Z 20
_cell_length_a 12.354059
_cell_length_b 8.093868
_cell_length_c 19.646481
_cell_angle_alpha 90.000000
_cell_angle_beta 157.953050
_cell_angle_gamma 90.000000
_cell_volume 737.404463
_symmetry_space_group_name_H-M "P 21/C"
_symmetry_group_IT_number 14
_symmetry_cell_setting 'monoclinic'
loop_
_space_group_symop_operation_xyz
x,y,z
-x,1/2+y,1/2-z
-x,-y,-z
x,1/2-y,1/2+z
loop_
_atom_site_type_symbol
_atom_site_label
_atom_site_fract_x
_atom_site_fract_y
_atom_site_fract_z
Si Si1 0.446645 0.227257 0.456552
Si Si2 0.385455 0.414432 0.252166
Si Si3 0.850851 0.025120 0.249065
Si Si4 0.194746 0.743468 0.596963
Si Si5 0.479328 0.476047 0.106469
O O1 0.192277 0.361140 0.321502
O O2 0.758400 0.311288 0.654369
O O3 0.389736 0.090339 0.479748
O O4 0.427275 0.160730 0.365173
O O5 0.379504 0.489056 0.324350
O O6 0.695572 0.342551 0.409038
O O7 0.335993 0.575784 0.176711
O O8 0.149057 0.268350 0.100551
O O9 0.173684 0.032454 0.468444
O O10 0.282052 0.628454 0.713468
#
# Coordination Sequence:
#
# PCOD8128190 Si02
#       5
#     4   4   4   4   4
#     4  10  24  42  69 104 136 193 242 300 370 426
#     4  11  26  47  72 108 146 191 244 308 370 446
#     4  11  23  45  69 101 147 185 245 306 359 444
#     4  11  25  47  74 107 144 191 245 303 377 437
#     4  11  22  44  70 102 143 187 243 303 362 443
#
# _framework density 27.122157000000001
#
# number of rings (size 3 to 8) (size 9 to 14) (size 15 to 20)
#    0.000    1.200    2.000    3.600    5.600    0.800 
#    0.000    0.000    0.000    0.000    0.000    0.000 
#    0.000    0.000    0.000    0.000    0.000    0.000 
#
# Total GULP energy -247776.017906 kJ/mol
# GULP energy per Si atom -12388.800895 kJ/mol
# Density = 2.706043 g / cm^3
# Si number density = 27.122157 Si / 1000 Ang^3
#
#
#
# Elastic Constant Matrix: (Units=GPa)
#
#
# Indices 1 2 3 4 5 6 
#
# 1 114.3452 35.2807 12.0589 0.0000 -7.4385 0.0000
# 2 35.2807 108.4362 35.2905 0.0000 4.2581 0.0000
# 3 12.0589 35.2905 75.7182 0.0000 -13.7641 0.0000
# 4 0.0000 0.0000 0.0000 47.9873 0.0000 -7.1920
# 5 -7.4385 4.2581 -13.7641 0.0000 31.7641 0.0000
# 6 0.0000 0.0000 0.0000 -7.1920 0.0000 44.9178
#
#
#
# Elastic Compliance Matrix: (Units=1/GPa)
#
#
# Indices 1 2 3 4 5 6 
#
# 1 0.009983 -0.003578 0.000640 0.000000 0.003095 0.000000
# 2 -0.003578 0.012634 -0.006273 0.000000 -0.005250 0.000000
# 3 0.000640 -0.006273 0.017594 0.000000 0.008615 0.000000
# 4 0.000000 0.000000 0.000000 0.021351 0.000000 0.003419
# 5 0.003095 -0.005250 0.008615 0.000000 0.036644 0.000000
# 6 0.000000 0.000000 0.000000 0.003419 0.000000 0.022810
#
#
# Mechanical properties :
#
#
# Convention : Reuss Voigt Hill
#
# Bulk Modulus (GPa) = 45.89146 51.52886 48.71016
# Shear Modulus (GPa) = 34.08293 39.32516 36.70404
#
# Velocity S-wave (km/s) = 3.54876 3.81192 3.68269
# Velocity P-wave (km/s) = 5.80936 6.19793 6.00679
#
# Compressibility (1/GPa) = 0.02179055
#
# Stress axis : x y z
#
# Youngs Moduli (GPa) = 100.16771 79.15297 56.83602
#
# Poissons Ratio (x) = 0.28321 -0.03639
# Poissons Ratio (y) = 0.35841 0.35652
# Poissons Ratio (z) = -0.06414 0.49651
#
# Static dielectric constant tensor:
#      x y z
#    x 4.831950 0.000000 -0.102720 
#    y 0.000000 5.473230 0.000000 
#    z -0.102720 0.000000 4.486860 
# 
# 
# High freq. dielectric constant tensor:
#      x y z
#    x 2.096000 0.000000 -0.019240 
#    y 0.000000 2.119010 0.000000 
#    z -0.019240 0.000000 2.063140 
# 
# From -- ./inp_files/73776.got.cif
#   From: 2010.03.12/outbox.cif.g09.slc.cpg/sg14_37_cif.got.tgz:73776.got - 2010.03.31 13:35:05.
