data_PCOD8128072
_publ_section_title
;
Structure prediction by ZEFSAII (Michael W. Deem and Ramdas Pophale) SiO2 
 PCOD8128072
Probable space group: P 21/C
;
_chemical_formula_sum "Si O2"
_cell_formula_units_Z 20
_cell_length_a 25.376221
_cell_length_b 7.394117
_cell_length_c 10.408245
_cell_angle_alpha 90.000000
_cell_angle_beta 153.697102
_cell_angle_gamma 90.000000
_cell_volume 865.383735
_symmetry_space_group_name_H-M "P 21/C"
_symmetry_group_IT_number 14
_symmetry_cell_setting 'monoclinic'
loop_
_space_group_symop_operation_xyz
x,y,z
-x,1/2+y,1/2-z
-x,-y,-z
x,1/2-y,1/2+z
loop_
_atom_site_type_symbol
_atom_site_label
_atom_site_fract_x
_atom_site_fract_y
_atom_site_fract_z
Si Si1 0.083374 0.520997 0.561392
Si Si2 0.557635 0.447463 0.489397
Si Si3 0.412373 0.533625 0.925075
Si Si4 0.757981 0.779666 0.447647
Si Si5 0.008645 0.127745 0.640295
O O1 0.009730 0.484799 0.271780
O O2 0.000000 0.500000 0.500000
O O3 0.106782 0.738164 0.607752
O O4 0.198559 0.391935 0.829240
O O5 0.500000 0.500000 0.500000
O O6 0.614668 0.246939 0.621517
O O7 0.658639 0.590720 0.667637
O O8 0.459685 0.453555 0.163349
O O9 0.294466 0.418102 0.632341
O O10 0.500000 0.500000 0.000000
O O11 0.869849 0.746786 0.599481
O O12 0.000000 0.000000 0.500000
#
# Coordination Sequence:
#
# PCOD8128072 Si02
#       5
#     4   4   4   4   4
#     4  10  23  46  72 105 142 183 243 301 362 437
#     4  12  25  47  71 108 148 192 243 299 358 434
#     4  12  25  47  72 106 151 190 244 304 352 437
#     4  11  26  43  76 105 147 190 242 284 381 415
#     4  11  25  49  74 106 146 187 246 309 366 437
#
# _framework density 23.111134
#
# number of rings (size 3 to 8) (size 9 to 14) (size 15 to 20)
#    0.000    0.800    4.000    2.400    8.400    0.000 
#    0.000    0.000    0.000    0.000    0.000    0.000 
#    0.000    0.000    0.000    0.000    0.000    0.000 
#
# Total GULP energy -247810.116644 kJ/mol
# GULP energy per Si atom -12390.505832 kJ/mol
# Density = 2.305853 g / cm^3
# Si number density = 23.111134 Si / 1000 Ang^3
#
#
#
# Elastic Constant Matrix: (Units=GPa)
#
#
# Indices 1 2 3 4 5 6 
#
# 1 104.0794 35.5089 44.9132 0.0000 -27.1333 0.0000
# 2 35.5089 213.4558 57.0937 0.0000 -4.7025 0.0000
# 3 44.9132 57.0937 95.5108 0.0000 -21.3388 0.0000
# 4 0.0000 0.0000 0.0000 50.7724 0.0000 3.0543
# 5 -27.1333 -4.7025 -21.3388 0.0000 46.4419 0.0000
# 6 0.0000 0.0000 0.0000 3.0543 0.0000 39.2388
#
#
#
# Elastic Compliance Matrix: (Units=1/GPa)
#
#
# Indices 1 2 3 4 5 6 
#
# 1 0.013309 -0.000896 -0.004464 0.000000 0.005634 0.000000
# 2 -0.000896 0.005686 -0.003305 0.000000 -0.001466 0.000000
# 3 -0.004464 -0.003305 0.015476 0.000000 0.004168 0.000000
# 4 0.000000 0.000000 0.000000 0.019788 0.000000 -0.001540
# 5 0.005634 -0.001466 0.004168 0.000000 0.026590 0.000000
# 6 0.000000 0.000000 0.000000 -0.001540 0.000000 0.025605
#
#
# Mechanical properties :
#
#
# Convention : Reuss Voigt Hill
#
# Bulk Modulus (GPa) = 58.34152 76.45308 67.39730
# Shear Modulus (GPa) = 38.61078 45.65930 42.13504
#
# Velocity S-wave (km/s) = 4.09180 4.44964 4.27447
# Velocity P-wave (km/s) = 6.90091 7.71696 7.32031
#
# Compressibility (1/GPa) = 0.01714045
#
# Stress axis : x y z
#
# Youngs Moduli (GPa) = 75.13835 175.88541 64.61563
#
# Poissons Ratio (x) = 0.15755 0.28846
# Poissons Ratio (y) = 0.06731 0.21355
# Poissons Ratio (z) = 0.33543 0.58130
#
# Static dielectric constant tensor:
#      x y z
#    x 3.918250 0.000000 -0.029300 
#    y 0.000000 5.329270 0.000000 
#    z -0.029300 0.000000 4.662350 
# 
# 
# High freq. dielectric constant tensor:
#      x y z
#    x 1.897990 0.000000 -0.013200 
#    y 0.000000 1.947010 0.000000 
#    z -0.013200 0.000000 1.905430 
# 
# From -- ./inp_files/19380.got.cif
#   From: 2010.03.12/outbox.cif.g09.slc.cpg/sg14_10_cif.got.tgz:19380.got - 2010.03.31 13:35:05.
