data_PCOD8128364
_publ_section_title
;
Structure prediction by ZEFSAII (Michael W. Deem and Ramdas Pophale) SiO2 
 PCOD8128364
Probable space group: P 21/C
;
_chemical_formula_sum "Si O2"
_cell_formula_units_Z 32
_cell_length_a 27.215440
_cell_length_b 9.012685
_cell_length_c 10.621250
_cell_angle_alpha 90.000000
_cell_angle_beta 149.969340
_cell_angle_gamma 90.000000
_cell_volume 1303.819482
_symmetry_space_group_name_H-M "P 21/C"
_symmetry_group_IT_number 14
_symmetry_cell_setting 'monoclinic'
loop_
_space_group_symop_operation_xyz
x,y,z
-x,1/2+y,1/2-z
-x,-y,-z
x,1/2-y,1/2+z
loop_
_atom_site_type_symbol
_atom_site_label
_atom_site_fract_x
_atom_site_fract_y
_atom_site_fract_z
Si Si1 0.360414 0.962821 0.610001
Si Si2 0.166019 0.605937 0.533160
Si Si3 0.447957 0.066537 0.570763
Si Si4 0.963421 0.644054 0.180152
Si Si5 0.313161 0.170515 0.719189
Si Si6 0.204510 0.570604 0.139895
Si Si7 0.883069 0.663696 0.729290
Si Si8 0.632486 0.366134 0.321742
O O1 0.377289 0.810062 0.722404
O O2 0.450760 0.990182 0.714008
O O3 0.363847 0.101581 0.709833
O O4 0.258693 0.969271 0.306510
O O5 0.193537 0.771342 0.544430
O O6 0.130171 0.510176 0.333681
O O7 0.079680 0.614282 0.447311
O O8 0.393625 0.225032 0.463881
O O9 0.557976 0.083826 0.766463
O O10 0.386531 0.953908 0.347387
O O11 0.933944 0.765795 0.218300
O O12 0.903622 0.493976 0.076934
O O13 0.944632 0.692041 0.992917
O O14 0.222234 0.268877 0.473592
O O15 0.275023 0.039544 0.722305
O O16 0.256944 0.597833 0.390192
#
# Coordination Sequence:
#
# PCOD8128364 Si02
#       8
#     4   4   4   4   4   4   4   4
#     4  11  26  44  70 101 140 176 232 288 346 416
#     4  11  23  43  68 100 137 181 231 288 350 414
#     4  11  25  46  71 102 137 183 231 282 349 422
#     4  11  24  43  70 103 139 188 232 292 352 429
#     4  11  25  41  68  98 136 183 227 285 349 410
#     4  10  25  43  67 101 139 178 233 288 348 414
#     4  11  23  43  68  99 140 184 235 288 355 418
#     4  10  26  45  71  99 138 179 230 287 348 412
#
# _framework density 24.543272999999999
#
# number of rings (size 3 to 8) (size 9 to 14) (size 15 to 20)
#    0.000    1.250    1.250    2.625    8.750    3.500 
#    0.000    3.125    0.000    0.000    0.000    0.000 
#    0.000    0.000    0.000    0.000    0.000    0.000 
#
# Total GULP energy -396880.543777 kJ/mol
# GULP energy per Si atom -12402.516993 kJ/mol
# Density = 2.448741 g / cm^3
# Si number density = 24.543273 Si / 1000 Ang^3
#
#
#
# Elastic Constant Matrix: (Units=GPa)
#
#
# Indices 1 2 3 4 5 6 
#
# 1 103.4094 51.2361 4.3567 0.0000 -11.1507 0.0000
# 2 51.2361 140.6614 14.7752 0.0000 -4.7940 0.0000
# 3 4.3567 14.7752 42.2376 0.0000 -0.1455 0.0000
# 4 0.0000 0.0000 0.0000 20.8310 0.0000 6.3068
# 5 -11.1507 -4.7940 -0.1455 0.0000 24.4352 0.0000
# 6 0.0000 0.0000 0.0000 6.3068 0.0000 33.8828
#
#
#
# Elastic Compliance Matrix: (Units=1/GPa)
#
#
# Indices 1 2 3 4 5 6 
#
# 1 0.012333 -0.004358 0.000269 0.000000 0.004775 0.000000
# 2 -0.004358 0.008971 -0.002689 0.000000 -0.000245 0.000000
# 3 0.000269 -0.002689 0.024588 0.000000 -0.000259 0.000000
# 4 0.000000 0.000000 0.000000 0.050872 0.000000 -0.009469
# 5 0.004775 -0.000245 -0.000259 0.000000 0.043054 0.000000
# 6 0.000000 0.000000 0.000000 -0.009469 0.000000 0.031276
#
#
# Mechanical properties :
#
#
# Convention : Reuss Voigt Hill
#
# Bulk Modulus (GPa) = 30.92668 47.44938 39.18803
# Shear Modulus (GPa) = 25.58477 30.22584 27.90531
#
# Velocity S-wave (km/s) = 3.23218 3.51313 3.37558
# Velocity P-wave (km/s) = 5.15340 5.98590 5.58518
#
# Compressibility (1/GPa) = 0.03233454
#
# Stress axis : x y z
#
# Youngs Moduli (GPa) = 81.08340 111.47317 40.67066
#
# Poissons Ratio (x) = 0.48578 -0.01093
# Poissons Ratio (y) = 0.35335 0.10938
# Poissons Ratio (z) = -0.02179 0.29980
#
# Static dielectric constant tensor:
#      x y z
#    x 4.361160 0.000000 0.263030 
#    y 0.000000 4.606550 0.000000 
#    z 0.263030 0.000000 4.342250 
# 
# 
# High freq. dielectric constant tensor:
#      x y z
#    x 1.977380 0.000000 0.019640 
#    y 0.000000 1.989770 0.000000 
#    z 0.019640 0.000000 1.969650 
# 
# From -- ./inp_files/36497.got.cif
#   From: 2010.03.12/outbox.cif.g09.slc.cpg/sg14_19_cif.got.tgz:36497.got - 2010.03.31 13:35:05.
