data_PCOD8128579
_publ_section_title
;
Structure prediction by ZEFSAII (Michael W. Deem and Ramdas Pophale) SiO2 
 PCOD8128579
Probable space group: P 21/C
;
_chemical_formula_sum "Si O2"
_cell_formula_units_Z 32
_cell_length_a 16.650304
_cell_length_b 8.335144
_cell_length_c 24.938285
_cell_angle_alpha 90.000000
_cell_angle_beta 27.738597
_cell_angle_gamma 90.000000
_cell_volume 1610.883197
_symmetry_space_group_name_H-M "P 21/C"
_symmetry_group_IT_number 14
_symmetry_cell_setting 'monoclinic'
loop_
_space_group_symop_operation_xyz
x,y,z
-x,1/2+y,1/2-z
-x,-y,-z
x,1/2-y,1/2+z
loop_
_atom_site_type_symbol
_atom_site_label
_atom_site_fract_x
_atom_site_fract_y
_atom_site_fract_z
Si Si1 0.306642 0.937803 0.113725
Si Si2 0.986025 0.094744 0.563009
Si Si3 0.675677 0.246311 0.291807
Si Si4 0.471641 0.049810 0.835355
Si Si5 0.355980 0.378184 0.205780
Si Si6 0.718357 0.310287 0.488058
Si Si7 0.080321 0.333232 0.808535
Si Si8 0.677263 0.762115 0.665141
O O1 0.283356 0.796419 0.171366
O O2 0.251053 0.874497 0.089162
O O3 0.177790 0.084692 0.201423
O O4 0.500000 0.000000 0.000000
O O5 0.156993 0.200110 0.468916
O O6 0.834125 0.225590 0.657029
O O7 0.000000 0.000000 0.500000
O O8 0.955512 0.964042 0.625767
O O9 0.526324 0.362096 0.357756
O O10 0.619028 0.062504 0.324502
O O11 0.451541 0.179781 0.800453
O O12 0.613458 0.927006 0.729277
O O13 0.304377 0.948916 0.953175
O O14 0.209970 0.303614 0.253483
O O15 0.287469 0.362128 0.307302
O O16 0.545384 0.298403 0.089245
O O17 0.893416 0.223465 0.400583
#
# Coordination Sequence:
#
# PCOD8128579 Si02
#       8
#     4   4   4   4   4   4   4   4
#     4  11  21  50  70  87 131 177 214 275 337 382
#     4  11  21  41  64  89 131 177 212 260 328 394
#     4  11  24  40  67  94 127 172 220 269 333 388
#     4  11  23  39  63  94 129 174 213 263 326 392
#     4  11  24  43  64 100 134 169 216 269 327 395
#     4  11  25  45  70  95 132 172 220 277 327 390
#     4  11  25  43  68  98 130 171 224 272 331 392
#     4  11  23  39  62  93 133 170 212 260 327 392
#
# _framework density 19.864879999999999
#
# number of rings (size 3 to 8) (size 9 to 14) (size 15 to 20)
#    0.000    1.000    5.000    2.250    7.000    3.000 
#    4.500    0.000    0.000    0.000    0.000    0.000 
#    0.000    0.000    0.000    0.000    0.000    0.000 
#
# Total GULP energy -396689.075231 kJ/mol
# GULP energy per Si atom -12396.533601 kJ/mol
# Density = 1.981967 g / cm^3
# Si number density = 19.864880 Si / 1000 Ang^3
#
#
#
# Elastic Constant Matrix: (Units=GPa)
#
#
# Indices 1 2 3 4 5 6 
#
# 1 74.7970 32.3489 26.9743 0.0000 -1.0908 0.0000
# 2 32.3489 101.2922 42.5544 0.0000 -2.8972 0.0000
# 3 26.9743 42.5544 121.9873 0.0000 -7.8714 0.0000
# 4 0.0000 0.0000 0.0000 29.1208 0.0000 -8.3089
# 5 -1.0908 -2.8972 -7.8714 0.0000 38.7488 0.0000
# 6 0.0000 0.0000 0.0000 -8.3089 0.0000 26.5208
#
#
#
# Elastic Compliance Matrix: (Units=1/GPa)
#
#
# Indices 1 2 3 4 5 6 
#
# 1 0.015941 -0.004230 -0.002068 0.000000 -0.000288 0.000000
# 2 -0.004230 0.012690 -0.003484 0.000000 0.000122 0.000000
# 3 -0.002068 -0.003484 0.009980 0.000000 0.001709 0.000000
# 4 0.000000 0.000000 0.000000 0.037711 0.000000 0.011815
# 5 -0.000288 0.000122 0.001709 0.000000 0.026155 0.000000
# 6 0.000000 0.000000 0.000000 0.011815 0.000000 0.041408
#
#
# Mechanical properties :
#
#
# Convention : Reuss Voigt Hill
#
# Bulk Modulus (GPa) = 52.49911 55.75906 54.12908
# Shear Modulus (GPa) = 29.44675 31.95800 30.70238
#
# Velocity S-wave (km/s) = 3.85431 4.01530 3.93563
# Velocity P-wave (km/s) = 6.80390 7.04464 6.92532
#
# Compressibility (1/GPa) = 0.01904794
#
# Stress axis : x y z
#
# Youngs Moduli (GPa) = 62.73288 78.79921 100.19746
#
# Poissons Ratio (x) = 0.33335 0.20718
# Poissons Ratio (y) = 0.26538 0.34905
# Poissons Ratio (z) = 0.12971 0.27451
#
# Static dielectric constant tensor:
#      x y z
#    x 3.584280 0.000000 -0.139970 
#    y 0.000000 3.782730 0.000000 
#    z -0.139970 0.000000 3.930780 
# 
# 
# High freq. dielectric constant tensor:
#      x y z
#    x 1.774520 0.000000 0.007080 
#    y 0.000000 1.777350 0.000000 
#    z 0.007080 0.000000 1.785430 
# 
# From -- ./inp_files/51231.got.cif
#   From: 2010.03.12/outbox.cif.g09.slc.cpg/sg14_26_cif.got.tgz:51231.got - 2010.03.31 13:35:05.
