data_PCOD8128406
_publ_section_title
;
Structure prediction by ZEFSAII (Michael W. Deem and Ramdas Pophale) SiO2 
 PCOD8128406
Probable space group: P 21/C
;
_chemical_formula_sum "Si O2"
_cell_formula_units_Z 20
_cell_length_a 13.676398
_cell_length_b 6.709635
_cell_length_c 18.537116
_cell_angle_alpha 90.000000
_cell_angle_beta 31.118095
_cell_angle_gamma 90.000000
_cell_volume 879.100305
_symmetry_space_group_name_H-M "P 21/C"
_symmetry_group_IT_number 14
_symmetry_cell_setting 'monoclinic'
loop_
_space_group_symop_operation_xyz
x,y,z
-x,1/2+y,1/2-z
-x,-y,-z
x,1/2-y,1/2+z
loop_
_atom_site_type_symbol
_atom_site_label
_atom_site_fract_x
_atom_site_fract_y
_atom_site_fract_z
Si Si1 0.778707 0.316959 0.593059
Si Si2 0.878199 0.207794 0.257029
Si Si3 0.740130 0.487507 0.467883
Si Si4 0.333724 0.958283 0.221944
Si Si5 0.789469 0.614675 0.710290
O O1 0.681917 0.382573 0.579962
O O2 0.708519 0.102306 0.667839
O O3 0.714113 0.470012 0.695884
O O4 0.001646 0.311028 0.440552
O O5 0.804824 0.302765 0.377043
O O6 0.832636 0.365284 0.222390
O O7 0.101990 0.160426 0.123483
O O8 0.782093 0.998416 0.292890
O O9 0.548944 0.599831 0.561863
O O10 0.341772 0.194300 0.204608
#
# Coordination Sequence:
#
# PCOD8128406 Si02
#       5
#     4   4   4   4   4
#     4   9  21  41  63 102 133 166 226 281 329 404
#     4  10  25  47  64  99 141 177 226 279 331 408
#     4  11  25  45  68 102 139 180 233 273 339 406
#     4  11  23  44  73  97 136 179 226 280 343 398
#     4   9  20  43  67  95 132 177 218 277 346 388
#
# _framework density 22.750534999999999
#
# number of rings (size 3 to 8) (size 9 to 14) (size 15 to 20)
#    0.000    2.000    0.000    2.400    8.400    0.800 
#    7.200    0.000    0.000    0.000    0.000    0.000 
#    0.000    0.000    0.000    0.000    0.000    0.000 
#
# Total GULP energy -247838.929678 kJ/mol
# GULP energy per Si atom -12391.946484 kJ/mol
# Density = 2.269875 g / cm^3
# Si number density = 22.750535 Si / 1000 Ang^3
#
#
#
# Elastic Constant Matrix: (Units=GPa)
#
#
# Indices 1 2 3 4 5 6 
#
# 1 111.5322 48.6154 57.8471 0.0000 5.9823 0.0000
# 2 48.6154 93.3407 46.3471 0.0000 -3.2008 0.0000
# 3 57.8471 46.3471 94.4676 0.0000 -5.8044 0.0000
# 4 0.0000 0.0000 0.0000 38.0106 0.0000 8.3461
# 5 5.9823 -3.2008 -5.8044 0.0000 25.5113 0.0000
# 6 0.0000 0.0000 0.0000 8.3461 0.0000 35.7072
#
#
#
# Elastic Compliance Matrix: (Units=1/GPa)
#
#
# Indices 1 2 3 4 5 6 
#
# 1 0.015011 -0.004331 -0.007421 0.000000 -0.005752 0.000000
# 2 -0.004331 0.015414 -0.004796 0.000000 0.001858 0.000000
# 3 -0.007421 -0.004796 0.017802 0.000000 0.005189 0.000000
# 4 0.000000 0.000000 0.000000 0.027732 0.000000 -0.006482
# 5 -0.005752 0.001858 0.005189 0.000000 0.041961 0.000000
# 6 0.000000 0.000000 0.000000 -0.006482 0.000000 0.029521
#
#
# Mechanical properties :
#
#
# Convention : Reuss Voigt Hill
#
# Bulk Modulus (GPa) = 66.08786 67.21773 66.65280
# Shear Modulus (GPa) = 26.94262 29.61456 28.27859
#
# Velocity S-wave (km/s) = 3.44505 3.61183 3.52942
# Velocity P-wave (km/s) = 6.70347 6.85591 6.78012
#
# Compressibility (1/GPa) = 0.01513137
#
# Stress axis : x y z
#
# Youngs Moduli (GPa) = 66.61745 64.87428 56.17490
#
# Poissons Ratio (x) = 0.28097 0.41685
# Poissons Ratio (y) = 0.28852 0.26943
# Poissons Ratio (z) = 0.49434 0.31116
#
# Static dielectric constant tensor:
#      x y z
#    x 4.339610 0.000000 0.001750 
#    y 0.000000 4.082080 0.000000 
#    z 0.001750 0.000000 3.815570 
# 
# 
# High freq. dielectric constant tensor:
#      x y z
#    x 1.906530 0.000000 -0.003530 
#    y 0.000000 1.888870 0.000000 
#    z -0.003530 0.000000 1.881640 
# 
# From -- ./inp_files/67787.got.cif
#   From: 2010.03.12/outbox.cif.g09.slc.cpg/sg14_34_cif.got.tgz:67787.got - 2010.03.31 13:35:05.
