data_PCOD8128592
_publ_section_title
;
Structure prediction by ZEFSAII (Michael W. Deem and Ramdas Pophale) SiO2 
 PCOD8128592
Probable space group: P 21/C
;
_chemical_formula_sum "Si O2"
_cell_formula_units_Z 24
_cell_length_a 9.042349
_cell_length_b 26.208904
_cell_length_c 9.913484
_cell_angle_alpha 90.000000
_cell_angle_beta 29.794690
_cell_angle_gamma 90.000000
_cell_volume 1167.400253
_symmetry_space_group_name_H-M "P 21/C"
_symmetry_group_IT_number 14
_symmetry_cell_setting 'monoclinic'
loop_
_space_group_symop_operation_xyz
x,y,z
-x,1/2+y,1/2-z
-x,-y,-z
x,1/2-y,1/2+z
loop_
_atom_site_type_symbol
_atom_site_label
_atom_site_fract_x
_atom_site_fract_y
_atom_site_fract_z
Si Si1 0.010124 0.879325 0.756005
Si Si2 0.820797 0.024442 0.759917
Si Si3 0.624902 0.124420 0.803680
Si Si4 0.168682 0.516073 0.236204
Si Si5 0.525685 0.236862 0.940737
Si Si6 0.837058 0.724303 0.529547
O O1 0.201331 0.861901 0.473403
O O2 0.184175 0.923250 0.697734
O O3 0.690229 0.904037 0.972437
O O4 0.935329 0.832991 0.916402
O O5 0.813945 0.086071 0.746465
O O6 0.000000 0.000000 0.500000
O O7 0.002963 0.014401 0.750084
O O8 0.500000 0.000000 0.000000
O O9 0.528630 0.175673 0.960177
O O10 0.000000 0.500000 0.500000
O O11 0.500000 0.500000 0.000000
O O12 0.318087 0.250843 0.977121
O O13 0.872440 0.247999 0.644089
O O14 0.407482 0.270538 0.158784
#
# Coordination Sequence:
#
# PCOD8128592 Si02
#       6
#     4   4   4   4   4   4
#     4  11  22  42  69  91 131 182 215 254 338 406
#     4  12  22  42  70  94 127 174 224 266 307 393
#     4  11  21  41  70  96 121 175 231 265 310 392
#     4  12  25  42  63  99 140 167 213 275 332 386
#     4  11  23  42  67  95 129 164 218 273 324 389
#     4  11  23  43  67  93 126 170 213 270 327 386
#
# _framework density 20.558503000000002
#
# number of rings (size 3 to 8) (size 9 to 14) (size 15 to 20)
#    0.000    0.667    3.333    7.000    0.000    0.000 
#    9.000    0.000    0.000    0.000    0.000    0.000 
#    0.000    0.000    0.000    0.000    0.000    0.000 
#
# Total GULP energy -297457.373288 kJ/mol
# GULP energy per Si atom -12394.057220 kJ/mol
# Density = 2.051171 g / cm^3
# Si number density = 20.558503 Si / 1000 Ang^3
#
#
#
# Elastic Constant Matrix: (Units=GPa)
#
#
# Indices 1 2 3 4 5 6 
#
# 1 143.0079 45.9346 47.9654 0.0000 -10.9151 0.0000
# 2 45.9346 96.1932 23.2798 0.0000 3.0399 0.0000
# 3 47.9654 23.2798 135.6065 0.0000 -1.8015 0.0000
# 4 0.0000 0.0000 0.0000 36.8475 0.0000 -3.9573
# 5 -10.9151 3.0399 -1.8015 0.0000 47.2543 0.0000
# 6 0.0000 0.0000 0.0000 -3.9573 0.0000 31.5748
#
#
#
# Elastic Compliance Matrix: (Units=1/GPa)
#
#
# Indices 1 2 3 4 5 6 
#
# 1 0.009281 -0.003878 -0.002586 0.000000 0.002295 0.000000
# 2 -0.003878 0.012495 -0.000796 0.000000 -0.001730 0.000000
# 3 -0.002586 -0.000796 0.008423 0.000000 -0.000225 0.000000
# 4 0.000000 0.000000 0.000000 0.027509 0.000000 0.003448
# 5 0.002295 -0.001730 -0.000225 0.000000 0.021795 0.000000
# 6 0.000000 0.000000 0.000000 0.003448 0.000000 0.032103
#
#
# Mechanical properties :
#
#
# Convention : Reuss Voigt Hill
#
# Bulk Modulus (GPa) = 63.78879 67.68522 65.73701
# Shear Modulus (GPa) = 38.06509 40.31051 39.18780
#
# Velocity S-wave (km/s) = 4.30763 4.43286 4.37070
# Velocity P-wave (km/s) = 7.47236 7.69383 7.58391
#
# Compressibility (1/GPa) = 0.01567674
#
# Stress axis : x y z
#
# Youngs Moduli (GPa) = 107.74617 80.03089 118.72479
#
# Poissons Ratio (x) = 0.31040 0.30708
# Poissons Ratio (y) = 0.41789 0.09453
# Poissons Ratio (z) = 0.27869 0.06372
#
# Static dielectric constant tensor:
#      x y z
#    x 3.967830 0.000000 -0.240660 
#    y 0.000000 3.818280 0.000000 
#    z -0.240660 0.000000 3.914150 
# 
# 
# High freq. dielectric constant tensor:
#      x y z
#    x 1.800460 0.000000 -0.016020 
#    y 0.000000 1.805950 0.000000 
#    z -0.016020 0.000000 1.828250 
# 
# From -- ./inp_files/11312.got.cif
#   From: 2010.03.12/outbox.cif.g09.slc.cpg/sg14_6_cif.got.tgz:11312.got - 2010.03.31 13:35:05.
