data_PCOD8128881
_publ_section_title
;
Structure prediction by ZEFSAII (Michael W. Deem and Ramdas Pophale) SiO2 
 PCOD8128881
Probable space group: P 21/C
;
_chemical_formula_sum "Si O2"
_cell_formula_units_Z 20
_cell_length_a 6.709601
_cell_length_b 24.189145
_cell_length_c 5.623165
_cell_angle_alpha 90.000000
_cell_angle_beta 108.629192
_cell_angle_gamma 90.000000
_cell_volume 864.820031
_symmetry_space_group_name_H-M "P 21/C"
_symmetry_group_IT_number 14
_symmetry_cell_setting 'monoclinic'
loop_
_space_group_symop_operation_xyz
x,y,z
-x,1/2+y,1/2-z
-x,-y,-z
x,1/2-y,1/2+z
loop_
_atom_site_type_symbol
_atom_site_label
_atom_site_fract_x
_atom_site_fract_y
_atom_site_fract_z
Si Si1 0.697675 0.131560 0.740852
Si Si2 0.701472 0.629712 0.182072
Si Si3 0.451772 0.437360 0.490564
Si Si4 0.027818 0.065885 0.556716
Si Si5 0.961972 0.783314 0.013142
O O1 0.471442 0.155435 0.563161
O O2 0.648983 0.091826 0.942288
O O3 0.826525 0.095207 0.596948
O O4 0.818708 0.184511 0.888769
O O5 0.561324 0.581057 0.242626
O O6 0.912692 0.601784 0.154794
O O7 0.769511 0.673772 0.409910
O O8 0.500000 0.500000 0.500000
O O9 0.226215 0.424140 0.297497
O O10 0.000000 0.000000 0.500000
O O11 0.945860 0.751722 0.259890
#
# Coordination Sequence:
#
# PCOD8128881 Si02
#       5
#     4   4   4   4   4
#     4  11  26  46  73 105 151 193 247 311 375 447
#     4  11  26  46  72 106 152 188 253 311 369 453
#     4  11  24  41  71 113 147 191 242 298 380 463
#     4  11  23  42  71 108 154 200 241 298 377 463
#     4  12  29  51  78 108 145 203 264 318 378 434
#
# _framework density 23.126199
#
# number of rings (size 3 to 8) (size 9 to 14) (size 15 to 20)
#    0.000    0.800    2.000    3.600   11.200    6.400 
#    0.000    0.000    0.000    0.000    0.000    0.000 
#    0.000    0.000    0.000    0.000    0.000    0.000 
#
# Total GULP energy -247771.602700 kJ/mol
# GULP energy per Si atom -12388.580135 kJ/mol
# Density = 2.307356 g / cm^3
# Si number density = 23.126199 Si / 1000 Ang^3
#
#
#
# Elastic Constant Matrix: (Units=GPa)
#
#
# Indices 1 2 3 4 5 6 
#
# 1 113.8852 24.4136 27.7320 0.0000 -7.5992 0.0000
# 2 24.4136 104.1720 40.1033 0.0000 1.8519 0.0000
# 3 27.7320 40.1033 87.6491 0.0000 -12.2984 0.0000
# 4 0.0000 0.0000 0.0000 45.7387 0.0000 -2.0175
# 5 -7.5992 1.8519 -12.2984 0.0000 50.2646 0.0000
# 6 0.0000 0.0000 0.0000 -2.0175 0.0000 37.3699
#
#
#
# Elastic Compliance Matrix: (Units=1/GPa)
#
#
# Indices 1 2 3 4 5 6 
#
# 1 0.009705 -0.001409 -0.002291 0.000000 0.000959 0.000000
# 2 -0.001409 0.012015 -0.005326 0.000000 -0.001959 0.000000
# 3 -0.002291 -0.005326 0.015067 0.000000 0.003536 0.000000
# 4 0.000000 0.000000 0.000000 0.021915 0.000000 0.001183
# 5 0.000959 -0.001959 0.003536 0.000000 0.020977 0.000000
# 6 0.000000 0.000000 0.000000 0.001183 0.000000 0.026823
#
#
# Mechanical properties :
#
#
# Convention : Reuss Voigt Hill
#
# Bulk Modulus (GPa) = 53.38101 54.46713 53.92407
# Shear Modulus (GPa) = 38.22581 40.90514 39.56548
#
# Velocity S-wave (km/s) = 4.07003 4.21025 4.14073
# Velocity P-wave (km/s) = 6.72454 6.87300 6.79918
#
# Compressibility (1/GPa) = 0.01873326
#
# Stress axis : x y z
#
# Youngs Moduli (GPa) = 103.04188 83.22829 66.36872
#
# Poissons Ratio (x) = 0.11730 0.15207
# Poissons Ratio (y) = 0.14522 0.35351
# Poissons Ratio (z) = 0.23609 0.44331
#
# Static dielectric constant tensor:
#      x y z
#    x 4.049270 0.000000 -0.261900 
#    y 0.000000 4.020480 0.000000 
#    z -0.261900 0.000000 3.658870 
# 
# 
# High freq. dielectric constant tensor:
#      x y z
#    x 1.928170 0.000000 0.009650 
#    y 0.000000 1.912390 0.000000 
#    z 0.009650 0.000000 1.930330 
# 
# From -- ./inp_files/409.got.cif
#   From: 2010.03.12/outbox.cif.g09.slc.cpg/sg14_1_cif.got.tgz:409.got - 2010.03.31 13:35:05.
