data_PCOD8128911
_publ_section_title
;
Structure prediction by ZEFSAII (Michael W. Deem and Ramdas Pophale) SiO2 
 PCOD8128911
Probable space group: P 21/C
;
_chemical_formula_sum "Si O2"
_cell_formula_units_Z 20
_cell_length_a 9.897289
_cell_length_b 7.480220
_cell_length_c 26.846263
_cell_angle_alpha 90.000000
_cell_angle_beta 152.836867
_cell_angle_gamma 90.000000
_cell_volume 907.359811
_symmetry_space_group_name_H-M "P 21/C"
_symmetry_group_IT_number 14
_symmetry_cell_setting 'monoclinic'
loop_
_space_group_symop_operation_xyz
x,y,z
-x,1/2+y,1/2-z
-x,-y,-z
x,1/2-y,1/2+z
loop_
_atom_site_type_symbol
_atom_site_label
_atom_site_fract_x
_atom_site_fract_y
_atom_site_fract_z
Si Si1 0.724951 0.560831 0.376910
Si Si2 0.760062 0.755815 0.187842
Si Si3 0.789730 0.681082 0.809583
Si Si4 0.619564 0.343066 0.645322
Si Si5 0.640770 0.973078 0.492852
O O1 0.547270 0.388271 0.298571
O O2 0.842643 0.670661 0.368665
O O3 0.501810 0.676910 0.338172
O O4 0.000000 0.500000 0.500000
O O5 0.859692 0.738370 0.278071
O O6 0.521418 0.603076 0.099405
O O7 0.047315 0.732915 0.247181
O O8 0.615081 0.948280 0.128287
O O9 0.011996 0.516270 0.892637
O O10 0.403612 0.232324 0.538085
O O11 0.500000 0.000000 0.500000
#
# Coordination Sequence:
#
# PCOD8128911 Si02
#       5
#     4   4   4   4   4
#     4  11  27  48  67 105 143 187 236 286 354 424
#     4  11  23  46  69 108 138 178 237 292 341 420
#     4  11  25  45  70 102 141 185 233 288 354 417
#     4  11  23  43  72 100 142 177 232 290 342 414
#     4  12  24  45  73 105 137 182 237 292 348 411
#
# _framework density 22.041972999999999
#
# number of rings (size 3 to 8) (size 9 to 14) (size 15 to 20)
#    0.000    0.800    4.000    3.600    5.600    1.600 
#    3.600    0.000    0.000    0.000    0.000    0.000 
#    0.000    0.000    0.000    0.000    0.000    0.000 
#
# Total GULP energy -248068.763657 kJ/mol
# GULP energy per Si atom -12403.438183 kJ/mol
# Density = 2.199180 g / cm^3
# Si number density = 22.041973 Si / 1000 Ang^3
#
#
#
# Elastic Constant Matrix: (Units=GPa)
#
#
# Indices 1 2 3 4 5 6 
#
# 1 117.6793 55.3226 43.9444 0.0000 -10.3011 0.0000
# 2 55.3226 106.8772 48.1627 0.0000 -15.7097 0.0000
# 3 43.9444 48.1627 145.0795 0.0000 0.1876 0.0000
# 4 0.0000 0.0000 0.0000 53.1896 0.0000 -2.3213
# 5 -10.3011 -15.7097 0.1876 0.0000 37.0252 0.0000
# 6 0.0000 0.0000 0.0000 -2.3213 0.0000 40.4448
#
#
#
# Elastic Compliance Matrix: (Units=1/GPa)
#
#
# Indices 1 2 3 4 5 6 
#
# 1 0.011655 -0.005030 -0.001862 0.000000 0.001118 0.000000
# 2 -0.005030 0.014051 -0.003147 0.000000 0.004578 0.000000
# 3 -0.001862 -0.003147 0.008504 0.000000 -0.001896 0.000000
# 4 0.000000 0.000000 0.000000 0.018848 0.000000 0.001082
# 5 0.001118 0.004578 -0.001896 0.000000 0.029272 0.000000
# 6 0.000000 0.000000 0.000000 0.001082 0.000000 0.024787
#
#
# Mechanical properties :
#
#
# Convention : Reuss Voigt Hill
#
# Bulk Modulus (GPa) = 70.75710 73.83283 72.29497
# Shear Modulus (GPa) = 37.90569 40.94569 39.42569
#
# Velocity S-wave (km/s) = 4.15143 4.31469 4.23385
# Velocity P-wave (km/s) = 7.42630 7.64142 7.53463
#
# Compressibility (1/GPa) = 0.01413286
#
# Stress axis : x y z
#
# Youngs Moduli (GPa) = 85.79690 71.16833 117.59157
#
# Poissons Ratio (x) = 0.35795 0.21897
# Poissons Ratio (y) = 0.43153 0.37007
# Poissons Ratio (z) = 0.15977 0.22397
#
# Static dielectric constant tensor:
#      x y z
#    x 4.180820 0.000000 0.039450 
#    y 0.000000 4.008520 0.000000 
#    z 0.039450 0.000000 4.122820 
# 
# 
# High freq. dielectric constant tensor:
#      x y z
#    x 1.873310 0.000000 0.005440 
#    y 0.000000 1.860090 0.000000 
#    z 0.005440 0.000000 1.874550 
# 
# From -- ./inp_files/23015.got.cif
#   From: 2010.03.12/outbox.cif.g09.slc.cpg/sg14_12_cif.got.tgz:23015.got - 2010.03.31 13:35:05.
