data_PCOD8128580
_publ_section_title
;
Structure prediction by ZEFSAII (Michael W. Deem and Ramdas Pophale) SiO2 
 PCOD8128580
Probable space group: P 21/C
;
_chemical_formula_sum "Si O2"
_cell_formula_units_Z 32
_cell_length_a 11.670376
_cell_length_b 13.850853
_cell_length_c 14.297761
_cell_angle_alpha 90.000000
_cell_angle_beta 139.656626
_cell_angle_gamma 90.000000
_cell_volume 1496.166493
_symmetry_space_group_name_H-M "P 21/C"
_symmetry_group_IT_number 14
_symmetry_cell_setting 'monoclinic'
loop_
_space_group_symop_operation_xyz
x,y,z
-x,1/2+y,1/2-z
-x,-y,-z
x,1/2-y,1/2+z
loop_
_atom_site_type_symbol
_atom_site_label
_atom_site_fract_x
_atom_site_fract_y
_atom_site_fract_z
Si Si1 0.857609 0.275173 0.442365
Si Si2 0.771049 0.821603 0.864874
Si Si3 0.846486 0.510003 0.761837
Si Si4 0.311231 0.612040 0.495907
Si Si5 0.525304 0.706867 0.857171
Si Si6 0.180673 0.933932 0.549681
Si Si7 0.644956 0.705545 0.621621
Si Si8 0.454016 0.495901 0.743600
O O1 0.821227 0.338908 0.512199
O O2 0.677840 0.257702 0.271754
O O3 0.919832 0.167632 0.505563
O O4 0.017342 0.321265 0.479638
O O5 0.650680 0.756405 0.857852
O O6 0.764450 0.775384 0.758195
O O7 0.712159 0.933863 0.822635
O O8 0.793346 0.423183 0.660427
O O9 0.800087 0.492588 0.841543
O O10 0.746753 0.605736 0.663532
O O11 0.061283 0.512875 0.896401
O O12 0.457428 0.688591 0.555304
O O13 0.410516 0.522849 0.608800
O O14 0.507487 0.591435 0.834156
O O15 0.612787 0.734769 0.008190
O O16 0.381903 0.922804 0.641344
#
# Coordination Sequence:
#
# PCOD8128580 Si02
#       8
#     4   4   4   4   4   4   4   4
#     4  11  24  45  66  97 143 181 218 289 349 409
#     4  12  24  46  69  99 141 180 228 285 347 419
#     4  11  23  36  69 101 129 175 237 291 338 406
#     4  11  23  42  65 101 133 178 232 278 343 416
#     4  11  25  44  70 102 137 185 229 286 346 408
#     4  11  21  41  65  98 133 174 230 289 343 400
#     4  12  22  45  68  99 138 177 231 287 343 410
#     4  11  23  44  71  95 137 185 223 282 356 409
#
# _framework density 21.387995
#
# number of rings (size 3 to 8) (size 9 to 14) (size 15 to 20)
#    0.000    0.750    6.250    1.875    1.750    3.500 
#    2.250    2.500    0.000    0.000    0.000    0.000 
#    0.000    0.000    0.000    0.000    0.000    0.000 
#
# Total GULP energy -396581.293917 kJ/mol
# GULP energy per Si atom -12393.165435 kJ/mol
# Density = 2.133932 g / cm^3
# Si number density = 21.387995 Si / 1000 Ang^3
#
#
#
# Elastic Constant Matrix: (Units=GPa)
#
#
# Indices 1 2 3 4 5 6 
#
# 1 78.5094 27.5046 47.2800 0.0000 20.1939 0.0000
# 2 27.5046 97.2190 23.7938 0.0000 2.4175 0.0000
# 3 47.2800 23.7938 111.1278 0.0000 6.8510 0.0000
# 4 0.0000 0.0000 0.0000 32.4584 0.0000 -0.3814
# 5 20.1939 2.4175 6.8510 0.0000 43.5865 0.0000
# 6 0.0000 0.0000 0.0000 -0.3814 0.0000 29.9000
#
#
#
# Elastic Compliance Matrix: (Units=1/GPa)
#
#
# Indices 1 2 3 4 5 6 
#
# 1 0.020687 -0.003819 -0.007479 0.000000 -0.008197 0.000000
# 2 -0.003819 0.011562 -0.000930 0.000000 0.001274 0.000000
# 3 -0.007479 -0.000930 0.012282 0.000000 0.001586 0.000000
# 4 0.000000 0.000000 0.000000 0.030813 0.000000 0.000393
# 5 -0.008197 0.001274 0.001586 0.000000 0.026421 0.000000
# 6 0.000000 0.000000 0.000000 0.000393 0.000000 0.033450
#
#
# Mechanical properties :
#
#
# Convention : Reuss Voigt Hill
#
# Bulk Modulus (GPa) = 49.80598 53.77921 51.79260
# Shear Modulus (GPa) = 30.05510 33.74083 31.89797
#
# Velocity S-wave (km/s) = 3.75271 3.97616 3.86605
# Velocity P-wave (km/s) = 6.48957 6.80286 6.64806
#
# Compressibility (1/GPa) = 0.02007791
#
# Stress axis : x y z
#
# Youngs Moduli (GPa) = 48.33873 86.48883 81.42190
#
# Poissons Ratio (x) = 0.33026 0.60892
# Poissons Ratio (y) = 0.18458 0.07568
# Poissons Ratio (z) = 0.36151 0.08039
#
# Static dielectric constant tensor:
#      x y z
#    x 3.679530 0.000000 0.161100 
#    y 0.000000 3.845280 0.000000 
#    z 0.161100 0.000000 4.078710 
# 
# 
# High freq. dielectric constant tensor:
#      x y z
#    x 1.815770 0.000000 0.019020 
#    y 0.000000 1.844650 0.000000 
#    z 0.019020 0.000000 1.852350 
# 
# From -- ./inp_files/45130.got.cif
#   From: 2010.03.12/outbox.cif.g09.slc.cpg/sg14_23_cif.got.tgz:45130.got - 2010.03.31 13:35:05.
