data_PCOD8128693
_publ_section_title
;
Structure prediction by ZEFSAII (Michael W. Deem and Ramdas Pophale) SiO2 
 PCOD8128693
Probable space group: P 21/C
;
_chemical_formula_sum "Si O2"
_cell_formula_units_Z 32
_cell_length_a 20.689348
_cell_length_b 8.638473
_cell_length_c 20.698550
_cell_angle_alpha 90.000000
_cell_angle_beta 22.660703
_cell_angle_gamma 90.000000
_cell_volume 1425.254851
_symmetry_space_group_name_H-M "P 21/C"
_symmetry_group_IT_number 14
_symmetry_cell_setting 'monoclinic'
loop_
_space_group_symop_operation_xyz
x,y,z
-x,1/2+y,1/2-z
-x,-y,-z
x,1/2-y,1/2+z
loop_
_atom_site_type_symbol
_atom_site_label
_atom_site_fract_x
_atom_site_fract_y
_atom_site_fract_z
Si Si1 0.722639 0.978890 0.912670
Si Si2 0.746078 0.979386 0.502200
Si Si3 0.453676 0.012493 0.687468
Si Si4 0.927489 0.337226 0.940122
Si Si5 0.679278 0.202473 0.393174
Si Si6 0.223729 0.354177 0.494868
Si Si7 0.611000 0.312365 0.313233
Si Si8 0.939106 0.512557 0.703105
O O1 0.886433 0.911226 0.723425
O O2 0.730848 0.164054 0.896558
O O3 0.715924 0.933269 0.994250
O O4 0.546170 0.928816 0.043124
O O5 0.566652 0.047458 0.647627
O O6 0.728979 0.824355 0.559890
O O7 0.814699 0.911639 0.370505
O O8 0.854965 0.110088 0.437596
O O9 0.446149 0.833688 0.675918
O O10 0.512783 0.115149 0.572172
O O11 0.276940 0.064246 0.878372
O O12 0.946929 0.151564 0.929220
O O13 0.784923 0.386161 0.124254
O O14 0.645687 0.270497 0.354616
O O15 0.830903 0.076429 0.248287
O O16 0.026802 0.383464 0.667847
#
# Coordination Sequence:
#
# PCOD8128693 Si02
#       8
#     4   4   4   4   4   4   4   4
#     4  12  25  46  73 105 142 183 235 301 352 420
#     4  11  22  40  65 102 140 174 222 294 363 422
#     4  11  25  41  69  99 134 186 230 288 356 420
#     4  12  25  43  75 104 142 183 233 293 356 419
#     4  11  28  47  70  98 145 194 239 285 348 417
#     4  12  23  39  68 102 140 169 229 296 366 415
#     4  12  26  51  68 102 144 195 243 284 339 429
#     4  11  22  43  67 103 135 182 229 289 360 417
#
# _framework density 22.452124999999999
#
# number of rings (size 3 to 8) (size 9 to 14) (size 15 to 20)
#    0.000    0.500    5.000    3.000    7.000    1.000 
#    2.250    0.000    0.000    0.000    0.000    0.000 
#    0.000    0.000    0.000    0.000    0.000    0.000 
#
# Total GULP energy -396525.545237 kJ/mol
# GULP energy per Si atom -12391.423289 kJ/mol
# Density = 2.240102 g / cm^3
# Si number density = 22.452125 Si / 1000 Ang^3
#
#
#
# Elastic Constant Matrix: (Units=GPa)
#
#
# Indices 1 2 3 4 5 6 
#
# 1 70.2484 8.9099 22.3453 0.0000 -8.1629 0.0000
# 2 8.9099 77.2454 24.8465 0.0000 -3.2151 0.0000
# 3 22.3453 24.8465 101.3420 0.0000 4.1880 0.0000
# 4 0.0000 0.0000 0.0000 27.6349 0.0000 -3.1201
# 5 -8.1629 -3.2151 4.1880 0.0000 19.8295 0.0000
# 6 0.0000 0.0000 0.0000 -3.1201 0.0000 25.4913
#
#
#
# Elastic Compliance Matrix: (Units=1/GPa)
#
#
# Indices 1 2 3 4 5 6 
#
# 1 0.016369 -0.000343 -0.003835 0.000000 0.007493 0.000000
# 2 -0.000343 0.014244 -0.003537 0.000000 0.002916 0.000000
# 3 -0.003835 -0.003537 0.011772 0.000000 -0.004638 0.000000
# 4 0.000000 0.000000 0.000000 0.036693 0.000000 0.004491
# 5 0.007493 0.002916 -0.004638 0.000000 0.054967 0.000000
# 6 0.000000 0.000000 0.000000 0.004491 0.000000 0.039779
#
#
# Mechanical properties :
#
#
# Convention : Reuss Voigt Hill
#
# Bulk Modulus (GPa) = 37.09769 40.11545 38.60657
# Shear Modulus (GPa) = 25.22202 27.44009 26.33105
#
# Velocity S-wave (km/s) = 3.35531 3.49973 3.42828
# Velocity P-wave (km/s) = 5.61869 5.85122 5.73613
#
# Compressibility (1/GPa) = 0.02695586
#
# Stress axis : x y z
#
# Youngs Moduli (GPa) = 61.09036 70.20289 84.94665
#
# Poissons Ratio (x) = 0.02406 0.32576
# Poissons Ratio (y) = 0.02094 0.30048
# Poissons Ratio (z) = 0.23428 0.24833
#
# Static dielectric constant tensor:
#      x y z
#    x 3.645960 0.000000 -0.112280 
#    y 0.000000 4.040760 0.000000 
#    z -0.112280 0.000000 4.470500 
# 
# 
# High freq. dielectric constant tensor:
#      x y z
#    x 1.861100 0.000000 -0.010300 
#    y 0.000000 1.887360 0.000000 
#    z -0.010300 0.000000 1.902400 
# 
# From -- ./inp_files/74903.got.cif
#   From: 2010.03.12/outbox.cif.g09.slc.cpg/sg14_38_cif.got.tgz:74903.got - 2010.03.31 13:35:05.
