data_PCOD8128861
_publ_section_title
;
Structure prediction by ZEFSAII (Michael W. Deem and Ramdas Pophale) SiO2 
 PCOD8128861
Probable space group: P 21/C
;
_chemical_formula_sum "Si O2"
_cell_formula_units_Z 20
_cell_length_a 8.949893
_cell_length_b 8.292643
_cell_length_c 11.717804
_cell_angle_alpha 90.000000
_cell_angle_beta 81.021954
_cell_angle_gamma 90.000000
_cell_volume 859.020035
_symmetry_space_group_name_H-M "P 21/C"
_symmetry_group_IT_number 14
_symmetry_cell_setting 'monoclinic'
loop_
_space_group_symop_operation_xyz
x,y,z
-x,1/2+y,1/2-z
-x,-y,-z
x,1/2-y,1/2+z
loop_
_atom_site_type_symbol
_atom_site_label
_atom_site_fract_x
_atom_site_fract_y
_atom_site_fract_z
Si Si1 0.330606 0.002561 0.472743
Si Si2 0.321335 0.226180 0.794893
Si Si3 0.556977 0.494830 0.365597
Si Si4 0.194748 0.834109 0.285271
Si Si5 0.891207 0.502179 0.789865
O O1 0.297050 0.857598 0.387015
O O2 0.500000 0.000000 0.500000
O O3 0.306292 0.173388 0.412672
O O4 0.212097 0.985535 0.587461
O O5 0.394355 0.329352 0.683619
O O6 0.423345 0.067555 0.799989
O O7 0.157798 0.158691 0.777717
O O8 0.500000 0.500000 0.500000
O O9 0.698803 0.371139 0.337236
O O10 0.124623 0.656867 0.286563
O O11 0.064517 0.971149 0.304999
#
# Coordination Sequence:
#
# PCOD8128861 Si02
#       5
#     4   4   4   4   4
#     4  11  24  45  71  99 133 175 220 276 335 393
#     4  11  24  41  66  99 129 172 224 271 327 397
#     4  11  23  42  65  96 131 170 219 270 324 388
#     4  11  25  44  68  99 134 179 224 272 333 397
#     4  12  25  46  68  97 140 176 220 279 332 395
#
# _framework density 23.282342
#
# number of rings (size 3 to 8) (size 9 to 14) (size 15 to 20)
#    0.000    0.800    0.000    9.000    0.000    6.400 
#    0.000    3.000    0.000    0.000    0.000    0.000 
#    0.000    0.000    0.000    0.000    0.000    0.000 
#
# Total GULP energy -248062.108125 kJ/mol
# GULP energy per Si atom -12403.105406 kJ/mol
# Density = 2.322935 g / cm^3
# Si number density = 23.282342 Si / 1000 Ang^3
#
#
#
# Elastic Constant Matrix: (Units=GPa)
#
#
# Indices 1 2 3 4 5 6 
#
# 1 103.9002 11.8208 47.0063 0.0000 14.7882 0.0000
# 2 11.8208 98.9745 34.0244 0.0000 26.1471 0.0000
# 3 47.0063 34.0244 121.6338 0.0000 7.7664 0.0000
# 4 0.0000 0.0000 0.0000 32.9761 0.0000 6.3993
# 5 14.7882 26.1471 7.7664 0.0000 36.1845 0.0000
# 6 0.0000 0.0000 0.0000 6.3993 0.0000 47.3068
#
#
#
# Elastic Compliance Matrix: (Units=1/GPa)
#
#
# Indices 1 2 3 4 5 6 
#
# 1 0.012395 0.001562 -0.004899 0.000000 -0.005143 0.000000
# 2 0.001562 0.013830 -0.003846 0.000000 -0.009807 0.000000
# 3 -0.004899 -0.003846 0.011036 0.000000 0.002413 0.000000
# 4 0.000000 0.000000 0.000000 0.031142 0.000000 -0.004213
# 5 -0.005143 -0.009807 0.002413 0.000000 0.036307 0.000000
# 6 0.000000 0.000000 0.000000 -0.004213 0.000000 0.021708
#
#
# Mechanical properties :
#
#
# Convention : Reuss Voigt Hill
#
# Bulk Modulus (GPa) = 43.67523 56.69015 50.18269
# Shear Modulus (GPa) = 33.68886 38.73726 36.21306
#
# Velocity S-wave (km/s) = 3.80803 4.08340 3.94812
# Velocity P-wave (km/s) = 6.17531 6.82891 6.51032
#
# Compressibility (1/GPa) = 0.02289627
#
# Stress axis : x y z
#
# Youngs Moduli (GPa) = 80.67590 72.30671 90.60857
#
# Poissons Ratio (x) = -0.11298 0.44388
# Poissons Ratio (y) = -0.12605 0.34851
# Poissons Ratio (z) = 0.39522 0.27811
#
# Static dielectric constant tensor:
#      x y z
#    x 4.448710 0.000000 0.112730 
#    y 0.000000 4.282080 0.000000 
#    z 0.112730 0.000000 4.103610 
# 
# 
# High freq. dielectric constant tensor:
#      x y z
#    x 1.934750 0.000000 0.002490 
#    y 0.000000 1.931190 0.000000 
#    z 0.002490 0.000000 1.913850 
# 
# From -- ./inp_files/22979.got.cif
#   From: 2010.03.12/outbox.cif.g09.slc.cpg/sg14_12_cif.got.tgz:22979.got - 2010.03.31 13:35:05.
