data_PCOD8128202
_publ_section_title
;
Structure prediction by ZEFSAII (Michael W. Deem and Ramdas Pophale) SiO2 
 PCOD8128202
Probable space group: P 21/C
;
_chemical_formula_sum "Si O2"
_cell_formula_units_Z 20
_cell_length_a 9.600250
_cell_length_b 9.988420
_cell_length_c 8.981098
_cell_angle_alpha 90.000000
_cell_angle_beta 75.672992
_cell_angle_gamma 90.000000
_cell_volume 834.425117
_symmetry_space_group_name_H-M "P 21/C"
_symmetry_group_IT_number 14
_symmetry_cell_setting 'monoclinic'
loop_
_space_group_symop_operation_xyz
x,y,z
-x,1/2+y,1/2-z
-x,-y,-z
x,1/2-y,1/2+z
loop_
_atom_site_type_symbol
_atom_site_label
_atom_site_fract_x
_atom_site_fract_y
_atom_site_fract_z
Si Si1 0.389165 0.662358 0.521269
Si Si2 0.487098 0.507178 0.753253
Si Si3 0.044192 0.119693 0.671850
Si Si4 0.892934 0.175627 0.411488
Si Si5 0.640320 0.659368 0.957625
O O1 0.368495 0.560028 0.664129
O O2 0.398904 0.593869 0.356151
O O3 0.275805 0.784297 0.549945
O O4 0.549960 0.710196 0.521193
O O5 0.587556 0.615302 0.807440
O O6 0.384036 0.447900 0.906626
O O7 0.192040 0.193688 0.591495
O O8 0.930458 0.143199 0.571080
O O9 0.981175 0.194122 0.833372
O O10 0.075159 0.960246 0.692503
#
# Coordination Sequence:
#
# PCOD8128202 Si02
#       5
#     4   4   4   4   4
#     4  11  25  44  74 103 141 185 242 294 356 423
#     4  10  24  42  74 103 138 187 244 290 354 420
#     4  11  29  47  72 104 145 190 237 297 362 428
#     4  11  28  49  72 104 146 190 238 295 361 431
#     4  11  24  43  71  99 139 180 241 293 350 418
#
# _framework density 23.968596999999999
#
# number of rings (size 3 to 8) (size 9 to 14) (size 15 to 20)
#    0.000    1.200    0.000    3.600   19.600    2.400 
#    0.000    0.000    0.000    0.000    0.000    0.000 
#    0.000    0.000    0.000    0.000    0.000    0.000 
#
# Total GULP energy -247928.903979 kJ/mol
# GULP energy per Si atom -12396.445199 kJ/mol
# Density = 2.391404 g / cm^3
# Si number density = 23.968597 Si / 1000 Ang^3
#
#
#
# Elastic Constant Matrix: (Units=GPa)
#
#
# Indices 1 2 3 4 5 6 
#
# 1 96.7788 24.3151 21.7321 0.0000 -4.7552 0.0000
# 2 24.3151 101.9875 28.4905 0.0000 -2.0855 0.0000
# 3 21.7321 28.4905 96.2786 0.0000 7.8295 0.0000
# 4 0.0000 0.0000 0.0000 25.5177 0.0000 -5.4614
# 5 -4.7552 -2.0855 7.8295 0.0000 28.3280 0.0000
# 6 0.0000 0.0000 0.0000 -5.4614 0.0000 44.5985
#
#
#
# Elastic Compliance Matrix: (Units=1/GPa)
#
#
# Indices 1 2 3 4 5 6 
#
# 1 0.011457 -0.002079 -0.002164 0.000000 0.002368 0.000000
# 2 -0.002079 0.011146 -0.002933 0.000000 0.001282 0.000000
# 3 -0.002164 -0.002933 0.012061 0.000000 -0.003913 0.000000
# 4 0.000000 0.000000 0.000000 0.040243 0.000000 0.004928
# 5 0.002368 0.001282 -0.003913 0.000000 0.036874 0.000000
# 6 0.000000 0.000000 0.000000 0.004928 0.000000 0.023026
#
#
# Mechanical properties :
#
#
# Convention : Reuss Voigt Hill
#
# Bulk Modulus (GPa) = 49.22904 49.34672 49.28788
# Shear Modulus (GPa) = 32.06554 34.38932 33.22743
#
# Velocity S-wave (km/s) = 3.66158 3.79194 3.72733
# Velocity P-wave (km/s) = 6.20160 6.30908 6.25557
#
# Compressibility (1/GPa) = 0.02031321
#
# Stress axis : x y z
#
# Youngs Moduli (GPa) = 87.28041 89.71491 82.91088
#
# Poissons Ratio (x) = 0.18649 0.17939
# Poissons Ratio (y) = 0.18143 0.24322
# Poissons Ratio (z) = 0.18884 0.26318
#
# Static dielectric constant tensor:
#      x y z
#    x 4.189260 0.000000 0.030710 
#    y 0.000000 4.489170 0.000000 
#    z 0.030710 0.000000 4.305730 
# 
# 
# High freq. dielectric constant tensor:
#      x y z
#    x 1.942040 0.000000 0.003060 
#    y 0.000000 1.953120 0.000000 
#    z 0.003060 0.000000 1.955940 
# 
# From -- ./inp_files/7844.got.cif
#   From: 2010.03.12/outbox.cif.g09.slc.cpg/sg14_4_cif.got.tgz:7844.got - 2010.03.31 13:35:05.
