data_PCOD8128811
_publ_section_title
;
Structure prediction by ZEFSAII (Michael W. Deem and Ramdas Pophale) SiO2 
 PCOD8128811
Probable space group: P 21/C
;
_chemical_formula_sum "Si O2"
_cell_formula_units_Z 24
_cell_length_a 10.912980
_cell_length_b 21.634847
_cell_length_c 13.370739
_cell_angle_alpha 90.000000
_cell_angle_beta 20.180291
_cell_angle_gamma 90.000000
_cell_volume 1089.032052
_symmetry_space_group_name_H-M "P 21/C"
_symmetry_group_IT_number 14
_symmetry_cell_setting 'monoclinic'
loop_
_space_group_symop_operation_xyz
x,y,z
-x,1/2+y,1/2-z
-x,-y,-z
x,1/2-y,1/2+z
loop_
_atom_site_type_symbol
_atom_site_label
_atom_site_fract_x
_atom_site_fract_y
_atom_site_fract_z
Si Si1 0.085362 0.735340 0.046759
Si Si2 0.966194 0.853245 0.241114
Si Si3 0.085364 0.235341 0.546760
Si Si4 0.033809 0.853246 0.758880
Si Si5 0.649268 0.930412 0.203013
Si Si6 0.350736 0.930412 0.796981
O O1 0.936301 0.678819 0.227942
O O2 0.867259 0.797727 0.240214
O O3 1.000000 0.716104 0.999999
O O4 0.499999 0.750001 0.750000
O O5 0.063707 0.821180 0.272048
O O6 0.643765 0.900089 0.501771
O O7 0.296693 0.891936 0.941407
O O8 0.867268 0.297728 0.740208
O O9 0.356241 0.900089 0.498223
O O10 0.703310 0.891938 0.058587
O O11 0.533809 0.000000 0.263697
O O12 0.000005 0.929865 0.999994
#
# Coordination Sequence:
#
# PCOD8128811 Si02
#       6
#     4   4   4   4   4   4
#     4  11  25  42  67 101 132 176 216 271 333 396
#     4  11  23  40  64  94 134 169 214 275 329 389
#     4  11  25  42  67 101 132 176 216 271 333 396
#     4  11  23  40  64  94 134 169 214 275 329 389
#     4  11  23  39  64  97 133 174 223 275 327 382
#     4  11  23  39  64  97 133 174 223 275 327 382
#
# _framework density 22.037918000000001
#
# number of rings (size 3 to 8) (size 9 to 14) (size 15 to 20)
#    0.000    1.000    3.333    3.000    4.667    6.667 
#    0.000    0.000    0.000    6.000    0.000    0.000 
#    0.000    0.000    0.000    0.000    0.000    0.000 
#
# Total GULP energy -297545.894410 kJ/mol
# GULP energy per Si atom -12397.745600 kJ/mol
# Density = 2.198776 g / cm^3
# Si number density = 22.037918 Si / 1000 Ang^3
#
#
#
# Elastic Constant Matrix: (Units=GPa)
#
#
# Indices 1 2 3 4 5 6 
#
# 1 120.0934 39.5539 24.1672 0.0000 26.5463 0.0000
# 2 39.5539 164.8997 34.4857 0.0000 21.5684 0.0000
# 3 24.1672 34.4857 88.1107 0.0000 22.6471 0.0000
# 4 0.0000 0.0000 0.0000 41.5689 0.0000 13.5917
# 5 26.5463 21.5684 22.6471 0.0000 35.8008 0.0000
# 6 0.0000 0.0000 0.0000 13.5917 0.0000 16.7339
#
#
#
# Elastic Compliance Matrix: (Units=1/GPa)
#
#
# Indices 1 2 3 4 5 6 
#
# 1 0.010361 -0.001524 -0.000605 0.000000 -0.006382 0.000000
# 2 -0.001524 0.007073 -0.001845 0.000000 -0.001963 0.000000
# 3 -0.000605 -0.001845 0.014135 0.000000 -0.007381 0.000000
# 4 0.000000 0.000000 0.000000 0.032755 0.000000 -0.026605
# 5 -0.006382 -0.001963 -0.007381 0.000000 0.038517 0.000000
# 6 0.000000 0.000000 0.000000 -0.026605 0.000000 0.081368
#
#
# Mechanical properties :
#
#
# Convention : Reuss Voigt Hill
#
# Bulk Modulus (GPa) = 42.33793 63.27973 52.80883
# Shear Modulus (GPa) = 24.99614 37.14717 31.07165
#
# Velocity S-wave (km/s) = 3.37149 4.11006 3.75896
# Velocity P-wave (km/s) = 5.86592 7.16239 6.54633
#
# Compressibility (1/GPa) = 0.02361948
#
# Stress axis : x y z
#
# Youngs Moduli (GPa) = 96.51311 141.39040 70.74758
#
# Poissons Ratio (x) = 0.21548 0.04281
# Poissons Ratio (y) = 0.14709 0.13056
# Poissons Ratio (z) = 0.05840 0.26093
#
# Static dielectric constant tensor:
#      x y z
#    x 3.707360 0.000000 0.521980 
#    y 0.000000 4.445740 0.000000 
#    z 0.521980 0.000000 4.231180 
# 
# 
# High freq. dielectric constant tensor:
#      x y z
#    x 1.836580 0.000000 0.044890 
#    y 0.000000 1.877350 0.000000 
#    z 0.044890 0.000000 1.874050 
# 
# From -- ./inp_files/45544.got.cif
#   From: 2010.03.12/outbox.cif.g09.slc.cpg/sg14_23_cif.got.tgz:45544.got - 2010.03.31 13:35:05.
