data_PCOD8128589
_publ_section_title
;
Structure prediction by ZEFSAII (Michael W. Deem and Ramdas Pophale) SiO2 
 PCOD8128589
Probable space group: P 21/C
;
_chemical_formula_sum "Si O2"
_cell_formula_units_Z 32
_cell_length_a 8.996389
_cell_length_b 17.026057
_cell_length_c 20.507168
_cell_angle_alpha 90.000000
_cell_angle_beta 151.402577
_cell_angle_gamma 90.000000
_cell_volume 1503.516541
_symmetry_space_group_name_H-M "P 21/C"
_symmetry_group_IT_number 14
_symmetry_cell_setting 'monoclinic'
loop_
_space_group_symop_operation_xyz
x,y,z
-x,1/2+y,1/2-z
-x,-y,-z
x,1/2-y,1/2+z
loop_
_atom_site_type_symbol
_atom_site_label
_atom_site_fract_x
_atom_site_fract_y
_atom_site_fract_z
Si Si1 0.059201 0.293551 0.626053
Si Si2 0.638160 0.079025 0.799173
Si Si3 0.142501 0.178747 0.544034
Si Si4 0.494417 0.591017 0.601640
Si Si5 0.576386 0.089383 0.281286
Si Si6 0.978375 0.707796 0.757359
Si Si7 0.647635 0.742243 0.503195
Si Si8 0.635198 0.581021 0.441981
O O1 0.992445 0.228468 0.544982
O O2 0.358066 0.341311 0.720585
O O3 0.143645 0.254123 0.726914
O O4 0.759790 0.347625 0.522146
O O5 0.481401 0.144639 0.693037
O O6 0.508141 0.089796 0.821353
O O7 0.546685 0.992928 0.737718
O O8 0.006680 0.088411 0.941919
O O9 0.171237 0.234428 0.492386
O O10 0.919286 0.105778 0.440917
O O11 0.829796 0.620303 0.704433
O O12 0.427937 0.503432 0.548715
O O13 0.581998 0.088907 0.205001
O O14 0.870054 0.753425 0.650707
O O15 0.350154 0.702135 0.899481
O O16 0.549722 0.650104 0.459585
#
# Coordination Sequence:
#
# PCOD8128589 Si02
#       8
#     4   4   4   4   4   4   4   4
#     4  12  22  42  68 100 125 172 224 271 323 390
#     4  11  21  41  69 102 132 163 221 280 332 380
#     4  12  25  39  69  98 134 174 216 275 332 383
#     4  11  21  42  68  97 128 172 220 269 327 388
#     4  11  22  39  68 103 131 163 219 282 330 381
#     4  12  26  43  63  94 136 173 214 269 321 392
#     4  12  26  43  64  97 134 174 218 267 329 386
#     4  11  22  42  70  95 132 170 221 274 324 393
#
# _framework density 21.283436999999999
#
# number of rings (size 3 to 8) (size 9 to 14) (size 15 to 20)
#    0.000    0.500    6.250    3.375    1.750    0.500 
#    0.000    0.000    0.000    4.500    0.000    0.000 
#    0.000    0.000    0.000    0.000    0.000    0.000 
#
# Total GULP energy -396964.002563 kJ/mol
# GULP energy per Si atom -12405.125080 kJ/mol
# Density = 2.123500 g / cm^3
# Si number density = 21.283437 Si / 1000 Ang^3
#
#
#
# Elastic Constant Matrix: (Units=GPa)
#
#
# Indices 1 2 3 4 5 6 
#
# 1 70.7586 22.8525 19.8279 0.0000 -17.3142 0.0000
# 2 22.8525 95.6178 20.9216 0.0000 -6.7533 0.0000
# 3 19.8279 20.9216 77.6117 0.0000 -9.6144 0.0000
# 4 0.0000 0.0000 0.0000 37.5912 0.0000 4.9108
# 5 -17.3142 -6.7533 -9.6144 0.0000 36.4605 0.0000
# 6 0.0000 0.0000 0.0000 4.9108 0.0000 31.8336
#
#
#
# Elastic Compliance Matrix: (Units=1/GPa)
#
#
# Indices 1 2 3 4 5 6 
#
# 1 0.017649 -0.003107 -0.002796 0.000000 0.007068 0.000000
# 2 -0.003107 0.011722 -0.002357 0.000000 0.000074 0.000000
# 3 -0.002796 -0.002357 0.014489 0.000000 0.002057 0.000000
# 4 0.000000 0.000000 0.000000 0.027149 0.000000 -0.004188
# 5 0.007068 0.000074 0.002057 0.000000 0.031340 0.000000
# 6 0.000000 0.000000 0.000000 -0.004188 0.000000 0.032059
#
#
# Mechanical properties :
#
#
# Convention : Reuss Voigt Hill
#
# Bulk Modulus (GPa) = 36.57580 41.24356 38.90968
# Shear Modulus (GPa) = 31.24204 33.20280 32.22242
#
# Velocity S-wave (km/s) = 3.83548 3.95401 3.89519
# Velocity P-wave (km/s) = 6.06934 6.34554 6.20898
#
# Compressibility (1/GPa) = 0.02734048
#
# Stress axis : x y z
#
# Youngs Moduli (GPa) = 56.66028 85.31094 69.01799
#
# Poissons Ratio (x) = 0.26507 0.19295
# Poissons Ratio (y) = 0.17605 0.16266
# Poissons Ratio (z) = 0.15841 0.20106
#
# Static dielectric constant tensor:
#      x y z
#    x 3.690430 0.000000 -0.122800 
#    y 0.000000 4.089860 0.000000 
#    z -0.122800 0.000000 3.844460 
# 
# 
# High freq. dielectric constant tensor:
#      x y z
#    x 1.826400 0.000000 -0.008320 
#    y 0.000000 1.837940 0.000000 
#    z -0.008320 0.000000 1.837240 
# 
# From -- ./inp_files/66043.got.cif
#   From: 2010.03.12/outbox.cif.g09.slc.cpg/sg14_34_cif.got.tgz:66043.got - 2010.03.31 13:35:05.
