data_PCOD8128737
_publ_section_title
;
Structure prediction by ZEFSAII (Michael W. Deem and Ramdas Pophale) SiO2 
 PCOD8128737
Probable space group: P 21/C
;
_chemical_formula_sum "Si O2"
_cell_formula_units_Z 28
_cell_length_a 26.368473
_cell_length_b 8.673984
_cell_length_c 11.333399
_cell_angle_alpha 90.000000
_cell_angle_beta 148.793413
_cell_angle_gamma 90.000000
_cell_volume 1343.069885
_symmetry_space_group_name_H-M "P 21/C"
_symmetry_group_IT_number 14
_symmetry_cell_setting 'monoclinic'
loop_
_space_group_symop_operation_xyz
x,y,z
-x,1/2+y,1/2-z
-x,-y,-z
x,1/2-y,1/2+z
loop_
_atom_site_type_symbol
_atom_site_label
_atom_site_fract_x
_atom_site_fract_y
_atom_site_fract_z
Si Si1 0.397675 0.018805 0.944449
Si Si2 0.620508 0.475587 0.860372
Si Si3 0.270482 0.810162 0.855291
Si Si4 0.099362 0.263350 0.514685
Si Si5 0.903057 0.405142 0.576819
Si Si6 0.815830 0.548678 0.630122
Si Si7 0.290367 0.306838 0.778260
O O1 0.368908 0.033615 0.750986
O O2 0.330034 0.890830 0.868955
O O3 0.378182 0.186716 0.960434
O O4 0.511865 0.988143 0.191903
O O5 0.649313 0.295594 0.918839
O O6 0.695600 0.564679 0.093660
O O7 0.184553 0.708344 0.630165
O O8 0.223459 0.930927 0.851118
O O9 0.089110 0.450199 0.498404
O O10 0.123821 0.189464 0.690737
O O11 0.188006 0.220539 0.602363
O O12 0.002327 0.190402 0.266761
O O13 0.887502 0.466128 0.679321
O O14 0.720137 0.614071 0.371062
#
# Coordination Sequence:
#
# PCOD8128737 Si02
#       7
#     4   4   4   4   4   4   4
#     4  11  25  42  71  92 131 174 218 277 329 390
#     4  11  24  45  64 101 128 168 226 272 329 395
#     4  12  23  45  67 100 132 176 215 277 331 391
#     4  11  22  43  66  95 135 174 217 267 323 389
#     4  11  25  43  67 100 136 174 225 269 324 396
#     4  11  23  43  68  96 139 173 215 271 330 394
#     4  11  23  45  66  98 133 173 216 273 328 395
#
# _framework density 20.847761999999999
#
# number of rings (size 3 to 8) (size 9 to 14) (size 15 to 20)
#    0.000    0.857    4.286    3.857    0.000    1.143 
#    0.000    5.000    0.000    0.000    0.000    0.000 
#    0.000    0.000    0.000    0.000    0.000    0.000 
#
# Total GULP energy -347191.251097 kJ/mol
# GULP energy per Si atom -12399.687539 kJ/mol
# Density = 2.080031 g / cm^3
# Si number density = 20.847762 Si / 1000 Ang^3
#
#
#
# Elastic Constant Matrix: (Units=GPa)
#
#
# Indices 1 2 3 4 5 6 
#
# 1 95.5972 48.1722 45.8339 0.0000 10.9772 0.0000
# 2 48.1722 112.0744 53.5573 0.0000 9.8994 0.0000
# 3 45.8339 53.5573 110.6260 0.0000 2.8436 0.0000
# 4 0.0000 0.0000 0.0000 37.9703 0.0000 -1.7902
# 5 10.9772 9.8994 2.8436 0.0000 27.5895 0.0000
# 6 0.0000 0.0000 0.0000 -1.7902 0.0000 36.6941
#
#
#
# Elastic Compliance Matrix: (Units=1/GPa)
#
#
# Indices 1 2 3 4 5 6 
#
# 1 0.014967 -0.004113 -0.004106 0.000000 -0.004056 0.000000
# 2 -0.004113 0.013105 -0.004574 0.000000 -0.002594 0.000000
# 3 -0.004106 -0.004574 0.012905 0.000000 0.001945 0.000000
# 4 0.000000 0.000000 0.000000 0.026397 0.000000 0.001288
# 5 -0.004056 -0.002594 0.001945 0.000000 0.038590 0.000000
# 6 0.000000 0.000000 0.000000 0.001288 0.000000 0.027315
#
#
# Mechanical properties :
#
#
# Convention : Reuss Voigt Hill
#
# Bulk Modulus (GPa) = 64.96725 68.15825 66.56275
# Shear Modulus (GPa) = 30.48851 31.83306 31.16079
#
# Velocity S-wave (km/s) = 3.82833 3.91183 3.87031
# Velocity P-wave (km/s) = 7.12543 7.29161 7.20900
#
# Compressibility (1/GPa) = 0.01539237
#
# Stress axis : x y z
#
# Youngs Moduli (GPa) = 66.81199 76.30413 77.48996
#
# Poissons Ratio (x) = 0.31384 0.31815
# Poissons Ratio (y) = 0.27480 0.35443
# Poissons Ratio (z) = 0.27431 0.34901
#
# Static dielectric constant tensor:
#      x y z
#    x 3.713910 0.000000 0.026310 
#    y 0.000000 3.972190 0.000000 
#    z 0.026310 0.000000 3.791100 
# 
# 
# High freq. dielectric constant tensor:
#      x y z
#    x 1.812760 0.000000 0.004160 
#    y 0.000000 1.828480 0.000000 
#    z 0.004160 0.000000 1.824360 
# 
# From -- ./inp_files/36194.got.cif
#   From: 2010.03.12/outbox.cif.g09.slc.cpg/sg14_19_cif.got.tgz:36194.got - 2010.03.31 13:35:05.
