data_PCOD8128701
_publ_section_title
;
Structure prediction by ZEFSAII (Michael W. Deem and Ramdas Pophale) SiO2 
 PCOD8128701
Probable space group: P 21/C
;
_chemical_formula_sum "Si O2"
_cell_formula_units_Z 28
_cell_length_a 16.422071
_cell_length_b 11.553850
_cell_length_c 19.164112
_cell_angle_alpha 90.000000
_cell_angle_beta 159.517642
_cell_angle_gamma 90.000000
_cell_volume 1272.362372
_symmetry_space_group_name_H-M "P 21/C"
_symmetry_group_IT_number 14
_symmetry_cell_setting 'monoclinic'
loop_
_space_group_symop_operation_xyz
x,y,z
-x,1/2+y,1/2-z
-x,-y,-z
x,1/2-y,1/2+z
loop_
_atom_site_type_symbol
_atom_site_label
_atom_site_fract_x
_atom_site_fract_y
_atom_site_fract_z
Si Si1 0.871666 0.596312 0.202641
Si Si2 0.290473 0.978873 0.560891
Si Si3 0.702727 0.913712 0.798351
Si Si4 0.506945 0.779765 0.053021
Si Si5 0.183820 0.140935 0.810010
Si Si6 0.354309 0.949240 0.045727
Si Si7 0.789258 0.084510 0.749503
O O1 0.792221 0.723976 0.155607
O O2 0.731981 0.507216 0.141144
O O3 0.150253 0.583118 0.436705
O O4 0.815096 0.573540 0.076174
O O5 0.487455 0.905875 0.678801
O O6 0.082610 0.894911 0.419243
O O7 0.401703 0.041707 0.717356
O O8 0.689790 0.807818 0.734372
O O9 0.706852 0.034877 0.758415
O O10 0.934933 0.896684 0.029185
O O11 0.654149 0.875561 0.128053
O O12 0.361368 0.849010 0.993676
O O13 0.329304 0.707293 0.861715
O O14 0.292501 0.072102 0.961684
#
# Coordination Sequence:
#
# PCOD8128701 Si02
#       7
#     4   4   4   4   4   4   4
#     4  11  22  44  68  97 132 171 222 282 337 394
#     4  11  24  43  65  97 135 175 223 273 336 400
#     4  11  22  40  70 103 131 168 226 285 334 389
#     4  12  24  44  69  98 137 181 222 275 337 398
#     4  11  26  44  68  95 137 181 224 274 334 402
#     4  11  27  43  65  98 137 180 225 269 336 411
#     4  11  23  41  72 104 131 168 226 287 335 387
#
# _framework density 22.006309000000002
#
# number of rings (size 3 to 8) (size 9 to 14) (size 15 to 20)
#    0.000    0.857    4.286    2.571    2.000    6.286 
#    0.000    0.000    0.000    0.000    0.000    0.000 
#    0.000    0.000    0.000    0.000    0.000    0.000 
#
# Total GULP energy -347329.282513 kJ/mol
# GULP energy per Si atom -12404.617233 kJ/mol
# Density = 2.195622 g / cm^3
# Si number density = 22.006309 Si / 1000 Ang^3
#
#
#
# Elastic Constant Matrix: (Units=GPa)
#
#
# Indices 1 2 3 4 5 6 
#
# 1 89.5209 29.2224 28.0188 0.0000 9.8889 0.0000
# 2 29.2224 70.6426 32.6491 0.0000 0.3906 0.0000
# 3 28.0188 32.6491 129.9930 0.0000 -7.0351 0.0000
# 4 0.0000 0.0000 0.0000 28.8516 0.0000 4.8717
# 5 9.8889 0.3906 -7.0351 0.0000 36.1747 0.0000
# 6 0.0000 0.0000 0.0000 4.8717 0.0000 34.9267
#
#
#
# Elastic Compliance Matrix: (Units=1/GPa)
#
#
# Indices 1 2 3 4 5 6 
#
# 1 0.013806 -0.004763 -0.002002 0.000000 -0.004112 0.000000
# 2 -0.004763 0.017691 -0.003392 0.000000 0.000451 0.000000
# 3 -0.002002 -0.003392 0.009104 0.000000 0.002354 0.000000
# 4 0.000000 0.000000 0.000000 0.035496 0.000000 -0.004951
# 5 -0.004112 0.000451 0.002354 0.000000 0.029221 0.000000
# 6 0.000000 0.000000 0.000000 -0.004951 0.000000 0.029322
#
#
# Mechanical properties :
#
#
# Convention : Reuss Voigt Hill
#
# Bulk Modulus (GPa) = 49.29414 52.21523 50.75468
# Shear Modulus (GPa) = 30.91814 33.34169 32.12992
#
# Velocity S-wave (km/s) = 3.75236 3.89665 3.82518
# Velocity P-wave (km/s) = 6.42045 6.63506 6.52864
#
# Compressibility (1/GPa) = 0.02028639
#
# Stress axis : x y z
#
# Youngs Moduli (GPa) = 72.43088 56.52444 109.84577
#
# Poissons Ratio (x) = 0.26923 0.21992
# Poissons Ratio (y) = 0.34500 0.37263
# Poissons Ratio (z) = 0.14501 0.19175
#
# Static dielectric constant tensor:
#      x y z
#    x 4.054840 0.000000 0.105790 
#    y 0.000000 3.716670 0.000000 
#    z 0.105790 0.000000 4.105280 
# 
# 
# High freq. dielectric constant tensor:
#      x y z
#    x 1.869670 0.000000 0.010500 
#    y 0.000000 1.849690 0.000000 
#    z 0.010500 0.000000 1.878050 
# 
# From -- ./inp_files/61305.got.cif
#   From: 2010.03.12/outbox.cif.g09.slc.cpg/sg14_31_cif.got.tgz:61305.got - 2010.03.31 13:35:05.
