data_PCOD8128619
_publ_section_title
;
Structure prediction by ZEFSAII (Michael W. Deem and Ramdas Pophale) SiO2 
 PCOD8128619
Probable space group: P 21/C
;
_chemical_formula_sum "Si O2"
_cell_formula_units_Z 24
_cell_length_a 13.593967
_cell_length_b 8.888146
_cell_length_c 13.537260
_cell_angle_alpha 90.000000
_cell_angle_beta 42.490731
_cell_angle_gamma 90.000000
_cell_volume 1104.828381
_symmetry_space_group_name_H-M "P 21/C"
_symmetry_group_IT_number 14
_symmetry_cell_setting 'monoclinic'
loop_
_space_group_symop_operation_xyz
x,y,z
-x,1/2+y,1/2-z
-x,-y,-z
x,1/2-y,1/2+z
loop_
_atom_site_type_symbol
_atom_site_label
_atom_site_fract_x
_atom_site_fract_y
_atom_site_fract_z
Si Si1 0.799815 0.048760 0.285173
Si Si2 0.330816 0.291249 0.840046
Si Si3 0.393492 0.596059 0.888423
Si Si4 0.118857 0.415193 0.612742
Si Si5 0.862871 0.789326 0.695870
Si Si6 0.180842 0.806668 0.936232
O O1 0.674402 0.102009 0.452180
O O2 0.763968 0.108751 0.202503
O O3 0.951884 0.117582 0.209474
O O4 0.805763 0.869170 0.279414
O O5 0.411805 0.426590 0.835579
O O6 0.447924 0.167535 0.720938
O O7 0.245907 0.351608 0.806661
O O8 0.213158 0.219756 0.999632
O O9 0.295211 0.680497 0.880848
O O10 0.135673 0.413522 0.718648
O O11 0.170328 0.575560 0.534142
O O12 0.024149 0.768207 0.531509
#
# Coordination Sequence:
#
# PCOD8128619 Si02
#       6
#     4   4   4   4   4   4
#     4  11  22  43  74 102 138 185 224 281 351 403
#     4  12  26  46  66 104 139 183 230 287 342 411
#     4  12  28  45  70 100 142 182 230 289 348 410
#     4  11  21  43  72 104 138 172 232 281 339 406
#     4  11  22  42  76 104 136 183 228 284 343 411
#     4  11  23  44  72 107 138 179 230 288 341 414
#
# _framework density 21.722830999999999
#
# number of rings (size 3 to 8) (size 9 to 14) (size 15 to 20)
#    0.000    0.667    6.667    2.000    0.000    4.000 
#    0.000    2.500    0.000    0.000    0.000    0.000 
#    0.000    0.000    0.000    0.000    0.000    0.000 
#
# Total GULP energy -297758.526203 kJ/mol
# GULP energy per Si atom -12406.605258 kJ/mol
# Density = 2.167339 g / cm^3
# Si number density = 21.722831 Si / 1000 Ang^3
#
#
#
# Elastic Constant Matrix: (Units=GPa)
#
#
# Indices 1 2 3 4 5 6 
#
# 1 80.5917 12.0296 31.6941 0.0000 3.3786 0.0000
# 2 12.0296 56.3948 28.6194 0.0000 -3.4050 0.0000
# 3 31.6941 28.6194 108.0139 0.0000 14.7459 0.0000
# 4 0.0000 0.0000 0.0000 26.3163 0.0000 0.1914
# 5 3.3786 -3.4050 14.7459 0.0000 20.3134 0.0000
# 6 0.0000 0.0000 0.0000 0.1914 0.0000 37.3932
#
#
#
# Elastic Compliance Matrix: (Units=1/GPa)
#
#
# Indices 1 2 3 4 5 6 
#
# 1 0.014082 -0.000998 -0.003913 0.000000 0.000331 0.000000
# 2 -0.000998 0.021862 -0.006685 0.000000 0.008683 0.000000
# 3 -0.003913 -0.006685 0.013588 0.000000 -0.010334 0.000000
# 4 0.000000 0.000000 0.000000 0.038001 0.000000 -0.000194
# 5 0.000331 0.008683 -0.010334 0.000000 0.058130 0.000000
# 6 0.000000 0.000000 0.000000 -0.000194 0.000000 0.026744
#
#
# Mechanical properties :
#
#
# Convention : Reuss Voigt Hill
#
# Bulk Modulus (GPa) = 37.96493 43.29852 40.63173
# Shear Modulus (GPa) = 24.46431 28.31507 26.38969
#
# Velocity S-wave (km/s) = 3.35954 3.61428 3.48923
# Velocity P-wave (km/s) = 5.70645 6.11497 5.91424
#
# Compressibility (1/GPa) = 0.02634010
#
# Stress axis : x y z
#
# Youngs Moduli (GPa) = 71.01212 45.74161 73.59327
#
# Poissons Ratio (x) = 0.04566 0.28795
# Poissons Ratio (y) = 0.07089 0.49198
# Poissons Ratio (z) = 0.27785 0.30579
#
# Static dielectric constant tensor:
#      x y z
#    x 3.928430 0.000000 0.036330 
#    y 0.000000 3.774420 0.000000 
#    z 0.036330 0.000000 3.959610 
# 
# 
# High freq. dielectric constant tensor:
#      x y z
#    x 1.857060 0.000000 0.003260 
#    y 0.000000 1.847360 0.000000 
#    z 0.003260 0.000000 1.857970 
# 
# From -- ./inp_files/46335.got.cif
#   From: 2010.03.12/outbox.cif.g09.slc.cpg/sg14_24_cif.got.tgz:46335.got - 2010.03.31 13:35:05.
