data_PCOD8128210
_publ_section_title
;
Structure prediction by ZEFSAII (Michael W. Deem and Ramdas Pophale) SiO2 
 PCOD8128210
Probable space group: P 21/C
;
_chemical_formula_sum "Si O2"
_cell_formula_units_Z 32
_cell_length_a 17.342170
_cell_length_b 11.584608
_cell_length_c 11.766952
_cell_angle_alpha 90.000000
_cell_angle_beta 41.445295
_cell_angle_gamma 90.000000
_cell_volume 1564.747262
_symmetry_space_group_name_H-M "P 21/C"
_symmetry_group_IT_number 14
_symmetry_cell_setting 'monoclinic'
loop_
_space_group_symop_operation_xyz
x,y,z
-x,1/2+y,1/2-z
-x,-y,-z
x,1/2-y,1/2+z
loop_
_atom_site_type_symbol
_atom_site_label
_atom_site_fract_x
_atom_site_fract_y
_atom_site_fract_z
Si Si1 0.582372 0.891669 0.423482
Si Si2 0.070444 0.454384 0.599901
Si Si3 0.938490 0.422534 0.974357
Si Si4 0.693278 0.648106 0.571996
Si Si5 0.999453 0.157326 0.952474
Si Si6 0.315520 0.991794 0.283391
Si Si7 0.548453 0.645518 0.524375
Si Si8 0.241276 0.396844 0.088197
O O1 0.612399 0.839124 0.269473
O O2 0.528705 0.783825 0.552668
O O3 0.697300 0.932772 0.362243
O O4 0.500000 0.000000 0.500000
O O5 0.192191 0.424655 0.525391
O O6 0.022599 0.358335 0.562137
O O7 0.976548 0.462299 0.806177
O O8 0.096614 0.572155 0.498142
O O9 0.971509 0.289336 0.958607
O O10 0.800681 0.441348 0.146922
O O11 0.000000 0.500000 0.000000
O O12 0.611106 0.590786 0.566377
O O13 0.729137 0.770377 0.485640
O O14 0.105529 0.104420 0.762456
O O15 0.418683 0.900911 0.154029
O O16 0.282365 0.010359 0.450848
O O17 0.362657 0.110718 0.175727
#
# Coordination Sequence:
#
# PCOD8128210 Si02
#       8
#     4   4   4   4   4   4   4   4
#     4  11  23  39  66  96 127 173 228 277 328 403
#     4  11  24  43  68  99 137 174 221 283 336 405
#     4  12  27  41  72 102 131 179 227 274 338 411
#     4  11  21  39  68  94 125 170 224 265 330 407
#     4  11  25  43  66 103 136 178 223 278 347 403
#     4  11  23  45  65  92 135 168 220 278 327 400
#     4  10  24  43  65  96 127 174 217 274 340 387
#     4  11  21  39  70  92 128 179 217 272 334 402
#
# _framework density 20.450588
#
# number of rings (size 3 to 8) (size 9 to 14) (size 15 to 20)
#    0.000    1.000    5.000    1.500    5.250    1.000 
#    0.000    0.000    0.000    0.000    0.000    0.000 
#    0.000    0.000    0.000    0.000    0.000    0.000 
#
# Total GULP energy -396594.729435 kJ/mol
# GULP energy per Si atom -12393.585295 kJ/mol
# Density = 2.040404 g / cm^3
# Si number density = 20.450588 Si / 1000 Ang^3
#
#
#
# Elastic Constant Matrix: (Units=GPa)
#
#
# Indices 1 2 3 4 5 6 
#
# 1 137.3411 55.2381 51.1771 0.0000 -5.4221 0.0000
# 2 55.2381 113.5052 20.4598 0.0000 -6.7351 0.0000
# 3 51.1771 20.4598 99.4756 0.0000 1.1013 0.0000
# 4 0.0000 0.0000 0.0000 18.8121 0.0000 3.9426
# 5 -5.4221 -6.7351 1.1013 0.0000 42.1456 0.0000
# 6 0.0000 0.0000 0.0000 3.9426 0.0000 33.1314
#
#
#
# Elastic Compliance Matrix: (Units=1/GPa)
#
#
# Indices 1 2 3 4 5 6 
#
# 1 0.010813 -0.004371 -0.004673 0.000000 0.000815 0.000000
# 2 -0.004371 0.011014 -0.000030 0.000000 0.001198 0.000000
# 3 -0.004673 -0.000030 0.012473 0.000000 -0.000932 0.000000
# 4 0.000000 0.000000 0.000000 0.054517 0.000000 -0.006488
# 5 0.000815 0.001198 -0.000932 0.000000 0.024048 0.000000
# 6 0.000000 0.000000 0.000000 -0.006488 0.000000 0.030955
#
#
# Mechanical properties :
#
#
# Convention : Reuss Voigt Hill
#
# Bulk Modulus (GPa) = 61.91092 67.11910 64.51501
# Shear Modulus (GPa) = 29.87731 33.71428 31.79580
#
# Velocity S-wave (km/s) = 3.82639 4.06467 3.94732
# Velocity P-wave (km/s) = 7.06122 7.41081 7.23812
#
# Compressibility (1/GPa) = 0.01615224
#
# Stress axis : x y z
#
# Youngs Moduli (GPa) = 92.48429 90.79337 80.17273
#
# Poissons Ratio (x) = 0.39690 0.37462
# Poissons Ratio (y) = 0.40429 0.00237
# Poissons Ratio (z) = 0.43215 0.00269
#
# Static dielectric constant tensor:
#      x y z
#    x 4.135360 0.000000 0.084810 
#    y 0.000000 3.468130 0.000000 
#    z 0.084810 0.000000 3.620700 
# 
# 
# High freq. dielectric constant tensor:
#      x y z
#    x 1.816440 0.000000 0.008010 
#    y 0.000000 1.789680 0.000000 
#    z 0.008010 0.000000 1.802200 
# 
# From -- ./inp_files/29077.got.cif
#   From: 2010.03.12/outbox.cif.g09.slc.cpg/sg14_15_cif.got.tgz:29077.got - 2010.03.31 13:35:05.
