data_PCOD8128087
_publ_section_title
;
Structure prediction by ZEFSAII (Michael W. Deem and Ramdas Pophale) SiO2 
 PCOD8128087
Probable space group: P 21/C
;
_chemical_formula_sum "Si O2"
_cell_formula_units_Z 20
_cell_length_a 10.647620
_cell_length_b 9.132686
_cell_length_c 17.513224
_cell_angle_alpha 90.000000
_cell_angle_beta 31.186380
_cell_angle_gamma 90.000000
_cell_volume 881.858823
_symmetry_space_group_name_H-M "P 21/C"
_symmetry_group_IT_number 14
_symmetry_cell_setting 'monoclinic'
loop_
_space_group_symop_operation_xyz
x,y,z
-x,1/2+y,1/2-z
-x,-y,-z
x,1/2-y,1/2+z
loop_
_atom_site_type_symbol
_atom_site_label
_atom_site_fract_x
_atom_site_fract_y
_atom_site_fract_z
Si Si1 0.276111 0.964561 0.836895
Si Si2 0.287491 0.301545 0.588411
Si Si3 0.394120 0.649656 0.724277
Si Si4 0.519193 0.409553 0.067232
Si Si5 0.011647 0.960650 0.314246
O O1 0.324849 0.790509 0.811308
O O2 0.456350 0.034545 0.804286
O O3 0.325368 0.032120 0.728418
O O4 0.000000 0.000000 0.000000
O O5 0.449514 0.300817 0.429188
O O6 0.448010 0.255269 0.579419
O O7 0.181870 0.460071 0.663282
O O8 0.071058 0.187269 0.684878
O O9 0.148786 0.575044 0.821538
O O10 0.500000 0.500000 0.000000
O O11 0.793951 0.430739 0.954144
#
# Coordination Sequence:
#
# PCOD8128087 Si02
#       5
#     4   4   4   4   4
#     4  12  29  49  75 106 155 197 245 306 370 435
#     4  11  24  46  77 114 147 187 247 303 367 439
#     4  12  27  49  71 112 149 196 245 302 370 438
#     4  10  23  47  75 103 148 190 244 298 364 426
#     4  11  24  44  80 102 150 187 247 301 365 430
#
# _framework density 22.679369000000001
#
# number of rings (size 3 to 8) (size 9 to 14) (size 15 to 20)
#    0.000    0.800    4.000    3.000   11.200    2.400 
#    0.000    0.000    0.000    0.000    0.000    0.000 
#    0.000    0.000    0.000    0.000    0.000    0.000 
#
# Total GULP energy -248041.711836 kJ/mol
# GULP energy per Si atom -12402.085592 kJ/mol
# Density = 2.262775 g / cm^3
# Si number density = 22.679369 Si / 1000 Ang^3
#
#
#
# Elastic Constant Matrix: (Units=GPa)
#
#
# Indices 1 2 3 4 5 6 
#
# 1 173.8351 81.4458 59.4745 0.0000 -21.2656 0.0000
# 2 81.4458 114.0226 50.5681 0.0000 -16.3749 0.0000
# 3 59.4745 50.5681 138.0511 0.0000 -7.3469 0.0000
# 4 0.0000 0.0000 0.0000 36.4847 0.0000 3.7832
# 5 -21.2656 -16.3749 -7.3469 0.0000 36.3569 0.0000
# 6 0.0000 0.0000 0.0000 3.7832 0.0000 53.1144
#
#
#
# Elastic Compliance Matrix: (Units=1/GPa)
#
#
# Indices 1 2 3 4 5 6 
#
# 1 0.009237 -0.005399 -0.001864 0.000000 0.002595 0.000000
# 2 -0.005399 0.014230 -0.002743 0.000000 0.002697 0.000000
# 3 -0.001864 -0.002743 0.009025 0.000000 -0.000502 0.000000
# 4 0.000000 0.000000 0.000000 0.027613 0.000000 -0.001967
# 5 0.002595 0.002697 -0.000502 0.000000 0.030136 0.000000
# 6 0.000000 0.000000 0.000000 -0.001967 0.000000 0.018967
#
#
# Mechanical properties :
#
#
# Convention : Reuss Voigt Hill
#
# Bulk Modulus (GPa) = 80.12366 89.87618 84.99992
# Shear Modulus (GPa) = 37.48674 40.81921 39.15297
#
# Velocity S-wave (km/s) = 4.07000 4.24705 4.15947
# Velocity P-wave (km/s) = 7.58235 7.98530 7.78643
#
# Compressibility (1/GPa) = 0.01248071
#
# Stress axis : x y z
#
# Youngs Moduli (GPa) = 108.25868 70.27176 110.80611
#
# Poissons Ratio (x) = 0.37938 0.20652
# Poissons Ratio (y) = 0.58447 0.30396
# Poissons Ratio (z) = 0.20177 0.19277
#
# Static dielectric constant tensor:
#      x y z
#    x 4.601600 0.000000 -0.345170 
#    y 0.000000 4.487920 0.000000 
#    z -0.345170 0.000000 4.262080 
# 
# 
# High freq. dielectric constant tensor:
#      x y z
#    x 1.899520 0.000000 -0.010060 
#    y 0.000000 1.899800 0.000000 
#    z -0.010060 0.000000 1.901360 
# 
# From -- ./inp_files/57220.got.cif
#   From: 2010.03.12/outbox.cif.g09.slc.cpg/sg14_29_cif.got.tgz:57220.got - 2010.03.31 13:35:05.
