data_PCOD8128894
_publ_section_title
;
Structure prediction by ZEFSAII (Michael W. Deem and Ramdas Pophale) SiO2 
 PCOD8128894
Probable space group: P 21/C
;
_chemical_formula_sum "Si O2"
_cell_formula_units_Z 20
_cell_length_a 23.121277
_cell_length_b 5.065112
_cell_length_c 13.353815
_cell_angle_alpha 90.000000
_cell_angle_beta 146.914043
_cell_angle_gamma 90.000000
_cell_volume 853.722313
_symmetry_space_group_name_H-M "P 21/C"
_symmetry_group_IT_number 14
_symmetry_cell_setting 'monoclinic'
loop_
_space_group_symop_operation_xyz
x,y,z
-x,1/2+y,1/2-z
-x,-y,-z
x,1/2-y,1/2+z
loop_
_atom_site_type_symbol
_atom_site_label
_atom_site_fract_x
_atom_site_fract_y
_atom_site_fract_z
Si Si1 0.759694 0.313521 0.038355
Si Si2 0.181150 0.425697 0.681400
Si Si3 0.431684 0.627572 0.624759
Si Si4 0.714962 0.076778 0.255879
Si Si5 0.982632 0.244477 0.289211
O O1 0.789837 0.548318 0.159383
O O2 0.868609 0.161936 0.168555
O O3 0.678111 0.109673 0.971320
O O4 0.703607 0.435937 0.859149
O O5 0.197009 0.705598 0.647748
O O6 0.059860 0.334207 0.491310
O O7 0.257989 0.214255 0.742867
O O8 0.504926 0.383351 0.752202
O O9 0.398382 0.648429 0.459437
O O10 0.965983 0.492596 0.190571
#
# Coordination Sequence:
#
# PCOD8128894 Si02
#       5
#     4   4   4   4   4
#     4  11  25  44  74  98 139 186 219 277 350 383
#     4  11  23  43  66 105 143 175 223 270 327 420
#     4  11  26  47  68 100 134 175 236 287 333 401
#     4  11  24  44  71 100 136 176 228 278 334 412
#     4  12  23  42  68 104 141 179 220 269 332 413
#
# _framework density 23.426821
#
# number of rings (size 3 to 8) (size 9 to 14) (size 15 to 20)
#    0.000    0.800    4.000    3.000    0.000   11.200 
#    0.000    7.000    0.000    0.000    0.000    0.000 
#    0.000    0.000    0.000    0.000    0.000    0.000 
#
# Total GULP energy -248038.034697 kJ/mol
# GULP energy per Si atom -12401.901735 kJ/mol
# Density = 2.337350 g / cm^3
# Si number density = 23.426821 Si / 1000 Ang^3
#
#
#
# Elastic Constant Matrix: (Units=GPa)
#
#
# Indices 1 2 3 4 5 6 
#
# 1 89.8280 26.5190 49.4843 0.0000 -16.7383 0.0000
# 2 26.5190 101.4180 19.8509 0.0000 -0.7170 0.0000
# 3 49.4843 19.8509 164.3356 0.0000 -24.4542 0.0000
# 4 0.0000 0.0000 0.0000 36.0691 0.0000 4.0547
# 5 -16.7383 -0.7170 -24.4542 0.0000 55.6199 0.0000
# 6 0.0000 0.0000 0.0000 4.0547 0.0000 17.9677
#
#
#
# Elastic Compliance Matrix: (Units=1/GPa)
#
#
# Indices 1 2 3 4 5 6 
#
# 1 0.014534 -0.003077 -0.003595 0.000000 0.002754 0.000000
# 2 -0.003077 0.010760 -0.000525 0.000000 -0.001018 0.000000
# 3 -0.003595 -0.000525 0.007564 0.000000 0.002237 0.000000
# 4 0.000000 0.000000 0.000000 0.028446 0.000000 -0.006419
# 5 0.002754 -0.001018 0.002237 0.000000 0.019778 0.000000
# 6 0.000000 0.000000 0.000000 -0.006419 0.000000 0.057104
#
#
# Mechanical properties :
#
#
# Convention : Reuss Voigt Hill
#
# Bulk Modulus (GPa) = 54.15790 60.81001 57.48396
# Shear Modulus (GPa) = 31.49884 39.24652 35.37268
#
# Velocity S-wave (km/s) = 3.67081 4.09746 3.88999
# Velocity P-wave (km/s) = 6.41362 6.95697 6.69081
#
# Compressibility (1/GPa) = 0.01846453
#
# Stress axis : x y z
#
# Youngs Moduli (GPa) = 68.80210 92.93381 132.20706
#
# Poissons Ratio (x) = 0.28599 0.47529
# Poissons Ratio (y) = 0.21173 0.06936
# Poissons Ratio (z) = 0.24735 0.04876
#
# Static dielectric constant tensor:
#      x y z
#    x 4.145440 0.000000 -0.189780 
#    y 0.000000 3.965480 0.000000 
#    z -0.189780 0.000000 4.742090 
# 
# 
# High freq. dielectric constant tensor:
#      x y z
#    x 1.902340 0.000000 -0.009150 
#    y 0.000000 1.921260 0.000000 
#    z -0.009150 0.000000 1.959740 
# 
# From -- ./inp_files/34633.got.cif
#   From: 2010.03.12/outbox.cif.g09.slc.cpg/sg14_18_cif.got.tgz:34633.got - 2010.03.31 13:35:05.
