data_PCOD8128265
_publ_section_title
;
Structure prediction by ZEFSAII (Michael W. Deem and Ramdas Pophale) SiO2 
 PCOD8128265
Probable space group: P 21/C
;
_chemical_formula_sum "Si O2"
_cell_formula_units_Z 24
_cell_length_a 17.335800
_cell_length_b 8.452675
_cell_length_c 14.005210
_cell_angle_alpha 90.000000
_cell_angle_beta 30.843518
_cell_angle_gamma 90.000000
_cell_volume 1052.172319
_symmetry_space_group_name_H-M "P 21/C"
_symmetry_group_IT_number 14
_symmetry_cell_setting 'monoclinic'
loop_
_space_group_symop_operation_xyz
x,y,z
-x,1/2+y,1/2-z
-x,-y,-z
x,1/2-y,1/2+z
loop_
_atom_site_type_symbol
_atom_site_label
_atom_site_fract_x
_atom_site_fract_y
_atom_site_fract_z
Si Si1 0.963648 0.417692 0.379178
Si Si2 0.340079 0.592534 0.514028
Si Si3 0.554422 0.761197 0.418623
Si Si4 0.142547 0.326559 0.817228
Si Si5 0.384774 0.924898 0.752461
Si Si6 0.954217 0.222512 0.686987
O O1 0.072544 0.316053 0.330466
O O2 0.984030 0.601532 0.377295
O O3 0.788475 0.386333 0.587276
O O4 0.003850 0.375198 0.227690
O O5 0.468345 0.616257 0.456974
O O6 0.218205 0.454221 0.666889
O O7 0.418957 0.564992 0.328676
O O8 0.227540 0.742494 0.626391
O O9 0.728324 0.729460 0.247763
O O10 0.477112 0.783009 0.604525
O O11 0.544292 0.914358 0.363111
O O12 0.014773 0.377806 0.030346
#
# Coordination Sequence:
#
# PCOD8128265 Si02
#       6
#     4   4   4   4   4   4
#     4  11  23  44  68 101 133 181 231 278 345 395
#     4  11  26  44  67 102 135 180 229 280 343 406
#     4  11  25  43  67  98 138 179 226 279 346 407
#     4  12  25  42  72  99 137 176 227 287 342 404
#     4  10  24  44  67  96 137 180 226 279 337 415
#     4  11  24  43  69 100 133 178 228 285 332 408
#
# _framework density 22.809951000000002
#
# number of rings (size 3 to 8) (size 9 to 14) (size 15 to 20)
#    0.000    1.000    1.667    4.500    7.000    2.667 
#    0.000    0.000    0.000    0.000    0.000    0.000 
#    0.000    0.000    0.000    0.000    0.000    0.000 
#
# Total GULP energy -297518.113856 kJ/mol
# GULP energy per Si atom -12396.588077 kJ/mol
# Density = 2.275803 g / cm^3
# Si number density = 22.809951 Si / 1000 Ang^3
#
#
#
# Elastic Constant Matrix: (Units=GPa)
#
#
# Indices 1 2 3 4 5 6 
#
# 1 132.2114 19.5118 49.3451 0.0000 12.9775 0.0000
# 2 19.5118 30.3036 22.1293 0.0000 8.7047 0.0000
# 3 49.3451 22.1293 109.4658 0.0000 30.3058 0.0000
# 4 0.0000 0.0000 0.0000 18.5131 0.0000 8.3403
# 5 12.9775 8.7047 30.3058 0.0000 54.2578 0.0000
# 6 0.0000 0.0000 0.0000 8.3403 0.0000 34.0399
#
#
#
# Elastic Compliance Matrix: (Units=1/GPa)
#
#
# Indices 1 2 3 4 5 6 
#
# 1 0.009400 -0.003504 -0.003622 0.000000 0.000337 0.000000
# 2 -0.003504 0.040239 -0.005914 0.000000 -0.002314 0.000000
# 3 -0.003622 -0.005914 0.013558 0.000000 -0.005757 0.000000
# 4 0.000000 0.000000 0.000000 0.060718 0.000000 -0.014877
# 5 0.000337 -0.002314 -0.005757 0.000000 0.021937 0.000000
# 6 0.000000 0.000000 0.000000 -0.014877 0.000000 0.033022
#
#
# Mechanical properties :
#
#
# Convention : Reuss Voigt Hill
#
# Bulk Modulus (GPa) = 26.94301 50.43924 38.69113
# Shear Modulus (GPa) = 23.00686 33.42846 28.21766
#
# Velocity S-wave (km/s) = 3.17934 3.83237 3.52103
# Velocity P-wave (km/s) = 5.03142 6.46092 5.79046
#
# Compressibility (1/GPa) = 0.03711538
#
# Stress axis : x y z
#
# Youngs Moduli (GPa) = 106.38809 24.85140 73.75902
#
# Poissons Ratio (x) = 0.08708 0.26716
# Poissons Ratio (y) = 0.37278 0.43625
# Poissons Ratio (z) = 0.38535 0.14698
#
# Static dielectric constant tensor:
#      x y z
#    x 4.151190 0.000000 0.125090 
#    y 0.000000 3.969600 0.000000 
#    z 0.125090 0.000000 4.358820 
# 
# 
# High freq. dielectric constant tensor:
#      x y z
#    x 1.909340 0.000000 0.005420 
#    y 0.000000 1.891320 0.000000 
#    z 0.005420 0.000000 1.919010 
# 
# From -- ./inp_files/39045.got.cif
#   From: 2010.03.12/outbox.cif.g09.slc.cpg/sg14_20_cif.got.tgz:39045.got - 2010.03.31 13:35:05.
