data_PCOD8128880
_publ_section_title
;
Structure prediction by ZEFSAII (Michael W. Deem and Ramdas Pophale) SiO2 
 PCOD8128880
Probable space group: P 21/C
;
_chemical_formula_sum "Si O2"
_cell_formula_units_Z 16
_cell_length_a 17.942356
_cell_length_b 8.547922
_cell_length_c 9.943759
_cell_angle_alpha 90.000000
_cell_angle_beta 28.076564
_cell_angle_gamma 90.000000
_cell_volume 717.777127
_symmetry_space_group_name_H-M "P 21/C"
_symmetry_group_IT_number 14
_symmetry_cell_setting 'monoclinic'
loop_
_space_group_symop_operation_xyz
x,y,z
-x,1/2+y,1/2-z
-x,-y,-z
x,1/2-y,1/2+z
loop_
_atom_site_type_symbol
_atom_site_label
_atom_site_fract_x
_atom_site_fract_y
_atom_site_fract_z
Si Si1 0.327528 0.609598 0.180161
Si Si2 0.313754 0.102245 0.941129
Si Si3 0.334288 0.956582 0.193424
Si Si4 0.170498 0.431031 0.195756
O O1 0.246817 0.503434 0.425560
O O2 0.262390 0.781886 0.308560
O O3 0.292610 0.530058 0.092319
O O4 0.515013 0.649335 0.890235
O O5 0.198729 0.244730 0.169047
O O6 0.340666 0.999702 0.028682
O O7 0.201444 0.048084 0.488423
O O8 0.500000 0.000000 0.000000
O O9 0.000000 0.500000 0.500000
#
# Coordination Sequence:
#
# PCOD8128880 Si02
#       4
#     4   4   4   4
#     4  11  23  42  71 105 136 184 240 291 346 418
#     4  11  23  42  73 102 139 185 238 289 346 423
#     4  12  23  41  71 102 136 185 240 287 348 425
#     4  12  27  45  67 104 148 187 231 296 362 415
#
# _framework density 22.291042000000001
#
# number of rings (size 3 to 8) (size 9 to 14) (size 15 to 20)
#    0.000    0.500    5.000    3.000    3.500    4.000 
#    0.000    3.750    0.000    0.000    0.000    0.000 
#    0.000    0.000    0.000    0.000    0.000    0.000 
#
# Total GULP energy -198216.933401 kJ/mol
# GULP energy per Si atom -12388.558338 kJ/mol
# Density = 2.224031 g / cm^3
# Si number density = 22.291042 Si / 1000 Ang^3
#
#
#
# Elastic Constant Matrix: (Units=GPa)
#
#
# Indices 1 2 3 4 5 6 
#
# 1 74.0296 38.1360 27.5040 0.0000 22.5365 0.0000
# 2 38.1360 152.4190 23.7494 0.0000 -7.4594 0.0000
# 3 27.5040 23.7494 108.2127 0.0000 2.5180 0.0000
# 4 0.0000 0.0000 0.0000 45.4900 0.0000 10.4764
# 5 22.5365 -7.4594 2.5180 0.0000 33.9950 0.0000
# 6 0.0000 0.0000 0.0000 10.4764 0.0000 36.1486
#
#
#
# Elastic Compliance Matrix: (Units=1/GPa)
#
#
# Indices 1 2 3 4 5 6 
#
# 1 0.023067 -0.005916 -0.004186 0.000000 -0.016280 0.000000
# 2 -0.005916 0.008399 -0.000475 0.000000 0.005800 0.000000
# 3 -0.004186 -0.000475 0.010365 0.000000 0.001903 0.000000
# 4 0.000000 0.000000 0.000000 0.023555 0.000000 -0.006827
# 5 -0.016280 0.005800 0.001903 0.000000 0.041340 0.000000
# 6 0.000000 0.000000 0.000000 -0.006827 0.000000 0.029642
#
#
# Mechanical properties :
#
#
# Convention : Reuss Voigt Hill
#
# Bulk Modulus (GPa) = 48.36049 57.04889 52.70469
# Shear Modulus (GPa) = 30.41124 39.47819 34.94472
#
# Velocity S-wave (km/s) = 3.69762 4.21293 3.96366
# Velocity P-wave (km/s) = 6.32234 7.02235 6.68152
#
# Compressibility (1/GPa) = 0.02067804
#
# Stress axis : x y z
#
# Youngs Moduli (GPa) = 43.35243 119.06363 96.48051
#
# Poissons Ratio (x) = 0.70438 0.40383
# Poissons Ratio (y) = 0.25647 0.04579
# Poissons Ratio (z) = 0.18146 0.05651
#
# Static dielectric constant tensor:
#      x y z
#    x 3.998190 0.000000 0.329040 
#    y 0.000000 4.435680 0.000000 
#    z 0.329040 0.000000 4.340680 
# 
# 
# High freq. dielectric constant tensor:
#      x y z
#    x 1.868450 0.000000 0.030730 
#    y 0.000000 1.892960 0.000000 
#    z 0.030730 0.000000 1.869090 
# 
# From -- ./inp_files/7253.got.cif
#   From: 2010.03.12/outbox.cif.g09.slc.cpg/sg14_4_cif.got.tgz:7253.got - 2010.03.31 13:35:05.
