data_PCOD8128116
_publ_section_title
;
Structure prediction by ZEFSAII (Michael W. Deem and Ramdas Pophale) SiO2 
 PCOD8128116
Probable space group: P 21/C
;
_chemical_formula_sum "Si O2"
_cell_formula_units_Z 20
_cell_length_a 8.951660
_cell_length_b 12.644359
_cell_length_c 8.685030
_cell_angle_alpha 90.000000
_cell_angle_beta 52.078865
_cell_angle_gamma 90.000000
_cell_volume 775.479360
_symmetry_space_group_name_H-M "P 21/C"
_symmetry_group_IT_number 14
_symmetry_cell_setting 'monoclinic'
loop_
_space_group_symop_operation_xyz
x,y,z
-x,1/2+y,1/2-z
-x,-y,-z
x,1/2-y,1/2+z
loop_
_atom_site_type_symbol
_atom_site_label
_atom_site_fract_x
_atom_site_fract_y
_atom_site_fract_z
Si Si1 0.175715 0.341248 0.383205
Si Si2 0.807352 0.179943 0.935490
Si Si3 0.793723 0.866362 0.799375
Si Si4 0.832179 0.102082 0.576545
Si Si5 0.447188 0.497648 0.340329
O O1 0.991491 0.371556 0.401655
O O2 0.115028 0.322399 0.599764
O O3 0.269628 0.232577 0.262902
O O4 0.334477 0.433497 0.277394
O O5 0.783846 0.303493 0.986804
O O6 0.622372 0.118312 0.117619
O O7 0.831796 0.160268 0.739635
O O8 0.955637 0.938083 0.609900
O O9 0.612219 0.940614 0.955527
O O10 0.672758 0.009941 0.663989
#
# Coordination Sequence:
#
# PCOD8128116 Si02
#       5
#     4   4   4   4   4
#     4   9  19  39  63  86 126 160 198 249 302 352
#     4  11  22  43  63  91 127 160 200 261 304 355
#     4   9  20  38  62  90 121 161 199 245 306 351
#     4  11  23  40  65  87 128 161 200 255 308 355
#     4  10  24  39  67  90 121 163 210 244 304 369
#
# _framework density 25.790497999999999
#
# number of rings (size 3 to 8) (size 9 to 14) (size 15 to 20)
#    1.200    0.800    0.000    6.000    2.800    0.800 
#    0.000    8.000    0.000    0.000    0.000    0.000 
#    0.000    0.000    0.000    0.000    0.000    0.000 
#
# Total GULP energy -247940.698582 kJ/mol
# GULP energy per Si atom -12397.034929 kJ/mol
# Density = 2.573180 g / cm^3
# Si number density = 25.790498 Si / 1000 Ang^3
#
#
#
# Elastic Constant Matrix: (Units=GPa)
#
#
# Indices 1 2 3 4 5 6 
#
# 1 125.1877 32.4767 49.8470 0.0000 -35.6378 0.0000
# 2 32.4767 40.1412 27.7890 0.0000 -21.4137 0.0000
# 3 49.8470 27.7890 99.6950 0.0000 -7.8701 0.0000
# 4 0.0000 0.0000 0.0000 44.3455 0.0000 -11.3714
# 5 -35.6378 -21.4137 -7.8701 0.0000 55.9926 0.0000
# 6 0.0000 0.0000 0.0000 -11.3714 0.0000 48.3017
#
#
#
# Elastic Compliance Matrix: (Units=1/GPa)
#
#
# Indices 1 2 3 4 5 6 
#
# 1 0.012519 -0.003688 -0.004767 0.000000 0.005887 0.000000
# 2 -0.003688 0.039961 -0.008367 0.000000 0.011759 0.000000
# 3 -0.004767 -0.008367 0.014414 0.000000 -0.004207 0.000000
# 4 0.000000 0.000000 0.000000 0.023999 0.000000 0.005650
# 5 0.005887 0.011759 -0.004207 0.000000 0.025513 0.000000
# 6 0.000000 0.000000 0.000000 0.005650 0.000000 0.022033
#
#
# Mechanical properties :
#
#
# Convention : Reuss Voigt Hill
#
# Bulk Modulus (GPa) = 30.07381 53.91659 41.99520
# Shear Modulus (GPa) = 27.29797 40.05537 33.67667
#
# Velocity S-wave (km/s) = 3.25691 3.94522 3.61748
# Velocity P-wave (km/s) = 5.08227 6.45786 5.81091
#
# Compressibility (1/GPa) = 0.03325152
#
# Stress axis : x y z
#
# Youngs Moduli (GPa) = 79.88076 25.02449 69.37805
#
# Poissons Ratio (x) = 0.09229 0.33069
# Poissons Ratio (y) = 0.29459 0.58045
# Poissons Ratio (z) = 0.38076 0.20937
#
# Static dielectric constant tensor:
#      x y z
#    x 4.745110 0.000000 0.025740 
#    y 0.000000 4.552000 0.000000 
#    z 0.025740 0.000000 4.615240 
# 
# 
# High freq. dielectric constant tensor:
#      x y z
#    x 2.049650 0.000000 0.000430 
#    y 0.000000 2.039750 0.000000 
#    z 0.000430 0.000000 2.028740 
# 
# From -- ./inp_files/8689.got.cif
#   From: 2010.03.12/outbox.cif.g09.slc.cpg/sg14_5_cif.got.tgz:8689.got - 2010.03.31 13:35:05.
