data_PCOD8128187
_publ_section_title
;
Structure prediction by ZEFSAII (Michael W. Deem and Ramdas Pophale) SiO2 
 PCOD8128187
Probable space group: P 21/C
;
_chemical_formula_sum "Si O2"
_cell_formula_units_Z 28
_cell_length_a 30.530852
_cell_length_b 5.142900
_cell_length_c 8.858848
_cell_angle_alpha 90.000000
_cell_angle_beta 119.297216
_cell_angle_gamma 90.000000
_cell_volume 1213.073400
_symmetry_space_group_name_H-M "P 21/C"
_symmetry_group_IT_number 14
_symmetry_cell_setting 'monoclinic'
loop_
_space_group_symop_operation_xyz
x,y,z
-x,1/2+y,1/2-z
-x,-y,-z
x,1/2-y,1/2+z
loop_
_atom_site_type_symbol
_atom_site_label
_atom_site_fract_x
_atom_site_fract_y
_atom_site_fract_z
Si Si1 0.634470 0.941923 0.419082
Si Si2 0.329737 0.930053 0.852667
Si Si3 0.171391 0.255946 0.365641
Si Si4 0.783291 0.438492 0.795701
Si Si5 0.870827 0.065118 0.943533
Si Si6 0.016977 0.915049 0.862739
Si Si7 0.481204 0.453982 0.300556
O O1 0.636673 0.189255 0.534794
O O2 0.660829 0.690113 0.535302
O O3 0.660298 0.013951 0.305204
O O4 0.576713 0.871087 0.293974
O O5 0.272477 0.830200 0.775113
O O6 0.218103 0.350804 0.341077
O O7 0.143632 0.476043 0.413827
O O8 0.127181 0.161072 0.178786
O O9 0.196064 0.040784 0.511680
O O10 0.824673 0.237274 0.805543
O O11 0.925732 0.193266 0.040304
O O12 0.985043 0.670155 0.748281
O O13 0.000000 0.000000 0.000000
O O14 0.487559 0.716814 0.216342
O O15 0.500000 0.500000 0.500000
#
# Coordination Sequence:
#
# PCOD8128187 Si02
#       7
#     4   4   4   4   4   4   4
#     4  12  26  48  70 108 146 190 236 302 355 423
#     4  12  28  45  73 101 152 187 239 290 369 421
#     4  10  24  42  68  99 134 174 236 281 340 404
#     4  11  25  42  70  98 136 185 233 281 346 421
#     4  11  25  43  73  98 139 176 239 281 348 421
#     4  12  29  49  76 107 145 187 235 296 369 423
#     4  12  25  45  76 105 142 189 248 295 355 421
#
# _framework density 23.081866999999999
#
# number of rings (size 3 to 8) (size 9 to 14) (size 15 to 20)
#    0.000    0.571    0.000    6.857   16.000    0.000 
#    0.000    0.000    0.000    0.000    0.000    0.000 
#    0.000    0.000    0.000    0.000    0.000    0.000 
#
# Total GULP energy -347197.727490 kJ/mol
# GULP energy per Si atom -12399.918839 kJ/mol
# Density = 2.302933 g / cm^3
# Si number density = 23.081867 Si / 1000 Ang^3
#
#
#
# Elastic Constant Matrix: (Units=GPa)
#
#
# Indices 1 2 3 4 5 6 
#
# 1 111.1101 19.3502 49.5471 0.0000 14.9561 0.0000
# 2 19.3502 105.1580 30.9673 0.0000 -1.7103 0.0000
# 3 49.5471 30.9673 94.7705 0.0000 -16.7928 0.0000
# 4 0.0000 0.0000 0.0000 21.9779 0.0000 6.1573
# 5 14.9561 -1.7103 -16.7928 0.0000 42.2654 0.0000
# 6 0.0000 0.0000 0.0000 6.1573 0.0000 33.2621
#
#
#
# Elastic Compliance Matrix: (Units=1/GPa)
#
#
# Indices 1 2 3 4 5 6 
#
# 1 0.014113 -0.000131 -0.008844 0.000000 -0.008513 0.000000
# 2 -0.000131 0.010564 -0.003549 0.000000 -0.000936 0.000000
# 3 -0.008844 -0.003549 0.018141 0.000000 0.010194 0.000000
# 4 0.000000 0.000000 0.000000 0.047989 0.000000 -0.008883
# 5 -0.008513 -0.000936 0.010194 0.000000 0.030685 0.000000
# 6 0.000000 0.000000 0.000000 -0.008883 0.000000 0.031709
#
#
# Mechanical properties :
#
#
# Convention : Reuss Voigt Hill
#
# Bulk Modulus (GPa) = 56.27607 56.75200 56.51403
# Shear Modulus (GPa) = 27.14866 33.57934 30.36400
#
# Velocity S-wave (km/s) = 3.43328 3.81831 3.63091
# Velocity P-wave (km/s) = 6.33645 6.63928 6.48963
#
# Compressibility (1/GPa) = 0.01776954
#
# Stress axis : x y z
#
# Youngs Moduli (GPa) = 70.85914 94.66520 55.12228
#
# Poissons Ratio (x) = 0.01240 0.48749
# Poissons Ratio (y) = 0.00928 0.19564
# Poissons Ratio (z) = 0.62667 0.33599
#
# Static dielectric constant tensor:
#      x y z
#    x 4.205170 0.000000 -0.042790 
#    y 0.000000 4.393370 0.000000 
#    z -0.042790 0.000000 4.284200 
# 
# 
# High freq. dielectric constant tensor:
#      x y z
#    x 1.920740 0.000000 -0.010670 
#    y 0.000000 1.913390 0.000000 
#    z -0.010670 0.000000 1.932520 
# 
# From -- ./inp_files/19862.got.cif
#   From: 2010.03.12/outbox.cif.g09.slc.cpg/sg14_10_cif.got.tgz:19862.got - 2010.03.31 13:35:05.
