data_PCOD8128917
_publ_section_title
;
Structure prediction by ZEFSAII (Michael W. Deem and Ramdas Pophale) SiO2 
 PCOD8128917
Probable space group: P 21/C
;
_chemical_formula_sum "Si O2"
_cell_formula_units_Z 20
_cell_length_a 6.674294
_cell_length_b 10.422904
_cell_length_c 14.132687
_cell_angle_alpha 90.000000
_cell_angle_beta 62.941230
_cell_angle_gamma 90.000000
_cell_volume 875.532819
_symmetry_space_group_name_H-M "P 21/C"
_symmetry_group_IT_number 14
_symmetry_cell_setting 'monoclinic'
loop_
_space_group_symop_operation_xyz
x,y,z
-x,1/2+y,1/2-z
-x,-y,-z
x,1/2-y,1/2+z
loop_
_atom_site_type_symbol
_atom_site_label
_atom_site_fract_x
_atom_site_fract_y
_atom_site_fract_z
Si Si1 0.493518 0.119869 0.930230
Si Si2 0.562545 0.521143 0.756946
Si Si3 0.844346 0.185607 0.296327
Si Si4 0.953914 0.501600 0.117382
Si Si5 0.750181 0.708445 0.870531
O O1 0.362406 0.077774 0.862256
O O2 0.736161 0.175118 0.844374
O O3 0.379418 0.238911 0.009799
O O4 0.500000 0.000000 0.000000
O O5 0.704975 0.392467 0.746624
O O6 0.591269 0.628103 0.833313
O O7 0.307044 0.474027 0.804809
O O8 0.860511 0.104627 0.388409
O O9 0.112533 0.181222 0.213137
O O10 0.026755 0.366763 0.145043
O O11 0.000000 0.500000 0.000000
#
# Coordination Sequence:
#
# PCOD8128917 Si02
#       5
#     4   4   4   4   4
#     4  12  27  46  76 109 143 190 246 296 363 436
#     4  11  26  48  72 104 149 194 238 302 362 427
#     4  11  26  46  70 106 147 183 244 297 353 436
#     4  11  23  43  74 100 138 196 235 288 367 420
#     4  11  26  45  70 109 142 188 241 295 359 427
#
# _framework density 22.843232
#
# number of rings (size 3 to 8) (size 9 to 14) (size 15 to 20)
#    0.000    0.800    2.000    3.600   11.200    5.600 
#    0.000    0.000    0.000    0.000    0.000    0.000 
#    0.000    0.000    0.000    0.000    0.000    0.000 
#
# Total GULP energy -247794.338173 kJ/mol
# GULP energy per Si atom -12389.716909 kJ/mol
# Density = 2.279124 g / cm^3
# Si number density = 22.843232 Si / 1000 Ang^3
#
#
#
# Elastic Constant Matrix: (Units=GPa)
#
#
# Indices 1 2 3 4 5 6 
#
# 1 131.4062 51.0743 41.8467 0.0000 12.8672 0.0000
# 2 51.0743 91.6514 28.1102 0.0000 4.9687 0.0000
# 3 41.8467 28.1102 108.8081 0.0000 14.1465 0.0000
# 4 0.0000 0.0000 0.0000 41.1643 0.0000 4.1141
# 5 12.8672 4.9687 14.1465 0.0000 44.9952 0.0000
# 6 0.0000 0.0000 0.0000 4.1141 0.0000 41.0322
#
#
#
# Elastic Compliance Matrix: (Units=1/GPa)
#
#
# Indices 1 2 3 4 5 6 
#
# 1 0.010523 -0.004995 -0.002541 0.000000 -0.001659 0.000000
# 2 -0.004995 0.014226 -0.001810 0.000000 0.000426 0.000000
# 3 -0.002541 -0.001810 0.010963 0.000000 -0.002520 0.000000
# 4 0.000000 0.000000 0.000000 0.024539 0.000000 -0.002460
# 5 -0.001659 0.000426 -0.002520 0.000000 0.023444 0.000000
# 6 0.000000 0.000000 0.000000 -0.002460 0.000000 0.024618
#
#
# Mechanical properties :
#
#
# Convention : Reuss Voigt Hill
#
# Bulk Modulus (GPa) = 58.75082 63.76978 61.26030
# Shear Modulus (GPa) = 37.68524 39.49398 38.58961
#
# Velocity S-wave (km/s) = 4.06610 4.16253 4.11460
# Velocity P-wave (km/s) = 6.91514 7.14696 7.03201
#
# Compressibility (1/GPa) = 0.01702104
#
# Stress axis : x y z
#
# Youngs Moduli (GPa) = 95.03028 70.29221 91.21625
#
# Poissons Ratio (x) = 0.35110 0.23178
# Poissons Ratio (y) = 0.47466 0.16508
# Poissons Ratio (z) = 0.24147 0.12721
#
# Static dielectric constant tensor:
#      x y z
#    x 5.309830 0.000000 -2.695600 
#    y 0.000000 4.655350 0.000000 
#    z -2.695600 0.000000 11.078110 
# 
# 
# High freq. dielectric constant tensor:
#      x y z
#    x 1.909410 0.000000 0.010330 
#    y 0.000000 1.909290 0.000000 
#    z 0.010330 0.000000 1.907820 
# 
# From -- ./inp_files/52930.got.cif
#   From: 2010.03.12/outbox.cif.g09.slc.cpg/sg14_27_cif.got.tgz:52930.got - 2010.03.31 13:35:05.
