data_PCOD8128159
_publ_section_title
;
Structure prediction by ZEFSAII (Michael W. Deem and Ramdas Pophale) SiO2 
 PCOD8128159
Probable space group: P 21/C
;
_chemical_formula_sum "Si O2"
_cell_formula_units_Z 28
_cell_length_a 12.676247
_cell_length_b 13.337914
_cell_length_c 9.122143
_cell_angle_alpha 90.000000
_cell_angle_beta 126.775393
_cell_angle_gamma 90.000000
_cell_volume 1235.383499
_symmetry_space_group_name_H-M "P 21/C"
_symmetry_group_IT_number 14
_symmetry_cell_setting 'monoclinic'
loop_
_space_group_symop_operation_xyz
x,y,z
-x,1/2+y,1/2-z
-x,-y,-z
x,1/2-y,1/2+z
loop_
_atom_site_type_symbol
_atom_site_label
_atom_site_fract_x
_atom_site_fract_y
_atom_site_fract_z
Si Si1 0.334641 0.360242 0.399796
Si Si2 0.491115 0.252310 0.281484
Si Si3 0.671780 0.280315 0.183855
Si Si4 0.787127 0.058488 0.274979
Si Si5 0.059292 0.459388 0.842317
Si Si6 0.942345 0.151304 0.815148
Si Si7 0.921895 0.766017 0.801263
O O1 0.399169 0.326726 0.298956
O O2 0.413691 0.324222 0.609628
O O3 0.314446 0.480427 0.386226
O O4 0.188690 0.317168 0.284906
O O5 0.595019 0.313823 0.267172
O O6 0.577560 0.190704 0.470000
O O7 0.707054 0.161668 0.220810
O O8 0.801136 0.346408 0.274780
O O9 0.830368 0.012424 0.466853
O O10 0.924230 0.076834 0.304972
O O11 0.020092 0.535996 0.680448
O O12 0.127738 0.361942 0.830564
O O13 0.950016 0.213318 0.667718
O O14 0.048509 0.201721 0.009317
#
# Coordination Sequence:
#
# PCOD8128159 Si02
#       7
#     4   4   4   4   4   4   4
#     4  11  23  43  66  93 128 175 219 271 318 391
#     4  10  24  42  62  88 124 172 226 256 314 372
#     4  11  23  43  66  93 128 175 219 271 318 391
#     4  11  22  39  69  95 132 170 220 267 327 405
#     4  11  23  38  61 108 133 167 210 267 345 397
#     4  12  23  40  66  97 135 169 212 275 335 390
#     4  12  23  40  66  97 135 169 212 275 335 390
#
# _framework density 22.665026000000001
#
# number of rings (size 3 to 8) (size 9 to 14) (size 15 to 20)
#    0.000    0.857    2.857    5.571    0.000    2.286 
#    0.000    2.857    0.000    6.857    0.000    0.000 
#    0.000    0.000    0.000    0.000    0.000    0.000 
#
# Total GULP energy -347151.700093 kJ/mol
# GULP energy per Si atom -12398.275003 kJ/mol
# Density = 2.261344 g / cm^3
# Si number density = 22.665026 Si / 1000 Ang^3
#
#
#
# Elastic Constant Matrix: (Units=GPa)
#
#
# Indices 1 2 3 4 5 6 
#
# 1 92.3985 14.4762 25.4116 0.0000 -14.4606 0.0000
# 2 14.4762 72.8349 3.3711 0.0000 -4.2758 0.0000
# 3 25.4116 3.3711 73.8518 0.0000 -7.9803 0.0000
# 4 0.0000 0.0000 0.0000 23.2655 0.0000 6.4500
# 5 -14.4606 -4.2758 -7.9803 0.0000 35.3585 0.0000
# 6 0.0000 0.0000 0.0000 6.4500 0.0000 18.9974
#
#
#
# Elastic Compliance Matrix: (Units=1/GPa)
#
#
# Indices 1 2 3 4 5 6 
#
# 1 0.012872 -0.002136 -0.003885 0.000000 0.004129 0.000000
# 2 -0.002136 0.014198 0.000183 0.000000 0.000884 0.000000
# 3 -0.003885 0.000183 0.015067 0.000000 0.001834 0.000000
# 4 0.000000 0.000000 0.000000 0.047448 0.000000 -0.016109
# 5 0.004129 0.000884 0.001834 0.000000 0.030491 0.000000
# 6 0.000000 0.000000 0.000000 -0.016109 0.000000 0.058108
#
#
# Mechanical properties :
#
#
# Convention : Reuss Voigt Hill
#
# Bulk Modulus (GPa) = 32.83095 36.17809 34.50452
# Shear Modulus (GPa) = 24.99800 28.57938 26.78869
#
# Velocity S-wave (km/s) = 3.32465 3.55483 3.44166
# Velocity P-wave (km/s) = 5.40874 5.73113 5.57227
#
# Compressibility (1/GPa) = 0.03045907
#
# Stress axis : x y z
#
# Youngs Moduli (GPa) = 77.68711 70.43380 66.36848
#
# Poissons Ratio (x) = 0.15046 0.25787
# Poissons Ratio (y) = 0.16595 -0.01211
# Poissons Ratio (z) = 0.30185 -0.01286
#
# Static dielectric constant tensor:
#      x y z
#    x 4.253980 0.000000 -0.163540 
#    y 0.000000 3.965720 0.000000 
#    z -0.163540 0.000000 4.208300 
# 
# 
# High freq. dielectric constant tensor:
#      x y z
#    x 1.901280 0.000000 -0.008230 
#    y 0.000000 1.880320 0.000000 
#    z -0.008230 0.000000 1.900600 
# 
# From -- ./inp_files/12985.got.cif
#   From: 2010.03.12/outbox.cif.g09.slc.cpg/sg14_7_cif.got.tgz:12985.got - 2010.03.31 13:35:05.
