data_PCOD8128996
_publ_section_title
;
Structure prediction by ZEFSAII (Michael W. Deem and Ramdas Pophale) SiO2 
 PCOD8128996
Probable space group: P 21/C
;
_chemical_formula_sum "Si O2"
_cell_formula_units_Z 32
_cell_length_a 6.748632
_cell_length_b 27.711917
_cell_length_c 9.788601
_cell_angle_alpha 90.000000
_cell_angle_beta 56.511777
_cell_angle_gamma 90.000000
_cell_volume 1526.752377
_symmetry_space_group_name_H-M "P 21/C"
_symmetry_group_IT_number 14
_symmetry_cell_setting 'monoclinic'
loop_
_space_group_symop_operation_xyz
x,y,z
-x,1/2+y,1/2-z
-x,-y,-z
x,1/2-y,1/2+z
loop_
_atom_site_type_symbol
_atom_site_label
_atom_site_fract_x
_atom_site_fract_y
_atom_site_fract_z
Si Si1 0.409000 0.476953 0.171279
Si Si2 0.464399 0.701457 0.389379
Si Si3 0.978263 0.843868 0.002650
Si Si4 0.747217 0.387881 0.112492
Si Si5 0.029779 0.583772 0.698283
Si Si6 0.483851 0.293207 0.319762
Si Si7 0.139406 0.377968 0.740923
Si Si8 0.519044 0.041790 0.102307
O O1 0.565169 0.431120 0.154630
O O2 0.134737 0.463104 0.251412
O O3 0.413720 0.518967 0.279874
O O4 0.500000 0.500000 0.000000
O O5 0.478160 0.749275 0.295148
O O6 0.414019 0.715929 0.566492
O O7 0.698434 0.668456 0.285403
O O8 0.247420 0.672753 0.407442
O O9 0.943515 0.877927 0.884358
O O10 0.902380 0.872248 0.168885
O O11 0.800148 0.798826 0.059846
O O12 0.603853 0.341051 0.213842
O O13 0.931657 0.403978 0.158786
O O14 0.902409 0.375869 0.921123
O O15 0.279039 0.578046 0.525207
O O16 0.276760 0.428220 0.711748
O O17 0.500000 0.000000 0.000000
#
# Coordination Sequence:
#
# PCOD8128996 Si02
#       8
#     4   4   4   4   4   4   4   4
#     4  12  28  43  67 105 137 185 229 283 343 404
#     4  11  26  47  71 102 136 175 228 277 341 411
#     4  11  23  46  72  96 135 179 221 271 342 404
#     4  12  26  46  66 101 144 174 226 288 337 403
#     4  12  23  46  71  93 137 185 224 280 339 401
#     4  11  26  46  71 102 134 176 224 279 340 409
#     4  11  27  44  67 104 138 176 224 285 333 403
#     4  12  24  45  71  98 137 180 234 278 336 405
#
# _framework density 20.959523000000001
#
# number of rings (size 3 to 8) (size 9 to 14) (size 15 to 20)
#    0.000    0.500    5.000    2.625    7.000    4.000 
#    0.000    0.000    0.000    0.000    0.000    0.000 
#    0.000    0.000    0.000    0.000    0.000    0.000 
#
# Total GULP energy -396912.199902 kJ/mol
# GULP energy per Si atom -12403.506247 kJ/mol
# Density = 2.091182 g / cm^3
# Si number density = 20.959523 Si / 1000 Ang^3
#
#
#
# Elastic Constant Matrix: (Units=GPa)
#
#
# Indices 1 2 3 4 5 6 
#
# 1 88.0212 15.9083 11.4631 0.0000 8.6210 0.0000
# 2 15.9083 90.0290 16.0638 0.0000 13.1262 0.0000
# 3 11.4631 16.0638 78.2611 0.0000 5.7270 0.0000
# 4 0.0000 0.0000 0.0000 45.8206 0.0000 3.7974
# 5 8.6210 13.1262 5.7270 0.0000 36.9218 0.0000
# 6 0.0000 0.0000 0.0000 3.7974 0.0000 31.1940
#
#
#
# Elastic Compliance Matrix: (Units=1/GPa)
#
#
# Indices 1 2 3 4 5 6 
#
# 1 0.012016 -0.001597 -0.001283 0.000000 -0.002039 0.000000
# 2 -0.001597 0.012287 -0.002019 0.000000 -0.003682 0.000000
# 3 -0.001283 -0.002019 0.013458 0.000000 -0.001070 0.000000
# 4 0.000000 0.000000 0.000000 0.022047 0.000000 -0.002684
# 5 -0.002039 -0.003682 -0.001070 0.000000 0.029035 0.000000
# 6 0.000000 0.000000 0.000000 -0.002684 0.000000 0.032384
#
#
# Mechanical properties :
#
#
# Convention : Reuss Voigt Hill
#
# Bulk Modulus (GPa) = 35.76028 38.13129 36.94579
# Shear Modulus (GPa) = 35.62613 36.97903 36.30258
#
# Velocity S-wave (km/s) = 4.12729 4.20492 4.16628
# Velocity P-wave (km/s) = 6.30962 6.46587 6.38822
#
# Compressibility (1/GPa) = 0.02796399
#
# Stress axis : x y z
#
# Youngs Moduli (GPa) = 83.22007 81.38832 74.30344
#
# Poissons Ratio (x) = 0.12999 0.09533
# Poissons Ratio (y) = 0.13291 0.14999
# Poissons Ratio (z) = 0.10677 0.16429
#
# Static dielectric constant tensor:
#      x y z
#    x 4.137190 0.000000 0.169840 
#    y 0.000000 3.316240 0.000000 
#    z 0.169840 0.000000 3.756980 
# 
# 
# High freq. dielectric constant tensor:
#      x y z
#    x 1.839060 0.000000 0.007260 
#    y 0.000000 1.825000 0.000000 
#    z 0.007260 0.000000 1.828190 
# 
# From -- ./inp_files/6963.got.cif
#   From: 2010.03.12/outbox.cif.g09.slc.cpg/sg14_4_cif.got.tgz:6963.got - 2010.03.31 13:35:05.
