data_PCOD8128103
_publ_section_title
;
Structure prediction by ZEFSAII (Michael W. Deem and Ramdas Pophale) SiO2 
 PCOD8128103
Probable space group: P 21/C
;
_chemical_formula_sum "Si O2"
_cell_formula_units_Z 32
_cell_length_a 21.967508
_cell_length_b 9.036122
_cell_length_c 13.299223
_cell_angle_alpha 90.000000
_cell_angle_beta 31.236145
_cell_angle_gamma 90.000000
_cell_volume 1368.969004
_symmetry_space_group_name_H-M "P 21/C"
_symmetry_group_IT_number 14
_symmetry_cell_setting 'monoclinic'
loop_
_space_group_symop_operation_xyz
x,y,z
-x,1/2+y,1/2-z
-x,-y,-z
x,1/2-y,1/2+z
loop_
_atom_site_type_symbol
_atom_site_label
_atom_site_fract_x
_atom_site_fract_y
_atom_site_fract_z
Si Si1 0.740643 0.660021 0.058077
Si Si2 0.485253 0.868638 0.658829
Si Si3 0.875600 0.108851 0.733044
Si Si4 0.280420 0.536915 0.734666
Si Si5 0.961320 0.793830 0.658940
Si Si6 0.172641 0.698270 0.487265
Si Si7 0.675804 0.550955 0.750737
Si Si8 0.480719 0.529273 0.692283
O O1 0.780605 0.589382 0.108896
O O2 0.640584 0.557195 0.152575
O O3 0.689834 0.822500 0.148275
O O4 0.848852 0.684597 0.826945
O O5 0.403665 0.919151 0.682628
O O6 0.455068 0.702796 0.734216
O O7 0.464099 0.977760 0.780984
O O8 0.620874 0.881995 0.430106
O O9 0.781703 0.044309 0.786009
O O10 0.816126 0.202171 0.906590
O O11 0.969076 0.218658 0.545847
O O12 0.934468 0.968799 0.705624
O O13 0.419781 0.504595 0.531797
O O14 0.270879 0.691677 0.805503
O O15 0.044373 0.750321 0.634589
O O16 0.200716 0.533415 0.403136
#
# Coordination Sequence:
#
# PCOD8128103 Si02
#       8
#     4   4   4   4   4   4   4   4
#     4  12  25  44  71 108 146 193 248 304 371 440
#     4  11  26  44  71 104 147 191 245 301 370 447
#     4  10  23  50  76 102 145 201 244 305 386 436
#     4  11  26  44  78 104 149 195 247 313 376 451
#     4  10  25  43  75 106 140 194 246 305 366 449
#     4  11  24  46  75 107 142 193 251 307 374 440
#     4  11  24  45  71 101 147 195 240 310 359 444
#     4  12  26  46  71 112 146 195 245 306 378 452
#
# _framework density 23.375256
#
# number of rings (size 3 to 8) (size 9 to 14) (size 15 to 20)
#    0.000    1.000    2.500    2.625   12.250    0.000 
#    2.250    0.625    0.000    0.000    0.000    0.000 
#    0.000    0.000    0.000    0.000    0.000    0.000 
#
# Total GULP energy -396707.918665 kJ/mol
# GULP energy per Si atom -12397.122458 kJ/mol
# Density = 2.332205 g / cm^3
# Si number density = 23.375256 Si / 1000 Ang^3
#
#
#
# Elastic Constant Matrix: (Units=GPa)
#
#
# Indices 1 2 3 4 5 6 
#
# 1 96.6111 51.3159 35.8168 0.0000 -2.8680 0.0000
# 2 51.3159 139.4390 43.3795 0.0000 -3.0507 0.0000
# 3 35.8168 43.3795 112.1097 0.0000 1.6717 0.0000
# 4 0.0000 0.0000 0.0000 46.9817 0.0000 1.9436
# 5 -2.8680 -3.0507 1.6717 0.0000 28.5175 0.0000
# 6 0.0000 0.0000 0.0000 1.9436 0.0000 41.7433
#
#
#
# Elastic Compliance Matrix: (Units=1/GPa)
#
#
# Indices 1 2 3 4 5 6 
#
# 1 0.013597 -0.004119 -0.002766 0.000000 0.001089 0.000000
# 2 -0.004119 0.009433 -0.002345 0.000000 0.000732 0.000000
# 3 -0.002766 -0.002345 0.010728 0.000000 -0.001158 0.000000
# 4 0.000000 0.000000 0.000000 0.021326 0.000000 -0.000993
# 5 0.001089 0.000732 -0.001158 0.000000 0.035322 0.000000
# 6 0.000000 0.000000 0.000000 -0.000993 0.000000 0.024002
#
#
# Mechanical properties :
#
#
# Convention : Reuss Voigt Hill
#
# Bulk Modulus (GPa) = 65.37206 67.68713 66.52960
# Shear Modulus (GPa) = 36.24033 37.95835 37.09934
#
# Velocity S-wave (km/s) = 3.94175 4.03410 3.98819
# Velocity P-wave (km/s) = 6.98166 7.12167 7.05201
#
# Compressibility (1/GPa) = 0.01529705
#
# Stress axis : x y z
#
# Youngs Moduli (GPa) = 73.54738 106.00939 93.21281
#
# Poissons Ratio (x) = 0.43670 0.25784
# Poissons Ratio (y) = 0.30297 0.21857
# Poissons Ratio (z) = 0.20344 0.24858
#
# Static dielectric constant tensor:
#      x y z
#    x 4.001380 0.000000 0.126980 
#    y 0.000000 4.242470 0.000000 
#    z 0.126980 0.000000 4.621400 
# 
# 
# High freq. dielectric constant tensor:
#      x y z
#    x 1.907950 0.000000 0.004890 
#    y 0.000000 1.924360 0.000000 
#    z 0.004890 0.000000 1.940930 
# 
# From -- ./inp_files/51350.got.cif
#   From: 2010.03.12/outbox.cif.g09.slc.cpg/sg14_26_cif.got.tgz:51350.got - 2010.03.31 13:35:05.
