data_PCOD8128803
_publ_section_title
;
Structure prediction by ZEFSAII (Michael W. Deem and Ramdas Pophale) SiO2 
 PCOD8128803
Probable space group: P 21/C
;
_chemical_formula_sum "Si O2"
_cell_formula_units_Z 20
_cell_length_a 17.307603
_cell_length_b 8.240967
_cell_length_c 18.847204
_cell_angle_alpha 90.000000
_cell_angle_beta 158.433374
_cell_angle_gamma 90.000000
_cell_volume 988.137408
_symmetry_space_group_name_H-M "P 21/C"
_symmetry_group_IT_number 14
_symmetry_cell_setting 'monoclinic'
loop_
_space_group_symop_operation_xyz
x,y,z
-x,1/2+y,1/2-z
-x,-y,-z
x,1/2-y,1/2+z
loop_
_atom_site_type_symbol
_atom_site_label
_atom_site_fract_x
_atom_site_fract_y
_atom_site_fract_z
Si Si1 0.505199 0.224746 0.149764
Si Si2 0.634775 0.251794 0.612233
Si Si3 0.248849 0.088926 0.330689
Si Si4 0.181769 0.542938 0.351780
Si Si5 0.127204 0.732258 0.933892
O O1 0.663091 0.187939 0.217981
O O2 0.638105 0.242107 0.334653
O O3 0.368319 0.385235 0.009734
O O4 0.340507 0.081290 0.024832
O O5 0.390571 0.190534 0.394255
O O6 0.700751 0.400095 0.619217
O O7 0.779335 0.097043 0.715960
O O8 0.016537 0.160982 0.136449
O O9 0.132812 0.695121 0.359702
O O10 0.963260 0.450869 0.146984
#
# Coordination Sequence:
#
# PCOD8128803 Si02
#       5
#     4   4   4   4   4
#     4   9  21  38  59  84 111 150 192 230 279 341
#     4   9  18  41  61  82 120 148 182 240 283 332
#     4   8  19  39  60  85 114 148 184 232 283 334
#     4  11  23  38  56  85 116 150 187 240 284 331
#     4  11  23  38  59  84 116 151 193 232 285 340
#
# _framework density 20.240099000000001
#
# number of rings (size 3 to 8) (size 9 to 14) (size 15 to 20)
#    1.200    1.200    0.000    1.800    0.000    6.400 
#    0.000    0.000    0.000    0.000    0.000    0.000 
#    0.000    0.000    0.000    0.000    0.000    0.000 
#
# Total GULP energy -247767.231636 kJ/mol
# GULP energy per Si atom -12388.361582 kJ/mol
# Density = 2.019403 g / cm^3
# Si number density = 20.240099 Si / 1000 Ang^3
#
#
#
# Elastic Constant Matrix: (Units=GPa)
#
#
# Indices 1 2 3 4 5 6 
#
# 1 56.1773 7.7820 -7.0912 0.0000 1.2088 0.0000
# 2 7.7820 46.4060 15.3524 0.0000 -4.7748 0.0000
# 3 -7.0912 15.3524 72.9514 0.0000 -0.7547 0.0000
# 4 0.0000 0.0000 0.0000 18.0654 0.0000 6.9062
# 5 1.2088 -4.7748 -0.7547 0.0000 15.9437 0.0000
# 6 0.0000 0.0000 0.0000 6.9062 0.0000 42.9917
#
#
#
# Elastic Compliance Matrix: (Units=1/GPa)
#
#
# Indices 1 2 3 4 5 6 
#
# 1 0.018796 -0.004314 0.002708 0.000000 -0.002589 0.000000
# 2 -0.004314 0.024892 -0.005580 0.000000 0.007518 0.000000
# 3 0.002708 -0.005580 0.015133 0.000000 -0.001160 0.000000
# 4 0.000000 0.000000 0.000000 0.058976 0.000000 -0.009474
# 5 -0.002589 0.007518 -0.001160 0.000000 0.065114 0.000000
# 6 0.000000 0.000000 0.000000 -0.009474 0.000000 0.024782
#
#
# Mechanical properties :
#
#
# Convention : Reuss Voigt Hill
#
# Bulk Modulus (GPa) = 22.49769 23.06899 22.78334
# Shear Modulus (GPa) = 21.10756 26.03293 23.57024
#
# Velocity S-wave (km/s) = 3.23284 3.59026 3.41623
# Velocity P-wave (km/s) = 5.00744 5.34874 5.18090
#
# Compressibility (1/GPa) = 0.04444901
#
# Stress axis : x y z
#
# Youngs Moduli (GPa) = 53.20287 40.17358 66.07947
#
# Poissons Ratio (x) = 0.17332 -0.17896
# Poissons Ratio (y) = 0.22953 0.36873
# Poissons Ratio (z) = -0.14408 0.22417
#
# Static dielectric constant tensor:
#      x y z
#    x 3.606840 0.000000 0.220000 
#    y 0.000000 3.509290 0.000000 
#    z 0.220000 0.000000 3.235000 
# 
# 
# High freq. dielectric constant tensor:
#      x y z
#    x 1.790190 0.000000 0.023100 
#    y 0.000000 1.785900 0.000000 
#    z 0.023100 0.000000 1.751750 
# 
# From -- ./inp_files/52679.got.cif
#   From: 2010.03.12/outbox.cif.g09.slc.cpg/sg14_27_cif.got.tgz:52679.got - 2010.03.31 13:35:05.
