data_PCOD8128558
_publ_section_title
;
Structure prediction by ZEFSAII (Michael W. Deem and Ramdas Pophale) SiO2 
 PCOD8128558
Probable space group: P 21/C
;
_chemical_formula_sum "Si O2"
_cell_formula_units_Z 28
_cell_length_a 5.327035
_cell_length_b 21.212299
_cell_length_c 11.802660
_cell_angle_alpha 90.000000
_cell_angle_beta 67.133070
_cell_angle_gamma 90.000000
_cell_volume 1228.870266
_symmetry_space_group_name_H-M "P 21/C"
_symmetry_group_IT_number 14
_symmetry_cell_setting 'monoclinic'
loop_
_space_group_symop_operation_xyz
x,y,z
-x,1/2+y,1/2-z
-x,-y,-z
x,1/2-y,1/2+z
loop_
_atom_site_type_symbol
_atom_site_label
_atom_site_fract_x
_atom_site_fract_y
_atom_site_fract_z
Si Si1 0.543015 0.949281 0.335898
Si Si2 0.399895 0.813260 0.021432
Si Si3 0.123005 0.166699 0.220653
Si Si4 0.306815 0.582366 0.113101
Si Si5 0.122138 0.734665 0.878784
Si Si6 0.144142 0.889217 0.244392
Si Si7 0.618371 0.791641 0.606253
O O1 0.335610 0.933212 0.475261
O O2 0.370468 0.939448 0.249938
O O3 0.830872 0.912330 0.299523
O O4 0.613031 0.023135 0.324398
O O5 0.203838 0.869087 0.102364
O O6 0.440718 0.772197 0.129537
O O7 0.657926 0.848036 0.916726
O O8 0.282319 0.759901 0.959008
O O9 0.250251 0.212194 0.293031
O O10 0.003107 0.103226 0.299686
O O11 0.871145 0.207365 0.212816
O O12 0.497587 0.639858 0.110831
O O13 0.217904 0.667344 0.817632
O O14 0.813243 0.721377 0.966178
#
# Coordination Sequence:
#
# PCOD8128558 Si02
#       7
#     4   4   4   4   4   4   4
#     4  11  28  44  73  99 137 186 232 293 335 404
#     4  11  25  40  68 101 137 181 221 283 357 419
#     4  11  24  40  69  99 135 176 228 284 347 422
#     4  11  24  45  68  99 133 179 236 284 345 404
#     4  11  23  41  68 102 133 177 223 286 355 407
#     4  12  25  46  67 103 142 176 232 285 347 410
#     4  11  21  39  69  97 130 171 224 288 341 411
#
# _framework density 22.785155
#
# number of rings (size 3 to 8) (size 9 to 14) (size 15 to 20)
#    0.000    0.857    1.429    6.000   10.000    1.143 
#    0.000    1.429    0.000    0.000    0.000    0.000 
#    0.000    0.000    0.000    0.000    0.000    0.000 
#
# Total GULP energy -346893.161950 kJ/mol
# GULP energy per Si atom -12389.041498 kJ/mol
# Density = 2.273330 g / cm^3
# Si number density = 22.785155 Si / 1000 Ang^3
#
#
#
# Elastic Constant Matrix: (Units=GPa)
#
#
# Indices 1 2 3 4 5 6 
#
# 1 70.6506 17.5852 6.5297 0.0000 -2.8534 0.0000
# 2 17.5852 95.8860 42.9380 0.0000 -20.5654 0.0000
# 3 6.5297 42.9380 66.4373 0.0000 -16.1013 0.0000
# 4 0.0000 0.0000 0.0000 31.0154 0.0000 0.5782
# 5 -2.8534 -20.5654 -16.1013 0.0000 38.5922 0.0000
# 6 0.0000 0.0000 0.0000 0.5782 0.0000 30.6507
#
#
#
# Elastic Compliance Matrix: (Units=1/GPa)
#
#
# Indices 1 2 3 4 5 6 
#
# 1 0.014843 -0.002960 0.000376 0.000000 -0.000323 0.000000
# 2 -0.002960 0.015937 -0.008904 0.000000 0.004559 0.000000
# 3 0.000376 -0.008904 0.021834 0.000000 0.004392 0.000000
# 4 0.000000 0.000000 0.000000 0.032253 0.000000 -0.000608
# 5 -0.000323 0.004559 0.004392 0.000000 0.030150 0.000000
# 6 0.000000 0.000000 0.000000 -0.000608 0.000000 0.032637
#
#
# Mechanical properties :
#
#
# Convention : Reuss Voigt Hill
#
# Bulk Modulus (GPa) = 33.74074 40.78664 37.26369
# Shear Modulus (GPa) = 27.69926 31.11306 29.40616
#
# Velocity S-wave (km/s) = 3.49043 3.69927 3.59637
# Velocity P-wave (km/s) = 5.57535 6.01544 5.79957
#
# Compressibility (1/GPa) = 0.02963776
#
# Stress axis : x y z
#
# Youngs Moduli (GPa) = 67.37149 62.74735 45.79994
#
# Poissons Ratio (x) = 0.18571 -0.01721
# Poissons Ratio (y) = 0.19940 0.40781
# Poissons Ratio (z) = -0.02531 0.55871
#
# Static dielectric constant tensor:
#      x y z
#    x 4.085530 0.000000 -0.292530 
#    y 0.000000 4.020060 0.000000 
#    z -0.292530 0.000000 4.433900 
# 
# 
# High freq. dielectric constant tensor:
#      x y z
#    x 1.900150 0.000000 -0.016710 
#    y 0.000000 1.887560 0.000000 
#    z -0.016710 0.000000 1.915020 
# 
# From -- ./inp_files/21730.got.cif
#   From: 2010.03.12/outbox.cif.g09.slc.cpg/sg14_11_cif.got.tgz:21730.got - 2010.03.31 13:35:05.
