data_PCOD8128476
_publ_section_title
;
Structure prediction by ZEFSAII (Michael W. Deem and Ramdas Pophale) SiO2 
 PCOD8128476
Probable space group: P 21/C
;
_chemical_formula_sum "Si O2"
_cell_formula_units_Z 24
_cell_length_a 13.862815
_cell_length_b 17.681018
_cell_length_c 5.014969
_cell_angle_alpha 90.000000
_cell_angle_beta 99.253402
_cell_angle_gamma 90.000000
_cell_volume 1213.216478
_symmetry_space_group_name_H-M "P 21/C"
_symmetry_group_IT_number 14
_symmetry_cell_setting 'monoclinic'
loop_
_space_group_symop_operation_xyz
x,y,z
-x,1/2+y,1/2-z
-x,-y,-z
x,1/2-y,1/2+z
loop_
_atom_site_type_symbol
_atom_site_label
_atom_site_fract_x
_atom_site_fract_y
_atom_site_fract_z
Si Si1 0.781156 0.350177 0.181559
Si Si2 0.009433 0.795203 0.165891
Si Si3 0.050963 0.036857 0.773713
Si Si4 0.451100 0.961824 0.728151
Si Si5 0.235764 0.947939 0.802671
Si Si6 0.424582 0.795018 0.561763
O O1 0.872676 0.299051 0.301947
O O2 0.743724 0.398181 0.422051
O O3 0.693283 0.301017 0.015636
O O4 0.820069 0.402166 0.955595
O O5 0.974112 0.732786 0.362390
O O6 0.959322 0.873478 0.220626
O O7 0.166656 0.018708 0.840184
O O8 0.000000 0.000000 0.500000
O O9 0.000000 0.000000 0.000000
O O10 0.336038 0.976874 0.713000
O O11 0.470575 0.872568 0.692439
O O12 0.500000 0.000000 0.500000
O O13 0.500000 0.000000 0.000000
O O14 0.459007 0.729511 0.782376
#
# Coordination Sequence:
#
# PCOD8128476 Si02
#       6
#     4   4   4   4   4   4
#     4  11  20  35  57  88 125 155 193 237 314 380
#     4  12  23  35  55  86 126 161 200 253 301 352
#     4  12  22  40  61  85 120 166 214 241 294 372
#     4  11  23  40  63  90 122 158 208 257 311 359
#     4  11  21  38  62  88 115 162 207 251 296 361
#     4  11  21  36  58  89 124 156 188 246 315 382
#
# _framework density 19.782126000000002
#
# number of rings (size 3 to 8) (size 9 to 14) (size 15 to 20)
#    0.000    0.667    3.333    8.000    0.000    0.000 
#    0.000    0.000    0.000    6.000    0.000    0.000 
#    0.000    0.000    0.000    0.000    0.000    0.000 
#
# Total GULP energy -297502.663423 kJ/mol
# GULP energy per Si atom -12395.944309 kJ/mol
# Density = 1.973710 g / cm^3
# Si number density = 19.782126 Si / 1000 Ang^3
#
#
#
# Elastic Constant Matrix: (Units=GPa)
#
#
# Indices 1 2 3 4 5 6 
#
# 1 74.9575 37.8537 33.0533 0.0000 -13.9564 0.0000
# 2 37.8537 105.4965 44.2764 0.0000 -4.8356 0.0000
# 3 33.0533 44.2764 140.1337 0.0000 -18.8683 0.0000
# 4 0.0000 0.0000 0.0000 48.4061 0.0000 -0.8841
# 5 -13.9564 -4.8356 -18.8683 0.0000 26.6284 0.0000
# 6 0.0000 0.0000 0.0000 -0.8841 0.0000 27.5578
#
#
#
# Elastic Compliance Matrix: (Units=1/GPa)
#
#
# Indices 1 2 3 4 5 6 
#
# 1 0.018206 -0.005545 -0.001540 0.000000 0.007444 0.000000
# 2 -0.005545 0.012623 -0.003055 0.000000 -0.002778 0.000000
# 3 -0.001540 -0.003055 0.009154 0.000000 0.005125 0.000000
# 4 0.000000 0.000000 0.000000 0.020671 0.000000 0.000663
# 5 0.007444 -0.002778 0.005125 0.000000 0.044582 0.000000
# 6 0.000000 0.000000 0.000000 0.000663 0.000000 0.036309
#
#
# Mechanical properties :
#
#
# Convention : Reuss Voigt Hill
#
# Bulk Modulus (GPa) = 50.74961 61.21719 55.98340
# Shear Modulus (GPa) = 29.69238 34.21207 31.95222
#
# Velocity S-wave (km/s) = 3.87844 4.16317 4.02332
# Velocity P-wave (km/s) = 6.76508 7.35678 7.06713
#
# Compressibility (1/GPa) = 0.01970459
#
# Stress axis : x y z
#
# Youngs Moduli (GPa) = 54.92603 79.21843 109.23671
#
# Poissons Ratio (x) = 0.43928 0.16822
# Poissons Ratio (y) = 0.30457 0.33368
# Poissons Ratio (z) = 0.08458 0.24198
#
# Static dielectric constant tensor:
#      x y z
#    x 3.553140 0.000000 -0.033930 
#    y 0.000000 3.561930 0.000000 
#    z -0.033930 0.000000 3.940480 
# 
# 
# High freq. dielectric constant tensor:
#      x y z
#    x 1.735940 0.000000 -0.016970 
#    y 0.000000 1.767600 0.000000 
#    z -0.016970 0.000000 1.801570 
# 
# From -- ./inp_files/3533.got.cif
#   From: 2010.03.12/outbox.cif.g09.slc.cpg/sg14_2_cif.got.tgz:3533.got - 2010.03.31 13:35:05.
