data_PCOD8128211
_publ_section_title
;
Structure prediction by ZEFSAII (Michael W. Deem and Ramdas Pophale) SiO2 
 PCOD8128211
Probable space group: P 21/C
;
_chemical_formula_sum "Si O2"
_cell_formula_units_Z 20
_cell_length_a 19.228553
_cell_length_b 8.760354
_cell_length_c 11.636430
_cell_angle_alpha 90.000000
_cell_angle_beta 150.525255
_cell_angle_gamma 90.000000
_cell_volume 964.469104
_symmetry_space_group_name_H-M "P 21/C"
_symmetry_group_IT_number 14
_symmetry_cell_setting 'monoclinic'
loop_
_space_group_symop_operation_xyz
x,y,z
-x,1/2+y,1/2-z
-x,-y,-z
x,1/2-y,1/2+z
loop_
_atom_site_type_symbol
_atom_site_label
_atom_site_fract_x
_atom_site_fract_y
_atom_site_fract_z
Si Si1 0.639834 0.999824 0.626036
Si Si2 0.155724 0.235299 0.966117
Si Si3 0.377672 0.058818 0.666947
Si Si4 0.059441 0.989037 0.461493
Si Si5 0.340909 0.663360 0.315200
O O1 0.608545 0.985048 0.445917
O O2 0.500000 0.000000 0.500000
O O3 0.712224 0.161712 0.760291
O O4 0.736721 0.858389 0.799939
O O5 0.060168 0.345409 0.905662
O O6 0.041581 0.123489 0.750839
O O7 0.241993 0.332369 0.994524
O O8 0.365224 0.900725 0.721008
O O9 0.516751 0.150036 0.905661
O O10 0.220313 0.934101 0.702487
O O11 0.000000 0.000000 0.500000
#
# Coordination Sequence:
#
# PCOD8128211 Si02
#       5
#     4   4   4   4   4
#     4  12  25  38  70  98 130 172 216 270 331 382
#     4  11  24  45  64 101 128 175 221 265 331 390
#     4  10  24  44  66  95 137 165 228 272 318 390
#     4  11  25  43  70  91 136 174 216 268 328 391
#     4  10  24  43  65  98 129 176 217 272 325 382
#
# _framework density 20.736798
#
# number of rings (size 3 to 8) (size 9 to 14) (size 15 to 20)
#    0.000    1.200    2.000    2.400    5.600    3.200 
#    0.000    7.000    0.000    0.000    0.000    0.000 
#    0.000    0.000    0.000    0.000    0.000    0.000 
#
# Total GULP energy -248025.611432 kJ/mol
# GULP energy per Si atom -12401.280572 kJ/mol
# Density = 2.068960 g / cm^3
# Si number density = 20.736798 Si / 1000 Ang^3
#
#
#
# Elastic Constant Matrix: (Units=GPa)
#
#
# Indices 1 2 3 4 5 6 
#
# 1 186.4575 71.6167 57.9206 0.0000 -4.5769 0.0000
# 2 71.6167 152.0355 53.3720 0.0000 -15.1672 0.0000
# 3 57.9206 53.3720 90.8468 0.0000 9.5418 0.0000
# 4 0.0000 0.0000 0.0000 44.2909 0.0000 3.8837
# 5 -4.5769 -15.1672 9.5418 0.0000 21.3858 0.0000
# 6 0.0000 0.0000 0.0000 3.8837 0.0000 22.0403
#
#
#
# Elastic Compliance Matrix: (Units=1/GPa)
#
#
# Indices 1 2 3 4 5 6 
#
# 1 0.007311 -0.001964 -0.003699 0.000000 0.001823 0.000000
# 2 -0.001964 0.010577 -0.005986 0.000000 0.009752 0.000000
# 3 -0.003699 -0.005986 0.018268 0.000000 -0.013188 0.000000
# 4 0.000000 0.000000 0.000000 0.022932 0.000000 -0.004041
# 5 0.001823 0.009752 -0.013188 0.000000 0.059950 0.000000
# 6 0.000000 0.000000 0.000000 -0.004041 0.000000 0.046084
#
#
# Mechanical properties :
#
#
# Convention : Reuss Voigt Hill
#
# Bulk Modulus (GPa) = 77.77190 88.35093 83.06141
# Shear Modulus (GPa) = 25.94630 33.97208 29.95919
#
# Velocity S-wave (km/s) = 3.54110 4.05192 3.80509
# Velocity P-wave (km/s) = 7.36918 8.03674 7.71019
#
# Compressibility (1/GPa) = 0.01285812
#
# Stress axis : x y z
#
# Youngs Moduli (GPa) = 136.77697 94.54848 54.74063
#
# Poissons Ratio (x) = 0.18565 0.20250
# Poissons Ratio (y) = 0.26856 0.32768
# Poissons Ratio (z) = 0.50597 0.56597
#
# Static dielectric constant tensor:
#      x y z
#    x 3.737430 0.000000 0.366170 
#    y 0.000000 25.724260 0.000000 
#    z 0.366170 0.000000 3.476100 
# 
# 
# High freq. dielectric constant tensor:
#      x y z
#    x 1.816770 0.000000 0.010960 
#    y 0.000000 1.832350 0.000000 
#    z 0.010960 0.000000 1.812470 
# 
# From -- ./inp_files/27756.got.cif
#   From: 2010.03.12/outbox.cif.g09.slc.cpg/sg14_14_cif.got.tgz:27756.got - 2010.03.31 13:35:05.
