data_PCOD8128430
_publ_section_title
;
Structure prediction by ZEFSAII (Michael W. Deem and Ramdas Pophale) SiO2 
 PCOD8128430
Probable space group: P 21/C
;
_chemical_formula_sum "Si O2"
_cell_formula_units_Z 32
_cell_length_a 16.990512
_cell_length_b 12.882528
_cell_length_c 11.499799
_cell_angle_alpha 90.000000
_cell_angle_beta 147.724495
_cell_angle_gamma 90.000000
_cell_volume 1344.100355
_symmetry_space_group_name_H-M "P 21/C"
_symmetry_group_IT_number 14
_symmetry_cell_setting 'monoclinic'
loop_
_space_group_symop_operation_xyz
x,y,z
-x,1/2+y,1/2-z
-x,-y,-z
x,1/2-y,1/2+z
loop_
_atom_site_type_symbol
_atom_site_label
_atom_site_fract_x
_atom_site_fract_y
_atom_site_fract_z
Si Si1 0.186612 0.396658 0.591706
Si Si2 0.036302 0.297014 0.000205
Si Si3 0.626177 0.195598 0.370687
Si Si4 0.300598 0.367622 0.495368
Si Si5 0.603714 0.084531 0.937690
Si Si6 0.036158 0.460437 0.797434
Si Si7 0.298503 0.028353 0.463859
Si Si8 0.794282 0.138893 0.365858
O O1 0.064520 0.319649 0.492710
O O2 0.266671 0.333846 0.586310
O O3 0.111122 0.502464 0.452218
O O4 0.303329 0.429937 0.837625
O O5 0.173896 0.339351 0.246335
O O6 0.005249 0.367744 0.848279
O O7 0.889652 0.292143 0.895557
O O8 0.450202 0.183621 0.134056
O O9 0.663129 0.301984 0.479868
O O10 0.712989 0.209710 0.358518
O O11 0.690083 0.096717 0.520988
O O12 0.316429 0.491956 0.531246
O O13 0.429269 0.077564 0.703554
O O14 0.659454 0.073373 0.139916
O O15 0.152630 0.427468 0.843805
O O16 0.091761 0.559168 0.937531
#
# Coordination Sequence:
#
# PCOD8128430 Si02
#       8
#     4   4   4   4   4   4   4   4
#     4  12  27  47  74 107 152 187 238 301 366 426
#     4  12  26  45  78 105 142 194 245 295 359 432
#     4  10  26  44  72 107 146 192 239 296 367 422
#     4  11  25  48  74 107 143 192 247 294 350 436
#     4  11  24  45  73 102 144 196 237 296 360 422
#     4  11  24  47  71 108 141 187 239 304 346 435
#     4  10  26  46  68 110 146 187 240 295 363 428
#     4  11  24  44  70 108 143 182 248 300 354 423
#
# _framework density 23.807745000000001
#
# number of rings (size 3 to 8) (size 9 to 14) (size 15 to 20)
#    0.000    1.000    2.500    2.250    8.750    5.500 
#    4.500    0.000    0.000    0.000    0.000    0.000 
#    0.000    0.000    0.000    0.000    0.000    0.000 
#
# Total GULP energy -396726.617158 kJ/mol
# GULP energy per Si atom -12397.706786 kJ/mol
# Density = 2.375356 g / cm^3
# Si number density = 23.807745 Si / 1000 Ang^3
#
#
#
# Elastic Constant Matrix: (Units=GPa)
#
#
# Indices 1 2 3 4 5 6 
#
# 1 111.4019 38.2149 21.6169 0.0000 9.1890 0.0000
# 2 38.2149 90.7140 9.6209 0.0000 -3.0743 0.0000
# 3 21.6169 9.6209 96.9827 0.0000 4.1676 0.0000
# 4 0.0000 0.0000 0.0000 17.6283 0.0000 5.5520
# 5 9.1890 -3.0743 4.1676 0.0000 29.3433 0.0000
# 6 0.0000 0.0000 0.0000 5.5520 0.0000 22.8339
#
#
#
# Elastic Compliance Matrix: (Units=1/GPa)
#
#
# Indices 1 2 3 4 5 6 
#
# 1 0.011252 -0.004667 -0.001884 0.000000 -0.003745 0.000000
# 2 -0.004667 0.013129 -0.000386 0.000000 0.002892 0.000000
# 3 -0.001884 -0.000386 0.010812 0.000000 -0.000986 0.000000
# 4 0.000000 0.000000 0.000000 0.061431 0.000000 -0.014937
# 5 -0.003745 0.002892 -0.000986 0.000000 0.035695 0.000000
# 6 0.000000 0.000000 0.000000 -0.014937 0.000000 0.047426
#
#
# Mechanical properties :
#
#
# Convention : Reuss Voigt Hill
#
# Bulk Modulus (GPa) = 46.91041 48.66710 47.78875
# Shear Modulus (GPa) = 24.90948 29.27082 27.09015
#
# Velocity S-wave (km/s) = 3.23813 3.51018 3.37689
# Velocity P-wave (km/s) = 5.80752 6.07574 5.94314
#
# Compressibility (1/GPa) = 0.02131723
#
# Stress axis : x y z
#
# Youngs Moduli (GPa) = 88.87273 76.16844 92.49178
#
# Poissons Ratio (x) = 0.35550 0.17426
# Poissons Ratio (y) = 0.41479 0.03574
# Poissons Ratio (z) = 0.16744 0.02943
#
# Static dielectric constant tensor:
#      x y z
#    x 4.475250 0.000000 -0.091550 
#    y 0.000000 4.203370 0.000000 
#    z -0.091550 0.000000 4.397510 
# 
# 
# High freq. dielectric constant tensor:
#      x y z
#    x 1.944730 0.000000 0.000120 
#    y 0.000000 1.937230 0.000000 
#    z 0.000120 0.000000 1.956650 
# 
# From -- ./inp_files/34255.got.cif
#   From: 2010.03.12/outbox.cif.g09.slc.cpg/sg14_18_cif.got.tgz:34255.got - 2010.03.31 13:35:05.
