data_PCOD8128014
_publ_section_title
;
Structure prediction by ZEFSAII (Michael W. Deem and Ramdas Pophale) SiO2 
 PCOD8128014
Probable space group: P 21/C
;
_chemical_formula_sum "Si O2"
_cell_formula_units_Z 28
_cell_length_a 6.539096
_cell_length_b 15.824313
_cell_length_c 13.348902
_cell_angle_alpha 90.000000
_cell_angle_beta 111.520717
_cell_angle_gamma 90.000000
_cell_volume 1285.002981
_symmetry_space_group_name_H-M "P 21/C"
_symmetry_group_IT_number 14
_symmetry_cell_setting 'monoclinic'
loop_
_space_group_symop_operation_xyz
x,y,z
-x,1/2+y,1/2-z
-x,-y,-z
x,1/2-y,1/2+z
loop_
_atom_site_type_symbol
_atom_site_label
_atom_site_fract_x
_atom_site_fract_y
_atom_site_fract_z
Si Si1 0.348460 0.817159 0.424262
Si Si2 0.606103 0.777339 0.666167
Si Si3 0.042085 0.099931 0.264595
Si Si4 0.000322 0.543324 0.892493
Si Si5 0.574394 0.352479 0.662666
Si Si6 0.788814 0.525699 0.398726
Si Si7 0.535139 0.606966 0.754049
O O1 0.474762 0.818981 0.551430
O O2 0.118874 0.864990 0.405979
O O3 0.328076 0.717751 0.395322
O O4 0.475715 0.858064 0.353473
O O5 0.856009 0.808322 0.687711
O O6 0.525369 0.816611 0.754589
O O7 0.586873 0.677130 0.677576
O O8 0.104958 0.086300 0.162552
O O9 0.783091 0.094302 0.234633
O O10 0.136483 0.022438 0.347953
O O11 0.752973 0.552518 0.808028
O O12 0.000000 0.500000 0.000000
O O13 0.394464 0.415277 0.577260
O O14 0.667873 0.445798 0.327164
O O15 0.000000 0.500000 0.500000
#
# Coordination Sequence:
#
# PCOD8128014 Si02
#       7
#     4   4   4   4   4   4   4
#     4  11  24  43  66 101 135 181 228 283 347 411
#     4  10  24  42  66  94 134 179 218 282 339 406
#     4  11  22  42  66  94 131 173 223 279 339 401
#     4  12  24  39  74 102 136 178 226 285 352 407
#     4  10  23  45  64  94 135 172 226 279 338 413
#     4  11  25  43  69  97 133 179 230 286 340 410
#     4  11  24  46  64 101 140 174 234 285 337 418
#
# _framework density 21.789833000000002
#
# number of rings (size 3 to 8) (size 9 to 14) (size 15 to 20)
#    0.000    1.143    2.857    2.571    4.000    2.857 
#    5.143    0.000    0.000    0.000    0.000    0.000 
#    0.000    0.000    0.000    0.000    0.000    0.000 
#
# Total GULP energy -346873.655548 kJ/mol
# GULP energy per Si atom -12388.344841 kJ/mol
# Density = 2.174024 g / cm^3
# Si number density = 21.789833 Si / 1000 Ang^3
#
#
#
# Elastic Constant Matrix: (Units=GPa)
#
#
# Indices 1 2 3 4 5 6 
#
# 1 82.3528 37.9059 38.7184 0.0000 20.8574 0.0000
# 2 37.9059 110.3033 40.6380 0.0000 11.7469 0.0000
# 3 38.7184 40.6380 109.4192 0.0000 24.7510 0.0000
# 4 0.0000 0.0000 0.0000 30.6744 0.0000 2.9366
# 5 20.8574 11.7469 24.7510 0.0000 33.9700 0.0000
# 6 0.0000 0.0000 0.0000 2.9366 0.0000 42.0479
#
#
#
# Elastic Compliance Matrix: (Units=1/GPa)
#
#
# Indices 1 2 3 4 5 6 
#
# 1 0.017184 -0.004059 -0.002998 0.000000 -0.006963 0.000000
# 2 -0.004059 0.011487 -0.002988 0.000000 0.000697 0.000000
# 3 -0.002998 -0.002988 0.012763 0.000000 -0.006425 0.000000
# 4 0.000000 0.000000 0.000000 0.032820 0.000000 -0.002292
# 5 -0.006963 0.000697 -0.006425 0.000000 0.038154 0.000000
# 6 0.000000 0.000000 0.000000 -0.002292 0.000000 0.023942
#
#
# Mechanical properties :
#
#
# Convention : Reuss Voigt Hill
#
# Bulk Modulus (GPa) = 46.84983 59.62221 53.23602
# Shear Modulus (GPa) = 30.57059 33.65934 32.11496
#
# Velocity S-wave (km/s) = 3.74969 3.93456 3.84324
# Velocity P-wave (km/s) = 6.34779 6.93274 6.64670
#
# Compressibility (1/GPa) = 0.02134479
#
# Stress axis : x y z
#
# Youngs Moduli (GPa) = 58.19229 87.05191 78.35092
#
# Poissons Ratio (x) = 0.35338 0.23490
# Poissons Ratio (y) = 0.23622 0.23408
# Poissons Ratio (z) = 0.17447 0.26008
#
# Static dielectric constant tensor:
#      x y z
#    x 3.455790 0.000000 -0.165070 
#    y 0.000000 5.484230 0.000000 
#    z -0.165070 0.000000 3.782730 
# 
# 
# High freq. dielectric constant tensor:
#      x y z
#    x 1.858810 0.000000 0.002570 
#    y 0.000000 1.870840 0.000000 
#    z 0.002570 0.000000 1.852950 
# 
# From -- ./inp_files/37911.got.cif
#   From: 2010.03.12/outbox.cif.g09.slc.cpg/sg14_19_cif.got.tgz:37911.got - 2010.03.31 13:35:05.
