data_PCOD8128640
_publ_section_title
;
Structure prediction by ZEFSAII (Michael W. Deem and Ramdas Pophale) SiO2 
 PCOD8128640
Probable space group: P 21/C
;
_chemical_formula_sum "Si O2"
_cell_formula_units_Z 32
_cell_length_a 8.935940
_cell_length_b 14.954343
_cell_length_c 13.306887
_cell_angle_alpha 90.000000
_cell_angle_beta 59.232977
_cell_angle_gamma 90.000000
_cell_volume 1527.938408
_symmetry_space_group_name_H-M "P 21/C"
_symmetry_group_IT_number 14
_symmetry_cell_setting 'monoclinic'
loop_
_space_group_symop_operation_xyz
x,y,z
-x,1/2+y,1/2-z
-x,-y,-z
x,1/2-y,1/2+z
loop_
_atom_site_type_symbol
_atom_site_label
_atom_site_fract_x
_atom_site_fract_y
_atom_site_fract_z
Si Si1 0.609069 0.827967 0.995421
Si Si2 0.868451 0.157317 0.516812
Si Si3 0.766190 0.853950 0.499324
Si Si4 0.398291 0.915320 0.234487
Si Si5 0.179935 0.998738 0.134550
Si Si6 0.706483 0.339186 0.539828
Si Si7 0.440585 0.578801 0.219396
Si Si8 0.820719 0.475517 0.853105
O O1 0.502686 0.841304 0.135303
O O2 0.724837 0.739768 0.960992
O O3 0.733665 0.911554 0.935439
O O4 0.476908 0.817051 0.948874
O O5 0.707097 0.134881 0.643520
O O6 0.838633 0.256350 0.483536
O O7 0.881225 0.087297 0.422646
O O8 0.045473 0.152095 0.516796
O O9 0.627662 0.877083 0.633458
O O10 0.763127 0.928518 0.414174
O O11 0.268910 0.970889 0.208082
O O12 0.535512 0.982508 0.237424
O O13 0.976309 0.014049 0.220476
O O14 0.201503 0.923282 0.043248
O O15 0.671162 0.358309 0.668981
O O16 0.341236 0.569237 0.147981
#
# Coordination Sequence:
#
# PCOD8128640 Si02
#       8
#     4   4   4   4   4   4   4   4
#     4  11  24  44  71 101 136 177 229 278 335 405
#     4  12  26  44  71  98 140 178 224 284 337 400
#     4  12  26  45  67 102 136 178 229 278 340 395
#     4  11  21  46  72  95 130 182 220 275 344 394
#     4  11  23  47  71  98 137 180 222 277 342 397
#     4  11  25  45  71 101 136 180 224 278 336 404
#     4  12  24  44  72  97 133 179 227 276 337 401
#     4  12  27  43  71  98 140 177 225 282 332 406
#
# _framework density 20.943252000000001
#
# number of rings (size 3 to 8) (size 9 to 14) (size 15 to 20)
#    0.000    0.500    5.000    3.750    3.500    3.500 
#    0.000    0.000    0.000    0.000    0.000    0.000 
#    0.000    0.000    0.000    0.000    0.000    0.000 
#
# Total GULP energy -397082.788277 kJ/mol
# GULP energy per Si atom -12408.837134 kJ/mol
# Density = 2.089558 g / cm^3
# Si number density = 20.943252 Si / 1000 Ang^3
#
#
#
# Elastic Constant Matrix: (Units=GPa)
#
#
# Indices 1 2 3 4 5 6 
#
# 1 43.0164 7.5855 -0.0707 0.0000 1.6545 0.0000
# 2 7.5855 87.8354 2.2718 0.0000 16.3151 0.0000
# 3 -0.0707 2.2718 66.1517 0.0000 0.2973 0.0000
# 4 0.0000 0.0000 0.0000 -0.3429 0.0000 8.7085
# 5 1.6545 16.3151 0.2973 0.0000 27.5695 0.0000
# 6 0.0000 0.0000 0.0000 8.7085 0.0000 35.3515
#
#
#
# Elastic Compliance Matrix: (Units=1/GPa)
#
#
# Indices 1 2 3 4 5 6 
#
# 1 0.023608 -0.001998 0.000095 0.000000 -0.000236 0.000000
# 2 -0.001998 0.012971 -0.000414 0.000000 -0.007552 0.000000
# 3 0.000095 -0.000414 0.015131 0.000000 0.000076 0.000000
# 4 0.000000 0.000000 0.000000 -0.401906 0.000000 0.099006
# 5 -0.000236 -0.007552 0.000076 0.000000 0.040754 0.000000
# 6 0.000000 0.000000 0.000000 0.099006 0.000000 0.003898
#
#
# Mechanical properties :
#
#
# Convention : Reuss Voigt Hill
#
# Bulk Modulus (GPa) = 21.24159 24.06408 22.65283
# Shear Modulus (GPa) = -17.53039 24.99674 3.73318
#
# Velocity S-wave (km/s) = -2.89631 3.45852 1.33656
# Velocity P-wave (km/s) = 1.01011 5.24057 3.63616
#
# Compressibility (1/GPa) = 0.04707745
#
# Stress axis : x y z
#
# Youngs Moduli (GPa) = 42.35776 77.09626 66.09069
#
# Poissons Ratio (x) = 0.15400 -0.00627
# Poissons Ratio (y) = 0.08461 0.02734
# Poissons Ratio (z) = -0.00402 0.03189
#
# Static dielectric constant tensor:
#      x y z
#    x 3.767570 0.000000 -0.043880 
#    y 0.000000 3.952750 0.000000 
#    z -0.043880 0.000000 3.860740 
# 
# 
# High freq. dielectric constant tensor:
#      x y z
#    x 1.821490 0.000000 -0.002050 
#    y 0.000000 1.831440 0.000000 
#    z -0.002050 0.000000 1.830870 
# 
# From -- ./inp_files/25488.got.cif
#   From: 2010.03.12/outbox.cif.g09.slc.cpg/sg14_13_cif.got.tgz:25488.got - 2010.03.31 13:35:05.
