data_PCOD8128461
_publ_section_title
;
Structure prediction by ZEFSAII (Michael W. Deem and Ramdas Pophale) SiO2 
 PCOD8128461
Probable space group: P 21/C
;
_chemical_formula_sum "Si O2"
_cell_formula_units_Z 32
_cell_length_a 21.652360
_cell_length_b 6.579831
_cell_length_c 21.186304
_cell_angle_alpha 90.000000
_cell_angle_beta 31.939696
_cell_angle_gamma 90.000000
_cell_volume 1596.807343
_symmetry_space_group_name_H-M "P 21/C"
_symmetry_group_IT_number 14
_symmetry_cell_setting 'monoclinic'
loop_
_space_group_symop_operation_xyz
x,y,z
-x,1/2+y,1/2-z
-x,-y,-z
x,1/2-y,1/2+z
loop_
_atom_site_type_symbol
_atom_site_label
_atom_site_fract_x
_atom_site_fract_y
_atom_site_fract_z
Si Si1 0.880431 0.882196 0.609572
Si Si2 0.333201 0.087493 0.519446
Si Si3 0.137084 0.448251 0.481735
Si Si4 0.508799 0.372911 0.428806
Si Si5 0.245445 0.777286 0.786106
Si Si6 0.465912 0.800416 0.863769
Si Si7 0.874544 0.548379 0.714577
Si Si8 0.658621 0.870324 0.106102
O O1 0.861667 0.737958 0.566876
O O2 0.879881 0.764274 0.675774
O O3 0.774217 0.037410 0.702506
O O4 0.000000 0.000000 0.500000
O O5 0.394906 0.233515 0.517344
O O6 0.199153 0.063157 0.657271
O O7 0.337426 0.187257 0.446993
O O8 0.392259 0.865907 0.466379
O O9 0.191775 0.641878 0.398153
O O10 0.212311 0.399239 0.478084
O O11 0.005533 0.485408 0.618965
O O12 0.500000 0.500000 0.500000
O O13 0.614358 0.208293 0.336958
O O14 0.523446 0.534208 0.359804
O O15 0.186105 0.886037 0.778537
O O16 0.569864 0.686539 0.738324
O O17 0.379962 0.915120 0.890010
#
# Coordination Sequence:
#
# PCOD8128461 Si02
#       8
#     4   4   4   4   4   4   4   4
#     4  11  19  39  64  92 127 165 202 256 320 378
#     4  11  25  44  63  90 132 169 205 272 317 373
#     4  11  23  39  63  95 122 168 212 256 309 385
#     4  11  24  40  66 103 129 165 213 261 334 384
#     4  11  21  37  66  96 126 161 205 257 314 385
#     4  11  23  44  68  90 125 165 215 274 315 380
#     4  11  23  41  60  92 135 162 202 258 319 375
#     4  11  24  43  66  89 119 166 224 257 316 375
#
# _framework density 20.039988999999998
#
# number of rings (size 3 to 8) (size 9 to 14) (size 15 to 20)
#    0.000    1.000    3.750    3.750    1.750    6.000 
#    2.250    0.000    0.000    0.000    0.000    0.000 
#    0.000    0.000    0.000    0.000    0.000    0.000 
#
# Total GULP energy -396944.969882 kJ/mol
# GULP energy per Si atom -12404.530309 kJ/mol
# Density = 1.999438 g / cm^3
# Si number density = 20.039989 Si / 1000 Ang^3
#
#
#
# Elastic Constant Matrix: (Units=GPa)
#
#
# Indices 1 2 3 4 5 6 
#
# 1 103.5093 24.2287 34.6036 0.0000 -18.4056 0.0000
# 2 24.2287 97.1481 31.1769 0.0000 -6.6863 0.0000
# 3 34.6036 31.1769 129.9889 0.0000 -12.0093 0.0000
# 4 0.0000 0.0000 0.0000 33.7796 0.0000 -7.2953
# 5 -18.4056 -6.6863 -12.0093 0.0000 27.4662 0.0000
# 6 0.0000 0.0000 0.0000 -7.2953 0.0000 19.7262
#
#
#
# Elastic Compliance Matrix: (Units=1/GPa)
#
#
# Indices 1 2 3 4 5 6 
#
# 1 0.011990 -0.001848 -0.002134 0.000000 0.006652 0.000000
# 2 -0.001848 0.011505 -0.002213 0.000000 0.000595 0.000000
# 3 -0.002134 -0.002213 0.008972 0.000000 0.001954 0.000000
# 4 0.000000 0.000000 0.000000 0.032173 0.000000 0.011899
# 5 0.006652 0.000595 0.001954 0.000000 0.041865 0.000000
# 6 0.000000 0.000000 0.000000 0.011899 0.000000 0.055094
#
#
# Mechanical properties :
#
#
# Convention : Reuss Voigt Hill
#
# Bulk Modulus (GPa) = 49.80376 56.74053 53.27215
# Shear Modulus (GPa) = 27.67299 32.23689 29.95494
#
# Velocity S-wave (km/s) = 3.72006 4.01512 3.87040
# Velocity P-wave (km/s) = 6.58468 7.06187 6.82744
#
# Compressibility (1/GPa) = 0.02007881
#
# Stress axis : x y z
#
# Youngs Moduli (GPa) = 83.40558 86.91571 111.45410
#
# Poissons Ratio (x) = 0.16058 0.23785
# Poissons Ratio (y) = 0.15410 0.24661
# Poissons Ratio (z) = 0.17799 0.19232
#
# Static dielectric constant tensor:
#      x y z
#    x 3.627360 0.000000 -0.110280 
#    y 0.000000 3.944910 0.000000 
#    z -0.110280 0.000000 3.632420 
# 
# 
# High freq. dielectric constant tensor:
#      x y z
#    x 1.777600 0.000000 -0.009730 
#    y 0.000000 1.796840 0.000000 
#    z -0.009730 0.000000 1.784110 
# 
# From -- ./inp_files/70106.got.cif
#   From: 2010.03.12/outbox.cif.g09.slc.cpg/sg14_36_cif.got.tgz:70106.got - 2010.03.31 13:35:05.
