data_PCOD8128362
_publ_section_title
;
Structure prediction by ZEFSAII (Michael W. Deem and Ramdas Pophale) SiO2 
 PCOD8128362
Probable space group: P 21/C
;
_chemical_formula_sum "Si O2"
_cell_formula_units_Z 28
_cell_length_a 20.001829
_cell_length_b 9.042312
_cell_length_c 7.650756
_cell_angle_alpha 90.000000
_cell_angle_beta 57.925730
_cell_angle_gamma 90.000000
_cell_volume 1172.524028
_symmetry_space_group_name_H-M "P 21/C"
_symmetry_group_IT_number 14
_symmetry_cell_setting 'monoclinic'
loop_
_space_group_symop_operation_xyz
x,y,z
-x,1/2+y,1/2-z
-x,-y,-z
x,1/2-y,1/2+z
loop_
_atom_site_type_symbol
_atom_site_label
_atom_site_fract_x
_atom_site_fract_y
_atom_site_fract_z
Si Si1 0.395775 0.909222 0.304120
Si Si2 0.914814 0.973094 0.412246
Si Si3 0.434803 0.145271 0.961900
Si Si4 0.937098 0.656109 0.261567
Si Si5 0.201819 0.969013 0.933632
Si Si6 0.630145 0.565752 0.812258
Si Si7 0.778620 0.160326 0.471475
O O1 0.472497 0.805833 0.166857
O O2 0.314327 0.836841 0.345674
O O3 0.389927 0.935959 0.522030
O O4 0.413504 0.053256 0.163766
O O5 0.929178 0.833797 0.263030
O O6 0.924859 0.903962 0.586502
O O7 0.828314 0.046698 0.522623
O O8 0.977960 0.102934 0.283809
O O9 0.420152 0.060679 0.797345
O O10 0.381725 0.289449 0.052678
O O11 0.870254 0.582098 0.473822
O O12 0.211924 0.898187 0.733064
O O13 0.279588 0.059690 0.877471
O O14 0.188073 0.827671 0.078683
#
# Coordination Sequence:
#
# PCOD8128362 Si02
#       7
#     4   4   4   4   4   4   4
#     4  10  25  43  64  98 128 185 230 281 352 405
#     4  11  25  44  72 101 142 176 229 275 337 407
#     4  11  23  42  68  92 138 175 231 290 341 413
#     4  11  25  44  70 105 135 184 221 279 337 406
#     4  11  26  43  69 100 137 180 230 279 347 406
#     4  11  24  43  68  99 134 182 233 289 344 420
#     4  11  25  45  66  98 137 177 227 285 334 414
#
# _framework density 23.880106999999999
#
# number of rings (size 3 to 8) (size 9 to 14) (size 15 to 20)
#    0.000    1.143    1.429    3.000    6.000    8.000 
#    0.000    0.000    0.000    0.000    0.000    0.000 
#    0.000    0.000    0.000    0.000    0.000    0.000 
#
# Total GULP energy -347105.206588 kJ/mol
# GULP energy per Si atom -12396.614521 kJ/mol
# Density = 2.382576 g / cm^3
# Si number density = 23.880107 Si / 1000 Ang^3
#
#
#
# Elastic Constant Matrix: (Units=GPa)
#
#
# Indices 1 2 3 4 5 6 
#
# 1 129.4950 38.4858 42.8187 0.0000 -20.7713 0.0000
# 2 38.4858 94.1121 16.2956 0.0000 -17.4734 0.0000
# 3 42.8187 16.2956 82.7833 0.0000 -9.8257 0.0000
# 4 0.0000 0.0000 0.0000 35.7085 0.0000 -8.8776
# 5 -20.7713 -17.4734 -9.8257 0.0000 34.1854 0.0000
# 6 0.0000 0.0000 0.0000 -8.8776 0.0000 33.6832
#
#
#
# Elastic Compliance Matrix: (Units=1/GPa)
#
#
# Indices 1 2 3 4 5 6 
#
# 1 0.010667 -0.002893 -0.004508 0.000000 0.003707 0.000000
# 2 -0.002893 0.012748 -0.000464 0.000000 0.004624 0.000000
# 3 -0.004508 -0.000464 0.014649 0.000000 0.001234 0.000000
# 4 0.000000 0.000000 0.000000 0.029968 0.000000 0.007898
# 5 0.003707 0.004624 0.001234 0.000000 0.034223 0.000000
# 6 0.000000 0.000000 0.000000 0.007898 0.000000 0.031770
#
#
# Mechanical properties :
#
#
# Convention : Reuss Voigt Hill
#
# Bulk Modulus (GPa) = 44.77527 55.73227 50.25377
# Shear Modulus (GPa) = 31.80633 34.63477 33.22055
#
# Velocity S-wave (km/s) = 3.65350 3.81249 3.73384
# Velocity P-wave (km/s) = 6.04882 6.53981 6.29910
#
# Compressibility (1/GPa) = 0.02233376
#
# Stress axis : x y z
#
# Youngs Moduli (GPa) = 93.74280 78.44496 68.26269
#
# Poissons Ratio (x) = 0.22698 0.30773
# Poissons Ratio (y) = 0.27124 0.03166
# Poissons Ratio (z) = 0.42260 0.03639
#
# Static dielectric constant tensor:
#      x y z
#    x 4.872430 0.000000 -0.406240 
#    y 0.000000 3.709300 0.000000 
#    z -0.406240 0.000000 4.515010 
# 
# 
# High freq. dielectric constant tensor:
#      x y z
#    x 1.956200 0.000000 0.000850 
#    y 0.000000 1.937570 0.000000 
#    z 0.000850 0.000000 1.957040 
# 
# From -- ./inp_files/18722.got.cif
#   From: 2010.03.12/outbox.cif.g09.slc.cpg/sg14_10_cif.got.tgz:18722.got - 2010.03.31 13:35:05.
