data_PCOD8128325
_publ_section_title
;
Structure prediction by ZEFSAII (Michael W. Deem and Ramdas Pophale) SiO2 
 PCOD8128325
Probable space group: P 21/C
;
_chemical_formula_sum "Si O2"
_cell_formula_units_Z 20
_cell_length_a 6.004992
_cell_length_b 4.904976
_cell_length_c 26.413187
_cell_angle_alpha 90.000000
_cell_angle_beta 89.234435
_cell_angle_gamma 90.000000
_cell_volume 777.913587
_symmetry_space_group_name_H-M "P 21/C"
_symmetry_group_IT_number 14
_symmetry_cell_setting 'monoclinic'
loop_
_space_group_symop_operation_xyz
x,y,z
-x,1/2+y,1/2-z
-x,-y,-z
x,1/2-y,1/2+z
loop_
_atom_site_type_symbol
_atom_site_label
_atom_site_fract_x
_atom_site_fract_y
_atom_site_fract_z
Si Si1 0.334908 0.374551 0.305417
Si Si2 0.375422 0.782425 0.558788
Si Si3 0.329240 0.729492 0.445876
Si Si4 0.630534 0.630750 0.810769
Si Si5 0.036452 0.046946 0.124591
O O1 0.278060 0.338070 0.246782
O O2 0.418752 0.675377 0.318535
O O3 0.108727 0.351274 0.338116
O O4 0.534294 0.171224 0.322461
O O5 0.272347 0.825963 0.503063
O O6 0.581957 0.577112 0.555103
O O7 0.188482 0.674573 0.596583
O O8 0.480337 0.069433 0.578408
O O9 0.102846 0.728455 0.414735
O O10 0.831681 0.719643 0.845710
#
# Coordination Sequence:
#
# PCOD8128325 Si02
#       5
#     4   4   4   4   4
#     4  10  25  47  68 100 145 186 233 293 350 412
#     4  10  24  46  70 103 144 181 228 291 353 418
#     4  10  24  46  70 103 144 181 228 291 353 418
#     4  10  25  47  68 100 145 186 233 293 350 412
#     4  12  25  44  78 106 134 190 243 284 350 422
#
# _framework density 25.709796000000001
#
# number of rings (size 3 to 8) (size 9 to 14) (size 15 to 20)
#    0.000    1.600    0.000    1.800    0.000   17.600 
#    0.000   10.000    0.000    3.600    0.000    0.000 
#    0.000    0.000    0.000    0.000    0.000    0.000 
#
# Total GULP energy -248122.366161 kJ/mol
# GULP energy per Si atom -12406.118308 kJ/mol
# Density = 2.565128 g / cm^3
# Si number density = 25.709796 Si / 1000 Ang^3
#
#
#
# Elastic Constant Matrix: (Units=GPa)
#
#
# Indices 1 2 3 4 5 6 
#
# 1 113.6583 24.0124 87.8771 0.0000 10.4273 0.0000
# 2 24.0124 107.8613 46.1441 0.0000 5.8738 0.0000
# 3 87.8771 46.1441 108.4459 0.0000 10.3357 0.0000
# 4 0.0000 0.0000 0.0000 36.6782 0.0000 -2.8314
# 5 10.4273 5.8738 10.3357 0.0000 54.4798 0.0000
# 6 0.0000 0.0000 0.0000 -2.8314 0.0000 38.2208
#
#
#
# Elastic Compliance Matrix: (Units=1/GPa)
#
#
# Indices 1 2 3 4 5 6 
#
# 1 0.024800 0.003779 -0.021603 0.000000 -0.001056 0.000000
# 2 0.003779 0.011915 -0.008087 0.000000 -0.000474 0.000000
# 3 -0.021603 -0.008087 0.030237 0.000000 -0.000730 0.000000
# 4 0.000000 0.000000 0.000000 0.027421 0.000000 0.002031
# 5 -0.001056 -0.000474 -0.000730 0.000000 0.018747 0.000000
# 6 0.000000 0.000000 0.000000 0.002031 0.000000 0.026314
#
#
# Mechanical properties :
#
#
# Convention : Reuss Voigt Hill
#
# Bulk Modulus (GPa) = 66.09497 71.78139 68.93818
# Shear Modulus (GPa) = 25.47108 37.33787 31.40448
#
# Velocity S-wave (km/s) = 3.15098 3.81502 3.49879
# Velocity P-wave (km/s) = 6.24517 6.88377 6.57223
#
# Compressibility (1/GPa) = 0.01512975
#
# Stress axis : x y z
#
# Youngs Moduli (GPa) = 40.32289 83.92525 33.07155
#
# Poissons Ratio (x) = -0.31712 0.71445
# Poissons Ratio (y) = -0.15236 0.26744
# Poissons Ratio (z) = 0.87111 0.67868
#
# Static dielectric constant tensor:
#      x y z
#    x 4.352020 0.000000 0.018860 
#    y 0.000000 4.577350 0.000000 
#    z 0.018860 0.000000 5.156000 
# 
# 
# High freq. dielectric constant tensor:
#      x y z
#    x 2.016090 0.000000 0.001210 
#    y 0.000000 2.033580 0.000000 
#    z 0.001210 0.000000 2.057210 
# 
# From -- ./inp_files/78529.got.cif
#   From: 2010.03.12/outbox.cif.g09.slc.cpg/sg14_40_cif.got.tgz:78529.got - 2010.03.31 13:35:05.
