data_PCOD8128500
_publ_section_title
;
Structure prediction by ZEFSAII (Michael W. Deem and Ramdas Pophale) SiO2 
 PCOD8128500
Probable space group: P 21/C
;
_chemical_formula_sum "Si O2"
_cell_formula_units_Z 28
_cell_length_a 8.900519
_cell_length_b 5.318670
_cell_length_c 26.581359
_cell_angle_alpha 90.000000
_cell_angle_beta 71.188643
_cell_angle_gamma 90.000000
_cell_volume 1191.119521
_symmetry_space_group_name_H-M "P 21/C"
_symmetry_group_IT_number 14
_symmetry_cell_setting 'monoclinic'
loop_
_space_group_symop_operation_xyz
x,y,z
-x,1/2+y,1/2-z
-x,-y,-z
x,1/2-y,1/2+z
loop_
_atom_site_type_symbol
_atom_site_label
_atom_site_fract_x
_atom_site_fract_y
_atom_site_fract_z
Si Si1 0.070785 0.658461 0.303264
Si Si2 0.165074 0.465229 0.865643
Si Si3 0.811909 0.976401 0.524156
Si Si4 0.598879 0.819773 0.744992
Si Si5 0.148291 0.723020 0.625008
Si Si6 0.217498 0.060572 0.698979
Si Si7 0.685828 0.025083 0.985298
O O1 0.945247 0.435963 0.323356
O O2 0.216800 0.605900 0.250154
O O3 0.968080 0.885114 0.290981
O O4 0.149870 0.747654 0.347310
O O5 0.246324 0.462761 0.911440
O O6 0.263630 0.303755 0.813335
O O7 0.984774 0.366521 0.893290
O O8 0.758893 0.720295 0.503114
O O9 0.727451 0.218896 0.509777
O O10 0.000000 0.000000 0.500000
O O11 0.477286 0.594055 0.748126
O O12 0.668626 0.788862 0.795201
O O13 0.270213 0.908743 0.642862
O O14 0.247858 0.541119 0.578538
O O15 0.500000 0.000000 0.000000
#
# Coordination Sequence:
#
# PCOD8128500 Si02
#       7
#     4   4   4   4   4   4   4
#     4  11  20  40  71 106 139 177 242 310 356 431
#     4  11  25  44  74 107 139 191 254 305 363 442
#     4  12  26  51  84 109 143 199 262 312 372 446
#     4  12  28  46  66 101 155 197 240 296 364 451
#     4  11  24  42  77 104 142 191 246 308 371 444
#     4  11  22  40  68 103 143 188 237 294 368 434
#     4  12  29  52  75 114 157 191 250 324 385 439
#
# _framework density 23.507296
#
# number of rings (size 3 to 8) (size 9 to 14) (size 15 to 20)
#    0.000    0.571    4.286    3.429    6.000    1.143 
#    2.571    0.000    0.000    0.000    0.000    0.000 
#    0.000    0.000    0.000    0.000    0.000    0.000 
#
# Total GULP energy -347009.597904 kJ/mol
# GULP energy per Si atom -12393.199925 kJ/mol
# Density = 2.345379 g / cm^3
# Si number density = 23.507296 Si / 1000 Ang^3
#
#
#
# Elastic Constant Matrix: (Units=GPa)
#
#
# Indices 1 2 3 4 5 6 
#
# 1 94.4263 33.4987 38.2383 0.0000 2.2719 0.0000
# 2 33.4987 119.0991 36.1602 0.0000 11.5701 0.0000
# 3 38.2383 36.1602 106.1804 0.0000 21.8375 0.0000
# 4 0.0000 0.0000 0.0000 40.2881 0.0000 6.0675
# 5 2.2719 11.5701 21.8375 0.0000 31.8370 0.0000
# 6 0.0000 0.0000 0.0000 6.0675 0.0000 38.4169
#
#
#
# Elastic Compliance Matrix: (Units=1/GPa)
#
#
# Indices 1 2 3 4 5 6 
#
# 1 0.013293 -0.002670 -0.004520 0.000000 0.003122 0.000000
# 2 -0.002670 0.009956 -0.002007 0.000000 -0.002051 0.000000
# 3 -0.004520 -0.002007 0.013404 0.000000 -0.008142 0.000000
# 4 0.000000 0.000000 0.000000 0.025426 0.000000 -0.004016
# 5 0.003122 -0.002051 -0.008142 0.000000 0.037517 0.000000
# 6 0.000000 0.000000 0.000000 -0.004016 0.000000 0.026664
#
#
# Mechanical properties :
#
#
# Convention : Reuss Voigt Hill
#
# Bulk Modulus (GPa) = 54.76938 59.50004 57.13471
# Shear Modulus (GPa) = 33.16970 36.22897 34.69933
#
# Velocity S-wave (km/s) = 3.76045 3.93005 3.84618
# Velocity P-wave (km/s) = 6.49647 6.77938 6.63943
#
# Compressibility (1/GPa) = 0.01825838
#
# Stress axis : x y z
#
# Youngs Moduli (GPa) = 75.22971 100.44224 74.60608
#
# Poissons Ratio (x) = 0.26816 0.33721
# Poissons Ratio (y) = 0.20085 0.14976
# Poissons Ratio (z) = 0.34003 0.20162
#
# Static dielectric constant tensor:
#      x y z
#    x 4.327230 0.000000 0.256650 
#    y 0.000000 4.367380 0.000000 
#    z 0.256650 0.000000 4.356490 
# 
# 
# High freq. dielectric constant tensor:
#      x y z
#    x 1.922310 0.000000 0.015700 
#    y 0.000000 1.943780 0.000000 
#    z 0.015700 0.000000 1.928850 
# 
# From -- ./inp_files/76019.got.cif
#   From: 2010.03.12/outbox.cif.g09.slc.cpg/sg14_39_cif.got.tgz:76019.got - 2010.03.31 13:35:05.
