data_PCOD8128387
_publ_section_title
;
Structure prediction by ZEFSAII (Michael W. Deem and Ramdas Pophale) SiO2 
 PCOD8128387
Probable space group: P 21/C
;
_chemical_formula_sum "Si O2"
_cell_formula_units_Z 20
_cell_length_a 7.383184
_cell_length_b 11.701752
_cell_length_c 17.201456
_cell_angle_alpha 90.000000
_cell_angle_beta 34.725748
_cell_angle_gamma 90.000000
_cell_volume 846.578187
_symmetry_space_group_name_H-M "P 21/C"
_symmetry_group_IT_number 14
_symmetry_cell_setting 'monoclinic'
loop_
_space_group_symop_operation_xyz
x,y,z
-x,1/2+y,1/2-z
-x,-y,-z
x,1/2-y,1/2+z
loop_
_atom_site_type_symbol
_atom_site_label
_atom_site_fract_x
_atom_site_fract_y
_atom_site_fract_z
Si Si1 0.442901 0.319923 0.811784
Si Si2 0.394243 0.155595 0.501506
Si Si3 0.946954 0.133620 0.006984
Si Si4 0.986531 0.445935 0.862390
Si Si5 0.564486 0.616141 0.433947
O O1 0.541086 0.360990 0.863264
O O2 0.754847 0.313854 0.648033
O O3 0.180646 0.408430 0.870243
O O4 0.285082 0.194726 0.876747
O O5 0.635083 0.109789 0.482791
O O6 0.319167 0.287947 0.546131
O O7 0.063550 0.083533 0.621726
O O8 0.757892 0.156424 0.994222
O O9 0.000000 0.000000 0.000000
O O10 0.165991 0.402195 0.723878
O O11 0.500000 0.500000 0.500000
#
# Coordination Sequence:
#
# PCOD8128387 Si02
#       5
#     4   4   4   4   4
#     4  11  25  46  72 102 143 184 238 294 356 427
#     4  11  24  43  73  99 136 185 233 287 353 418
#     4  11  26  47  69 107 144 189 237 299 358 430
#     4  10  25  45  66 105 136 180 231 291 347 426
#     4  11  25  43  71 100 144 181 233 291 354 424
#
# _framework density 23.624514999999999
#
# number of rings (size 3 to 8) (size 9 to 14) (size 15 to 20)
#    0.000    1.200    2.000    1.800    8.400    4.800 
#    0.000    0.000    0.000    0.000    0.000    0.000 
#    0.000    0.000    0.000    0.000    0.000    0.000 
#
# Total GULP energy -248047.110626 kJ/mol
# GULP energy per Si atom -12402.355531 kJ/mol
# Density = 2.357074 g / cm^3
# Si number density = 23.624515 Si / 1000 Ang^3
#
#
#
# Elastic Constant Matrix: (Units=GPa)
#
#
# Indices 1 2 3 4 5 6 
#
# 1 87.4271 29.2097 17.2552 0.0000 22.3532 0.0000
# 2 29.2097 168.9680 43.5215 0.0000 6.3203 0.0000
# 3 17.2552 43.5215 100.1753 0.0000 10.1096 0.0000
# 4 0.0000 0.0000 0.0000 36.6636 0.0000 -2.1374
# 5 22.3532 6.3203 10.1096 0.0000 37.7056 0.0000
# 6 0.0000 0.0000 0.0000 -2.1374 0.0000 37.2399
#
#
#
# Elastic Compliance Matrix: (Units=1/GPa)
#
#
# Indices 1 2 3 4 5 6 
#
# 1 0.014278 -0.001964 -0.000807 0.000000 -0.007919 0.000000
# 2 -0.001964 0.006939 -0.002751 0.000000 0.000739 0.000000
# 3 -0.000807 -0.002751 0.011534 0.000000 -0.002153 0.000000
# 4 0.000000 0.000000 0.000000 0.027367 0.000000 0.001571
# 5 -0.007919 0.000739 -0.002153 0.000000 0.031669 0.000000
# 6 0.000000 0.000000 0.000000 0.001571 0.000000 0.026943
#
#
# Mechanical properties :
#
#
# Convention : Reuss Voigt Hill
#
# Bulk Modulus (GPa) = 46.06788 59.61591 52.84189
# Shear Modulus (GPa) = 36.49381 40.09409 38.29395
#
# Velocity S-wave (km/s) = 3.93459 4.12410 4.03046
# Velocity P-wave (km/s) = 6.33906 6.92584 6.63893
#
# Compressibility (1/GPa) = 0.02170710
#
# Stress axis : x y z
#
# Youngs Moduli (GPa) = 70.03601 144.11850 86.70128
#
# Poissons Ratio (x) = 0.28309 0.06996
# Poissons Ratio (y) = 0.13757 0.23850
# Poissons Ratio (z) = 0.05651 0.39644
#
# Static dielectric constant tensor:
#      x y z
#    x 4.562390 0.000000 -0.009780 
#    y 0.000000 4.244070 0.000000 
#    z -0.009780 0.000000 3.938170 
# 
# 
# High freq. dielectric constant tensor:
#      x y z
#    x 1.954850 0.000000 0.001980 
#    y 0.000000 1.940610 0.000000 
#    z 0.001980 0.000000 1.921630 
# 
# From -- ./inp_files/23495.got.cif
#   From: 2010.03.12/outbox.cif.g09.slc.cpg/sg14_12_cif.got.tgz:23495.got - 2010.03.31 13:35:05.
