data_PCOD8128127
_publ_section_title
;
Structure prediction by ZEFSAII (Michael W. Deem and Ramdas Pophale) SiO2 
 PCOD8128127
Probable space group: P 21/C
;
_chemical_formula_sum "Si O2"
_cell_formula_units_Z 32
_cell_length_a 11.896577
_cell_length_b 14.903737
_cell_length_c 16.278522
_cell_angle_alpha 90.000000
_cell_angle_beta 32.650901
_cell_angle_gamma 90.000000
_cell_volume 1557.180338
_symmetry_space_group_name_H-M "P 21/C"
_symmetry_group_IT_number 14
_symmetry_cell_setting 'monoclinic'
loop_
_space_group_symop_operation_xyz
x,y,z
-x,1/2+y,1/2-z
-x,-y,-z
x,1/2-y,1/2+z
loop_
_atom_site_type_symbol
_atom_site_label
_atom_site_fract_x
_atom_site_fract_y
_atom_site_fract_z
Si Si1 0.424690 0.597396 0.368418
Si Si2 0.657331 0.876334 0.569356
Si Si3 0.261058 0.422285 0.545600
Si Si4 0.348091 0.827172 0.629867
Si Si5 0.177468 0.005250 0.677009
Si Si6 0.639747 0.700350 0.368976
Si Si7 0.093768 0.288090 0.527119
Si Si8 0.966339 0.836927 0.124485
O O1 0.516146 0.572131 0.223126
O O2 0.397752 0.507197 0.436299
O O3 0.601056 0.656228 0.304526
O O4 0.211168 0.654677 0.492209
O O5 0.504130 0.814623 0.610211
O O6 0.823338 0.813211 0.514224
O O7 0.767647 0.947795 0.442480
O O8 0.370871 0.374259 0.554166
O O9 0.252221 0.356016 0.473388
O O10 0.032936 0.452608 0.713389
O O11 0.347265 0.931576 0.601622
O O12 0.445505 0.768406 0.497255
O O13 0.125456 0.789441 0.791568
O O14 0.148873 0.074269 0.770364
O O15 0.863329 0.751338 0.234020
O O16 0.072880 0.324169 0.447729
#
# Coordination Sequence:
#
# PCOD8128127 Si02
#       8
#     4   4   4   4   4   4   4   4
#     4  11  26  41  66  92 133 174 214 268 321 389
#     4  12  22  44  63 101 127 171 220 263 325 381
#     4  10  24  43  63  93 129 172 210 268 324 385
#     4  11  24  39  68  93 131 171 218 266 321 384
#     4  10  24  40  66  96 130 168 215 273 316 387
#     4  12  24  43  66  94 130 174 219 257 328 389
#     4  11  23  41  65  99 131 165 215 274 317 382
#     4  11  23  41  65  97 131 166 217 267 321 382
#
# _framework density 20.549963000000002
#
# number of rings (size 3 to 8) (size 9 to 14) (size 15 to 20)
#    0.000    1.000    5.000    0.750    8.750    1.500 
#    0.000    1.875    0.000    0.000    0.000    0.000 
#    0.000    0.000    0.000    0.000    0.000    0.000 
#
# Total GULP energy -396819.938305 kJ/mol
# GULP energy per Si atom -12400.623072 kJ/mol
# Density = 2.050319 g / cm^3
# Si number density = 20.549963 Si / 1000 Ang^3
#
#
#
# Elastic Constant Matrix: (Units=GPa)
#
#
# Indices 1 2 3 4 5 6 
#
# 1 94.7277 49.2268 31.0269 0.0000 11.5845 0.0000
# 2 49.2268 103.5912 55.9500 0.0000 4.4495 0.0000
# 3 31.0269 55.9500 99.6468 0.0000 19.1953 0.0000
# 4 0.0000 0.0000 0.0000 22.7524 0.0000 -7.9479
# 5 11.5845 4.4495 19.1953 0.0000 31.1142 0.0000
# 6 0.0000 0.0000 0.0000 -7.9479 0.0000 25.6479
#
#
#
# Elastic Compliance Matrix: (Units=1/GPa)
#
#
# Indices 1 2 3 4 5 6 
#
# 1 0.014614 -0.006841 0.000170 0.000000 -0.004568 0.000000
# 2 -0.006841 0.017343 -0.008649 0.000000 0.005402 0.000000
# 3 0.000170 -0.008649 0.016583 0.000000 -0.009057 0.000000
# 4 0.000000 0.000000 0.000000 0.049287 0.000000 0.015273
# 5 -0.004568 0.005402 -0.009057 0.000000 0.038656 0.000000
# 6 0.000000 0.000000 0.000000 0.015273 0.000000 0.043723
#
#
# Mechanical properties :
#
#
# Convention : Reuss Voigt Hill
#
# Bulk Modulus (GPa) = 55.85649 63.37479 59.61564
# Shear Modulus (GPa) = 23.06160 26.68701 24.87431
#
# Velocity S-wave (km/s) = 3.35359 3.60757 3.48290
# Velocity P-wave (km/s) = 6.49887 6.94688 6.72660
#
# Compressibility (1/GPa) = 0.01790302
#
# Stress axis : x y z
#
# Youngs Moduli (GPa) = 68.42657 57.65990 60.30213
#
# Poissons Ratio (x) = 0.39443 -0.01028
# Poissons Ratio (y) = 0.46808 0.52153
# Poissons Ratio (z) = -0.01166 0.49868
#
# Static dielectric constant tensor:
#      x y z
#    x 3.622420 0.000000 0.045050 
#    y 0.000000 3.760950 0.000000 
#    z 0.045050 0.000000 3.784750 
# 
# 
# High freq. dielectric constant tensor:
#      x y z
#    x 1.803720 0.000000 0.004770 
#    y 0.000000 1.803970 0.000000 
#    z 0.004770 0.000000 1.810130 
# 
# From -- ./inp_files/57984.got.cif
#   From: 2010.03.12/outbox.cif.g09.slc.cpg/sg14_29_cif.got.tgz:57984.got - 2010.03.31 13:35:05.
