data_PCOD8128934
_publ_section_title
;
Structure prediction by ZEFSAII (Michael W. Deem and Ramdas Pophale) SiO2 
 PCOD8128934
Probable space group: P 21/C
;
_chemical_formula_sum "Si O2"
_cell_formula_units_Z 32
_cell_length_a 15.543018
_cell_length_b 8.581183
_cell_length_c 11.615646
_cell_angle_alpha 90.000000
_cell_angle_beta 73.557595
_cell_angle_gamma 90.000000
_cell_volume 1485.908007
_symmetry_space_group_name_H-M "P 21/C"
_symmetry_group_IT_number 14
_symmetry_cell_setting 'monoclinic'
loop_
_space_group_symop_operation_xyz
x,y,z
-x,1/2+y,1/2-z
-x,-y,-z
x,1/2-y,1/2+z
loop_
_atom_site_type_symbol
_atom_site_label
_atom_site_fract_x
_atom_site_fract_y
_atom_site_fract_z
Si Si1 0.901753 0.574027 0.039544
Si Si2 0.766228 0.922629 0.781129
Si Si3 0.667107 0.077973 0.441652
Si Si4 0.902810 0.943388 0.065564
Si Si5 0.735573 0.112654 0.014529
Si Si6 0.602737 0.535105 0.193085
Si Si7 0.586331 0.173192 0.245461
Si Si8 0.827024 0.595987 0.827217
O O1 0.844283 0.503586 0.168540
O O2 0.895529 0.761298 0.039787
O O3 0.857777 0.525534 0.936476
O O4 0.000000 0.500000 0.000000
O O5 0.813831 0.781205 0.829031
O O6 0.725048 0.034952 0.893045
O O7 0.683433 0.876579 0.729216
O O8 0.726537 0.204487 0.489741
O O9 0.619933 0.960475 0.549419
O O10 0.595025 0.143895 0.378933
O O11 0.731387 0.978580 0.335269
O O12 0.895602 0.963297 0.205177
O O13 0.830537 0.054311 0.029319
O O14 0.000000 0.000000 0.000000
O O15 0.656469 0.077587 0.137165
O O16 0.597710 0.356144 0.229926
O O17 0.512111 0.624621 0.259160
#
# Coordination Sequence:
#
# PCOD8128934 Si02
#       8
#     4   4   4   4   4   4   4   4
#     4  11  26  43  68 102 133 172 223 272 330 397
#     4  11  24  46  67  96 135 178 220 271 336 392
#     4  11  23  44  69  96 131 175 224 273 333 392
#     4  11  26  43  66 100 134 175 220 272 333 392
#     4  11  24  45  66  94 137 173 222 274 329 398
#     4  11  25  43  68  98 135 176 222 279 331 399
#     4  11  25  43  66 102 132 176 225 272 341 395
#     4  11  24  43  71  96 131 178 215 274 333 389
#
# _framework density 21.535653
#
# number of rings (size 3 to 8) (size 9 to 14) (size 15 to 20)
#    0.000    1.000    5.000    0.375    5.250    2.500 
#    0.000    0.000    0.000    0.000    0.000    0.000 
#    0.000    0.000    0.000    0.000    0.000    0.000 
#
# Total GULP energy -396570.843897 kJ/mol
# GULP energy per Si atom -12392.838872 kJ/mol
# Density = 2.148664 g / cm^3
# Si number density = 21.535653 Si / 1000 Ang^3
#
#
#
# Elastic Constant Matrix: (Units=GPa)
#
#
# Indices 1 2 3 4 5 6 
#
# 1 122.8637 13.7901 44.0084 0.0000 -13.9983 0.0000
# 2 13.7901 16.6838 27.1460 0.0000 -2.1825 0.0000
# 3 44.0084 27.1460 128.3203 0.0000 -5.6444 0.0000
# 4 0.0000 0.0000 0.0000 28.6369 0.0000 -2.7518
# 5 -13.9983 -2.1825 -5.6444 0.0000 38.9297 0.0000
# 6 0.0000 0.0000 0.0000 -2.7518 0.0000 34.2689
#
#
#
# Elastic Compliance Matrix: (Units=1/GPa)
#
#
# Indices 1 2 3 4 5 6 
#
# 1 0.009764 -0.003732 -0.002430 0.000000 0.002950 0.000000
# 2 -0.003732 0.093036 -0.018349 0.000000 0.001214 0.000000
# 3 -0.002430 -0.018349 0.012504 0.000000 -0.000089 0.000000
# 4 0.000000 0.000000 0.000000 0.035192 0.000000 0.002826
# 5 0.002950 0.001214 -0.000089 0.000000 0.026803 0.000000
# 6 0.000000 0.000000 0.000000 0.002826 0.000000 0.029408
#
#
# Mechanical properties :
#
#
# Convention : Reuss Voigt Hill
#
# Bulk Modulus (GPa) = 15.08639 48.63965 31.86302
# Shear Modulus (GPa) = 17.99716 32.56198 25.27957
#
# Velocity S-wave (km/s) = 2.89397 3.89267 3.42986
# Velocity P-wave (km/s) = 4.26465 6.54511 5.52385
#
# Compressibility (1/GPa) = 0.06628490
#
# Stress axis : x y z
#
# Youngs Moduli (GPa) = 102.41462 10.74848 79.97498
#
# Poissons Ratio (x) = 0.04011 0.19430
# Poissons Ratio (y) = 0.38219 1.46742
# Poissons Ratio (z) = 0.24882 0.19722
#
# Static dielectric constant tensor:
#      x y z
#    x 3.828930 0.000000 -0.149980 
#    y 0.000000 3.143930 0.000000 
#    z -0.149980 0.000000 4.322920 
# 
# 
# High freq. dielectric constant tensor:
#      x y z
#    x 1.842990 0.000000 0.000220 
#    y 0.000000 1.832340 0.000000 
#    z 0.000220 0.000000 1.870370 
# 
# From -- ./inp_files/31780.got.cif
#   From: 2010.03.12/outbox.cif.g09.slc.cpg/sg14_16_cif.got.tgz:31780.got - 2010.03.31 13:35:05.
