data_PCOD8128536
_publ_section_title
;
Structure prediction by ZEFSAII (Michael W. Deem and Ramdas Pophale) SiO2 
 PCOD8128536
Probable space group: P 21/C
;
_chemical_formula_sum "Si O2"
_cell_formula_units_Z 32
_cell_length_a 11.465185
_cell_length_b 12.383917
_cell_length_c 11.368116
_cell_angle_alpha 90.000000
_cell_angle_beta 113.528230
_cell_angle_gamma 90.000000
_cell_volume 1479.899687
_symmetry_space_group_name_H-M "P 21/C"
_symmetry_group_IT_number 14
_symmetry_cell_setting 'monoclinic'
loop_
_space_group_symop_operation_xyz
x,y,z
-x,1/2+y,1/2-z
-x,-y,-z
x,1/2-y,1/2+z
loop_
_atom_site_type_symbol
_atom_site_label
_atom_site_fract_x
_atom_site_fract_y
_atom_site_fract_z
Si Si1 0.379503 0.391450 0.140623
Si Si2 0.879151 0.473239 0.298527
Si Si3 0.465311 0.606135 0.110697
Si Si4 0.675147 0.894269 0.116257
Si Si5 0.265377 0.335742 0.877654
Si Si6 0.845998 0.059272 0.054655
Si Si7 0.758175 0.279269 0.109963
Si Si8 0.529891 0.185813 0.142831
O O1 0.453820 0.477511 0.086044
O O2 0.345020 0.430432 0.257304
O O3 0.464320 0.286349 0.181170
O O4 0.252153 0.364909 0.011376
O O5 0.813987 0.585285 0.235138
O O6 0.829437 0.447182 0.408217
O O7 0.846535 0.372835 0.201014
O O8 0.028279 0.496748 0.353118
O O9 0.584545 0.660107 0.095591
O O10 0.472628 0.599554 0.254969
O O11 0.336258 0.667404 0.022445
O O12 0.771296 0.790539 0.154181
O O13 0.730164 0.997407 0.070399
O O14 0.542569 0.862468 0.999659
O O15 0.847361 0.186540 0.088311
O O16 0.673880 0.219338 0.173415
#
# Coordination Sequence:
#
# PCOD8128536 Si02
#       8
#     4   4   4   4   4   4   4   4
#     4  11  21  38  59  99 135 173 224 273 336 411
#     4  11  26  49  72  94 136 185 232 286 336 399
#     4  12  21  37  65  98 132 173 223 273 347 403
#     4  11  24  42  64 102 138 174 229 277 344 407
#     4  11  22  41  67  97 132 184 221 276 343 408
#     4  11  28  47  70 101 134 184 229 287 339 398
#     4  12  23  44  67 103 134 173 228 278 344 414
#     4  11  22  37  64  99 140 176 210 280 345 404
#
# _framework density 21.623087000000002
#
# number of rings (size 3 to 8) (size 9 to 14) (size 15 to 20)
#    0.000    0.750    5.000    3.375    3.500    4.000 
#    0.000    0.625    0.000    0.000    0.000    0.000 
#    0.000    0.000    0.000    0.000    0.000    0.000 
#
# Total GULP energy -396635.657914 kJ/mol
# GULP energy per Si atom -12394.864310 kJ/mol
# Density = 2.157387 g / cm^3
# Si number density = 21.623087 Si / 1000 Ang^3
#
#
#
# Elastic Constant Matrix: (Units=GPa)
#
#
# Indices 1 2 3 4 5 6 
#
# 1 35.5407 -11.9919 16.3113 0.0000 -4.8672 0.0000
# 2 -11.9919 76.5182 4.5007 0.0000 -3.7643 0.0000
# 3 16.3113 4.5007 101.8468 0.0000 -13.6261 0.0000
# 4 0.0000 0.0000 0.0000 31.3569 0.0000 -2.0853
# 5 -4.8672 -3.7643 -13.6261 0.0000 22.0591 0.0000
# 6 0.0000 0.0000 0.0000 -2.0853 0.0000 15.6371
#
#
#
# Elastic Compliance Matrix: (Units=1/GPa)
#
#
# Indices 1 2 3 4 5 6 
#
# 1 0.033006 0.005716 -0.004833 0.000000 0.005272 0.000000
# 2 0.005716 0.014178 -0.001144 0.000000 0.002974 0.000000
# 3 -0.004833 -0.001144 0.011418 0.000000 0.005791 0.000000
# 4 0.000000 0.000000 0.000000 0.032176 0.000000 0.004291
# 5 0.005272 0.002974 0.005791 0.000000 0.050581 0.000000
# 6 0.000000 0.000000 0.000000 0.004291 0.000000 0.064523
#
#
# Mechanical properties :
#
#
# Convention : Reuss Voigt Hill
#
# Bulk Modulus (GPa) = 17.21765 25.72733 21.47249
# Shear Modulus (GPa) = 22.14698 27.48299 24.81498
#
# Velocity S-wave (km/s) = 3.20383 3.56898 3.39132
# Velocity P-wave (km/s) = 4.65467 5.37656 5.02858
#
# Compressibility (1/GPa) = 0.05807993
#
# Stress axis : x y z
#
# Youngs Moduli (GPa) = 30.29773 70.53063 87.57988
#
# Poissons Ratio (x) = -0.40318 0.42330
# Poissons Ratio (y) = -0.17319 0.10021
# Poissons Ratio (z) = 0.14644 0.08070
#
# Static dielectric constant tensor:
#      x y z
#    x 3.529000 0.000000 -0.081040 
#    y 0.000000 4.142210 0.000000 
#    z -0.081040 0.000000 4.059240 
# 
# 
# High freq. dielectric constant tensor:
#      x y z
#    x 1.806890 0.000000 -0.013300 
#    y 0.000000 1.879520 0.000000 
#    z -0.013300 0.000000 1.864780 
# 
# From -- ./inp_files/29379.got.cif
#   From: 2010.03.12/outbox.cif.g09.slc.cpg/sg14_15_cif.got.tgz:29379.got - 2010.03.31 13:35:05.
