data_PCOD8128898
_publ_section_title
;
Structure prediction by ZEFSAII (Michael W. Deem and Ramdas Pophale) SiO2 
 PCOD8128898
Probable space group: P 21/C
;
_chemical_formula_sum "Si O2"
_cell_formula_units_Z 32
_cell_length_a 6.590437
_cell_length_b 13.290764
_cell_length_c 18.769675
_cell_angle_alpha 90.000000
_cell_angle_beta 71.303000
_cell_angle_gamma 90.000000
_cell_volume 1557.309777
_symmetry_space_group_name_H-M "P 21/C"
_symmetry_group_IT_number 14
_symmetry_cell_setting 'monoclinic'
loop_
_space_group_symop_operation_xyz
x,y,z
-x,1/2+y,1/2-z
-x,-y,-z
x,1/2-y,1/2+z
loop_
_atom_site_type_symbol
_atom_site_label
_atom_site_fract_x
_atom_site_fract_y
_atom_site_fract_z
Si Si1 0.160576 0.760336 0.004628
Si Si2 0.575915 0.081885 0.935365
Si Si3 0.141574 0.810983 0.848324
Si Si4 0.620617 0.693323 0.248146
Si Si5 0.882948 0.526990 0.293093
Si Si6 0.692088 0.743187 0.085082
Si Si7 0.861317 0.646224 0.809957
Si Si8 0.532873 0.612971 0.973108
O O1 0.090563 0.807605 0.937543
O O2 0.305990 0.661607 0.975971
O O3 0.278493 0.840005 0.039833
O O4 0.944772 0.733060 0.070873
O O5 0.374704 0.141645 0.924331
O O6 0.704209 0.033288 0.856271
O O7 0.500000 0.000000 0.000000
O O8 0.394902 0.820990 0.811983
O O9 0.021220 0.908371 0.832612
O O10 0.056503 0.711063 0.819359
O O11 0.766005 0.596610 0.248315
O O12 0.576174 0.703386 0.169217
O O13 0.736940 0.793492 0.262783
O O14 0.043383 0.454652 0.233518
O O15 0.630560 0.671991 0.027695
O O16 0.694714 0.617138 0.889534
O O17 0.500000 0.500000 0.000000
#
# Coordination Sequence:
#
# PCOD8128898 Si02
#       8
#     4   4   4   4   4   4   4   4
#     4  11  23  43  69  94 128 172 214 270 328 384
#     4  11  24  42  68  98 134 165 218 276 324 391
#     4  11  23  43  68  93 131 174 214 265 331 387
#     4  11  25  43  67  95 134 172 217 268 327 389
#     4  11  26  41  66 100 131 171 222 267 327 390
#     4  11  25  44  66  97 131 170 218 271 325 386
#     4  11  24  45  65  96 136 173 213 274 323 385
#     4  11  26  43  67  96 132 171 221 267 324 393
#
# _framework density 20.548254
#
# number of rings (size 3 to 8) (size 9 to 14) (size 15 to 20)
#    0.000    1.000    2.500    3.000    7.000    9.500 
#    0.000    0.000    0.000    0.000    0.000    0.000 
#    0.000    0.000    0.000    0.000    0.000    0.000 
#
# Total GULP energy -397001.769037 kJ/mol
# GULP energy per Si atom -12406.305282 kJ/mol
# Density = 2.050149 g / cm^3
# Si number density = 20.548254 Si / 1000 Ang^3
#
#
#
# Elastic Constant Matrix: (Units=GPa)
#
#
# Indices 1 2 3 4 5 6 
#
# 1 103.2775 49.1576 21.5362 0.0000 -9.3230 0.0000
# 2 49.1576 145.3561 51.7643 0.0000 -10.5226 0.0000
# 3 21.5362 51.7643 109.3878 0.0000 2.8628 0.0000
# 4 0.0000 0.0000 0.0000 37.1824 0.0000 -7.1868
# 5 -9.3230 -10.5226 2.8628 0.0000 22.4909 0.0000
# 6 0.0000 0.0000 0.0000 -7.1868 0.0000 25.1224
#
#
#
# Elastic Compliance Matrix: (Units=1/GPa)
#
#
# Indices 1 2 3 4 5 6 
#
# 1 0.011800 -0.003474 -0.000767 0.000000 0.003364 0.000000
# 2 -0.003474 0.009751 -0.004026 0.000000 0.003635 0.000000
# 3 -0.000767 -0.004026 0.011293 0.000000 -0.003639 0.000000
# 4 0.000000 0.000000 0.000000 0.028469 0.000000 0.008144
# 5 0.003364 0.003635 -0.003639 0.000000 0.048020 0.000000
# 6 0.000000 0.000000 0.000000 0.008144 0.000000 0.042135
#
#
# Mechanical properties :
#
#
# Convention : Reuss Voigt Hill
#
# Bulk Modulus (GPa) = 61.30992 66.99307 64.15149
# Shear Modulus (GPa) = 28.82873 32.66338 30.74606
#
# Velocity S-wave (km/s) = 3.74970 3.99130 3.87238
# Velocity P-wave (km/s) = 6.97487 7.34263 7.16111
#
# Compressibility (1/GPa) = 0.01631058
#
# Stress axis : x y z
#
# Youngs Moduli (GPa) = 84.74779 102.55183 88.54969
#
# Poissons Ratio (x) = 0.35624 0.06794
# Poissons Ratio (y) = 0.29439 0.35647
# Poissons Ratio (z) = 0.06503 0.41284
#
# Static dielectric constant tensor:
#      x y z
#    x 3.917780 0.000000 -0.016080 
#    y 0.000000 3.866380 0.000000 
#    z -0.016080 0.000000 3.805920 
# 
# 
# High freq. dielectric constant tensor:
#      x y z
#    x 1.816850 0.000000 -0.002200 
#    y 0.000000 1.808970 0.000000 
#    z -0.002200 0.000000 1.819100 
# 
# From -- ./inp_files/53460.got.cif
#   From: 2010.03.12/outbox.cif.g09.slc.cpg/sg14_27_cif.got.tgz:53460.got - 2010.03.31 13:35:05.
