data_PCOD8128022
_publ_section_title
;
Structure prediction by ZEFSAII (Michael W. Deem and Ramdas Pophale) SiO2 
 PCOD8128022
Probable space group: P 21/C
;
_chemical_formula_sum "Si O2"
_cell_formula_units_Z 24
_cell_length_a 8.710371
_cell_length_b 13.873527
_cell_length_c 9.692349
_cell_angle_alpha 90.000000
_cell_angle_beta 72.916494
_cell_angle_gamma 90.000000
_cell_volume 1119.579339
_symmetry_space_group_name_H-M "P 21/C"
_symmetry_group_IT_number 14
_symmetry_cell_setting 'monoclinic'
loop_
_space_group_symop_operation_xyz
x,y,z
-x,1/2+y,1/2-z
-x,-y,-z
x,1/2-y,1/2+z
loop_
_atom_site_type_symbol
_atom_site_label
_atom_site_fract_x
_atom_site_fract_y
_atom_site_fract_z
Si Si1 0.184409 0.471988 0.938253
Si Si2 0.181415 0.472764 0.423013
Si Si3 0.340437 0.668485 0.929485
Si Si4 0.712504 0.846829 0.339821
Si Si5 0.155444 0.358226 0.678874
Si Si6 0.221311 0.839409 0.770824
O O1 0.277894 0.569682 0.879730
O O2 0.207105 0.390761 0.816898
O O3 0.262398 0.430101 0.055153
O O4 0.000000 0.500000 0.000000
O O5 0.190227 0.381206 0.319627
O O6 0.244803 0.434057 0.553528
O O7 0.281818 0.562952 0.333545
O O8 0.000000 0.500000 0.500000
O O9 0.528400 0.671710 0.851610
O O10 0.251491 0.752781 0.868799
O O11 0.310721 0.677279 0.101974
O O12 0.785665 0.747755 0.373156
O O13 0.964324 0.356330 0.713252
#
# Coordination Sequence:
#
# PCOD8128022 Si02
#       6
#     4   4   4   4   4   4
#     4  12  23  47  72 102 134 186 234 280 351 418
#     4  10  23  45  67 100 136 179 232 286 336 411
#     4  12  28  44  71 103 144 186 228 293 353 414
#     4  12  26  45  70 102 146 178 233 289 354 409
#     4  11  25  42  75 103 134 185 233 290 338 420
#     4  11  26  46  69 101 140 184 237 284 346 416
#
# _framework density 21.436623999999998
#
# number of rings (size 3 to 8) (size 9 to 14) (size 15 to 20)
#    0.000    0.667    3.333    3.500   11.667    0.000 
#    0.000    1.667    0.000    0.000    0.000    0.000 
#    0.000    0.000    0.000    0.000    0.000    0.000 
#
# Total GULP energy -297583.795308 kJ/mol
# GULP energy per Si atom -12399.324804 kJ/mol
# Density = 2.138783 g / cm^3
# Si number density = 21.436624 Si / 1000 Ang^3
#
#
#
# Elastic Constant Matrix: (Units=GPa)
#
#
# Indices 1 2 3 4 5 6 
#
# 1 47.8204 12.4482 26.3558 0.0000 -4.4984 0.0000
# 2 12.4482 113.9659 35.8472 0.0000 -8.6071 0.0000
# 3 26.3558 35.8472 122.8878 0.0000 -4.9584 0.0000
# 4 0.0000 0.0000 0.0000 52.0467 0.0000 14.1402
# 5 -4.4984 -8.6071 -4.9584 0.0000 21.5858 0.0000
# 6 0.0000 0.0000 0.0000 14.1402 0.0000 19.2051
#
#
#
# Elastic Compliance Matrix: (Units=1/GPa)
#
#
# Indices 1 2 3 4 5 6 
#
# 1 0.024104 -0.000861 -0.004774 0.000000 0.003583 0.000000
# 2 -0.000861 0.009921 -0.002581 0.000000 0.003184 0.000000
# 3 -0.004774 -0.002581 0.009925 0.000000 0.000256 0.000000
# 4 0.000000 0.000000 0.000000 0.024018 0.000000 -0.017684
# 5 0.003583 0.003184 0.000256 0.000000 0.048402 0.000000
# 6 0.000000 0.000000 0.000000 -0.017684 0.000000 0.065089
#
#
# Mechanical properties :
#
#
# Convention : Reuss Voigt Hill
#
# Bulk Modulus (GPa) = 36.33946 48.21961 42.27953
# Shear Modulus (GPa) = 24.14737 32.56905 28.35821
#
# Velocity S-wave (km/s) = 3.35991 3.90207 3.64110
# Velocity P-wave (km/s) = 5.66046 6.54556 6.11904
#
# Compressibility (1/GPa) = 0.02751829
#
# Stress axis : x y z
#
# Youngs Moduli (GPa) = 41.48725 100.79828 100.76000
#
# Poissons Ratio (x) = 0.08674 0.48102
# Poissons Ratio (y) = 0.03570 0.26006
# Poissons Ratio (z) = 0.19806 0.26015
#
# Static dielectric constant tensor:
#      x y z
#    x 3.670470 0.000000 0.003500 
#    y 0.000000 5.071440 0.000000 
#    z 0.003500 0.000000 4.209980 
# 
# 
# High freq. dielectric constant tensor:
#      x y z
#    x 1.824580 0.000000 0.001580 
#    y 0.000000 1.863220 0.000000 
#    z 0.001580 0.000000 1.856240 
# 
# From -- ./inp_files/8413.got.cif
#   From: 2010.03.12/outbox.cif.g09.slc.cpg/sg14_5_cif.got.tgz:8413.got - 2010.03.31 13:35:05.
