data_PCOD8128068
_publ_section_title
;
Structure prediction by ZEFSAII (Michael W. Deem and Ramdas Pophale) SiO2 
 PCOD8128068
Probable space group: P 21/C
;
_chemical_formula_sum "Si O2"
_cell_formula_units_Z 20
_cell_length_a 12.256347
_cell_length_b 8.155211
_cell_length_c 10.288524
_cell_angle_alpha 90.000000
_cell_angle_beta 132.553744
_cell_angle_gamma 90.000000
_cell_volume 757.541744
_symmetry_space_group_name_H-M "P 21/C"
_symmetry_group_IT_number 14
_symmetry_cell_setting 'monoclinic'
loop_
_space_group_symop_operation_xyz
x,y,z
-x,1/2+y,1/2-z
-x,-y,-z
x,1/2-y,1/2+z
loop_
_atom_site_type_symbol
_atom_site_label
_atom_site_fract_x
_atom_site_fract_y
_atom_site_fract_z
Si Si1 0.578059 0.319699 0.228463
Si Si2 0.003423 0.181384 0.329516
Si Si3 0.195088 0.554186 0.114411
Si Si4 0.427680 0.342109 0.381967
Si Si5 0.871046 0.491879 0.500215
O O1 0.475874 0.327906 0.271400
O O2 0.700548 0.468690 0.313341
O O3 0.662813 0.149223 0.322525
O O4 0.476729 0.310682 0.014591
O O5 0.096611 0.011208 0.415546
O O6 0.114714 0.335617 0.411757
O O7 0.893510 0.183006 0.365664
O O8 0.903907 0.164753 0.119954
O O9 0.251070 0.386861 0.236885
O O10 0.500000 0.500000 0.500000
O O11 0.000000 0.500000 0.500000
#
# Coordination Sequence:
#
# PCOD8128068 Si02
#       5
#     4   4   4   4   4
#     4  11  23  46  74 103 146 193 248 306 372 444
#     4  11  25  43  71 106 145 189 246 306 361 446
#     4  10  23  46  71 102 146 193 239 306 372 429
#     4  10  24  45  72 102 148 189 239 309 363 447
#     4  12  25  43  73 107 142 194 245 306 372 439
#
# _framework density 26.401185000000002
#
# number of rings (size 3 to 8) (size 9 to 14) (size 15 to 20)
#    0.000    1.200    2.000    3.600    5.600    4.800 
#    0.000    5.000    0.000    0.000    0.000    0.000 
#    0.000    0.000    0.000    0.000    0.000    0.000 
#
# Total GULP energy -247795.245887 kJ/mol
# GULP energy per Si atom -12389.762294 kJ/mol
# Density = 2.634109 g / cm^3
# Si number density = 26.401185 Si / 1000 Ang^3
#
#
#
# Elastic Constant Matrix: (Units=GPa)
#
#
# Indices 1 2 3 4 5 6 
#
# 1 81.1902 18.8805 22.7543 0.0000 -9.0719 0.0000
# 2 18.8805 80.9404 14.4942 0.0000 10.5619 0.0000
# 3 22.7543 14.4942 90.3040 0.0000 10.6836 0.0000
# 4 0.0000 0.0000 0.0000 47.2219 0.0000 13.9894
# 5 -9.0719 10.5619 10.6836 0.0000 34.8942 0.0000
# 6 0.0000 0.0000 0.0000 13.9894 0.0000 44.0408
#
#
#
# Elastic Compliance Matrix: (Units=1/GPa)
#
#
# Indices 1 2 3 4 5 6 
#
# 1 0.014939 -0.003588 -0.003918 0.000000 0.006169 0.000000
# 2 -0.003588 0.013970 -0.000755 0.000000 -0.004930 0.000000
# 3 -0.003918 -0.000755 0.012737 0.000000 -0.004690 0.000000
# 4 0.000000 0.000000 0.000000 0.023376 0.000000 -0.007425
# 5 0.006169 -0.004930 -0.004690 0.000000 0.033190 0.000000
# 6 0.000000 0.000000 0.000000 -0.007425 0.000000 0.025065
#
#
# Mechanical properties :
#
#
# Convention : Reuss Voigt Hill
#
# Bulk Modulus (GPa) = 39.80315 40.52141 40.16228
# Shear Modulus (GPa) = 33.74408 38.31842 36.03125
#
# Velocity S-wave (km/s) = 3.57897 3.81384 3.69827
# Velocity P-wave (km/s) = 5.67342 5.89708 5.78633
#
# Compressibility (1/GPa) = 0.02512364
#
# Stress axis : x y z
#
# Youngs Moduli (GPa) = 66.94066 71.58059 78.51155
#
# Poissons Ratio (x) = 0.25684 0.30762
# Poissons Ratio (y) = 0.24019 0.05927
# Poissons Ratio (z) = 0.26228 0.05404
#
# Static dielectric constant tensor:
#      x y z
#    x 4.370250 0.000000 0.092410 
#    y 0.000000 5.158960 0.000000 
#    z 0.092410 0.000000 5.524500 
# 
# 
# High freq. dielectric constant tensor:
#      x y z
#    x 2.032950 0.000000 0.007470 
#    y 0.000000 2.067780 0.000000 
#    z 0.007470 0.000000 2.075710 
# 
# From -- ./inp_files/28238.got.cif
#   From: 2010.03.12/outbox.cif.g09.slc.cpg/sg14_15_cif.got.tgz:28238.got - 2010.03.31 13:35:05.
