data_PCOD8128641
_publ_section_title
;
Structure prediction by ZEFSAII (Michael W. Deem and Ramdas Pophale) SiO2 
 PCOD8128641
Probable space group: P 21/C
;
_chemical_formula_sum "Si O2"
_cell_formula_units_Z 32
_cell_length_a 11.446374
_cell_length_b 9.036678
_cell_length_c 15.882618
_cell_angle_alpha 90.000000
_cell_angle_beta 119.031877
_cell_angle_gamma 90.000000
_cell_volume 1436.428677
_symmetry_space_group_name_H-M "P 21/C"
_symmetry_group_IT_number 14
_symmetry_cell_setting 'monoclinic'
loop_
_space_group_symop_operation_xyz
x,y,z
-x,1/2+y,1/2-z
-x,-y,-z
x,1/2-y,1/2+z
loop_
_atom_site_type_symbol
_atom_site_label
_atom_site_fract_x
_atom_site_fract_y
_atom_site_fract_z
Si Si1 0.657054 0.777957 0.359792
Si Si2 0.125371 0.856996 0.151594
Si Si3 0.579505 0.850853 0.147302
Si Si4 0.036038 0.330378 0.024226
Si Si5 0.482854 0.337458 0.026428
Si Si6 0.275299 0.836267 0.824002
Si Si7 0.702798 0.031487 0.937634
Si Si8 0.064713 0.892498 0.871780
O O1 0.608114 0.773445 0.246569
O O2 0.807498 0.828898 0.411490
O O3 0.575352 0.872051 0.400038
O O4 0.629998 0.620202 0.392115
O O5 0.249043 0.765669 0.233373
O O6 0.192040 0.938724 0.097891
O O7 0.056185 0.989854 0.181373
O O8 0.007646 0.752438 0.076026
O O9 0.419005 0.858724 0.089697
O O10 0.662753 0.003662 0.175773
O O11 0.612068 0.752709 0.074603
O O12 0.971204 0.249358 0.082958
O O13 0.000000 0.500000 0.000000
O O14 0.623796 0.251319 0.080353
O O15 0.500000 0.500000 0.000000
O O16 0.118991 0.837412 0.800849
O O17 0.796845 0.025970 0.052143
#
# Coordination Sequence:
#
# PCOD8128641 Si02
#       8
#     4   4   4   4   4   4   4   4
#     4  12  25  45  76 103 142 188 238 291 360 421
#     4  11  24  43  70  98 133 185 235 282 353 427
#     4  12  27  45  77 103 144 189 235 297 362 427
#     4  11  24  43  68 104 136 179 237 290 352 425
#     4  12  29  46  71 111 145 184 239 303 356 427
#     4  12  26  46  68 104 143 184 237 297 361 422
#     4  11  21  46  72  95 136 183 239 284 351 424
#     4  11  23  46  70  94 140 191 230 292 354 422
#
# _framework density 22.277473000000001
#
# number of rings (size 3 to 8) (size 9 to 14) (size 15 to 20)
#    0.000    0.500    5.000    3.375    5.250    2.000 
#    0.000    0.000    0.000    0.000    0.000    0.000 
#    0.000    0.000    0.000    0.000    0.000    0.000 
#
# Total GULP energy -396436.701189 kJ/mol
# GULP energy per Si atom -12388.646912 kJ/mol
# Density = 2.222677 g / cm^3
# Si number density = 22.277473 Si / 1000 Ang^3
#
#
#
# Elastic Constant Matrix: (Units=GPa)
#
#
# Indices 1 2 3 4 5 6 
#
# 1 99.0515 -1.8095 5.8202 0.0000 6.4597 0.0000
# 2 -1.8095 75.4730 1.0181 0.0000 8.4441 0.0000
# 3 5.8202 1.0181 84.0318 0.0000 7.5726 0.0000
# 4 0.0000 0.0000 0.0000 27.2005 0.0000 4.6855
# 5 6.4597 8.4441 7.5726 0.0000 27.6152 0.0000
# 6 0.0000 0.0000 0.0000 4.6855 0.0000 16.3313
#
#
#
# Elastic Compliance Matrix: (Units=1/GPa)
#
#
# Indices 1 2 3 4 5 6 
#
# 1 0.010293 0.000526 -0.000500 0.000000 -0.002431 0.000000
# 2 0.000526 0.013750 0.000192 0.000000 -0.004380 0.000000
# 3 -0.000500 0.000192 0.012230 0.000000 -0.003295 0.000000
# 4 0.000000 0.000000 0.000000 0.038676 0.000000 -0.011096
# 5 -0.002431 -0.004380 -0.003295 0.000000 0.039023 0.000000
# 6 0.000000 0.000000 0.000000 -0.011096 0.000000 0.064416
#
#
# Mechanical properties :
#
#
# Convention : Reuss Voigt Hill
#
# Bulk Modulus (GPa) = 27.24293 29.84600 28.54447
# Shear Modulus (GPa) = 26.28967 31.13123 28.71045
#
# Velocity S-wave (km/s) = 3.43899 3.74228 3.59383
# Velocity P-wave (km/s) = 5.29380 5.66563 5.48287
#
# Compressibility (1/GPa) = 0.03670676
#
# Stress axis : x y z
#
# Youngs Moduli (GPa) = 97.15043 72.72829 81.76936
#
# Poissons Ratio (x) = -0.03822 0.04090
# Poissons Ratio (y) = -0.05106 -0.01568
# Poissons Ratio (z) = 0.04859 -0.01394
#
# Static dielectric constant tensor:
#      x y z
#    x 4.059730 0.000000 -0.099390 
#    y 0.000000 4.048650 0.000000 
#    z -0.099390 0.000000 4.381290 
# 
# 
# High freq. dielectric constant tensor:
#      x y z
#    x 1.890180 0.000000 -0.002300 
#    y 0.000000 1.876530 0.000000 
#    z -0.002300 0.000000 1.878240 
# 
# From -- ./inp_files/57305.got.cif
#   From: 2010.03.12/outbox.cif.g09.slc.cpg/sg14_29_cif.got.tgz:57305.got - 2010.03.31 13:35:05.
