data_PCOD8128168
_publ_section_title
;
Structure prediction by ZEFSAII (Michael W. Deem and Ramdas Pophale) SiO2 
 PCOD8128168
Probable space group: P 21/C
;
_chemical_formula_sum "Si O2"
_cell_formula_units_Z 20
_cell_length_a 11.689317
_cell_length_b 5.101533
_cell_length_c 12.748407
_cell_angle_alpha 90.000000
_cell_angle_beta 102.436968
_cell_angle_gamma 90.000000
_cell_volume 742.391369
_symmetry_space_group_name_H-M "P 21/C"
_symmetry_group_IT_number 14
_symmetry_cell_setting 'monoclinic'
loop_
_space_group_symop_operation_xyz
x,y,z
-x,1/2+y,1/2-z
-x,-y,-z
x,1/2-y,1/2+z
loop_
_atom_site_type_symbol
_atom_site_label
_atom_site_fract_x
_atom_site_fract_y
_atom_site_fract_z
Si Si1 0.533715 0.177564 0.620228
Si Si2 0.209548 0.736647 0.378617
Si Si3 0.103417 0.244483 0.455635
Si Si4 0.398897 0.676105 0.623885
Si Si5 0.846837 0.358481 0.869114
O O1 0.650361 0.233484 0.574136
O O2 0.433327 0.395495 0.582207
O O3 0.573855 0.182494 0.748035
O O4 0.480113 0.893463 0.580871
O O5 0.168962 0.512698 0.449501
O O6 0.183366 0.626653 0.258092
O O7 0.142492 0.010235 0.383881
O O8 0.965121 0.305625 0.413718
O O9 0.131425 0.152233 0.580783
O O10 0.260475 0.736540 0.584083
#
# Coordination Sequence:
#
# PCOD8128168 Si02
#       5
#     4   4   4   4   4
#     4   9  18  34  58  86 116 154 201 243 297 364
#     4  11  23  42  65  91 125 162 202 255 307 359
#     4  11  25  41  63  95 122 161 211 248 302 371
#     4   9  18  34  58  85 116 158 196 243 304 353
#     4  10  24  42  65  90 127 163 202 256 305 359
#
# _framework density 26.939969000000001
#
# number of rings (size 3 to 8) (size 9 to 14) (size 15 to 20)
#    0.000    2.000    0.000    2.400    0.000   12.800 
#    0.000    6.000    0.000    0.000    0.000    0.000 
#    0.000    0.000    0.000    0.000    0.000    0.000 
#
# Total GULP energy -248135.773788 kJ/mol
# GULP energy per Si atom -12406.788689 kJ/mol
# Density = 2.687865 g / cm^3
# Si number density = 26.939969 Si / 1000 Ang^3
#
#
#
# Elastic Constant Matrix: (Units=GPa)
#
#
# Indices 1 2 3 4 5 6 
#
# 1 212.0817 82.3899 57.5465 0.0000 10.7401 0.0000
# 2 82.3899 150.6408 24.1881 0.0000 9.4362 0.0000
# 3 57.5465 24.1881 92.7963 0.0000 13.7647 0.0000
# 4 0.0000 0.0000 0.0000 30.8832 0.0000 5.6110
# 5 10.7401 9.4362 13.7647 0.0000 49.9139 0.0000
# 6 0.0000 0.0000 0.0000 5.6110 0.0000 36.0210
#
#
#
# Elastic Compliance Matrix: (Units=1/GPa)
#
#
# Indices 1 2 3 4 5 6 
#
# 1 0.006900 -0.003225 -0.003450 0.000000 0.000076 0.000000
# 2 -0.003225 0.008470 -0.000076 0.000000 -0.000886 0.000000
# 3 -0.003450 -0.000076 0.013370 0.000000 -0.002930 0.000000
# 4 0.000000 0.000000 0.000000 0.033323 0.000000 -0.005191
# 5 0.000076 -0.000886 -0.002930 0.000000 0.020994 0.000000
# 6 0.000000 0.000000 0.000000 -0.005191 0.000000 0.028570
#
#
# Mechanical properties :
#
#
# Convention : Reuss Voigt Hill
#
# Bulk Modulus (GPa) = 65.62475 87.08532 76.35504
# Shear Modulus (GPa) = 38.39993 42.78991 40.59492
#
# Velocity S-wave (km/s) = 3.77953 3.98973 3.88605
# Velocity P-wave (km/s) = 6.59234 7.32255 6.96702
#
# Compressibility (1/GPa) = 0.01523815
#
# Stress axis : x y z
#
# Youngs Moduli (GPa) = 144.92501 118.06653 74.79298
#
# Poissons Ratio (x) = 0.38073 0.25802
# Poissons Ratio (y) = 0.46734 0.00572
# Poissons Ratio (z) = 0.49996 0.00903
#
# Static dielectric constant tensor:
#      x y z
#    x 5.287350 0.000000 -0.140190 
#    y 0.000000 4.652970 0.000000 
#    z -0.140190 0.000000 5.216140 
# 
# 
# High freq. dielectric constant tensor:
#      x y z
#    x 2.104150 0.000000 -0.002130 
#    y 0.000000 2.075450 0.000000 
#    z -0.002130 0.000000 2.136120 
# 
# From -- ./inp_files/42445.got.cif
#   From: 2010.03.12/outbox.cif.g09.slc.cpg/sg14_22_cif.got.tgz:42445.got - 2010.03.31 13:35:05.
