data_PCOD8128985
_publ_section_title
;
Structure prediction by ZEFSAII (Michael W. Deem and Ramdas Pophale) SiO2 
 PCOD8128985
Probable space group: P 21/C
;
_chemical_formula_sum "Si O2"
_cell_formula_units_Z 28
_cell_length_a 8.001984
_cell_length_b 15.489545
_cell_length_c 10.578112
_cell_angle_alpha 90.000000
_cell_angle_beta 102.483700
_cell_angle_gamma 90.000000
_cell_volume 1280.127967
_symmetry_space_group_name_H-M "P 21/C"
_symmetry_group_IT_number 14
_symmetry_cell_setting 'monoclinic'
loop_
_space_group_symop_operation_xyz
x,y,z
-x,1/2+y,1/2-z
-x,-y,-z
x,1/2-y,1/2+z
loop_
_atom_site_type_symbol
_atom_site_label
_atom_site_fract_x
_atom_site_fract_y
_atom_site_fract_z
Si Si1 0.523585 0.181317 0.346045
Si Si2 0.238842 0.403956 0.449124
Si Si3 0.552182 0.640486 0.751553
Si Si4 0.007743 0.520090 0.793259
Si Si5 0.889635 0.380129 0.950705
Si Si6 0.337877 0.022317 0.215025
Si Si7 0.229391 0.288294 0.002064
O O1 0.540289 0.266601 0.262825
O O2 0.710865 0.168929 0.433981
O O3 0.473574 0.099039 0.254511
O O4 0.378944 0.194509 0.426994
O O5 0.394603 0.389790 0.378963
O O6 0.286116 0.477970 0.558307
O O7 0.206971 0.314490 0.520853
O O8 0.074699 0.434837 0.342591
O O9 0.422067 0.567217 0.777570
O O10 0.720417 0.654840 0.866109
O O11 0.169680 0.463830 0.772730
O O12 0.874878 0.458189 0.846545
O O13 0.073268 0.591195 0.901207
O O14 0.043244 0.319389 0.926191
#
# Coordination Sequence:
#
# PCOD8128985 Si02
#       7
#     4   4   4   4   4   4   4
#     4  11  25  44  67 107 129 179 235 279 347 410
#     4  11  24  44  67 100 142 181 229 284 354 408
#     4  11  24  44  69  97 138 181 230 284 349 411
#     4  11  24  43  69 103 134 185 237 277 351 413
#     4  11  24  44  71  98 138 183 231 287 337 415
#     4  12  24  43  70 100 141 181 227 293 342 415
#     4  11  23  46  69  96 143 182 225 287 341 415
#
# _framework density 21.872813000000001
#
# number of rings (size 3 to 8) (size 9 to 14) (size 15 to 20)
#    0.000    0.857    4.286    2.571    4.000    1.143 
#    0.000    0.000    0.000    0.000    0.000    0.000 
#    0.000    0.000    0.000    0.000    0.000    0.000 
#
# Total GULP energy -347185.672386 kJ/mol
# GULP energy per Si atom -12399.488299 kJ/mol
# Density = 2.182303 g / cm^3
# Si number density = 21.872813 Si / 1000 Ang^3
#
#
#
# Elastic Constant Matrix: (Units=GPa)
#
#
# Indices 1 2 3 4 5 6 
#
# 1 109.9801 35.1694 31.7132 0.0000 22.9574 0.0000
# 2 35.1694 121.7757 38.2559 0.0000 20.3527 0.0000
# 3 31.7132 38.2559 95.5425 0.0000 19.3166 0.0000
# 4 0.0000 0.0000 0.0000 38.7642 0.0000 2.5463
# 5 22.9574 20.3527 19.3166 0.0000 32.9730 0.0000
# 6 0.0000 0.0000 0.0000 2.5463 0.0000 24.8581
#
#
#
# Elastic Compliance Matrix: (Units=1/GPa)
#
#
# Indices 1 2 3 4 5 6 
#
# 1 0.011400 -0.001726 -0.001932 0.000000 -0.005740 0.000000
# 2 -0.001726 0.010164 -0.002803 0.000000 -0.003430 0.000000
# 3 -0.001932 -0.002803 0.013168 0.000000 -0.004639 0.000000
# 4 0.000000 0.000000 0.000000 0.025972 0.000000 -0.002660
# 5 -0.005740 -0.003430 -0.004639 0.000000 0.039158 0.000000
# 6 0.000000 0.000000 0.000000 -0.002660 0.000000 0.040501
#
#
# Mechanical properties :
#
#
# Convention : Reuss Voigt Hill
#
# Bulk Modulus (GPa) = 45.85339 59.73059 52.79199
# Shear Modulus (GPa) = 31.14167 34.12973 32.63570
#
# Velocity S-wave (km/s) = 3.77737 3.95444 3.86692
# Velocity P-wave (km/s) = 6.32723 6.94389 6.64272
#
# Compressibility (1/GPa) = 0.02180864
#
# Stress axis : x y z
#
# Youngs Moduli (GPa) = 87.72077 98.38412 75.93996
#
# Poissons Ratio (x) = 0.16981 0.14675
# Poissons Ratio (y) = 0.15140 0.21290
# Poissons Ratio (z) = 0.16951 0.27582
#
# Static dielectric constant tensor:
#      x y z
#    x 3.773240 0.000000 0.051650 
#    y 0.000000 4.067140 0.000000 
#    z 0.051650 0.000000 3.854460 
# 
# 
# High freq. dielectric constant tensor:
#      x y z
#    x 1.857480 0.000000 0.003200 
#    y 0.000000 1.863620 0.000000 
#    z 0.003200 0.000000 1.858690 
# 
# From -- ./inp_files/25373.got.cif
#   From: 2010.03.12/outbox.cif.g09.slc.cpg/sg14_13_cif.got.tgz:25373.got - 2010.03.31 13:35:05.
