data_PCOD8128806
_publ_section_title
;
Structure prediction by ZEFSAII (Michael W. Deem and Ramdas Pophale) SiO2 
 PCOD8128806
Probable space group: P 21/C
;
_chemical_formula_sum "Si O2"
_cell_formula_units_Z 32
_cell_length_a 20.973847
_cell_length_b 9.222301
_cell_length_c 8.608342
_cell_angle_alpha 90.000000
_cell_angle_beta 102.415299
_cell_angle_gamma 90.000000
_cell_volume 1626.148674
_symmetry_space_group_name_H-M "P 21/C"
_symmetry_group_IT_number 14
_symmetry_cell_setting 'monoclinic'
loop_
_space_group_symop_operation_xyz
x,y,z
-x,1/2+y,1/2-z
-x,-y,-z
x,1/2-y,1/2+z
loop_
_atom_site_type_symbol
_atom_site_label
_atom_site_fract_x
_atom_site_fract_y
_atom_site_fract_z
Si Si1 0.319857 0.422066 0.473170
Si Si2 0.945321 0.134592 0.124358
Si Si3 0.323196 0.396626 0.842291
Si Si4 0.439408 0.585051 0.034925
Si Si5 0.057171 0.566000 0.735992
Si Si6 0.202023 0.577067 0.799608
Si Si7 0.200286 0.615389 0.437809
Si Si8 0.440049 0.592950 0.404730
O O1 0.331302 0.405717 0.662067
O O2 0.329502 0.268685 0.396272
O O3 0.248795 0.491728 0.396718
O O4 0.372737 0.528948 0.430385
O O5 0.956861 0.302929 0.156745
O O6 0.874594 0.082460 0.153643
O O7 0.950577 0.114102 0.944758
O O8 0.003145 0.053972 0.246924
O O9 0.252988 0.451112 0.865240
O O10 0.375127 0.500060 0.950571
O O11 0.442542 0.592934 0.221170
O O12 0.500000 0.500000 0.000000
O O13 0.443076 0.744267 0.966518
O O14 0.131024 0.511947 0.806865
O O15 0.205179 0.619821 0.623402
O O16 0.220993 0.723648 0.898722
O O17 0.500000 0.500000 0.500000
#
# Coordination Sequence:
#
# PCOD8128806 Si02
#       8
#     4   4   4   4   4   4   4   4
#     4  11  23  39  58  84 116 150 189 233 282 334
#     4   9  18  33  52  76 107 142 182 228 277 331
#     4  11  23  39  58  84 116 150 189 233 282 334
#     4  12  25  43  65  90 119 152 189 230 278 330
#     4   9  18  33  52  76 107 142 182 228 277 331
#     4   9  19  35  55  78 107 144 185 229 278 332
#     4   9  19  35  55  78 107 144 185 229 278 332
#     4  12  25  43  65  90 119 152 189 230 278 330
#
# _framework density 19.678398999999999
#
# number of rings (size 3 to 8) (size 9 to 14) (size 15 to 20)
#    0.000    1.750    0.000    4.500    0.000    5.500 
#    0.000    0.000    0.000    0.000    0.000    0.000 
#    0.000    0.000    0.000    0.000    0.000    0.000 
#
# Total GULP energy -396782.066422 kJ/mol
# GULP energy per Si atom -12399.439576 kJ/mol
# Density = 1.963361 g / cm^3
# Si number density = 19.678399 Si / 1000 Ang^3
#
#
#
# Elastic Constant Matrix: (Units=GPa)
#
#
# Indices 1 2 3 4 5 6 
#
# 1 129.3080 62.7124 45.3762 0.0000 2.9146 0.0000
# 2 62.7124 110.1173 35.5335 0.0000 -0.3685 0.0000
# 3 45.3762 35.5335 79.8077 0.0000 -0.7293 0.0000
# 4 0.0000 0.0000 0.0000 35.2552 0.0000 2.9357
# 5 2.9146 -0.3685 -0.7293 0.0000 27.8091 0.0000
# 6 0.0000 0.0000 0.0000 2.9357 0.0000 43.2348
#
#
#
# Elastic Compliance Matrix: (Units=1/GPa)
#
#
# Indices 1 2 3 4 5 6 
#
# 1 0.011913 -0.005371 -0.004395 0.000000 -0.001435 0.000000
# 2 -0.005371 0.013026 -0.002740 0.000000 0.000664 0.000000
# 3 -0.004395 -0.002740 0.016257 0.000000 0.000851 0.000000
# 4 0.000000 0.000000 0.000000 0.028526 0.000000 -0.001937
# 5 -0.001435 0.000664 0.000851 0.000000 0.036141 0.000000
# 6 0.000000 0.000000 0.000000 -0.001937 0.000000 0.023261
#
#
# Mechanical properties :
#
#
# Convention : Reuss Voigt Hill
#
# Bulk Modulus (GPa) = 61.78970 67.38635 64.58803
# Shear Modulus (GPa) = 31.34186 32.96723 32.15455
#
# Velocity S-wave (km/s) = 3.99520 4.09748 4.04666
# Velocity P-wave (km/s) = 7.26293 7.53021 7.39777
#
# Compressibility (1/GPa) = 0.01618393
#
# Stress axis : x y z
#
# Youngs Moduli (GPa) = 83.94176 76.76672 61.51296
#
# Poissons Ratio (x) = 0.41232 0.27035
# Poissons Ratio (y) = 0.45086 0.16854
# Poissons Ratio (z) = 0.36893 0.21034
#
# Static dielectric constant tensor:
#      x y z
#    x 4.131730 0.000000 0.113710 
#    y 0.000000 3.636260 0.000000 
#    z 0.113710 0.000000 3.657010 
# 
# 
# High freq. dielectric constant tensor:
#      x y z
#    x 1.787170 0.000000 0.001150 
#    y 0.000000 1.767940 0.000000 
#    z 0.001150 0.000000 1.770020 
# 
# From -- ./inp_files/18631.got.cif
#   From: 2010.03.12/outbox.cif.g09.slc.cpg/sg14_10_cif.got.tgz:18631.got - 2010.03.31 13:35:05.
