data_PCOD8128791
_publ_section_title
;
Structure prediction by ZEFSAII (Michael W. Deem and Ramdas Pophale) SiO2 
 PCOD8128791
Probable space group: P 21/C
;
_chemical_formula_sum "Si O2"
_cell_formula_units_Z 20
_cell_length_a 11.133948
_cell_length_b 7.905189
_cell_length_c 25.565744
_cell_angle_alpha 90.000000
_cell_angle_beta 158.368800
_cell_angle_gamma 90.000000
_cell_volume 829.490664
_symmetry_space_group_name_H-M "P 21/C"
_symmetry_group_IT_number 14
_symmetry_cell_setting 'monoclinic'
loop_
_space_group_symop_operation_xyz
x,y,z
-x,1/2+y,1/2-z
-x,-y,-z
x,1/2-y,1/2+z
loop_
_atom_site_type_symbol
_atom_site_label
_atom_site_fract_x
_atom_site_fract_y
_atom_site_fract_z
Si Si1 0.625671 0.381703 0.723875
Si Si2 0.171397 0.319264 0.759389
Si Si3 0.121803 0.463264 0.848385
Si Si4 0.768478 0.873425 0.376102
Si Si5 0.193997 0.630978 0.490063
O O1 0.522919 0.197376 0.704863
O O2 0.641583 0.528639 0.774047
O O3 0.361657 0.455370 0.575442
O O4 0.971807 0.342418 0.833575
O O5 0.020131 0.401725 0.749878
O O6 0.564147 0.295737 0.920120
O O7 0.015791 0.414434 0.646768
O O8 0.065196 0.128900 0.712804
O O9 0.500000 0.500000 0.000000
O O10 0.945736 0.698035 0.433234
O O11 0.000000 0.000000 0.500000
#
# Coordination Sequence:
#
# PCOD8128791 Si02
#       5
#     4   4   4   4   4
#     4  11  26  45  73 107 143 202 252 305 379 441
#     4  11  23  43  74  99 147 190 239 312 372 439
#     4  11  23  46  70 108 148 187 248 303 377 446
#     4  12  25  47  72 102 147 190 251 310 365 453
#     4  11  22  47  71 101 146 190 244 313 368 440
#
# _framework density 24.111180999999998
#
# number of rings (size 3 to 8) (size 9 to 14) (size 15 to 20)
#    0.000    0.800    6.000    1.800    0.000    6.400 
#    3.600    0.000    0.000    0.000    0.000    0.000 
#    0.000    0.000    0.000    0.000    0.000    0.000 
#
# Total GULP energy -247835.371534 kJ/mol
# GULP energy per Si atom -12391.768577 kJ/mol
# Density = 2.405630 g / cm^3
# Si number density = 24.111181 Si / 1000 Ang^3
#
#
#
# Elastic Constant Matrix: (Units=GPa)
#
#
# Indices 1 2 3 4 5 6 
#
# 1 174.9909 40.0681 65.6631 0.0000 5.3488 0.0000
# 2 40.0681 43.9580 17.9077 0.0000 0.0197 0.0000
# 3 65.6631 17.9077 103.0905 0.0000 5.0140 0.0000
# 4 0.0000 0.0000 0.0000 8.1545 0.0000 -33.9858
# 5 5.3488 0.0197 5.0140 0.0000 42.8171 0.0000
# 6 0.0000 0.0000 0.0000 -33.9858 0.0000 16.4064
#
#
#
# Elastic Compliance Matrix: (Units=1/GPa)
#
#
# Indices 1 2 3 4 5 6 
#
# 1 0.008859 -0.006228 -0.004533 0.000000 -0.000573 0.000000
# 2 -0.006228 0.028870 -0.001091 0.000000 0.000893 0.000000
# 3 -0.004533 -0.001091 0.012823 0.000000 -0.000935 0.000000
# 4 0.000000 0.000000 0.000000 -0.016065 0.000000 -0.033279
# 5 -0.000573 0.000893 -0.000935 0.000000 0.023536 0.000000
# 6 0.000000 0.000000 0.000000 -0.033279 0.000000 -0.007985
#
#
# Mechanical properties :
#
#
# Convention : Reuss Voigt Hill
#
# Bulk Modulus (GPa) = 37.24855 63.25746 50.25300
# Shear Modulus (GPa) = 60.46536 26.70232 43.58384
#
# Velocity S-wave (km/s) = 5.01320 3.33147 4.25622
# Velocity P-wave (km/s) = 6.99941 6.41022 6.71129
#
# Compressibility (1/GPa) = 0.02684669
#
# Stress axis : x y z
#
# Youngs Moduli (GPa) = 112.87751 34.63772 77.98753
#
# Poissons Ratio (x) = 0.21573 0.35352
# Poissons Ratio (y) = 0.70303 0.08511
# Poissons Ratio (z) = 0.51168 0.03780
#
# Static dielectric constant tensor:
#      x y z
#    x 11.519470 0.000000 1.945830 
#    y 0.000000 4.001680 0.000000 
#    z 1.945830 0.000000 4.388680 
# 
# 
# High freq. dielectric constant tensor:
#      x y z
#    x 1.977340 0.000000 0.005570 
#    y 0.000000 1.937150 0.000000 
#    z 0.005570 0.000000 1.958270 
# 
# From -- ./inp_files/77082.got.cif
#   From: 2010.03.12/outbox.cif.g09.slc.cpg/sg14_39_cif.got.tgz:77082.got - 2010.03.31 13:35:05.
