data_PCOD8128217
_publ_section_title
;
Structure prediction by ZEFSAII (Michael W. Deem and Ramdas Pophale) SiO2 
 PCOD8128217
Probable space group: P 21/C
;
_chemical_formula_sum "Si O2"
_cell_formula_units_Z 32
_cell_length_a 27.787148
_cell_length_b 5.731024
_cell_length_c 9.079565
_cell_angle_alpha 90.000000
_cell_angle_beta 76.391450
_cell_angle_gamma 90.000000
_cell_volume 1405.317321
_symmetry_space_group_name_H-M "P 21/C"
_symmetry_group_IT_number 14
_symmetry_cell_setting 'monoclinic'
loop_
_space_group_symop_operation_xyz
x,y,z
-x,1/2+y,1/2-z
-x,-y,-z
x,1/2-y,1/2+z
loop_
_atom_site_type_symbol
_atom_site_label
_atom_site_fract_x
_atom_site_fract_y
_atom_site_fract_z
Si Si1 0.944133 0.024409 0.491351
Si Si2 0.816166 0.039145 0.889106
Si Si3 0.708839 0.441154 0.509772
Si Si4 0.371923 0.955241 0.432225
Si Si5 0.671807 0.740755 0.791128
Si Si6 0.850829 0.746903 0.619374
Si Si7 0.102889 0.643372 0.252414
Si Si8 0.514972 0.457075 0.160753
O O1 0.908995 0.806198 0.553115
O O2 0.942139 0.051612 0.316161
O O3 0.922068 0.248016 0.587935
O O4 0.000000 0.000000 0.500000
O O5 0.763856 0.169977 0.958511
O O6 0.864403 0.196386 0.881777
O O7 0.819453 0.954886 0.716631
O O8 0.821355 0.817666 0.993608
O O9 0.664627 0.261442 0.517917
O O10 0.703983 0.559220 0.673312
O O11 0.707958 0.628670 0.378211
O O12 0.428080 0.876720 0.374139
O O13 0.369422 0.111346 0.580830
O O14 0.356873 0.086376 0.295047
O O15 0.854632 0.535891 0.730731
O O16 0.508937 0.712618 0.251532
O O17 0.500000 0.500000 0.000000
#
# Coordination Sequence:
#
# PCOD8128217 Si02
#       8
#     4   4   4   4   4   4   4   4
#     4  11  26  42  66  95 126 172 219 274 336 404
#     4  11  24  42  67  94 133 175 222 275 344 414
#     4  11  24  42  70 101 137 186 230 290 355 424
#     4  11  25  45  72 100 148 178 246 291 359 426
#     4  10  24  43  67 103 138 182 232 294 353 415
#     4  11  23  44  64  93 135 168 222 276 337 405
#     4  11  24  43  63  96 128 168 214 278 329 404
#     4  12  29  49  81 116 155 209 259 318 393 459
#
# _framework density 22.770659999999999
#
# number of rings (size 3 to 8) (size 9 to 14) (size 15 to 20)
#    0.000    1.000    2.500    2.625    8.750    4.500 
#    0.000    0.000    0.000    0.000    0.000    0.000 
#    0.000    0.000    0.000    0.000    0.000    0.000 
#
# Total GULP energy -396464.624200 kJ/mol
# GULP energy per Si atom -12389.519506 kJ/mol
# Density = 2.271883 g / cm^3
# Si number density = 22.770660 Si / 1000 Ang^3
#
#
#
# Elastic Constant Matrix: (Units=GPa)
#
#
# Indices 1 2 3 4 5 6 
#
# 1 106.4790 13.6875 28.5795 0.0000 -24.5527 0.0000
# 2 13.6875 77.8641 24.4613 0.0000 -3.5447 0.0000
# 3 28.5795 24.4613 111.5230 0.0000 13.9322 0.0000
# 4 0.0000 0.0000 0.0000 20.3613 0.0000 -0.1276
# 5 -24.5527 -3.5447 13.9322 0.0000 35.5820 0.0000
# 6 0.0000 0.0000 0.0000 -0.1276 0.0000 26.4338
#
#
#
# Elastic Compliance Matrix: (Units=1/GPa)
#
#
# Indices 1 2 3 4 5 6 
#
# 1 0.013205 -0.000359 -0.004667 0.000000 0.010903 0.000000
# 2 -0.000359 0.014052 -0.003296 0.000000 0.002443 0.000000
# 3 -0.004667 -0.003296 0.011912 0.000000 -0.008213 0.000000
# 4 0.000000 0.000000 0.000000 0.049114 0.000000 0.000237
# 5 0.010903 0.002443 -0.008213 0.000000 0.039087 0.000000
# 6 0.000000 0.000000 0.000000 0.000237 0.000000 0.037831
#
#
# Mechanical properties :
#
#
# Convention : Reuss Voigt Hill
#
# Bulk Modulus (GPa) = 44.39357 47.70254 46.04805
# Shear Modulus (GPa) = 26.40578 31.75130 29.07854
#
# Velocity S-wave (km/s) = 3.40904 3.73821 3.57742
# Velocity P-wave (km/s) = 5.91893 6.29499 6.10985
#
# Compressibility (1/GPa) = 0.02252579
#
# Stress axis : x y z
#
# Youngs Moduli (GPa) = 75.73171 71.16207 83.95114
#
# Poissons Ratio (x) = 0.02552 0.39183
# Poissons Ratio (y) = 0.02715 0.27666
# Poissons Ratio (z) = 0.35346 0.23452
#
# Static dielectric constant tensor:
#      x y z
#    x 3.984740 0.000000 -0.083310 
#    y 0.000000 4.350780 0.000000 
#    z -0.083310 0.000000 4.465340 
# 
# 
# High freq. dielectric constant tensor:
#      x y z
#    x 1.893620 0.000000 0.006430 
#    y 0.000000 1.895240 0.000000 
#    z 0.006430 0.000000 1.921160 
# 
# From -- ./inp_files/19892.got.cif
#   From: 2010.03.12/outbox.cif.g09.slc.cpg/sg14_10_cif.got.tgz:19892.got - 2010.03.31 13:35:05.
