data_PCOD8128065
_publ_section_title
;
Structure prediction by ZEFSAII (Michael W. Deem and Ramdas Pophale) SiO2 
 PCOD8128065
Probable space group: P 21/C
;
_chemical_formula_sum "Si O2"
_cell_formula_units_Z 28
_cell_length_a 5.378598
_cell_length_b 13.037503
_cell_length_c 18.641173
_cell_angle_alpha 90.000000
_cell_angle_beta 113.154449
_cell_angle_gamma 90.000000
_cell_volume 1201.888084
_symmetry_space_group_name_H-M "P 21/C"
_symmetry_group_IT_number 14
_symmetry_cell_setting 'monoclinic'
loop_
_space_group_symop_operation_xyz
x,y,z
-x,1/2+y,1/2-z
-x,-y,-z
x,1/2-y,1/2+z
loop_
_atom_site_type_symbol
_atom_site_label
_atom_site_fract_x
_atom_site_fract_y
_atom_site_fract_z
Si Si1 0.068871 0.264005 0.727786
Si Si2 0.186589 0.242640 0.080406
Si Si3 0.538789 0.379927 0.316119
Si Si4 0.383073 0.612534 0.834542
Si Si5 0.314282 0.029568 0.045000
Si Si6 0.785808 0.596207 0.133788
Si Si7 0.797000 0.302616 0.920996
O O1 0.163192 0.295945 0.659417
O O2 0.247586 0.174693 0.785096
O O3 0.070905 0.364591 0.777414
O O4 0.770246 0.220466 0.687391
O O5 0.338564 0.352808 0.095957
O O6 0.341627 0.151940 0.056308
O O7 0.898384 0.261383 0.009376
O O8 0.581455 0.428668 0.242351
O O9 0.552657 0.473886 0.371943
O O10 0.759052 0.292821 0.362222
O O11 0.231886 0.527277 0.864898
O O12 0.500000 0.000000 0.000000
O O13 0.000000 0.000000 0.000000
O O14 0.480936 0.638721 0.094480
O O15 0.971703 0.624642 0.087047
#
# Coordination Sequence:
#
# PCOD8128065 Si02
#       7
#     4   4   4   4   4   4   4
#     4  10  24  45  71 100 144 191 235 297 352 435
#     4  11  27  45  69 108 144 182 242 300 359 430
#     4  10  23  46  70 104 143 187 237 296 364 428
#     4  11  25  44  74 102 144 194 241 298 354 432
#     4  12  28  44  76 110 142 187 235 304 373 428
#     4  11  26  46  72 100 139 193 241 287 363 427
#     4  11  25  45  72 100 142 186 236 298 356 426
#
# _framework density 23.296678
#
# number of rings (size 3 to 8) (size 9 to 14) (size 15 to 20)
#    0.000    1.143    2.857    0.857   14.000    2.286 
#    0.000    0.000    0.000    0.000    0.000    0.000 
#    0.000    0.000    0.000    0.000    0.000    0.000 
#
# Total GULP energy -347215.691784 kJ/mol
# GULP energy per Si atom -12400.560421 kJ/mol
# Density = 2.324365 g / cm^3
# Si number density = 23.296678 Si / 1000 Ang^3
#
#
#
# Elastic Constant Matrix: (Units=GPa)
#
#
# Indices 1 2 3 4 5 6 
#
# 1 107.9771 13.9455 26.7249 0.0000 -3.6178 0.0000
# 2 13.9455 85.5066 32.0448 0.0000 -0.2373 0.0000
# 3 26.7249 32.0448 110.6178 0.0000 12.0892 0.0000
# 4 0.0000 0.0000 0.0000 36.4276 0.0000 -7.6885
# 5 -3.6178 -0.2373 12.0892 0.0000 27.2579 0.0000
# 6 0.0000 0.0000 0.0000 -7.6885 0.0000 25.4971
#
#
#
# Elastic Compliance Matrix: (Units=1/GPa)
#
#
# Indices 1 2 3 4 5 6 
#
# 1 0.010050 -0.000699 -0.002491 0.000000 0.002433 0.000000
# 2 -0.000699 0.013261 -0.003863 0.000000 0.001736 0.000000
# 3 -0.002491 -0.003863 0.011351 0.000000 -0.005399 0.000000
# 4 0.000000 0.000000 0.000000 0.029318 0.000000 0.008841
# 5 0.002433 0.001736 -0.005399 0.000000 0.039419 0.000000
# 6 0.000000 0.000000 0.000000 0.008841 0.000000 0.041886
#
#
# Mechanical properties :
#
#
# Convention : Reuss Voigt Hill
#
# Bulk Modulus (GPa) = 48.64593 49.94801 49.29697
# Shear Modulus (GPa) = 30.07662 33.26227 31.66945
#
# Velocity S-wave (km/s) = 3.59698 3.78268 3.69100
# Velocity P-wave (km/s) = 6.17879 6.36905 6.27464
#
# Compressibility (1/GPa) = 0.02055670
#
# Stress axis : x y z
#
# Youngs Moduli (GPa) = 99.50647 75.40733 88.09779
#
# Poissons Ratio (x) = 0.05268 0.21949
# Poissons Ratio (y) = 0.06951 0.34029
# Poissons Ratio (z) = 0.24792 0.29127
#
# Static dielectric constant tensor:
#      x y z
#    x 4.007110 0.000000 0.011200 
#    y 0.000000 4.042290 0.000000 
#    z 0.011200 0.000000 4.251950 
# 
# 
# High freq. dielectric constant tensor:
#      x y z
#    x 1.914770 0.000000 0.007740 
#    y 0.000000 1.915520 0.000000 
#    z 0.007740 0.000000 1.935300 
# 
# From -- ./inp_files/53371.got.cif
#   From: 2010.03.12/outbox.cif.g09.slc.cpg/sg14_27_cif.got.tgz:53371.got - 2010.03.31 13:35:05.
