data_PCOD8128487
_publ_section_title
;
Structure prediction by ZEFSAII (Michael W. Deem and Ramdas Pophale) SiO2 
 PCOD8128487
Probable space group: P 21/C
;
_chemical_formula_sum "Si O2"
_cell_formula_units_Z 32
_cell_length_a 11.292108
_cell_length_b 8.164303
_cell_length_c 20.901245
_cell_angle_alpha 90.000000
_cell_angle_beta 129.514018
_cell_angle_gamma 90.000000
_cell_volume 1486.567855
_symmetry_space_group_name_H-M "P 21/C"
_symmetry_group_IT_number 14
_symmetry_cell_setting 'monoclinic'
loop_
_space_group_symop_operation_xyz
x,y,z
-x,1/2+y,1/2-z
-x,-y,-z
x,1/2-y,1/2+z
loop_
_atom_site_type_symbol
_atom_site_label
_atom_site_fract_x
_atom_site_fract_y
_atom_site_fract_z
Si Si1 0.147536 0.574447 0.727376
Si Si2 0.793014 0.583860 0.612378
Si Si3 0.683357 0.114769 0.456130
Si Si4 0.611831 0.760233 0.448446
Si Si5 0.338703 0.266402 0.818107
Si Si6 0.285535 0.726991 0.656380
Si Si7 0.305445 0.728332 0.903199
Si Si8 0.474577 0.527501 0.296009
O O1 0.245862 0.409628 0.750038
O O2 0.165773 0.697358 0.672680
O O3 0.198978 0.662333 0.809972
O O4 0.969753 0.532358 0.671745
O O5 0.741520 0.648006 0.525134
O O6 0.758042 0.725781 0.651457
O O7 0.695583 0.424526 0.596415
O O8 0.509441 0.179768 0.394952
O O9 0.783330 0.210779 0.435678
O O10 0.754990 0.155340 0.550245
O O11 0.692234 0.920375 0.446123
O O12 0.483255 0.823132 0.454748
O O13 0.517373 0.659771 0.363942
O O14 0.349928 0.104810 0.777845
O O15 0.372216 0.556209 0.676885
O O16 0.403316 0.873143 0.712916
#
# Coordination Sequence:
#
# PCOD8128487 Si02
#       8
#     4   4   4   4   4   4   4   4
#     4  12  25  41  62  94 138 169 207 260 329 389
#     4  12  24  38  63  97 133 169 210 267 322 382
#     4  11  23  38  69  96 122 162 217 275 309 372
#     4  12  21  41  67  99 123 163 222 267 317 363
#     4  11  20  38  62  94 123 164 214 266 319 364
#     4  11  22  40  61  98 130 165 211 263 326 379
#     4  12  22  43  64  97 125 168 221 266 312 372
#     4  11  21  37  67  94 124 161 219 272 307 375
#
# _framework density 21.526092999999999
#
# number of rings (size 3 to 8) (size 9 to 14) (size 15 to 20)
#    0.000    0.500    5.000    6.000    0.000    0.000 
#    0.000    4.375    0.000    0.000    0.000    0.000 
#    0.000    0.000    0.000    0.000    0.000    0.000 
#
# Total GULP energy -396876.160417 kJ/mol
# GULP energy per Si atom -12402.380013 kJ/mol
# Density = 2.147710 g / cm^3
# Si number density = 21.526093 Si / 1000 Ang^3
#
#
#
# Elastic Constant Matrix: (Units=GPa)
#
#
# Indices 1 2 3 4 5 6 
#
# 1 62.5889 12.9853 35.9433 0.0000 -19.0306 0.0000
# 2 12.9853 111.2080 20.7443 0.0000 -19.1655 0.0000
# 3 35.9433 20.7443 72.5864 0.0000 -21.0434 0.0000
# 4 0.0000 0.0000 0.0000 26.6438 0.0000 -7.4135
# 5 -19.0306 -19.1655 -21.0434 0.0000 36.2877 0.0000
# 6 0.0000 0.0000 0.0000 -7.4135 0.0000 23.2640
#
#
#
# Elastic Compliance Matrix: (Units=1/GPa)
#
#
# Indices 1 2 3 4 5 6 
#
# 1 0.023627 0.000246 -0.009785 0.000000 0.006847 0.000000
# 2 0.000246 0.010048 -0.001704 0.000000 0.004448 0.000000
# 3 -0.009785 -0.001704 0.020869 0.000000 0.006070 0.000000
# 4 0.000000 0.000000 0.000000 0.041184 0.000000 0.013124
# 5 0.006847 0.004448 0.006070 0.000000 0.037018 0.000000
# 6 0.000000 0.000000 0.000000 0.013124 0.000000 0.047167
#
#
# Mechanical properties :
#
#
# Convention : Reuss Voigt Hill
#
# Bulk Modulus (GPa) = 31.19331 42.85880 37.02605
# Shear Modulus (GPa) = 23.46485 29.01980 26.24232
#
# Velocity S-wave (km/s) = 3.30520 3.67566 3.49534
# Velocity P-wave (km/s) = 5.39334 6.16177 5.79032
#
# Compressibility (1/GPa) = 0.03205816
#
# Stress axis : x y z
#
# Youngs Moduli (GPa) = 42.32367 99.52438 47.91795
#
# Poissons Ratio (x) = -0.02452 0.46889
# Poissons Ratio (y) = -0.01043 0.08166
# Poissons Ratio (z) = 0.41415 0.16960
#
# Static dielectric constant tensor:
#      x y z
#    x 3.748940 0.000000 -0.360120 
#    y 0.000000 4.038580 0.000000 
#    z -0.360120 0.000000 3.804250 
# 
# 
# High freq. dielectric constant tensor:
#      x y z
#    x 1.822970 0.000000 -0.031290 
#    y 0.000000 1.863720 0.000000 
#    z -0.031290 0.000000 1.831450 
# 
# From -- ./inp_files/67066.got.cif
#   From: 2010.03.12/outbox.cif.g09.slc.cpg/sg14_34_cif.got.tgz:67066.got - 2010.03.31 13:35:05.
