data_PCOD8128867
_publ_section_title
;
Structure prediction by ZEFSAII (Michael W. Deem and Ramdas Pophale) SiO2 
 PCOD8128867
Probable space group: P 21/C
;
_chemical_formula_sum "Si O2"
_cell_formula_units_Z 16
_cell_length_a 9.930027
_cell_length_b 8.193000
_cell_length_c 7.858296
_cell_angle_alpha 90.000000
_cell_angle_beta 116.724391
_cell_angle_gamma 90.000000
_cell_volume 571.032429
_symmetry_space_group_name_H-M "P 21/C"
_symmetry_group_IT_number 14
_symmetry_cell_setting 'monoclinic'
loop_
_space_group_symop_operation_xyz
x,y,z
-x,1/2+y,1/2-z
-x,-y,-z
x,1/2-y,1/2+z
loop_
_atom_site_type_symbol
_atom_site_label
_atom_site_fract_x
_atom_site_fract_y
_atom_site_fract_z
Si Si1 0.675288 0.999016 0.410205
Si Si2 0.871963 0.429910 0.621110
Si Si3 0.634184 0.322966 0.226603
Si Si4 0.056465 0.255866 0.965119
O O1 0.635116 0.124033 0.232870
O O2 0.713127 0.105062 0.601483
O O3 0.538907 0.876640 0.368216
O O4 0.816488 0.891384 0.432017
O O5 0.715319 0.391333 0.440801
O O6 0.889475 0.624921 0.647568
O O7 0.019638 0.352550 0.609599
O O8 0.896841 0.344398 0.821231
#
# Coordination Sequence:
#
# PCOD8128867 Si02
#       4
#     4   4   4   4
#     4  11  25  44  68  99 136 177 223 273 331 396
#     4  11  23  42  68  98 133 173 221 274 331 393
#     4  11  24  44  68  98 136 177 222 274 331 392
#     4  11  24  43  68  98 133 175 222 275 331 393
#
# _framework density 28.019425999999999
#
# number of rings (size 3 to 8) (size 9 to 14) (size 15 to 20)
#    0.000    1.000    0.000    7.500    0.000    9.000 
#    0.000    0.000    0.000    0.000    0.000    0.000 
#    0.000    0.000    0.000    0.000    0.000    0.000 
#
# Total GULP energy -198418.419752 kJ/mol
# GULP energy per Si atom -12401.151235 kJ/mol
# Density = 2.795565 g / cm^3
# Si number density = 28.019426 Si / 1000 Ang^3
#
#
#
# Elastic Constant Matrix: (Units=GPa)
#
#
# Indices 1 2 3 4 5 6 
#
# 1 80.0678 20.8902 22.2415 0.0000 -3.1163 0.0000
# 2 20.8902 199.1500 50.4752 0.0000 3.3399 0.0000
# 3 22.2415 50.4752 82.4297 0.0000 21.6346 0.0000
# 4 0.0000 0.0000 0.0000 61.5425 0.0000 4.8225
# 5 -3.1163 3.3399 21.6346 0.0000 37.1875 0.0000
# 6 0.0000 0.0000 0.0000 4.8225 0.0000 46.0343
#
#
#
# Elastic Compliance Matrix: (Units=1/GPa)
#
#
# Indices 1 2 3 4 5 6 
#
# 1 0.014005 -0.000378 -0.004561 0.000000 0.003861 0.000000
# 2 -0.000378 0.006066 -0.004085 0.000000 0.001800 0.000000
# 3 -0.004561 -0.004085 0.018727 0.000000 -0.010910 0.000000
# 4 0.000000 0.000000 0.000000 0.016383 0.000000 -0.001716
# 5 0.003861 0.001800 -0.010910 0.000000 0.033400 0.000000
# 6 0.000000 0.000000 0.000000 -0.001716 0.000000 0.021903
#
#
# Mechanical properties :
#
#
# Convention : Reuss Voigt Hill
#
# Bulk Modulus (GPa) = 48.19079 60.98459 54.58769
# Shear Modulus (GPa) = 36.91417 46.82223 41.86820
#
# Velocity S-wave (km/s) = 3.63361 4.09230 3.86975
# Velocity P-wave (km/s) = 5.90259 6.64391 6.28419
#
# Compressibility (1/GPa) = 0.02075085
#
# Stress axis : x y z
#
# Youngs Moduli (GPa) = 71.40186 164.84887 53.39831
#
# Poissons Ratio (x) = 0.06229 0.24355
# Poissons Ratio (y) = 0.02698 0.21814
# Poissons Ratio (z) = 0.32566 0.67342
#
# Static dielectric constant tensor:
#      x y z
#    x 4.997440 0.000000 -0.232530 
#    y 0.000000 5.515880 0.000000 
#    z -0.232530 0.000000 4.916820 
# 
# 
# High freq. dielectric constant tensor:
#      x y z
#    x 2.141720 0.000000 -0.008100 
#    y 0.000000 2.159610 0.000000 
#    z -0.008100 0.000000 2.127880 
# 
# From -- ./inp_files/11948.got.cif
#   From: 2010.03.12/outbox.cif.g09.slc.cpg/sg14_6_cif.got.tgz:11948.got - 2010.03.31 13:35:05.
