data_PCOD8128017
_publ_section_title
;
Structure prediction by ZEFSAII (Michael W. Deem and Ramdas Pophale) SiO2 
 PCOD8128017
Probable space group: P 21/C
;
_chemical_formula_sum "Si O2"
_cell_formula_units_Z 16
_cell_length_a 8.758352
_cell_length_b 7.275963
_cell_length_c 18.530991
_cell_angle_alpha 90.000000
_cell_angle_beta 39.977204
_cell_angle_gamma 90.000000
_cell_volume 758.705115
_symmetry_space_group_name_H-M "P 21/C"
_symmetry_group_IT_number 14
_symmetry_cell_setting 'monoclinic'
loop_
_space_group_symop_operation_xyz
x,y,z
-x,1/2+y,1/2-z
-x,-y,-z
x,1/2-y,1/2+z
loop_
_atom_site_type_symbol
_atom_site_label
_atom_site_fract_x
_atom_site_fract_y
_atom_site_fract_z
Si Si1 0.968349 0.056611 0.429230
Si Si2 0.145812 0.962494 0.018490
Si Si3 0.686645 0.515137 0.313376
Si Si4 0.922708 0.746974 0.343949
O O1 0.830682 0.247507 0.473787
O O2 0.230468 0.076749 0.297211
O O3 0.820514 0.903847 0.436354
O O4 0.000000 0.000000 0.500000
O O5 0.013521 0.067825 0.131282
O O6 0.412480 0.039946 0.913485
O O7 0.000000 0.000000 0.000000
O O8 0.736140 0.683630 0.350814
O O9 0.839573 0.331691 0.279807
#
# Coordination Sequence:
#
# PCOD8128017 Si02
#       4
#     4   4   4   4
#     4  10  23  45  65 101 134 180 229 278 348 404
#     4  12  23  43  69 101 141 176 230 284 338 419
#     4  10  24  44  69  99 135 181 225 283 347 395
#     4  10  23  46  64  99 138 172 234 276 344 407
#
# _framework density 21.088563000000001
#
# number of rings (size 3 to 8) (size 9 to 14) (size 15 to 20)
#    1.500    0.000    2.500    2.250    0.000    5.000 
#    9.000    0.000    0.000    0.000    0.000    0.000 
#    0.000    0.000    0.000    0.000    0.000    0.000 
#
# Total GULP energy -198215.720586 kJ/mol
# GULP energy per Si atom -12388.482537 kJ/mol
# Density = 2.104056 g / cm^3
# Si number density = 21.088563 Si / 1000 Ang^3
#
#
#
# Elastic Constant Matrix: (Units=GPa)
#
#
# Indices 1 2 3 4 5 6 
#
# 1 122.1483 55.2687 54.6076 0.0000 2.9882 0.0000
# 2 55.2687 142.2224 43.4471 0.0000 11.0192 0.0000
# 3 54.6076 43.4471 81.2639 0.0000 6.3692 0.0000
# 4 0.0000 0.0000 0.0000 42.5296 0.0000 12.5342
# 5 2.9882 11.0192 6.3692 0.0000 46.6140 0.0000
# 6 0.0000 0.0000 0.0000 12.5342 0.0000 38.8024
#
#
#
# Elastic Compliance Matrix: (Units=1/GPa)
#
#
# Indices 1 2 3 4 5 6 
#
# 1 0.012571 -0.002807 -0.007011 0.000000 0.000816 0.000000
# 2 -0.002807 0.009120 -0.002866 0.000000 -0.001584 0.000000
# 3 -0.007011 -0.002866 0.018660 0.000000 -0.001423 0.000000
# 4 0.000000 0.000000 0.000000 0.025987 0.000000 -0.008395
# 5 0.000816 -0.001584 -0.001423 0.000000 0.021969 0.000000
# 6 0.000000 0.000000 0.000000 -0.008395 0.000000 0.028483
#
#
# Mechanical properties :
#
#
# Convention : Reuss Voigt Hill
#
# Bulk Modulus (GPa) = 66.73345 72.47571 69.60458
# Shear Modulus (GPa) = 33.97827 38.40997 36.19412
#
# Velocity S-wave (km/s) = 4.01835 4.27238 4.14731
# Velocity P-wave (km/s) = 7.29675 7.66678 7.48405
#
# Compressibility (1/GPa) = 0.01498499
#
# Stress axis : x y z
#
# Youngs Moduli (GPa) = 79.54816 109.64714 53.58938
#
# Poissons Ratio (x) = 0.30774 0.37570
# Poissons Ratio (y) = 0.22326 0.15358
# Poissons Ratio (z) = 0.55770 0.31423
#
# Static dielectric constant tensor:
#      x y z
#    x 3.472060 0.000000 0.325740 
#    y 0.000000 4.023830 0.000000 
#    z 0.325740 0.000000 3.747060 
# 
# 
# High freq. dielectric constant tensor:
#      x y z
#    x 1.807830 0.000000 0.030950 
#    y 0.000000 1.837790 0.000000 
#    z 0.030950 0.000000 1.815160 
# 
# From -- ./inp_files/22513.got.cif
#   From: 2010.03.12/outbox.cif.g09.slc.cpg/sg14_12_cif.got.tgz:22513.got - 2010.03.31 13:35:05.
