data_PCOD8128677
_publ_section_title
;
Structure prediction by ZEFSAII (Michael W. Deem and Ramdas Pophale) SiO2 
 PCOD8128677
Probable space group: P 21/C
;
_chemical_formula_sum "Si O2"
_cell_formula_units_Z 32
_cell_length_a 18.304030
_cell_length_b 8.806682
_cell_length_c 20.347217
_cell_angle_alpha 90.000000
_cell_angle_beta 149.996148
_cell_angle_gamma 90.000000
_cell_volume 1640.153982
_symmetry_space_group_name_H-M "P 21/C"
_symmetry_group_IT_number 14
_symmetry_cell_setting 'monoclinic'
loop_
_space_group_symop_operation_xyz
x,y,z
-x,1/2+y,1/2-z
-x,-y,-z
x,1/2-y,1/2+z
loop_
_atom_site_type_symbol
_atom_site_label
_atom_site_fract_x
_atom_site_fract_y
_atom_site_fract_z
Si Si1 0.142096 0.249257 0.105570
Si Si2 0.171647 0.751909 0.158488
Si Si3 0.818690 0.038390 0.948530
Si Si4 0.134730 0.454019 0.717635
Si Si5 0.539357 0.406802 0.594434
Si Si6 0.419497 0.106509 0.757472
Si Si7 0.492040 0.061790 0.291498
Si Si8 0.575896 0.573668 0.995375
O O1 0.167756 0.200531 0.201314
O O2 0.266429 0.353407 0.172011
O O3 0.129178 0.085730 0.062508
O O4 0.986563 0.329536 0.970050
O O5 0.212699 0.808404 0.116818
O O6 0.286674 0.624440 0.269945
O O7 0.175009 0.890506 0.211999
O O8 0.667554 0.983382 0.864126
O O9 0.963451 0.053692 0.108338
O O10 0.248427 0.449869 0.867067
O O11 0.500000 0.500000 0.500000
O O12 0.491997 0.505510 0.621151
O O13 0.451464 0.251675 0.527826
O O14 0.510367 0.257022 0.809125
O O15 0.391873 0.009798 0.668991
O O16 0.507454 0.000351 0.377135
O O17 0.500000 0.500000 0.000000
#
# Coordination Sequence:
#
# PCOD8128677 Si02
#       8
#     4   4   4   4   4   4   4   4
#     4   8  16  33  56  88 113 145 192 239 286 349
#     4   9  16  31  57  85 118 149 185 238 293 344
#     4   8  15  32  57  85 111 150 191 233 287 351
#     4   9  16  30  60  91 116 142 186 240 296 343
#     4  12  23  34  55  89 125 151 194 246 293 345
#     4  11  24  39  57  85 116 160 199 242 291 359
#     4  11  22  39  61  81 117 159 201 240 293 359
#     4  12  20  35  60  90 116 152 192 243 295 344
#
# _framework density 19.510363000000002
#
# number of rings (size 3 to 8) (size 9 to 14) (size 15 to 20)
#    0.000    2.000    2.500    5.250    0.000    0.500 
#    0.000    0.000    2.750    0.000    0.000    0.000 
#    0.000    0.000    0.000    0.000    0.000    0.000 
#
# Total GULP energy -396476.157544 kJ/mol
# GULP energy per Si atom -12389.879923 kJ/mol
# Density = 1.946596 g / cm^3
# Si number density = 19.510363 Si / 1000 Ang^3
#
#
#
# Elastic Constant Matrix: (Units=GPa)
#
#
# Indices 1 2 3 4 5 6 
#
# 1 58.3261 36.6715 25.3218 0.0000 -11.6089 0.0000
# 2 36.6715 117.2130 40.6975 0.0000 -10.5719 0.0000
# 3 25.3218 40.6975 109.1744 0.0000 5.0949 0.0000
# 4 0.0000 0.0000 0.0000 32.5712 0.0000 -1.9546
# 5 -11.6089 -10.5719 5.0949 0.0000 27.6613 0.0000
# 6 0.0000 0.0000 0.0000 -1.9546 0.0000 27.6720
#
#
#
# Elastic Compliance Matrix: (Units=1/GPa)
#
#
# Indices 1 2 3 4 5 6 
#
# 1 0.023964 -0.005325 -0.003982 0.000000 0.008756 0.000000
# 2 -0.005325 0.011560 -0.003204 0.000000 0.002773 0.000000
# 3 -0.003982 -0.003204 0.011511 0.000000 -0.005016 0.000000
# 4 0.000000 0.000000 0.000000 0.030833 0.000000 0.002178
# 5 0.008756 0.002773 -0.005016 0.000000 0.041810 0.000000
# 6 0.000000 0.000000 0.000000 0.002178 0.000000 0.036291
#
#
# Mechanical properties :
#
#
# Convention : Reuss Voigt Hill
#
# Bulk Modulus (GPa) = 45.42431 54.45501 49.93966
# Shear Modulus (GPa) = 26.54921 29.71575 28.13248
#
# Velocity S-wave (km/s) = 3.69287 3.90689 3.80139
# Velocity P-wave (km/s) = 6.44327 6.95149 6.70220
#
# Compressibility (1/GPa) = 0.02201464
#
# Stress axis : x y z
#
# Youngs Moduli (GPa) = 41.72839 86.50495 86.87010
#
# Poissons Ratio (x) = 0.46067 0.34589
# Poissons Ratio (y) = 0.22222 0.27829
# Poissons Ratio (z) = 0.16615 0.27712
#
# Static dielectric constant tensor:
#      x y z
#    x 3.365080 0.000000 0.155680 
#    y 0.000000 3.704670 0.000000 
#    z 0.155680 0.000000 3.869100 
# 
# 
# High freq. dielectric constant tensor:
#      x y z
#    x 1.719330 0.000000 0.016300 
#    y 0.000000 1.762880 0.000000 
#    z 0.016300 0.000000 1.760140 
# 
# From -- ./inp_files/69790.got.cif
#   From: 2010.03.12/outbox.cif.g09.slc.cpg/sg14_35_cif.got.tgz:69790.got - 2010.03.31 13:35:05.
