data_PCOD8128016
_publ_section_title
;
Structure prediction by ZEFSAII (Michael W. Deem and Ramdas Pophale) SiO2 
 PCOD8128016
Probable space group: P 21/C
;
_chemical_formula_sum "Si O2"
_cell_formula_units_Z 32
_cell_length_a 12.101815
_cell_length_b 16.245374
_cell_length_c 15.925133
_cell_angle_alpha 90.000000
_cell_angle_beta 27.422544
_cell_angle_gamma 90.000000
_cell_volume 1441.913495
_symmetry_space_group_name_H-M "P 21/C"
_symmetry_group_IT_number 14
_symmetry_cell_setting 'monoclinic'
loop_
_space_group_symop_operation_xyz
x,y,z
-x,1/2+y,1/2-z
-x,-y,-z
x,1/2-y,1/2+z
loop_
_atom_site_type_symbol
_atom_site_label
_atom_site_fract_x
_atom_site_fract_y
_atom_site_fract_z
Si Si1 0.367294 0.260832 0.011754
Si Si2 0.268648 0.630913 0.799989
Si Si3 0.543448 0.906822 0.441906
Si Si4 0.832692 0.858622 0.721105
Si Si5 0.090917 0.953328 0.684990
Si Si6 0.095138 0.117646 0.595177
Si Si7 0.977556 0.028954 0.920893
Si Si8 0.452991 0.450634 0.718429
O O1 0.513103 0.340465 0.946959
O O2 0.254584 0.222901 0.172850
O O3 0.157384 0.292342 0.090572
O O4 0.532684 0.201713 0.843760
O O5 0.393110 0.546945 0.746278
O O6 0.158599 0.620005 0.781207
O O7 0.060279 0.657254 0.006514
O O8 0.338585 0.900358 0.506474
O O9 0.816522 0.900125 0.225213
O O10 0.500000 0.000000 0.500000
O O11 0.607830 0.899285 0.824562
O O12 0.894074 0.921774 0.753910
O O13 0.103344 0.052531 0.665568
O O14 0.014684 0.948975 0.834697
O O15 0.291516 0.085406 0.399317
O O16 0.721974 0.066980 0.067268
O O17 0.000000 0.000000 0.000000
#
# Coordination Sequence:
#
# PCOD8128016 Si02
#       8
#     4   4   4   4   4   4   4   4
#     4  12  27  43  69 111 149 191 246 309 378 435
#     4  11  25  48  74 108 149 188 247 314 371 443
#     4  10  23  45  64  96 142 196 231 294 370 438
#     4  11  25  47  74 110 141 194 247 312 379 435
#     4  11  21  45  76  94 141 192 248 294 371 451
#     4  11  22  47  73 100 144 197 238 305 378 435
#     4  11  24  38  70 111 135 183 256 302 349 451
#     4  11  23  47  79 105 140 196 253 304 372 460
#
# _framework density 22.192730999999998
#
# number of rings (size 3 to 8) (size 9 to 14) (size 15 to 20)
#    0.000    1.000    5.000    2.250    5.250    2.000 
#    4.500    0.000    0.000    0.000    0.000    0.000 
#    0.000    0.000    0.000    0.000    0.000    0.000 
#
# Total GULP energy -396523.984949 kJ/mol
# GULP energy per Si atom -12391.374530 kJ/mol
# Density = 2.214222 g / cm^3
# Si number density = 22.192731 Si / 1000 Ang^3
#
#
#
# Elastic Constant Matrix: (Units=GPa)
#
#
# Indices 1 2 3 4 5 6 
#
# 1 156.4064 40.7984 44.7822 0.0000 -1.3681 0.0000
# 2 40.7984 96.6488 36.2649 0.0000 7.1552 0.0000
# 3 44.7822 36.2649 68.5272 0.0000 1.8553 0.0000
# 4 0.0000 0.0000 0.0000 32.6751 0.0000 4.1994
# 5 -1.3681 7.1552 1.8553 0.0000 41.2582 0.0000
# 6 0.0000 0.0000 0.0000 4.1994 0.0000 43.0979
#
#
#
# Elastic Compliance Matrix: (Units=1/GPa)
#
#
# Indices 1 2 3 4 5 6 
#
# 1 0.008131 -0.001858 -0.004352 0.000000 0.000787 0.000000
# 2 -0.001858 0.013491 -0.005867 0.000000 -0.002137 0.000000
# 3 -0.004352 -0.005867 0.020543 0.000000 -0.000050 0.000000
# 4 0.000000 0.000000 0.000000 0.030992 0.000000 -0.003020
# 5 0.000787 -0.002137 -0.000050 0.000000 0.024637 0.000000
# 6 0.000000 0.000000 0.000000 -0.003020 0.000000 0.023497
#
#
# Mechanical properties :
#
#
# Convention : Reuss Voigt Hill
#
# Bulk Modulus (GPa) = 55.52207 62.80818 59.16512
# Shear Modulus (GPa) = 33.01439 36.72205 34.86822
#
# Velocity S-wave (km/s) = 3.86115 4.07220 3.96808
# Velocity P-wave (km/s) = 6.70451 7.10444 6.90737
#
# Compressibility (1/GPa) = 0.01801086
#
# Stress axis : x y z
#
# Youngs Moduli (GPa) = 122.98472 74.12447 48.67816
#
# Poissons Ratio (x) = 0.13771 0.21184
# Poissons Ratio (y) = 0.22848 0.28562
# Poissons Ratio (z) = 0.53521 0.43492
#
# Static dielectric constant tensor:
#      x y z
#    x 4.768800 0.000000 -0.488630 
#    y 0.000000 3.791450 0.000000 
#    z -0.488630 0.000000 4.054490 
# 
# 
# High freq. dielectric constant tensor:
#      x y z
#    x 1.900420 0.000000 -0.004960 
#    y 0.000000 1.851890 0.000000 
#    z -0.004960 0.000000 1.870540 
# 
# From -- ./inp_files/45379.got.cif
#   From: 2010.03.12/outbox.cif.g09.slc.cpg/sg14_23_cif.got.tgz:45379.got - 2010.03.31 13:35:05.
