data_PCOD8128008
_publ_section_title
;
Structure prediction by ZEFSAII (Michael W. Deem and Ramdas Pophale) SiO2 
 PCOD8128008
Probable space group: P 21/C
;
_chemical_formula_sum "Si O2"
_cell_formula_units_Z 16
_cell_length_a 7.059765
_cell_length_b 17.246034
_cell_length_c 7.341868
_cell_angle_alpha 90.000000
_cell_angle_beta 137.796939
_cell_angle_gamma 90.000000
_cell_volume 600.482426
_symmetry_space_group_name_H-M "P 21/C"
_symmetry_group_IT_number 14
_symmetry_cell_setting 'monoclinic'
loop_
_space_group_symop_operation_xyz
x,y,z
-x,1/2+y,1/2-z
-x,-y,-z
x,1/2-y,1/2+z
loop_
_atom_site_type_symbol
_atom_site_label
_atom_site_fract_x
_atom_site_fract_y
_atom_site_fract_z
Si Si1 0.562779 0.345400 0.964107
Si Si2 0.191551 0.465177 0.294112
Si Si3 0.559138 0.168840 0.053866
Si Si4 0.948382 0.087356 0.037579
O O1 0.506771 0.259498 0.995932
O O2 0.676838 0.347281 0.839779
O O3 0.273233 0.390971 0.777178
O O4 0.806374 0.391482 0.243276
O O5 0.500000 0.500000 0.500000
O O6 0.249068 0.372853 0.315494
O O7 0.081809 0.495537 0.417146
O O8 0.000000 0.500000 0.000000
O O9 0.787487 0.138101 0.074799
#
# Coordination Sequence:
#
# PCOD8128008 Si02
#       4
#     4   4   4   4
#     4  12  27  41  74 102 138 183 231 281 347 410
#     4  10  23  44  73  98 138 183 225 285 345 404
#     4  11  26  46  71 103 140 184 228 286 346 405
#     4  11  26  47  68 105 138 179 233 284 341 413
#
# _framework density 26.645244000000002
#
# number of rings (size 3 to 8) (size 9 to 14) (size 15 to 20)
#    0.000    1.000    2.500    3.000    3.500   10.000 
#    0.000    0.000    0.000    0.000    0.000    0.000 
#    0.000    0.000    0.000    0.000    0.000    0.000 
#
# Total GULP energy -198443.341730 kJ/mol
# GULP energy per Si atom -12402.708858 kJ/mol
# Density = 2.658460 g / cm^3
# Si number density = 26.645244 Si / 1000 Ang^3
#
#
#
# Elastic Constant Matrix: (Units=GPa)
#
#
# Indices 1 2 3 4 5 6 
#
# 1 114.0837 20.8731 38.1490 0.0000 -19.3661 0.0000
# 2 20.8731 212.2788 60.6830 0.0000 12.7386 0.0000
# 3 38.1490 60.6830 158.7902 0.0000 -9.2081 0.0000
# 4 0.0000 0.0000 0.0000 34.3321 0.0000 0.8031
# 5 -19.3661 12.7386 -9.2081 0.0000 65.1526 0.0000
# 6 0.0000 0.0000 0.0000 0.8031 0.0000 47.2940
#
#
#
# Elastic Compliance Matrix: (Units=1/GPa)
#
#
# Indices 1 2 3 4 5 6 
#
# 1 0.010024 -0.000575 -0.002026 0.000000 0.002806 0.000000
# 2 -0.000575 0.005438 -0.002028 0.000000 -0.001521 0.000000
# 3 -0.002026 -0.002028 0.007610 0.000000 0.000870 0.000000
# 4 0.000000 0.000000 0.000000 0.029139 0.000000 -0.000495
# 5 0.002806 -0.001521 0.000870 0.000000 0.016603 0.000000
# 6 0.000000 0.000000 0.000000 -0.000495 0.000000 0.021153
#
#
# Mechanical properties :
#
#
# Convention : Reuss Voigt Hill
#
# Bulk Modulus (GPa) = 72.38875 80.50699 76.44787
# Shear Modulus (GPa) = 48.15536 53.71891 50.93714
#
# Velocity S-wave (km/s) = 4.25582 4.49495 4.37702
# Velocity P-wave (km/s) = 7.16770 7.56435 7.36869
#
# Compressibility (1/GPa) = 0.01381430
#
# Stress axis : x y z
#
# Youngs Moduli (GPa) = 99.75622 183.87629 131.40660
#
# Poissons Ratio (x) = 0.10571 0.26622
# Poissons Ratio (y) = 0.05735 0.26655
# Poissons Ratio (z) = 0.20210 0.37298
#
# Static dielectric constant tensor:
#      x y z
#    x 5.766310 0.000000 -0.182660 
#    y 0.000000 7.746550 0.000000 
#    z -0.182660 0.000000 5.041810 
# 
# 
# High freq. dielectric constant tensor:
#      x y z
#    x 2.121460 0.000000 -0.005930 
#    y 0.000000 2.105370 0.000000 
#    z -0.005930 0.000000 2.074230 
# 
# From -- ./inp_files/9593.got.cif
#   From: 2010.03.12/outbox.cif.g09.slc.cpg/sg14_5_cif.got.tgz:9593.got - 2010.03.31 13:35:05.
