data_PCOD8128120
_publ_section_title
;
Structure prediction by ZEFSAII (Michael W. Deem and Ramdas Pophale) SiO2 
 PCOD8128120
Probable space group: P 21/C
;
_chemical_formula_sum "Si O2"
_cell_formula_units_Z 20
_cell_length_a 11.800545
_cell_length_b 8.900751
_cell_length_c 9.557972
_cell_angle_alpha 90.000000
_cell_angle_beta 66.999382
_cell_angle_gamma 90.000000
_cell_volume 924.099138
_symmetry_space_group_name_H-M "P 21/C"
_symmetry_group_IT_number 14
_symmetry_cell_setting 'monoclinic'
loop_
_space_group_symop_operation_xyz
x,y,z
-x,1/2+y,1/2-z
-x,-y,-z
x,1/2-y,1/2+z
loop_
_atom_site_type_symbol
_atom_site_label
_atom_site_fract_x
_atom_site_fract_y
_atom_site_fract_z
Si Si1 0.824583 0.488898 0.491365
Si Si2 0.996100 0.750183 0.997210
Si Si3 0.161902 0.000861 0.317389
Si Si4 0.612676 0.099818 0.279173
Si Si5 0.373823 0.898870 0.404696
O O1 0.921344 0.624310 0.449330
O O2 0.764801 0.492693 0.365093
O O3 0.719756 0.503577 0.660095
O O4 0.893406 0.329302 0.472243
O O5 0.056918 0.628146 0.864213
O O6 0.902888 0.663220 0.144295
O O7 0.253329 0.981490 0.403694
O O8 0.598287 0.249365 0.195207
O O9 0.648285 0.139999 0.421551
O O10 0.486142 0.011688 0.332917
#
# Coordination Sequence:
#
# PCOD8128120 Si02
#       5
#     4   4   4   4   4
#     4  11  23  42  68  97 133 174 217 267 322 385
#     4  10  24  40  64 102 134 172 214 268 320 388
#     4  11  23  42  68  97 133 174 217 267 322 385
#     4  11  26  46  68  97 130 169 218 271 325 386
#     4  11  26  46  68  97 130 169 218 271 325 386
#
# _framework density 21.642697999999999
#
# number of rings (size 3 to 8) (size 9 to 14) (size 15 to 20)
#    0.000    1.200    2.000    2.400    2.800   11.200 
#    0.000    0.000    0.000    0.000    0.000    0.000 
#    0.000    0.000    0.000    0.000    0.000    0.000 
#
# Total GULP energy -248016.762507 kJ/mol
# GULP energy per Si atom -12400.838125 kJ/mol
# Density = 2.159344 g / cm^3
# Si number density = 21.642698 Si / 1000 Ang^3
#
#
#
# Elastic Constant Matrix: (Units=GPa)
#
#
# Indices 1 2 3 4 5 6 
#
# 1 68.2606 20.0569 42.0855 0.0000 -8.9725 0.0000
# 2 20.0569 81.3275 31.6527 0.0000 -1.4885 0.0000
# 3 42.0855 31.6527 174.2280 0.0000 6.5852 0.0000
# 4 0.0000 0.0000 0.0000 24.3217 0.0000 -7.1847
# 5 -8.9725 -1.4885 6.5852 0.0000 28.3427 0.0000
# 6 0.0000 0.0000 0.0000 -7.1847 0.0000 29.3845
#
#
#
# Elastic Compliance Matrix: (Units=1/GPa)
#
#
# Indices 1 2 3 4 5 6 
#
# 1 0.019085 -0.002889 -0.004346 0.000000 0.006900 0.000000
# 2 -0.002889 0.013714 -0.001802 0.000000 0.000224 0.000000
# 3 -0.004346 -0.001802 0.007236 0.000000 -0.003152 0.000000
# 4 0.000000 0.000000 0.000000 0.044316 0.000000 0.010836
# 5 0.006900 0.000224 -0.003152 0.000000 0.038211 0.000000
# 6 0.000000 0.000000 0.000000 0.010836 0.000000 0.036681
#
#
# Mechanical properties :
#
#
# Convention : Reuss Voigt Hill
#
# Bulk Modulus (GPa) = 45.53588 56.82293 51.17941
# Shear Modulus (GPa) = 27.08009 31.74451 29.41230
#
# Velocity S-wave (km/s) = 3.54112 3.83398 3.69045
# Velocity P-wave (km/s) = 6.14857 6.77578 6.46978
#
# Compressibility (1/GPa) = 0.02196070
#
# Stress axis : x y z
#
# Youngs Moduli (GPa) = 52.39710 72.91855 138.19959
#
# Poissons Ratio (x) = 0.21066 0.60061
# Poissons Ratio (y) = 0.15137 0.24905
# Poissons Ratio (z) = 0.22772 0.13141
#
# Static dielectric constant tensor:
#      x y z
#    x 3.871050 0.000000 -0.046730 
#    y 0.000000 4.056220 0.000000 
#    z -0.046730 0.000000 3.928170 
# 
# 
# High freq. dielectric constant tensor:
#      x y z
#    x 1.847210 0.000000 -0.000940 
#    y 0.000000 1.861010 0.000000 
#    z -0.000940 0.000000 1.855290 
# 
# From -- ./inp_files/11773.got.cif
#   From: 2010.03.12/outbox.cif.g09.slc.cpg/sg14_6_cif.got.tgz:11773.got - 2010.03.31 13:35:05.
