data_PCOD8128694
_publ_section_title
;
Structure prediction by ZEFSAII (Michael W. Deem and Ramdas Pophale) SiO2 
 PCOD8128694
Probable space group: P 21/C
;
_chemical_formula_sum "Si O2"
_cell_formula_units_Z 32
_cell_length_a 11.542712
_cell_length_b 17.700009
_cell_length_c 8.899237
_cell_angle_alpha 90.000000
_cell_angle_beta 125.315976
_cell_angle_gamma 90.000000
_cell_volume 1483.582613
_symmetry_space_group_name_H-M "P 21/C"
_symmetry_group_IT_number 14
_symmetry_cell_setting 'monoclinic'
loop_
_space_group_symop_operation_xyz
x,y,z
-x,1/2+y,1/2-z
-x,-y,-z
x,1/2-y,1/2+z
loop_
_atom_site_type_symbol
_atom_site_label
_atom_site_fract_x
_atom_site_fract_y
_atom_site_fract_z
Si Si1 0.682370 0.440426 0.820192
Si Si2 0.013776 0.582510 0.833714
Si Si3 0.388176 0.399254 0.100279
Si Si4 0.407238 0.091224 0.258929
Si Si5 0.342119 0.565612 0.554513
Si Si6 0.875487 0.826835 0.469001
Si Si7 0.884092 0.844598 0.966145
Si Si8 0.031722 0.913772 0.812326
O O1 0.677566 0.521323 0.896893
O O2 0.557925 0.386413 0.795121
O O3 0.659031 0.449859 0.624504
O O4 0.834760 0.404018 0.972919
O O5 0.002169 0.633974 0.677424
O O6 0.984901 0.494961 0.778717
O O7 0.884986 0.613121 0.840477
O O8 0.530850 0.378013 0.301645
O O9 0.421495 0.402273 0.948825
O O10 0.273602 0.334730 0.054548
O O11 0.372842 0.007459 0.177652
O O12 0.278430 0.143302 0.102557
O O13 0.190467 0.597667 0.493757
O O14 0.899816 0.742105 0.427824
O O15 0.005949 0.846728 0.675896
O O16 0.914315 0.903355 0.853683
#
# Coordination Sequence:
#
# PCOD8128694 Si02
#       8
#     4   4   4   4   4   4   4   4
#     4  11  22  40  65 103 129 167 228 275 331 386
#     4  12  24  41  75 100 132 182 226 293 329 408
#     4  11  23  39  67  95 134 172 218 279 331 403
#     4  11  23  40  65  98 133 172 221 275 335 402
#     4  11  23  39  67 101 130 169 224 283 323 390
#     4  12  25  46  65  98 141 181 223 283 355 410
#     4  12  27  42  68  99 142 179 222 284 354 410
#     4  12  23  44  69 103 132 175 238 279 340 405
#
# _framework density 21.569410000000001
#
# number of rings (size 3 to 8) (size 9 to 14) (size 15 to 20)
#    0.000    0.500    5.000    5.250    5.250    0.000 
#    0.000    2.500    0.000    0.000    0.000    0.000 
#    0.000    0.000    0.000    0.000    0.000    0.000 
#
# Total GULP energy -396672.936192 kJ/mol
# GULP energy per Si atom -12396.029256 kJ/mol
# Density = 2.152032 g / cm^3
# Si number density = 21.569410 Si / 1000 Ang^3
#
#
#
# Elastic Constant Matrix: (Units=GPa)
#
#
# Indices 1 2 3 4 5 6 
#
# 1 107.7681 34.2356 29.8593 0.0000 12.2804 0.0000
# 2 34.2356 70.5239 26.6198 0.0000 10.4528 0.0000
# 3 29.8593 26.6198 117.7984 0.0000 12.3633 0.0000
# 4 0.0000 0.0000 0.0000 25.2126 0.0000 -0.1740
# 5 12.2804 10.4528 12.3633 0.0000 49.0033 0.0000
# 6 0.0000 0.0000 0.0000 -0.1740 0.0000 22.2452
#
#
#
# Elastic Compliance Matrix: (Units=1/GPa)
#
#
# Indices 1 2 3 4 5 6 
#
# 1 0.011396 -0.004686 -0.001679 0.000000 -0.001433 0.000000
# 2 -0.004686 0.017730 -0.002614 0.000000 -0.001948 0.000000
# 3 -0.001679 -0.002614 0.009659 0.000000 -0.001458 0.000000
# 4 0.000000 0.000000 0.000000 0.039665 0.000000 0.000310
# 5 -0.001433 -0.001948 -0.001458 0.000000 0.021549 0.000000
# 6 0.000000 0.000000 0.000000 0.000310 0.000000 0.044956
#
#
# Mechanical properties :
#
#
# Convention : Reuss Voigt Hill
#
# Bulk Modulus (GPa) = 48.01843 53.05777 50.53810
# Shear Modulus (GPa) = 29.43662 32.98393 31.21027
#
# Velocity S-wave (km/s) = 3.69825 3.91474 3.80803
# Velocity P-wave (km/s) = 6.36762 6.71458 6.54340
#
# Compressibility (1/GPa) = 0.02082534
#
# Stress axis : x y z
#
# Youngs Moduli (GPa) = 87.74664 56.40164 103.53459
#
# Poissons Ratio (x) = 0.26430 0.17388
# Poissons Ratio (y) = 0.41119 0.27067
# Poissons Ratio (z) = 0.14736 0.14745
#
# Static dielectric constant tensor:
#      x y z
#    x 4.545430 0.000000 0.215740 
#    y 0.000000 3.479270 0.000000 
#    z 0.215740 0.000000 4.325640 
# 
# 
# High freq. dielectric constant tensor:
#      x y z
#    x 1.862450 0.000000 0.002360 
#    y 0.000000 1.799600 0.000000 
#    z 0.002360 0.000000 1.868120 
# 
# From -- ./inp_files/13897.got.cif
#   From: 2010.03.12/outbox.cif.g09.slc.cpg/sg14_7_cif.got.tgz:13897.got - 2010.03.31 13:35:05.
