data_PCOD8128341
_publ_section_title
;
Structure prediction by ZEFSAII (Michael W. Deem and Ramdas Pophale) SiO2 
 PCOD8128341
Probable space group: P 21/C
;
_chemical_formula_sum "Si O2"
_cell_formula_units_Z 20
_cell_length_a 5.395988
_cell_length_b 19.159267
_cell_length_c 7.394271
_cell_angle_alpha 90.000000
_cell_angle_beta 84.980585
_cell_angle_gamma 90.000000
_cell_volume 761.511654
_symmetry_space_group_name_H-M "P 21/C"
_symmetry_group_IT_number 14
_symmetry_cell_setting 'monoclinic'
loop_
_space_group_symop_operation_xyz
x,y,z
-x,1/2+y,1/2-z
-x,-y,-z
x,1/2-y,1/2+z
loop_
_atom_site_type_symbol
_atom_site_label
_atom_site_fract_x
_atom_site_fract_y
_atom_site_fract_z
Si Si1 0.362735 0.428021 0.119819
Si Si2 0.662076 0.686381 0.589878
Si Si3 0.508205 0.839750 0.705057
Si Si4 0.076987 0.610930 0.414611
Si Si5 0.829248 0.015393 0.777057
O O1 0.418959 0.358977 0.233741
O O2 0.099794 0.464117 0.177603
O O3 0.603578 0.478952 0.142973
O O4 0.352026 0.400505 0.914464
O O5 0.587799 0.765881 0.622069
O O6 0.534088 0.657588 0.419000
O O7 0.958118 0.676248 0.533712
O O8 0.213997 0.859023 0.725532
O O9 0.237067 0.564278 0.546154
O O10 0.850216 0.563249 0.351406
#
# Coordination Sequence:
#
# PCOD8128341 Si02
#       5
#     4   4   4   4   4
#     4  11  25  45  74 106 142 182 240 289 353 420
#     4  11  25  45  66 104 140 187 235 292 351 419
#     4  12  25  44  71 102 141 188 238 292 353 421
#     4  10  25  43  74 101 146 186 236 291 361 415
#     4  10  24  47  73 107 145 186 231 297 353 425
#
# _framework density 26.263549999999999
#
# number of rings (size 3 to 8) (size 9 to 14) (size 15 to 20)
#    0.000    1.200    4.000    0.000    5.600    7.200 
#    0.000    0.000    0.000    0.000    0.000    0.000 
#    0.000    0.000    0.000    0.000    0.000    0.000 
#
# Total GULP energy -247795.915061 kJ/mol
# GULP energy per Si atom -12389.795753 kJ/mol
# Density = 2.620377 g / cm^3
# Si number density = 26.263550 Si / 1000 Ang^3
#
#
#
# Elastic Constant Matrix: (Units=GPa)
#
#
# Indices 1 2 3 4 5 6 
#
# 1 109.8332 42.7332 31.8868 0.0000 -2.5432 0.0000
# 2 42.7332 141.5186 32.2529 0.0000 -28.5508 0.0000
# 3 31.8868 32.2529 102.6867 0.0000 -6.2358 0.0000
# 4 0.0000 0.0000 0.0000 24.5155 0.0000 -10.7178
# 5 -2.5432 -28.5508 -6.2358 0.0000 62.8515 0.0000
# 6 0.0000 0.0000 0.0000 -10.7178 0.0000 28.3165
#
#
#
# Elastic Compliance Matrix: (Units=1/GPa)
#
#
# Indices 1 2 3 4 5 6 
#
# 1 0.010971 -0.002966 -0.002545 0.000000 -0.001156 0.000000
# 2 -0.002966 0.009130 -0.001713 0.000000 0.003858 0.000000
# 3 -0.002545 -0.001713 0.011080 0.000000 0.000218 0.000000
# 4 0.000000 0.000000 0.000000 0.048879 0.000000 0.018501
# 5 -0.001156 0.003858 0.000218 0.000000 0.017638 0.000000
# 6 0.000000 0.000000 0.000000 0.018501 0.000000 0.042318
#
#
# Mechanical properties :
#
#
# Convention : Reuss Voigt Hill
#
# Bulk Modulus (GPa) = 59.76004 63.08717 61.42360
# Shear Modulus (GPa) = 31.24208 39.61442 35.42825
#
# Velocity S-wave (km/s) = 3.45274 3.88795 3.67679
# Velocity P-wave (km/s) = 6.22082 6.65040 6.43919
#
# Compressibility (1/GPa) = 0.01673359
#
# Stress axis : x y z
#
# Youngs Moduli (GPa) = 91.15054 109.52498 90.25347
#
# Poissons Ratio (x) = 0.32484 0.22973
# Poissons Ratio (y) = 0.27034 0.15456
# Poissons Ratio (z) = 0.23201 0.18756
#
# Static dielectric constant tensor:
#      x y z
#    x 4.873290 0.000000 -0.186100 
#    y 0.000000 4.629200 0.000000 
#    z -0.186100 0.000000 5.181410 
# 
# 
# High freq. dielectric constant tensor:
#      x y z
#    x 2.046520 0.000000 -0.003790 
#    y 0.000000 2.065730 0.000000 
#    z -0.003790 0.000000 2.074780 
# 
# From -- ./inp_files/5458.got.cif
#   From: 2010.03.12/outbox.cif.g09.slc.cpg/sg14_3_cif.got.tgz:5458.got - 2010.03.31 13:35:05.
