data_PCOD8128850
_publ_section_title
;
Structure prediction by ZEFSAII (Michael W. Deem and Ramdas Pophale) SiO2 
 PCOD8128850
Probable space group: P 21/C
;
_chemical_formula_sum "Si O2"
_cell_formula_units_Z 28
_cell_length_a 5.132624
_cell_length_b 17.623491
_cell_length_c 13.088124
_cell_angle_alpha 90.000000
_cell_angle_beta 65.199365
_cell_angle_gamma 90.000000
_cell_volume 1074.696841
_symmetry_space_group_name_H-M "P 21/C"
_symmetry_group_IT_number 14
_symmetry_cell_setting 'monoclinic'
loop_
_space_group_symop_operation_xyz
x,y,z
-x,1/2+y,1/2-z
-x,-y,-z
x,1/2-y,1/2+z
loop_
_atom_site_type_symbol
_atom_site_label
_atom_site_fract_x
_atom_site_fract_y
_atom_site_fract_z
Si Si1 0.940575 0.367398 0.932186
Si Si2 0.150011 0.103775 0.185147
Si Si3 0.125323 0.044340 0.795898
Si Si4 0.458249 0.223224 0.397430
Si Si5 0.673592 0.145375 0.987260
Si Si6 0.219370 0.588503 0.836143
Si Si7 0.810277 0.265452 0.656050
O O1 0.655266 0.332051 0.932144
O O2 0.133177 0.406236 0.811559
O O3 0.128905 0.303097 0.962358
O O4 0.843515 0.429431 0.033463
O O5 0.075281 0.190470 0.165922
O O6 0.933586 0.043959 0.165250
O O7 0.466656 0.088646 0.085893
O O8 0.943741 0.099698 0.898929
O O9 0.009335 0.048295 0.699027
O O10 0.459860 0.063523 0.748761
O O11 0.503073 0.311031 0.424104
O O12 0.526363 0.211149 0.266405
O O13 0.782722 0.211667 0.043350
O O14 0.161680 0.676980 0.831013
#
# Coordination Sequence:
#
# PCOD8128850 Si02
#       7
#     4   4   4   4   4   4   4
#     4  11  24  45  75 104 146 188 254 308 363 437
#     4  11  28  49  74 111 151 205 248 304 379 451
#     4  12  31  47  74 110 161 196 248 305 379 452
#     4  11  23  41  73 113 139 182 245 314 367 427
#     4  12  25  45  79 107 154 192 249 310 378 442
#     4  12  27  47  73 111 146 199 252 315 368 432
#     4  11  25  44  78 107 149 191 253 307 375 442
#
# _framework density 26.05386
#
# number of rings (size 3 to 8) (size 9 to 14) (size 15 to 20)
#    0.000    0.571    4.286    2.143    8.000    1.714 
#    0.000    0.000    0.000    0.000    0.000    0.000 
#    0.000    0.000    0.000    0.000    0.000    0.000 
#
# Total GULP energy -347073.392267 kJ/mol
# GULP energy per Si atom -12395.478295 kJ/mol
# Density = 2.599456 g / cm^3
# Si number density = 26.053860 Si / 1000 Ang^3
#
#
#
# Elastic Constant Matrix: (Units=GPa)
#
#
# Indices 1 2 3 4 5 6 
#
# 1 71.6126 -7.6018 1.8763 0.0000 3.5234 0.0000
# 2 -7.6018 46.6761 -17.2916 0.0000 1.8281 0.0000
# 3 1.8763 -17.2916 130.2516 0.0000 1.1505 0.0000
# 4 0.0000 0.0000 0.0000 15.3677 0.0000 -4.8279
# 5 3.5234 1.8281 1.1505 0.0000 38.5139 0.0000
# 6 0.0000 0.0000 0.0000 -4.8279 0.0000 30.6102
#
#
#
# Elastic Compliance Matrix: (Units=1/GPa)
#
#
# Indices 1 2 3 4 5 6 
#
# 1 0.014289 0.002431 0.000129 0.000000 -0.001426 0.000000
# 2 0.002431 0.022998 0.003030 0.000000 -0.001405 0.000000
# 3 0.000129 0.003030 0.008081 0.000000 -0.000397 0.000000
# 4 0.000000 0.000000 0.000000 0.068464 0.000000 0.010798
# 5 -0.001426 -0.001405 -0.000397 0.000000 0.026174 0.000000
# 6 0.000000 0.000000 0.000000 0.010798 0.000000 0.034372
#
#
# Mechanical properties :
#
#
# Convention : Reuss Voigt Hill
#
# Bulk Modulus (GPa) = 17.68348 22.50067 20.09208
# Shear Modulus (GPa) = 27.46562 35.00218 31.23390
#
# Velocity S-wave (km/s) = 3.25035 3.66929 3.46615
# Velocity P-wave (km/s) = 4.57038 5.15816 4.87314
#
# Compressibility (1/GPa) = 0.05654995
#
# Stress axis : x y z
#
# Youngs Moduli (GPa) = 69.98453 43.48237 123.74086
#
# Poissons Ratio (x) = -0.10570 -0.01602
# Poissons Ratio (y) = -0.17013 -0.37499
# Poissons Ratio (z) = -0.00906 -0.13177
#
# Static dielectric constant tensor:
#      x y z
#    x 4.314610 0.000000 0.033970 
#    y 0.000000 4.581310 0.000000 
#    z 0.033970 0.000000 5.425630 
# 
# 
# High freq. dielectric constant tensor:
#      x y z
#    x 2.029460 0.000000 -0.004580 
#    y 0.000000 2.034940 0.000000 
#    z -0.004580 0.000000 2.074110 
# 
# From -- ./inp_files/37799.got.cif
#   From: 2010.03.12/outbox.cif.g09.slc.cpg/sg14_19_cif.got.tgz:37799.got - 2010.03.31 13:35:05.
