data_PCOD8128859
_publ_section_title
;
Structure prediction by ZEFSAII (Michael W. Deem and Ramdas Pophale) SiO2 
 PCOD8128859
Probable space group: P 21/C
;
_chemical_formula_sum "Si O2"
_cell_formula_units_Z 20
_cell_length_a 4.915792
_cell_length_b 12.154440
_cell_length_c 16.875618
_cell_angle_alpha 90.000000
_cell_angle_beta 115.347745
_cell_angle_gamma 90.000000
_cell_volume 911.223625
_symmetry_space_group_name_H-M "P 21/C"
_symmetry_group_IT_number 14
_symmetry_cell_setting 'monoclinic'
loop_
_space_group_symop_operation_xyz
x,y,z
-x,1/2+y,1/2-z
-x,-y,-z
x,1/2-y,1/2+z
loop_
_atom_site_type_symbol
_atom_site_label
_atom_site_fract_x
_atom_site_fract_y
_atom_site_fract_z
Si Si1 0.703803 0.931418 0.967757
Si Si2 0.417449 0.146056 0.217514
Si Si3 0.939696 0.646605 0.881142
Si Si4 0.624696 0.688287 0.994892
Si Si5 0.937919 0.582803 0.178152
O O1 0.569298 0.920870 0.862948
O O2 0.762993 0.810595 0.011138
O O3 0.500000 0.000000 0.000000
O O4 0.000000 0.000000 0.000000
O O5 0.765605 0.159946 0.286777
O O6 0.266704 0.265240 0.190028
O O7 0.224733 0.078322 0.257413
O O8 0.959682 0.540176 0.829206
O O9 0.267369 0.697646 0.938337
O O10 0.777961 0.616602 0.944039
O O11 0.695198 0.628540 0.085740
#
# Coordination Sequence:
#
# PCOD8128859 Si02
#       5
#     4   4   4   4   4
#     4  11  23  42  64  88 127 171 206 249 309 378
#     4  11  25  41  61  98 128 158 210 268 313 365
#     4  11  23  44  64  89 132 167 205 266 317 373
#     4  11  23  42  66  94 123 170 220 253 310 390
#     4  12  24  41  67  95 125 166 212 264 320 370
#
# _framework density 21.948506999999999
#
# number of rings (size 3 to 8) (size 9 to 14) (size 15 to 20)
#    0.000    0.800    0.000    9.600    0.000    4.800 
#    0.000    0.000    0.000    0.000    0.000    0.000 
#    0.000    0.000    0.000    0.000    0.000    0.000 
#
# Total GULP energy -248093.563240 kJ/mol
# GULP energy per Si atom -12404.678162 kJ/mol
# Density = 2.189855 g / cm^3
# Si number density = 21.948507 Si / 1000 Ang^3
#
#
#
# Elastic Constant Matrix: (Units=GPa)
#
#
# Indices 1 2 3 4 5 6 
#
# 1 145.9853 32.0285 48.8086 0.0000 -10.6854 0.0000
# 2 32.0285 96.0623 59.7429 0.0000 -13.5027 0.0000
# 3 48.8086 59.7429 106.1870 0.0000 -16.5415 0.0000
# 4 0.0000 0.0000 0.0000 23.1093 0.0000 -2.7986
# 5 -10.6854 -13.5027 -16.5415 0.0000 58.0027 0.0000
# 6 0.0000 0.0000 0.0000 -2.7986 0.0000 36.8095
#
#
#
# Elastic Compliance Matrix: (Units=1/GPa)
#
#
# Indices 1 2 3 4 5 6 
#
# 1 0.008125 -0.000567 -0.003352 0.000000 0.000409 0.000000
# 2 -0.000567 0.016134 -0.008632 0.000000 0.001190 0.000000
# 3 -0.003352 -0.008632 0.016121 0.000000 0.001971 0.000000
# 4 0.000000 0.000000 0.000000 0.043675 0.000000 0.003321
# 5 0.000409 0.001190 0.001971 0.000000 0.018155 0.000000
# 6 0.000000 0.000000 0.000000 0.003321 0.000000 0.027419
#
#
# Mechanical properties :
#
#
# Convention : Reuss Voigt Hill
#
# Bulk Modulus (GPa) = 65.44576 69.93274 67.68925
# Shear Modulus (GPa) = 31.28447 37.42794 34.35620
#
# Velocity S-wave (km/s) = 3.77949 4.13396 3.96069
# Velocity P-wave (km/s) = 6.99490 7.39713 7.19882
#
# Compressibility (1/GPa) = 0.01527983
#
# Stress axis : x y z
#
# Youngs Moduli (GPa) = 123.07673 61.97986 62.02954
#
# Poissons Ratio (x) = 0.03513 0.20793
# Poissons Ratio (y) = 0.06976 0.53541
# Poissons Ratio (z) = 0.41256 0.53498
#
# Static dielectric constant tensor:
#      x y z
#    x 3.820300 0.000000 0.689930 
#    y 0.000000 3.836830 0.000000 
#    z 0.689930 0.000000 2.557620 
# 
# 
# High freq. dielectric constant tensor:
#      x y z
#    x 1.891160 0.000000 -0.005450 
#    y 0.000000 1.859970 0.000000 
#    z -0.005450 0.000000 1.864810 
# 
# From -- ./inp_files/52904.got.cif
#   From: 2010.03.12/outbox.cif.g09.slc.cpg/sg14_27_cif.got.tgz:52904.got - 2010.03.31 13:35:05.
