data_PCOD8128889
_publ_section_title
;
Structure prediction by ZEFSAII (Michael W. Deem and Ramdas Pophale) SiO2 
 PCOD8128889
Probable space group: P 21/C
;
_chemical_formula_sum "Si O2"
_cell_formula_units_Z 32
_cell_length_a 6.377885
_cell_length_b 21.053044
_cell_length_c 14.209541
_cell_angle_alpha 90.000000
_cell_angle_beta 44.908287
_cell_angle_gamma 90.000000
_cell_volume 1346.977519
_symmetry_space_group_name_H-M "P 21/C"
_symmetry_group_IT_number 14
_symmetry_cell_setting 'monoclinic'
loop_
_space_group_symop_operation_xyz
x,y,z
-x,1/2+y,1/2-z
-x,-y,-z
x,1/2-y,1/2+z
loop_
_atom_site_type_symbol
_atom_site_label
_atom_site_fract_x
_atom_site_fract_y
_atom_site_fract_z
Si Si1 0.358294 0.122148 0.179728
Si Si2 0.672440 0.248623 0.627989
Si Si3 0.322339 0.127779 0.991040
Si Si4 0.546387 0.644121 0.942004
Si Si5 0.933481 0.434265 0.262982
Si Si6 0.377715 0.238579 0.419880
Si Si7 0.946111 0.064249 0.967641
Si Si8 0.948777 0.042336 0.421298
O O1 0.533271 0.188235 0.127576
O O2 0.178817 0.102232 0.331700
O O3 0.166164 0.118122 0.143393
O O4 0.595299 0.068854 0.079355
O O5 0.519316 0.188707 0.626046
O O6 0.584742 0.254185 0.764012
O O7 0.026793 0.237680 0.505039
O O8 0.448800 0.198764 0.956927
O O9 0.584183 0.079030 0.880024
O O10 0.081474 0.122560 0.984771
O O11 0.893208 0.625241 0.837685
O O12 0.496382 0.679771 0.057646
O O13 0.369187 0.577022 0.984458
O O14 0.998771 0.497795 0.184478
O O15 0.076087 0.440001 0.321590
O O16 0.000000 0.000000 0.000000
O O17 0.000000 0.000000 0.500000
#
# Coordination Sequence:
#
# PCOD8128889 Si02
#       8
#     4   4   4   4   4   4   4   4
#     4  11  25  46  73 110 147 186 260 307 378 454
#     4  12  27  47  78 115 151 200 256 315 392 458
#     4  11  23  46  76 109 143 191 251 326 376 446
#     4  12  29  49  75 110 155 201 253 317 382 460
#     4  11  27  47  72 108 148 196 254 308 377 461
#     4  12  27  45  78 111 152 199 253 319 390 458
#     4  11  23  42  77 102 142 190 249 315 376 436
#     4  12  30  50  76 108 160 209 254 309 385 469
#
# _framework density 23.756893000000002
#
# number of rings (size 3 to 8) (size 9 to 14) (size 15 to 20)
#    0.000    0.500    2.500    4.125   12.250    5.000 
#    0.000    0.000    0.000    0.000    0.000    0.000 
#    0.000    0.000    0.000    0.000    0.000    0.000 
#
# Total GULP energy -396437.483441 kJ/mol
# GULP energy per Si atom -12388.671358 kJ/mol
# Density = 2.370282 g / cm^3
# Si number density = 23.756893 Si / 1000 Ang^3
#
#
#
# Elastic Constant Matrix: (Units=GPa)
#
#
# Indices 1 2 3 4 5 6 
#
# 1 93.6823 21.1155 23.2907 0.0000 22.9607 0.0000
# 2 21.1155 69.9025 6.2532 0.0000 1.3402 0.0000
# 3 23.2907 6.2532 91.8625 0.0000 11.0572 0.0000
# 4 0.0000 0.0000 0.0000 46.5664 0.0000 2.6347
# 5 22.9607 1.3402 11.0572 0.0000 33.9059 0.0000
# 6 0.0000 0.0000 0.0000 2.6347 0.0000 36.0284
#
#
#
# Elastic Compliance Matrix: (Units=1/GPa)
#
#
# Indices 1 2 3 4 5 6 
#
# 1 0.014283 -0.003941 -0.002298 0.000000 -0.008767 0.000000
# 2 -0.003941 0.015483 -0.000315 0.000000 0.002159 0.000000
# 3 -0.002298 -0.000315 0.011763 0.000000 -0.002268 0.000000
# 4 0.000000 0.000000 0.000000 0.021564 0.000000 -0.001577
# 5 -0.008767 0.002159 -0.002268 0.000000 0.036084 0.000000
# 6 0.000000 0.000000 0.000000 -0.001577 0.000000 0.027871
#
#
# Mechanical properties :
#
#
# Convention : Reuss Voigt Hill
#
# Bulk Modulus (GPa) = 35.18424 39.64070 37.41247
# Shear Modulus (GPa) = 33.41627 36.95266 35.18446
#
# Velocity S-wave (km/s) = 3.75453 3.94820 3.85258
# Velocity P-wave (km/s) = 5.79979 6.12426 5.96423
#
# Compressibility (1/GPa) = 0.02842182
#
# Stress axis : x y z
#
# Youngs Moduli (GPa) = 70.01568 64.58793 85.01415
#
# Poissons Ratio (x) = 0.25452 0.19534
# Poissons Ratio (y) = 0.27591 0.02676
# Poissons Ratio (z) = 0.16087 0.02033
#
# Static dielectric constant tensor:
#      x y z
#    x 3.463910 0.000000 0.024590 
#    y 0.000000 4.308050 0.000000 
#    z 0.024590 0.000000 4.356600 
# 
# 
# High freq. dielectric constant tensor:
#      x y z
#    x 1.942720 0.000000 0.009560 
#    y 0.000000 1.959930 0.000000 
#    z 0.009560 0.000000 1.944690 
# 
# From -- ./inp_files/38193.got.cif
#   From: 2010.03.12/outbox.cif.g09.slc.cpg/sg14_20_cif.got.tgz:38193.got - 2010.03.31 13:35:05.
