data_PCOD8128393
_publ_section_title
;
Structure prediction by ZEFSAII (Michael W. Deem and Ramdas Pophale) SiO2 
 PCOD8128393
Probable space group: P 21/C
;
_chemical_formula_sum "Si O2"
_cell_formula_units_Z 16
_cell_length_a 5.038030
_cell_length_b 10.306900
_cell_length_c 13.790916
_cell_angle_alpha 90.000000
_cell_angle_beta 68.861300
_cell_angle_gamma 90.000000
_cell_volume 667.926439
_symmetry_space_group_name_H-M "P 21/C"
_symmetry_group_IT_number 14
_symmetry_cell_setting 'monoclinic'
loop_
_space_group_symop_operation_xyz
x,y,z
-x,1/2+y,1/2-z
-x,-y,-z
x,1/2-y,1/2+z
loop_
_atom_site_type_symbol
_atom_site_label
_atom_site_fract_x
_atom_site_fract_y
_atom_site_fract_z
Si Si1 0.227345 0.087034 0.522327
Si Si2 0.023894 0.231840 0.205344
Si Si3 0.596847 0.404895 0.623095
Si Si4 0.560888 0.180726 0.910853
O O1 0.310961 0.212818 0.448068
O O2 0.098384 0.132964 0.642101
O O3 0.500000 0.000000 0.500000
O O4 0.000000 0.000000 0.500000
O O5 0.864735 0.134078 0.152850
O O6 0.837584 0.260143 0.323674
O O7 0.313589 0.163249 0.202308
O O8 0.563586 0.559906 0.633037
O O9 0.657320 0.359982 0.505610
#
# Coordination Sequence:
#
# PCOD8128393 Si02
#       4
#     4   4   4   4
#     4  11  25  43  65 102 136 171 223 280 332 399
#     4  11  25  42  72 100 134 183 226 275 349 397
#     4  10  25  46  66 105 130 183 233 276 340 404
#     4  10  25  45  73  95 144 178 225 289 330 414
#
# _framework density 23.954733999999998
#
# number of rings (size 3 to 8) (size 9 to 14) (size 15 to 20)
#    0.000    1.500    0.000    3.000    7.000   17.000 
#    0.000    0.000    0.000    0.000    0.000    0.000 
#    0.000    0.000    0.000    0.000    0.000    0.000 
#
# Total GULP energy -198510.112651 kJ/mol
# GULP energy per Si atom -12406.882041 kJ/mol
# Density = 2.390021 g / cm^3
# Si number density = 23.954734 Si / 1000 Ang^3
#
#
#
# Elastic Constant Matrix: (Units=GPa)
#
#
# Indices 1 2 3 4 5 6 
#
# 1 79.1379 17.5888 -10.3482 0.0000 -19.0271 0.0000
# 2 17.5888 129.5384 20.3935 0.0000 -10.1428 0.0000
# 3 -10.3482 20.3935 126.7687 0.0000 -21.1984 0.0000
# 4 0.0000 0.0000 0.0000 25.7358 0.0000 -12.3191
# 5 -19.0271 -10.1428 -21.1984 0.0000 23.5026 0.0000
# 6 0.0000 0.0000 0.0000 -12.3191 0.0000 40.6418
#
#
#
# Elastic Compliance Matrix: (Units=1/GPa)
#
#
# Indices 1 2 3 4 5 6 
#
# 1 0.018020 -0.001781 0.004791 0.000000 0.018142 0.000000
# 2 -0.001781 0.008241 -0.001316 0.000000 0.000928 0.000000
# 3 0.004791 -0.001316 0.010651 0.000000 0.012918 0.000000
# 4 0.000000 0.000000 0.000000 0.045451 0.000000 0.013777
# 5 0.018142 0.000928 0.012918 0.000000 0.069288 0.000000
# 6 0.000000 0.000000 0.000000 0.013777 0.000000 0.028781
#
#
# Mechanical properties :
#
#
# Convention : Reuss Voigt Hill
#
# Bulk Modulus (GPa) = 24.81254 43.41257 34.11256
# Shear Modulus (GPa) = 26.24977 38.49674 32.37326
#
# Velocity S-wave (km/s) = 3.31389 4.01317 3.68017
# Velocity P-wave (km/s) = 5.00231 6.29572 5.68591
#
# Compressibility (1/GPa) = 0.04030220
#
# Stress axis : x y z
#
# Youngs Moduli (GPa) = 55.49312 121.33954 93.88478
#
# Poissons Ratio (x) = 0.21606 -0.44982
# Poissons Ratio (y) = 0.09881 0.12355
# Poissons Ratio (z) = -0.26588 0.15967
#
# Static dielectric constant tensor:
#      x y z
#    x 3.955830 0.000000 -0.238670 
#    y 0.000000 4.763510 0.000000 
#    z -0.238670 0.000000 4.454820 
# 
# 
# High freq. dielectric constant tensor:
#      x y z
#    x 1.942540 0.000000 -0.018910 
#    y 0.000000 1.966880 0.000000 
#    z -0.018910 0.000000 1.959790 
# 
# From -- ./inp_files/46330.got.cif
#   From: 2010.03.12/outbox.cif.g09.slc.cpg/sg14_24_cif.got.tgz:46330.got - 2010.03.31 13:35:05.
