data_PCOD8128658
_publ_section_title
;
Structure prediction by ZEFSAII (Michael W. Deem and Ramdas Pophale) SiO2 
 PCOD8128658
Probable space group: P 21/C
;
_chemical_formula_sum "Si O2"
_cell_formula_units_Z 32
_cell_length_a 16.147124
_cell_length_b 11.449646
_cell_length_c 11.291504
_cell_angle_alpha 90.000000
_cell_angle_beta 47.309799
_cell_angle_gamma 90.000000
_cell_volume 1534.420642
_symmetry_space_group_name_H-M "P 21/C"
_symmetry_group_IT_number 14
_symmetry_cell_setting 'monoclinic'
loop_
_space_group_symop_operation_xyz
x,y,z
-x,1/2+y,1/2-z
-x,-y,-z
x,1/2-y,1/2+z
loop_
_atom_site_type_symbol
_atom_site_label
_atom_site_fract_x
_atom_site_fract_y
_atom_site_fract_z
Si Si1 0.005941 0.811596 0.486879
Si Si2 0.384576 0.405270 0.723699
Si Si3 0.226392 0.459330 0.087474
Si Si4 0.226551 0.673731 0.255733
Si Si5 0.770417 0.704006 0.696275
Si Si6 0.771109 0.009495 0.035401
Si Si7 0.362507 0.599031 0.554536
Si Si8 0.006687 0.009052 0.307884
O O1 0.888530 0.764434 0.549962
O O2 0.095343 0.707442 0.390507
O O3 0.996502 0.861126 0.630711
O O4 0.050454 0.917823 0.363475
O O5 0.326077 0.301243 0.707562
O O6 0.372154 0.523888 0.663241
O O7 0.514818 0.372193 0.617045
O O8 0.331218 0.426946 0.903571
O O9 0.247867 0.580953 0.131902
O O10 0.214025 0.353823 0.191070
O O11 0.114945 0.470442 0.118047
O O12 0.258027 0.618994 0.352270
O O13 0.304068 0.782447 0.151163
O O14 0.732499 0.610189 0.634746
O O15 0.707513 0.026374 0.973942
O O16 0.905302 0.995958 0.885195
#
# Coordination Sequence:
#
# PCOD8128658 Si02
#       8
#     4   4   4   4   4   4   4   4
#     4  11  22  37  66 101 135 170 214 261 327 399
#     4  11  26  45  69  96 127 175 228 275 329 389
#     4  11  25  43  67 100 134 172 219 271 331 395
#     4  11  25  43  67 100 134 172 219 271 331 395
#     4  11  25  43  67 100 134 172 219 271 331 395
#     4  11  25  43  67 100 134 172 219 271 331 395
#     4  11  26  45  69  96 127 175 228 275 329 389
#     4  11  22  37  66 101 135 170 214 261 327 399
#
# _framework density 20.854776999999999
#
# number of rings (size 3 to 8) (size 9 to 14) (size 15 to 20)
#    0.000    1.000    2.500    3.000    7.000    6.000 
#    0.000    2.500    0.000    0.000    0.000    0.000 
#    0.000    0.000    0.000    0.000    0.000    0.000 
#
# Total GULP energy -396983.445591 kJ/mol
# GULP energy per Si atom -12405.732675 kJ/mol
# Density = 2.080731 g / cm^3
# Si number density = 20.854777 Si / 1000 Ang^3
#
#
#
# Elastic Constant Matrix: (Units=GPa)
#
#
# Indices 1 2 3 4 5 6 
#
# 1 57.8179 21.7401 33.5859 0.0000 -7.0397 0.0000
# 2 21.7401 98.5429 32.0264 0.0000 -5.3258 0.0000
# 3 33.5859 32.0264 97.6944 0.0000 -10.2961 0.0000
# 4 0.0000 0.0000 0.0000 25.5305 0.0000 9.4905
# 5 -7.0397 -5.3258 -10.2961 0.0000 39.1895 0.0000
# 6 0.0000 0.0000 0.0000 9.4905 0.0000 18.5416
#
#
#
# Elastic Compliance Matrix: (Units=1/GPa)
#
#
# Indices 1 2 3 4 5 6 
#
# 1 0.022379 -0.002685 -0.006611 0.000000 0.001918 0.000000
# 2 -0.002685 0.011693 -0.002873 0.000000 0.000352 0.000000
# 3 -0.006611 -0.002873 0.013663 0.000000 0.002012 0.000000
# 4 0.000000 0.000000 0.000000 0.048373 0.000000 -0.024759
# 5 0.001918 0.000352 0.002012 0.000000 0.026438 0.000000
# 6 0.000000 0.000000 0.000000 -0.024759 0.000000 0.066606
#
#
# Mechanical properties :
#
#
# Convention : Reuss Voigt Hill
#
# Bulk Modulus (GPa) = 42.74173 47.64000 45.19087
# Shear Modulus (GPa) = 22.59490 27.76583 25.18036
#
# Velocity S-wave (km/s) = 3.29514 3.65278 3.47856
# Velocity P-wave (km/s) = 5.91749 6.37838 6.15225
#
# Compressibility (1/GPa) = 0.02339634
#
# Stress axis : x y z
#
# Youngs Moduli (GPa) = 44.68426 85.52150 73.19172
#
# Poissons Ratio (x) = 0.22961 0.48390
# Poissons Ratio (y) = 0.11997 0.21029
# Poissons Ratio (z) = 0.29542 0.24571
#
# Static dielectric constant tensor:
#      x y z
#    x 3.682400 0.000000 0.074640 
#    y 0.000000 3.876340 0.000000 
#    z 0.074640 0.000000 3.907550 
# 
# 
# High freq. dielectric constant tensor:
#      x y z
#    x 1.810900 0.000000 0.006140 
#    y 0.000000 1.830350 0.000000 
#    z 0.006140 0.000000 1.823460 
# 
# From -- ./inp_files/32371.got.cif
#   From: 2010.03.12/outbox.cif.g09.slc.cpg/sg14_17_cif.got.tgz:32371.got - 2010.03.31 13:35:05.
