data_PCOD8128156
_publ_section_title
;
Structure prediction by ZEFSAII (Michael W. Deem and Ramdas Pophale) SiO2 
 PCOD8128156
Probable space group: P 21/C
;
_chemical_formula_sum "Si O2"
_cell_formula_units_Z 20
_cell_length_a 11.134720
_cell_length_b 12.275640
_cell_length_c 9.920373
_cell_angle_alpha 90.000000
_cell_angle_beta 36.244663
_cell_angle_gamma 90.000000
_cell_volume 801.698801
_symmetry_space_group_name_H-M "P 21/C"
_symmetry_group_IT_number 14
_symmetry_cell_setting 'monoclinic'
loop_
_space_group_symop_operation_xyz
x,y,z
-x,1/2+y,1/2-z
-x,-y,-z
x,1/2-y,1/2+z
loop_
_atom_site_type_symbol
_atom_site_label
_atom_site_fract_x
_atom_site_fract_y
_atom_site_fract_z
Si Si1 0.735450 0.238250 0.595274
Si Si2 0.276697 0.315338 0.544524
Si Si3 0.229260 0.509022 0.892346
Si Si4 0.652680 0.440489 0.505966
Si Si5 0.949633 0.793061 0.484608
O O1 0.494819 0.234895 0.820248
O O2 0.824187 0.116921 0.468985
O O3 0.783361 0.337680 0.447641
O O4 0.846650 0.262161 0.638218
O O5 0.258866 0.443369 0.527916
O O6 0.228336 0.284066 0.742637
O O7 0.106029 0.261971 0.604685
O O8 0.417706 0.434390 0.774186
O O9 0.334425 0.569256 0.667155
O O10 0.033109 0.428038 0.051587
#
# Coordination Sequence:
#
# PCOD8128156 Si02
#       5
#     4   4   4   4   4
#     4  11  22  37  68  88 121 170 210 254 314 375
#     4  10  24  42  61  93 131 160 210 267 307 374
#     4   9  19  39  62  88 127 164 212 253 310 382
#     4   9  19  39  62  88 127 165 199 267 320 356
#     4  11  23  41  65  94 124 169 213 257 315 377
#
# _framework density 24.947025
#
# number of rings (size 3 to 8) (size 9 to 14) (size 15 to 20)
#    0.000    2.000    2.000    1.800    2.800    0.800 
#    0.000    3.000    0.000    0.000    0.000    0.000 
#    0.000    0.000    0.000    0.000    0.000    0.000 
#
# Total GULP energy -247793.809853 kJ/mol
# GULP energy per Si atom -12389.690493 kJ/mol
# Density = 2.489024 g / cm^3
# Si number density = 24.947025 Si / 1000 Ang^3
#
#
#
# Elastic Constant Matrix: (Units=GPa)
#
#
# Indices 1 2 3 4 5 6 
#
# 1 73.9294 35.5962 3.5036 0.0000 -9.4650 0.0000
# 2 35.5962 126.7901 36.2057 0.0000 6.6927 0.0000
# 3 3.5036 36.2057 32.8741 0.0000 -7.0117 0.0000
# 4 0.0000 0.0000 0.0000 38.4398 0.0000 -3.8948
# 5 -9.4650 6.6927 -7.0117 0.0000 30.7207 0.0000
# 6 0.0000 0.0000 0.0000 -3.8948 0.0000 62.4791
#
#
#
# Elastic Compliance Matrix: (Units=1/GPa)
#
#
# Indices 1 2 3 4 5 6 
#
# 1 0.018288 -0.008258 0.009178 0.000000 0.009528 0.000000
# 2 -0.008258 0.016260 -0.019263 0.000000 -0.010483 0.000000
# 3 0.009178 -0.019263 0.054823 0.000000 0.019537 0.000000
# 4 0.000000 0.000000 0.000000 0.026180 0.000000 0.001632
# 5 0.009528 -0.010483 0.019537 0.000000 0.042230 0.000000
# 6 0.000000 0.000000 0.000000 0.001632 0.000000 0.016107
#
#
# Mechanical properties :
#
#
# Convention : Reuss Voigt Hill
#
# Bulk Modulus (GPa) = 18.98096 42.68939 30.83518
# Shear Modulus (GPa) = 21.91684 36.88049 29.39867
#
# Velocity S-wave (km/s) = 2.96723 3.84911 3.43657
# Velocity P-wave (km/s) = 4.40048 6.07481 5.30413
#
# Compressibility (1/GPa) = 0.05268437
#
# Stress axis : x y z
#
# Youngs Moduli (GPa) = 54.68211 61.50221 18.24041
#
# Poissons Ratio (x) = 0.50789 -0.16741
# Poissons Ratio (y) = 0.45157 0.35137
# Poissons Ratio (z) = -0.50189 1.18473
#
# Static dielectric constant tensor:
#      x y z
#    x 4.469550 0.000000 -0.450650 
#    y 0.000000 4.791240 0.000000 
#    z -0.450650 0.000000 4.762870 
# 
# 
# High freq. dielectric constant tensor:
#      x y z
#    x 1.974090 0.000000 -0.047740 
#    y 0.000000 2.004370 0.000000 
#    z -0.047740 0.000000 2.015000 
# 
# From -- ./inp_files/23723.got.cif
#   From: 2010.03.12/outbox.cif.g09.slc.cpg/sg14_12_cif.got.tgz:23723.got - 2010.03.31 13:35:05.
