data_PCOD8128856
_publ_section_title
;
Structure prediction by ZEFSAII (Michael W. Deem and Ramdas Pophale) SiO2 
 PCOD8128856
Probable space group: P 21/C
;
_chemical_formula_sum "Si O2"
_cell_formula_units_Z 28
_cell_length_a 8.272839
_cell_length_b 17.081645
_cell_length_c 16.739557
_cell_angle_alpha 90.000000
_cell_angle_beta 34.432269
_cell_angle_gamma 90.000000
_cell_volume 1337.544731
_symmetry_space_group_name_H-M "P 21/C"
_symmetry_group_IT_number 14
_symmetry_cell_setting 'monoclinic'
loop_
_space_group_symop_operation_xyz
x,y,z
-x,1/2+y,1/2-z
-x,-y,-z
x,1/2-y,1/2+z
loop_
_atom_site_type_symbol
_atom_site_label
_atom_site_fract_x
_atom_site_fract_y
_atom_site_fract_z
Si Si1 0.816464 0.143769 0.628321
Si Si2 0.747376 0.292152 0.413324
Si Si3 0.388062 0.279245 0.194784
Si Si4 0.714142 0.588559 0.419428
Si Si5 0.812883 0.291888 0.728770
Si Si6 0.636608 0.626559 0.192138
Si Si7 0.609483 0.009619 0.820812
O O1 0.517144 0.155960 0.702819
O O2 0.914873 0.229041 0.620890
O O3 0.774691 0.084328 0.718405
O O4 0.058554 0.108985 0.472280
O O5 0.625273 0.233321 0.529913
O O6 0.595309 0.376332 0.479468
O O7 0.668543 0.253617 0.360591
O O8 0.085402 0.308861 0.284648
O O9 0.327443 0.197242 0.261753
O O10 0.677799 0.539215 0.516244
O O11 0.809389 0.533456 0.306232
O O12 0.920039 0.661431 0.345772
O O13 0.593511 0.354373 0.782080
O O14 0.529571 0.549263 0.281911
#
# Coordination Sequence:
#
# PCOD8128856 Si02
#       7
#     4   4   4   4   4   4   4
#     4  11  24  42  65 100 130 175 221 279 324 391
#     4  12  20  43  67 100 127 172 219 282 317 388
#     4  11  24  39  72  95 131 173 231 268 329 387
#     4  11  24  43  67  98 131 176 220 270 332 399
#     4  11  24  40  70  97 127 172 228 275 320 390
#     4  11  23  42  63  95 133 175 215 273 333 395
#     4  11  24  45  65  90 141 176 212 273 340 389
#
# _framework density 20.933879999999998
#
# number of rings (size 3 to 8) (size 9 to 14) (size 15 to 20)
#    0.000    0.857    5.714    1.286    2.000    0.571 
#    5.143    0.714    0.000    0.000    0.000    0.000 
#    0.000    0.000    0.000    0.000    0.000    0.000 
#
# Total GULP energy -347254.479961 kJ/mol
# GULP energy per Si atom -12401.945713 kJ/mol
# Density = 2.088623 g / cm^3
# Si number density = 20.933880 Si / 1000 Ang^3
#
#
#
# Elastic Constant Matrix: (Units=GPa)
#
#
# Indices 1 2 3 4 5 6 
#
# 1 93.5896 42.1692 40.8891 0.0000 2.9710 0.0000
# 2 42.1692 101.1099 32.8377 0.0000 2.4420 0.0000
# 3 40.8891 32.8377 96.6662 0.0000 10.7000 0.0000
# 4 0.0000 0.0000 0.0000 25.9671 0.0000 14.5351
# 5 2.9710 2.4420 10.7000 0.0000 36.6701 0.0000
# 6 0.0000 0.0000 0.0000 14.5351 0.0000 38.9806
#
#
#
# Elastic Compliance Matrix: (Units=1/GPa)
#
#
# Indices 1 2 3 4 5 6 
#
# 1 0.014845 -0.004660 -0.004751 0.000000 0.000494 0.000000
# 2 -0.004660 0.012585 -0.002328 0.000000 0.000219 0.000000
# 3 -0.004751 -0.002328 0.013522 0.000000 -0.003406 0.000000
# 4 0.000000 0.000000 0.000000 0.048668 0.000000 -0.018148
# 5 0.000494 0.000219 -0.003406 0.000000 0.028209 0.000000
# 6 0.000000 0.000000 0.000000 -0.018148 0.000000 0.032421
#
#
# Mechanical properties :
#
#
# Convention : Reuss Voigt Hill
#
# Bulk Modulus (GPa) = 57.22930 58.12863 57.67896
# Shear Modulus (GPa) = 27.84706 32.02155 29.93430
#
# Velocity S-wave (km/s) = 3.65120 3.91532 3.78556
# Velocity P-wave (km/s) = 6.72105 6.94749 6.83521
#
# Compressibility (1/GPa) = 0.01747357
#
# Stress axis : x y z
#
# Youngs Moduli (GPa) = 67.36445 79.46229 73.95228
#
# Poissons Ratio (x) = 0.37031 0.35133
# Poissons Ratio (y) = 0.31393 0.17216
# Poissons Ratio (z) = 0.32003 0.18499
#
# Static dielectric constant tensor:
#      x y z
#    x 3.831000 0.000000 0.281900 
#    y 0.000000 3.795250 0.000000 
#    z 0.281900 0.000000 3.732650 
# 
# 
# High freq. dielectric constant tensor:
#      x y z
#    x 1.819740 0.000000 0.024240 
#    y 0.000000 1.819490 0.000000 
#    z 0.024240 0.000000 1.815500 
# 
# From -- ./inp_files/56138.got.cif
#   From: 2010.03.12/outbox.cif.g09.slc.cpg/sg14_29_cif.got.tgz:56138.got - 2010.03.31 13:35:05.
