data_PCOD8128037
_publ_section_title
;
Structure prediction by ZEFSAII (Michael W. Deem and Ramdas Pophale) SiO2 
 PCOD8128037
Probable space group: P 21/C
;
_chemical_formula_sum "Si O2"
_cell_formula_units_Z 20
_cell_length_a 11.003051
_cell_length_b 11.099080
_cell_length_c 10.523532
_cell_angle_alpha 90.000000
_cell_angle_beta 40.428105
_cell_angle_gamma 90.000000
_cell_volume 833.426256
_symmetry_space_group_name_H-M "P 21/C"
_symmetry_group_IT_number 14
_symmetry_cell_setting 'monoclinic'
loop_
_space_group_symop_operation_xyz
x,y,z
-x,1/2+y,1/2-z
-x,-y,-z
x,1/2-y,1/2+z
loop_
_atom_site_type_symbol
_atom_site_label
_atom_site_fract_x
_atom_site_fract_y
_atom_site_fract_z
Si Si1 0.295424 0.428269 0.256438
Si Si2 0.565410 0.022530 0.752436
Si Si3 0.654502 0.830800 0.873943
Si Si4 0.083051 0.646678 0.334838
Si Si5 0.083976 0.672144 0.055335
O O1 0.470569 0.488427 0.189702
O O2 0.366954 0.313191 0.119665
O O3 0.209746 0.526506 0.228472
O O4 0.135504 0.388357 0.483249
O O5 0.783154 0.057732 0.570259
O O6 0.555066 0.894589 0.832161
O O7 0.451620 0.127343 0.915728
O O8 0.871552 0.870348 0.703811
O O9 0.110018 0.718980 0.180795
O O10 0.142508 0.723757 0.410406
#
# Coordination Sequence:
#
# PCOD8128037 Si02
#       5
#     4   4   4   4   4
#     4  10  23  45  70 101 139 190 235 292 345 427
#     4  11  24  40  73 100 138 184 239 285 355 421
#     4  10  24  46  64 102 146 181 230 294 352 420
#     4  10  24  46  72 102 145 183 236 292 356 417
#     4  11  24  45  70 103 138 189 228 295 353 421
#
# _framework density 23.997325
#
# number of rings (size 3 to 8) (size 9 to 14) (size 15 to 20)
#    0.000    1.600    2.000    0.600    5.600    4.000 
#   14.400    0.000    0.000    0.000    0.000    0.000 
#    0.000    0.000    0.000    0.000    0.000    0.000 
#
# Total GULP energy -248031.887076 kJ/mol
# GULP energy per Si atom -12401.594354 kJ/mol
# Density = 2.394271 g / cm^3
# Si number density = 23.997325 Si / 1000 Ang^3
#
#
#
# Elastic Constant Matrix: (Units=GPa)
#
#
# Indices 1 2 3 4 5 6 
#
# 1 109.8408 41.7426 25.4790 0.0000 3.4500 0.0000
# 2 41.7426 80.3603 20.4708 0.0000 12.8795 0.0000
# 3 25.4790 20.4708 67.1470 0.0000 1.0521 0.0000
# 4 0.0000 0.0000 0.0000 36.2401 0.0000 -2.3724
# 5 3.4500 12.8795 1.0521 0.0000 39.7867 0.0000
# 6 0.0000 0.0000 0.0000 -2.3724 0.0000 32.4633
#
#
#
# Elastic Compliance Matrix: (Units=1/GPa)
#
#
# Indices 1 2 3 4 5 6 
#
# 1 0.011848 -0.005575 -0.002809 0.000000 0.000852 0.000000
# 2 -0.005575 0.016878 -0.002953 0.000000 -0.004902 0.000000
# 3 -0.002809 -0.002953 0.016847 0.000000 0.000754 0.000000
# 4 0.000000 0.000000 0.000000 0.027726 0.000000 0.002026
# 5 0.000852 -0.004902 0.000754 0.000000 0.026627 0.000000
# 6 0.000000 0.000000 0.000000 0.002026 0.000000 0.030952
#
#
# Mechanical properties :
#
#
# Convention : Reuss Voigt Hill
#
# Bulk Modulus (GPa) = 43.67274 48.08142 45.87708
# Shear Modulus (GPa) = 31.02006 33.00839 32.01422
#
# Velocity S-wave (km/s) = 3.59924 3.71280 3.65646
# Velocity P-wave (km/s) = 5.95913 6.20157 6.08156
#
# Compressibility (1/GPa) = 0.02289758
#
# Stress axis : x y z
#
# Youngs Moduli (GPa) = 84.40476 59.24926 59.35700
#
# Poissons Ratio (x) = 0.33032 0.16675
# Poissons Ratio (y) = 0.47056 0.17529
# Poissons Ratio (z) = 0.23712 0.17498
#
# Static dielectric constant tensor:
#      x y z
#    x 4.258490 0.000000 -0.121240 
#    y 0.000000 3.929810 0.000000 
#    z -0.121240 0.000000 4.389360 
# 
# 
# High freq. dielectric constant tensor:
#      x y z
#    x 1.957540 0.000000 -0.006590 
#    y 0.000000 1.928280 0.000000 
#    z -0.006590 0.000000 1.965330 
# 
# From -- ./inp_files/28441.got.cif
#   From: 2010.03.12/outbox.cif.g09.slc.cpg/sg14_15_cif.got.tgz:28441.got - 2010.03.31 13:35:05.
