data_PCOD8128847
_publ_section_title
;
Structure prediction by ZEFSAII (Michael W. Deem and Ramdas Pophale) SiO2 
 PCOD8128847
Probable space group: P 21/C
;
_chemical_formula_sum "Si O2"
_cell_formula_units_Z 28
_cell_length_a 8.950696
_cell_length_b 10.342099
_cell_length_c 14.897976
_cell_angle_alpha 90.000000
_cell_angle_beta 112.609355
_cell_angle_gamma 90.000000
_cell_volume 1273.103894
_symmetry_space_group_name_H-M "P 21/C"
_symmetry_group_IT_number 14
_symmetry_cell_setting 'monoclinic'
loop_
_space_group_symop_operation_xyz
x,y,z
-x,1/2+y,1/2-z
-x,-y,-z
x,1/2-y,1/2+z
loop_
_atom_site_type_symbol
_atom_site_label
_atom_site_fract_x
_atom_site_fract_y
_atom_site_fract_z
Si Si1 0.392509 0.909203 0.917751
Si Si2 0.906975 0.936501 0.894615
Si Si3 0.563131 0.671330 0.297255
Si Si4 0.774987 0.117213 0.358927
Si Si5 0.934154 0.336843 0.271453
Si Si6 0.850490 0.276320 0.065017
Si Si7 0.239478 0.113180 0.749650
O O1 0.491435 0.803222 0.880926
O O2 0.274685 0.842641 0.962032
O O3 0.305503 0.999636 0.826763
O O4 0.500000 0.000000 0.000000
O O5 0.711423 0.928828 0.850715
O O6 0.970307 0.788705 0.899602
O O7 0.948289 0.022550 0.818057
O O8 0.000000 0.000000 0.000000
O O9 0.420217 0.615690 0.200419
O O10 0.620401 0.801206 0.261638
O O11 0.861278 0.231688 0.322275
O O12 0.813404 0.132813 0.472695
O O13 0.846210 0.975232 0.348377
O O14 0.829256 0.349395 0.155543
O O15 0.115628 0.299522 0.279376
#
# Coordination Sequence:
#
# PCOD8128847 Si02
#       7
#     4   4   4   4   4   4   4
#     4  11  23  41  69 102 137 180 233 284 340 422
#     4  12  24  43  73 101 131 189 240 285 339 422
#     4  11  25  43  68 104 145 174 234 290 354 415
#     4  11  26  45  71 102 146 183 229 301 354 414
#     4  12  23  44  70  99 141 180 242 288 344 418
#     4  12  23  45  67 102 136 185 234 285 354 417
#     4  11  24  44  65  99 142 182 227 289 354 414
#
# _framework density 21.993493000000001
#
# number of rings (size 3 to 8) (size 9 to 14) (size 15 to 20)
#    0.000    0.571    7.143    1.714    4.000    0.571 
#    0.000    4.286    0.000    0.000    0.000    0.000 
#    0.000    0.000    0.000    0.000    0.000    0.000 
#
# Total GULP energy -346901.849176 kJ/mol
# GULP energy per Si atom -12389.351756 kJ/mol
# Density = 2.194343 g / cm^3
# Si number density = 21.993493 Si / 1000 Ang^3
#
#
#
# Elastic Constant Matrix: (Units=GPa)
#
#
# Indices 1 2 3 4 5 6 
#
# 1 108.0749 10.5503 21.4634 0.0000 1.0642 0.0000
# 2 10.5503 48.8030 20.5462 0.0000 -2.0058 0.0000
# 3 21.4634 20.5462 124.5097 0.0000 -10.4183 0.0000
# 4 0.0000 0.0000 0.0000 42.4007 0.0000 -8.3587
# 5 1.0642 -2.0058 -10.4183 0.0000 31.3367 0.0000
# 6 0.0000 0.0000 0.0000 -8.3587 0.0000 34.3519
#
#
#
# Elastic Compliance Matrix: (Units=1/GPa)
#
#
# Indices 1 2 3 4 5 6 
#
# 1 0.009707 -0.001504 -0.001503 0.000000 -0.000925 0.000000
# 2 -0.001504 0.022255 -0.003384 0.000000 0.000351 0.000000
# 3 -0.001503 -0.003384 0.009088 0.000000 0.002856 0.000000
# 4 0.000000 0.000000 0.000000 0.024773 0.000000 0.006028
# 5 -0.000925 0.000351 0.002856 0.000000 0.032915 0.000000
# 6 0.000000 0.000000 0.000000 0.006028 0.000000 0.030577
#
#
# Mechanical properties :
#
#
# Convention : Reuss Voigt Hill
#
# Bulk Modulus (GPa) = 35.37444 42.94525 39.15984
# Shear Modulus (GPa) = 32.99933 36.87305 34.93619
#
# Velocity S-wave (km/s) = 3.87772 4.09900 3.98990
# Velocity P-wave (km/s) = 6.01398 6.47852 6.25056
#
# Compressibility (1/GPa) = 0.02826900
#
# Stress axis : x y z
#
# Youngs Moduli (GPa) = 103.01640 44.93435 110.03670
#
# Poissons Ratio (x) = 0.06758 0.16534
# Poissons Ratio (y) = 0.15493 0.37234
# Poissons Ratio (z) = 0.15479 0.15205
#
# Static dielectric constant tensor:
#      x y z
#    x 4.291350 0.000000 -0.024640 
#    y 0.000000 3.759590 0.000000 
#    z -0.024640 0.000000 4.050790 
# 
# 
# High freq. dielectric constant tensor:
#      x y z
#    x 1.877080 0.000000 -0.004960 
#    y 0.000000 1.851230 0.000000 
#    z -0.004960 0.000000 1.874750 
# 
# From -- ./inp_files/40026.got.cif
#   From: 2010.03.12/outbox.cif.g09.slc.cpg/sg14_21_cif.got.tgz:40026.got - 2010.03.31 13:35:05.
