data_PCOD8128413
_publ_section_title
;
Structure prediction by ZEFSAII (Michael W. Deem and Ramdas Pophale) SiO2 
 PCOD8128413
Probable space group: P 21/C
;
_chemical_formula_sum "Si O2"
_cell_formula_units_Z 32
_cell_length_a 14.609786
_cell_length_b 22.127942
_cell_length_c 9.102410
_cell_angle_alpha 90.000000
_cell_angle_beta 28.956925
_cell_angle_gamma 90.000000
_cell_volume 1424.698451
_symmetry_space_group_name_H-M "P 21/C"
_symmetry_group_IT_number 14
_symmetry_cell_setting 'monoclinic'
loop_
_space_group_symop_operation_xyz
x,y,z
-x,1/2+y,1/2-z
-x,-y,-z
x,1/2-y,1/2+z
loop_
_atom_site_type_symbol
_atom_site_label
_atom_site_fract_x
_atom_site_fract_y
_atom_site_fract_z
Si Si1 0.011458 0.561779 0.900837
Si Si2 0.056642 0.614000 0.139582
Si Si3 0.806803 0.023533 0.329975
Si Si4 0.410004 0.820808 0.128082
Si Si5 0.408274 0.243245 0.857600
Si Si6 0.694119 0.663892 0.762502
Si Si7 0.620937 0.942803 0.779505
Si Si8 0.383016 0.937186 0.674364
O O1 0.206329 0.561766 0.534496
O O2 0.016377 0.611692 0.022334
O O3 0.000000 0.500000 0.000000
O O4 0.818548 0.572410 0.083165
O O5 0.161911 0.554152 0.053907
O O6 0.874079 0.620462 0.499718
O O7 0.189999 0.672154 0.973832
O O8 0.706871 0.070806 0.361681
O O9 0.677149 0.963250 0.534913
O O10 0.000000 0.000000 0.000000
O O11 0.509813 0.801757 0.137438
O O12 0.427282 0.772735 0.972815
O O13 0.493871 0.883948 0.952820
O O14 0.284843 0.205600 0.913821
O O15 0.294277 0.295829 0.105247
O O16 0.506668 0.622530 0.028691
O O17 0.500000 0.000000 0.000000
O O18 0.500000 0.000000 0.500000
#
# Coordination Sequence:
#
# PCOD8128413 Si02
#       8
#     4   4   4   4   4   4   4   4
#     4  12  23  42  60 101 143 179 217 264 338 418
#     4  12  25  41  70 100 137 175 225 280 343 405
#     4  12  24  42  61 106 142 178 216 273 341 417
#     4  11  24  46  69  98 130 181 226 283 336 406
#     4  10  25  48  70  91 132 181 237 279 336 394
#     4  11  25  46  70 101 134 180 229 286 337 408
#     4  12  25  41  71 100 143 179 220 276 350 410
#     4  12  27  41  70 102 140 176 221 281 347 405
#
# _framework density 22.460892000000001
#
# number of rings (size 3 to 8) (size 9 to 14) (size 15 to 20)
#    0.000    0.500    3.750    3.750    8.750    1.000 
#    0.000    5.000    0.000    0.000    0.000    0.000 
#    0.000    0.000    0.000    0.000    0.000    0.000 
#
# Total GULP energy -396544.677696 kJ/mol
# GULP energy per Si atom -12392.021178 kJ/mol
# Density = 2.240977 g / cm^3
# Si number density = 22.460892 Si / 1000 Ang^3
#
#
#
# Elastic Constant Matrix: (Units=GPa)
#
#
# Indices 1 2 3 4 5 6 
#
# 1 65.1676 14.0327 28.8076 0.0000 17.2176 0.0000
# 2 14.0327 80.8150 25.9412 0.0000 1.6426 0.0000
# 3 28.8076 25.9412 135.2386 0.0000 -2.5854 0.0000
# 4 0.0000 0.0000 0.0000 42.3123 0.0000 8.8333
# 5 17.2176 1.6426 -2.5854 0.0000 37.6898 0.0000
# 6 0.0000 0.0000 0.0000 8.8333 0.0000 29.2022
#
#
#
# Elastic Compliance Matrix: (Units=1/GPa)
#
#
# Indices 1 2 3 4 5 6 
#
# 1 0.020040 -0.001984 -0.004067 0.000000 -0.009347 0.000000
# 2 -0.001984 0.013403 -0.002145 0.000000 0.000175 0.000000
# 3 -0.004067 -0.002145 0.008721 0.000000 0.002549 0.000000
# 4 0.000000 0.000000 0.000000 0.025227 0.000000 -0.007631
# 5 -0.009347 0.000175 0.002549 0.000000 0.030970 0.000000
# 6 0.000000 0.000000 0.000000 -0.007631 0.000000 0.036552
#
#
# Mechanical properties :
#
#
# Convention : Reuss Voigt Hill
#
# Bulk Modulus (GPa) = 38.80213 46.53158 42.66686
# Shear Modulus (GPa) = 31.27047 36.00349 33.63698
#
# Velocity S-wave (km/s) = 3.73529 4.00802 3.87406
# Velocity P-wave (km/s) = 5.99301 6.49466 6.24887
#
# Compressibility (1/GPa) = 0.02577178
#
# Stress axis : x y z
#
# Youngs Moduli (GPa) = 49.90120 74.60759 114.66840
#
# Poissons Ratio (x) = 0.14804 0.46633
# Poissons Ratio (y) = 0.09902 0.24596
# Poissons Ratio (z) = 0.20294 0.16003
#
# Static dielectric constant tensor:
#      x y z
#    x 6.423120 0.000000 -0.023890 
#    y 0.000000 6.026500 0.000000 
#    z -0.023890 0.000000 4.291050 
# 
# 
# High freq. dielectric constant tensor:
#      x y z
#    x 1.891800 0.000000 0.010370 
#    y 0.000000 1.880990 0.000000 
#    z 0.010370 0.000000 1.902060 
# 
# From -- ./inp_files/17022.got.cif
#   From: 2010.03.12/outbox.cif.g09.slc.cpg/sg14_9_cif.got.tgz:17022.got - 2010.03.31 13:35:05.
