data_PCOD8128171
_publ_section_title
;
Structure prediction by ZEFSAII (Michael W. Deem and Ramdas Pophale) SiO2 
 PCOD8128171
Probable space group: P 21/C
;
_chemical_formula_sum "Si O2"
_cell_formula_units_Z 24
_cell_length_a 15.295281
_cell_length_b 13.951474
_cell_length_c 11.933177
_cell_angle_alpha 90.000000
_cell_angle_beta 25.885375
_cell_angle_gamma 90.000000
_cell_volume 1111.705290
_symmetry_space_group_name_H-M "P 21/C"
_symmetry_group_IT_number 14
_symmetry_cell_setting 'monoclinic'
loop_
_space_group_symop_operation_xyz
x,y,z
-x,1/2+y,1/2-z
-x,-y,-z
x,1/2-y,1/2+z
loop_
_atom_site_type_symbol
_atom_site_label
_atom_site_fract_x
_atom_site_fract_y
_atom_site_fract_z
Si Si1 0.769685 0.474067 0.770325
Si Si2 0.532670 0.650503 0.448978
Si Si3 0.934023 0.532838 0.954460
Si Si4 0.276145 0.676617 0.527246
Si Si5 0.499533 0.145275 0.447147
Si Si6 0.743476 0.388401 0.029371
O O1 0.710589 0.379718 0.766125
O O2 0.000000 0.500000 0.500000
O O3 0.659904 0.564117 0.842276
O O4 0.690641 0.458327 0.987585
O O5 0.714209 0.581289 0.208392
O O6 0.358967 0.655154 0.555638
O O7 0.603938 0.759455 0.384515
O O8 0.441970 0.614728 0.671336
O O9 0.928949 0.437717 0.882158
O O10 0.000000 0.500000 0.000000
O O11 0.087688 0.607861 0.723655
O O12 0.457242 0.654242 0.234237
O O13 0.200192 0.784917 0.588293
#
# Coordination Sequence:
#
# PCOD8128171 Si02
#       6
#     4   4   4   4   4   4
#     4  11  23  42  69  98 138 174 230 279 344 411
#     4  11  24  46  69  98 137 180 229 287 344 412
#     4  12  26  44  72 103 138 182 235 282 346 416
#     4  11  24  47  69  97 142 172 233 283 343 412
#     4  10  24  42  65  98 133 182 221 285 347 404
#     4  11  24  46  71 100 138 179 225 288 343 410
#
# _framework density 21.588455
#
# number of rings (size 3 to 8) (size 9 to 14) (size 15 to 20)
#    0.000    1.000    3.333    2.500    4.667    0.000 
#    9.000    0.000    0.000    0.000    0.000    0.000 
#    0.000    0.000    0.000    0.000    0.000    0.000 
#
# Total GULP energy -297534.810033 kJ/mol
# GULP energy per Si atom -12397.283751 kJ/mol
# Density = 2.153932 g / cm^3
# Si number density = 21.588455 Si / 1000 Ang^3
#
#
#
# Elastic Constant Matrix: (Units=GPa)
#
#
# Indices 1 2 3 4 5 6 
#
# 1 112.4491 45.1524 25.1220 0.0000 2.3575 0.0000
# 2 45.1524 125.8449 36.3475 0.0000 -16.4393 0.0000
# 3 25.1220 36.3475 72.0816 0.0000 -10.3444 0.0000
# 4 0.0000 0.0000 0.0000 31.8629 0.0000 0.7511
# 5 2.3575 -16.4393 -10.3444 0.0000 33.2176 0.0000
# 6 0.0000 0.0000 0.0000 0.7511 0.0000 41.4295
#
#
#
# Elastic Compliance Matrix: (Units=1/GPa)
#
#
# Indices 1 2 3 4 5 6 
#
# 1 0.010987 -0.003671 -0.002461 0.000000 -0.003363 0.000000
# 2 -0.003671 0.010884 -0.003558 0.000000 0.004539 0.000000
# 3 -0.002461 -0.003558 0.017060 0.000000 0.003727 0.000000
# 4 0.000000 0.000000 0.000000 0.031398 0.000000 -0.000569
# 5 -0.003363 0.004539 0.003727 0.000000 0.033750 0.000000
# 6 0.000000 0.000000 0.000000 -0.000569 0.000000 0.024148
#
#
# Mechanical properties :
#
#
# Convention : Reuss Voigt Hill
#
# Bulk Modulus (GPa) = 51.14474 58.17993 54.66234
# Shear Modulus (GPa) = 32.44196 34.88558 33.66377
#
# Velocity S-wave (km/s) = 3.88073 4.02423 3.95313
# Velocity P-wave (km/s) = 6.61984 6.97142 6.79790
#
# Compressibility (1/GPa) = 0.01955235
#
# Stress axis : x y z
#
# Youngs Moduli (GPa) = 91.01609 91.88033 58.61821
#
# Poissons Ratio (x) = 0.33726 0.14425
# Poissons Ratio (y) = 0.33408 0.20853
# Poissons Ratio (z) = 0.22398 0.32686
#
# Static dielectric constant tensor:
#      x y z
#    x 4.087780 0.000000 0.097490 
#    y 0.000000 4.343300 0.000000 
#    z 0.097490 0.000000 3.547180 
# 
# 
# High freq. dielectric constant tensor:
#      x y z
#    x 1.859640 0.000000 0.013820 
#    y 0.000000 1.869700 0.000000 
#    z 0.013820 0.000000 1.825110 
# 
# From -- ./inp_files/32517.got.cif
#   From: 2010.03.12/outbox.cif.g09.slc.cpg/sg14_17_cif.got.tgz:32517.got - 2010.03.31 13:35:05.
