data_PCOD8128602
_publ_section_title
;
Structure prediction by ZEFSAII (Michael W. Deem and Ramdas Pophale) SiO2 
 PCOD8128602
Probable space group: P 21/C
;
_chemical_formula_sum "Si O2"
_cell_formula_units_Z 28
_cell_length_a 11.094231
_cell_length_b 9.534987
_cell_length_c 14.482514
_cell_angle_alpha 90.000000
_cell_angle_beta 57.332127
_cell_angle_gamma 90.000000
_cell_volume 1289.665824
_symmetry_space_group_name_H-M "P 21/C"
_symmetry_group_IT_number 14
_symmetry_cell_setting 'monoclinic'
loop_
_space_group_symop_operation_xyz
x,y,z
-x,1/2+y,1/2-z
-x,-y,-z
x,1/2-y,1/2+z
loop_
_atom_site_type_symbol
_atom_site_label
_atom_site_fract_x
_atom_site_fract_y
_atom_site_fract_z
Si Si1 0.334389 0.247441 0.903836
Si Si2 0.906078 0.666443 0.611593
Si Si3 0.146685 0.753115 0.647624
Si Si4 0.370052 0.533073 0.487923
Si Si5 0.112644 0.650048 0.360505
Si Si6 0.598368 0.249757 0.674152
Si Si7 0.368179 0.975330 0.486113
O O1 0.239560 0.253029 0.848958
O O2 0.500568 0.251885 0.805301
O O3 0.301276 0.376240 0.984945
O O4 0.300815 0.106395 0.974368
O O5 0.860082 0.514742 0.670501
O O6 0.007082 0.749195 0.640485
O O7 0.973895 0.658307 0.481554
O O8 0.241483 0.613517 0.593646
O O9 0.089229 0.765355 0.775405
O O10 0.243421 0.888274 0.586991
O O11 0.500000 0.500000 0.500000
O O12 0.442171 0.625477 0.378223
O O13 0.239223 0.725809 0.362950
O O14 0.579774 0.102617 0.628464
O O15 0.500000 0.000000 0.500000
#
# Coordination Sequence:
#
# PCOD8128602 Si02
#       7
#     4   4   4   4   4   4   4
#     4  12  24  40  70 101 141 183 232 297 350 420
#     4  11  24  47  69 102 141 182 237 284 351 429
#     4  11  25  46  71 102 141 191 228 291 362 419
#     4  11  21  42  68 103 138 180 243 290 343 421
#     4  11  22  48  74  93 138 190 233 288 352 416
#     4  11  22  44  68 100 136 188 236 287 360 408
#     4  11  24  42  67 102 143 177 234 299 344 413
#
# _framework density 21.71105
#
# number of rings (size 3 to 8) (size 9 to 14) (size 15 to 20)
#    0.000    0.857    4.286    5.143    2.000    1.714 
#    7.714    0.000    0.000    0.000    0.000    0.000 
#    0.000    0.000    0.000    0.000    0.000    0.000 
#
# Total GULP energy -347285.528414 kJ/mol
# GULP energy per Si atom -12403.054586 kJ/mol
# Density = 2.166163 g / cm^3
# Si number density = 21.711050 Si / 1000 Ang^3
#
#
#
# Elastic Constant Matrix: (Units=GPa)
#
#
# Indices 1 2 3 4 5 6 
#
# 1 145.8926 48.3205 17.2710 0.0000 18.4779 0.0000
# 2 48.3205 141.1953 41.2702 0.0000 11.1913 0.0000
# 3 17.2710 41.2702 82.9690 0.0000 17.2069 0.0000
# 4 0.0000 0.0000 0.0000 30.0331 0.0000 6.3792
# 5 18.4779 11.1913 17.2069 0.0000 32.3631 0.0000
# 6 0.0000 0.0000 0.0000 6.3792 0.0000 40.3246
#
#
#
# Elastic Compliance Matrix: (Units=1/GPa)
#
#
# Indices 1 2 3 4 5 6 
#
# 1 0.008172 -0.002604 0.000421 0.000000 -0.003990 0.000000
# 2 -0.002604 0.009133 -0.004107 0.000000 0.000512 0.000000
# 3 0.000421 -0.004107 0.015469 0.000000 -0.007045 0.000000
# 4 0.000000 0.000000 0.000000 0.034454 0.000000 -0.005451
# 5 -0.003990 0.000512 -0.007045 0.000000 0.036746 0.000000
# 6 0.000000 0.000000 0.000000 -0.005451 0.000000 0.025661
#
#
# Mechanical properties :
#
#
# Convention : Reuss Voigt Hill
#
# Bulk Modulus (GPa) = 49.51618 64.86448 57.19033
# Shear Modulus (GPa) = 33.56905 38.09051 35.82978
#
# Velocity S-wave (km/s) = 3.93641 4.19314 4.06680
# Velocity P-wave (km/s) = 6.59673 7.30646 6.96064
#
# Compressibility (1/GPa) = 0.02019542
#
# Stress axis : x y z
#
# Youngs Moduli (GPa) = 122.36729 109.48862 64.64516
#
# Poissons Ratio (x) = 0.28507 -0.02724
# Poissons Ratio (y) = 0.31860 0.26552
# Poissons Ratio (z) = -0.05156 0.44970
#
# Static dielectric constant tensor:
#      x y z
#    x 3.930910 0.000000 0.139340 
#    y 0.000000 4.015010 0.000000 
#    z 0.139340 0.000000 3.679240 
# 
# 
# High freq. dielectric constant tensor:
#      x y z
#    x 1.866430 0.000000 0.007250 
#    y 0.000000 1.853680 0.000000 
#    z 0.007250 0.000000 1.845810 
# 
# From -- ./inp_files/43319.got.cif
#   From: 2010.03.12/outbox.cif.g09.slc.cpg/sg14_22_cif.got.tgz:43319.got - 2010.03.31 13:35:05.
