data_PCOD8128540
_publ_section_title
;
Structure prediction by ZEFSAII (Michael W. Deem and Ramdas Pophale) SiO2 
 PCOD8128540
Probable space group: P 21/C
;
_chemical_formula_sum "Si O2"
_cell_formula_units_Z 24
_cell_length_a 7.865152
_cell_length_b 20.858644
_cell_length_c 11.175607
_cell_angle_alpha 90.000000
_cell_angle_beta 144.649194
_cell_angle_gamma 90.000000
_cell_volume 1060.787883
_symmetry_space_group_name_H-M "P 21/C"
_symmetry_group_IT_number 14
_symmetry_cell_setting 'monoclinic'
loop_
_space_group_symop_operation_xyz
x,y,z
-x,1/2+y,1/2-z
-x,-y,-z
x,1/2-y,1/2+z
loop_
_atom_site_type_symbol
_atom_site_label
_atom_site_fract_x
_atom_site_fract_y
_atom_site_fract_z
Si Si1 0.972353 0.625454 0.983277
Si Si2 0.962255 0.658604 0.467971
Si Si3 0.397994 0.927505 0.079316
Si Si4 0.544043 0.926503 0.888192
Si Si5 0.262409 0.738583 0.286550
Si Si6 0.152351 0.232411 0.761757
O O1 0.667509 0.586731 0.827032
O O2 0.903051 0.662209 0.821220
O O3 0.243619 0.575484 0.136311
O O4 0.067300 0.678370 0.134048
O O5 0.774408 0.622167 0.460413
O O6 0.759253 0.711109 0.281594
O O7 0.108734 0.609781 0.457697
O O8 0.220486 0.699062 0.680102
O O9 0.321553 0.002620 0.040468
O O10 0.473604 0.907576 0.985758
O O11 0.610237 0.725269 0.494428
O O12 0.162152 0.749309 0.364624
#
# Coordination Sequence:
#
# PCOD8128540 Si02
#       6
#     4   4   4   4   4   4
#     4  11  21  38  62  88 121 159 200 246 304 361
#     4  11  23  40  64  92 123 159 202 248 302 363
#     4  11  24  42  63  88 122 163 206 251 297 353
#     4  11  24  42  63  88 122 163 206 251 297 353
#     4  11  22  37  61  92 123 155 195 249 305 360
#     4  11  22  37  61  92 123 155 195 249 305 360
#
# _framework density 22.624690999999999
#
# number of rings (size 3 to 8) (size 9 to 14) (size 15 to 20)
#    0.000    1.000    0.000    8.000    0.000    5.333 
#    0.000    0.000    0.000   10.000    0.000    0.000 
#    0.000    0.000    0.000    0.000    0.000    0.000 
#
# Total GULP energy -297417.621890 kJ/mol
# GULP energy per Si atom -12392.400912 kJ/mol
# Density = 2.257320 g / cm^3
# Si number density = 22.624691 Si / 1000 Ang^3
#
#
#
# Elastic Constant Matrix: (Units=GPa)
#
#
# Indices 1 2 3 4 5 6 
#
# 1 90.4933 38.3405 15.0707 0.0000 -8.2586 0.0000
# 2 38.3405 81.1730 20.9423 0.0000 -12.4393 0.0000
# 3 15.0707 20.9423 126.8329 0.0000 -2.0101 0.0000
# 4 0.0000 0.0000 0.0000 26.0563 0.0000 6.8254
# 5 -8.2586 -12.4393 -2.0101 0.0000 26.3578 0.0000
# 6 0.0000 0.0000 0.0000 6.8254 0.0000 38.0798
#
#
#
# Elastic Compliance Matrix: (Units=1/GPa)
#
#
# Indices 1 2 3 4 5 6 
#
# 1 0.013904 -0.006199 -0.000607 0.000000 0.001385 0.000000
# 2 -0.006199 0.016624 -0.001917 0.000000 0.005757 0.000000
# 3 -0.000607 -0.001917 0.008266 0.000000 -0.000465 0.000000
# 4 0.000000 0.000000 0.000000 0.040269 0.000000 -0.007218
# 5 0.001385 0.005757 -0.000465 0.000000 0.041055 0.000000
# 6 0.000000 0.000000 0.000000 -0.007218 0.000000 0.027554
#
#
# Mechanical properties :
#
#
# Convention : Reuss Voigt Hill
#
# Bulk Modulus (GPa) = 46.84058 49.68957 48.26507
# Shear Modulus (GPa) = 29.03034 33.04183 31.03608
#
# Velocity S-wave (km/s) = 3.58596 3.82571 3.70777
# Velocity P-wave (km/s) = 6.15579 6.44398 6.30153
#
# Compressibility (1/GPa) = 0.02134901
#
# Stress axis : x y z
#
# Youngs Moduli (GPa) = 71.92052 60.15390 120.98232
#
# Poissons Ratio (x) = 0.37287 0.07340
# Poissons Ratio (y) = 0.44581 0.23194
# Poissons Ratio (z) = 0.04363 0.11532
#
# Static dielectric constant tensor:
#      x y z
#    x 3.855310 0.000000 -0.120510 
#    y 0.000000 4.262850 0.000000 
#    z -0.120510 0.000000 4.246210 
# 
# 
# High freq. dielectric constant tensor:
#      x y z
#    x 1.875950 0.000000 -0.004600 
#    y 0.000000 1.907460 0.000000 
#    z -0.004600 0.000000 1.896440 
# 
# From -- ./inp_files/27056.got.cif
#   From: 2010.03.12/outbox.cif.g09.slc.cpg/sg14_14_cif.got.tgz:27056.got - 2010.03.31 13:35:05.
