data_PCOD8128124
_publ_section_title
;
Structure prediction by ZEFSAII (Michael W. Deem and Ramdas Pophale) SiO2 
 PCOD8128124
Probable space group: P 21/C
;
_chemical_formula_sum "Si O2"
_cell_formula_units_Z 32
_cell_length_a 19.014280
_cell_length_b 11.438300
_cell_length_c 15.252865
_cell_angle_alpha 90.000000
_cell_angle_beta 28.705884
_cell_angle_gamma 90.000000
_cell_volume 1593.373736
_symmetry_space_group_name_H-M "P 21/C"
_symmetry_group_IT_number 14
_symmetry_cell_setting 'monoclinic'
loop_
_space_group_symop_operation_xyz
x,y,z
-x,1/2+y,1/2-z
-x,-y,-z
x,1/2-y,1/2+z
loop_
_atom_site_type_symbol
_atom_site_label
_atom_site_fract_x
_atom_site_fract_y
_atom_site_fract_z
Si Si1 0.821784 0.024299 0.486690
Si Si2 0.710910 0.748267 0.372458
Si Si3 0.143957 0.389979 0.629189
Si Si4 0.619723 0.290272 0.282586
Si Si5 0.656279 0.113028 0.092258
Si Si6 0.577333 0.265266 0.022019
Si Si7 0.239586 0.223191 0.377492
Si Si8 0.636962 0.511667 0.027455
O O1 0.700857 0.088234 0.677915
O O2 0.972656 0.092963 0.329979
O O3 0.838722 0.892589 0.501667
O O4 0.772132 0.026306 0.440021
O O5 0.802365 0.695484 0.352351
O O6 0.552094 0.686805 0.546983
O O7 0.794074 0.731143 0.189399
O O8 0.690338 0.887244 0.404011
O O9 0.220727 0.515193 0.549727
O O10 0.172719 0.332780 0.502960
O O11 0.682183 0.188199 0.151869
O O12 0.651420 0.255248 0.347533
O O13 0.495451 0.056441 0.266980
O O14 0.671358 0.198687 0.992625
O O15 0.578289 0.403877 0.035311
O O16 0.412442 0.218415 0.205602
#
# Coordination Sequence:
#
# PCOD8128124 Si02
#       8
#     4   4   4   4   4   4   4   4
#     4  12  25  42  65  89 136 172 215 260 319 385
#     4  10  24  43  69  94 128 164 220 266 326 376
#     4  12  26  43  63  91 135 174 211 262 319 385
#     4  10  24  40  66 101 124 162 216 270 317 382
#     4  11  22  39  67  91 127 166 212 261 323 376
#     4  11  22  40  71  98 128 160 218 272 321 374
#     4  11  24  43  67  97 126 173 211 268 323 379
#     4  11  21  43  68  95 125 169 212 270 318 380
#
# _framework density 20.083174
#
# number of rings (size 3 to 8) (size 9 to 14) (size 15 to 20)
#    0.000    1.000    5.000    1.500    5.250    3.000 
#    2.250    0.625    0.000    0.000    0.000    0.000 
#    0.000    0.000    0.000    0.000    0.000    0.000 
#
# Total GULP energy -396976.250320 kJ/mol
# GULP energy per Si atom -12405.507822 kJ/mol
# Density = 2.003746 g / cm^3
# Si number density = 20.083174 Si / 1000 Ang^3
#
#
#
# Elastic Constant Matrix: (Units=GPa)
#
#
# Indices 1 2 3 4 5 6 
#
# 1 89.3130 27.5514 51.1594 0.0000 20.3589 0.0000
# 2 27.5514 92.4941 35.0667 0.0000 2.1753 0.0000
# 3 51.1594 35.0667 71.3564 0.0000 7.0925 0.0000
# 4 0.0000 0.0000 0.0000 21.7701 0.0000 -1.7313
# 5 20.3589 2.1753 7.0925 0.0000 30.6593 0.0000
# 6 0.0000 0.0000 0.0000 -1.7313 0.0000 28.1687
#
#
#
# Elastic Compliance Matrix: (Units=1/GPa)
#
#
# Indices 1 2 3 4 5 6 
#
# 1 0.022362 -0.000915 -0.014445 0.000000 -0.011442 0.000000
# 2 -0.000915 0.013335 -0.006001 0.000000 0.001050 0.000000
# 3 -0.014445 -0.006001 0.026944 0.000000 0.003785 0.000000
# 4 0.000000 0.000000 0.000000 0.046160 0.000000 0.002837
# 5 -0.011442 0.001050 0.003785 0.000000 0.039265 0.000000
# 6 0.000000 0.000000 0.000000 0.002837 0.000000 0.035675
#
#
# Mechanical properties :
#
#
# Convention : Reuss Voigt Hill
#
# Bulk Modulus (GPa) = 50.20931 53.41316 51.81124
# Shear Modulus (GPa) = 21.44986 25.41200 23.43093
#
# Velocity S-wave (km/s) = 3.27165 3.56102 3.41940
# Velocity P-wave (km/s) = 6.27109 6.60011 6.43770
#
# Compressibility (1/GPa) = 0.01991662
#
# Stress axis : x y z
#
# Youngs Moduli (GPa) = 44.71960 74.99267 37.11444
#
# Poissons Ratio (x) = 0.06864 0.53612
# Poissons Ratio (y) = 0.04093 0.22273
# Poissons Ratio (z) = 0.64598 0.45005
#
# Static dielectric constant tensor:
#      x y z
#    x 3.754650 0.000000 0.114900 
#    y 0.000000 3.756800 0.000000 
#    z 0.114900 0.000000 3.480140 
# 
# 
# High freq. dielectric constant tensor:
#      x y z
#    x 1.786570 0.000000 0.012370 
#    y 0.000000 1.798800 0.000000 
#    z 0.012370 0.000000 1.764630 
# 
# From -- ./inp_files/48978.got.cif
#   From: 2010.03.12/outbox.cif.g09.slc.cpg/sg14_25_cif.got.tgz:48978.got - 2010.03.31 13:35:05.
