data_PCOD8128031
_publ_section_title
;
Structure prediction by ZEFSAII (Michael W. Deem and Ramdas Pophale) SiO2 
 PCOD8128031
Probable space group: P 21/C
;
_chemical_formula_sum "Si O2"
_cell_formula_units_Z 20
_cell_length_a 14.359695
_cell_length_b 10.351111
_cell_length_c 14.540906
_cell_angle_alpha 90.000000
_cell_angle_beta 22.621744
_cell_angle_gamma 90.000000
_cell_volume 831.351112
_symmetry_space_group_name_H-M "P 21/C"
_symmetry_group_IT_number 14
_symmetry_cell_setting 'monoclinic'
loop_
_space_group_symop_operation_xyz
x,y,z
-x,1/2+y,1/2-z
-x,-y,-z
x,1/2-y,1/2+z
loop_
_atom_site_type_symbol
_atom_site_label
_atom_site_fract_x
_atom_site_fract_y
_atom_site_fract_z
Si Si1 0.481228 0.298748 0.321174
Si Si2 0.733956 0.532136 0.012223
Si Si3 0.185397 0.808184 0.317002
Si Si4 0.781138 0.465646 0.769425
Si Si5 0.157364 0.448464 0.752352
O O1 0.691763 0.263000 0.200316
O O2 0.267513 0.358484 0.575592
O O3 0.403307 0.167076 0.341964
O O4 0.556520 0.407375 0.178489
O O5 0.842118 0.534985 0.810266
O O6 0.931846 0.521581 0.910590
O O7 0.189932 0.688429 0.243477
O O8 0.919910 0.859014 0.590419
O O9 0.318134 0.930781 0.145635
O O10 0.000000 0.500000 0.500000
O O11 0.500000 0.500000 0.000000
#
# Coordination Sequence:
#
# PCOD8128031 Si02
#       5
#     4   4   4   4   4
#     4  11  24  46  67 102 145 180 249 296 371 437
#     4  11  27  42  71 106 141 195 238 310 363 439
#     4  10  23  45  69 102 136 193 241 298 371 436
#     4  12  27  47  74 105 151 194 246 302 369 438
#     4  10  24  43  71 100 141 186 244 306 364 441
#
# _framework density 24.057221999999999
#
# number of rings (size 3 to 8) (size 9 to 14) (size 15 to 20)
#    0.000    1.200    2.000    1.800    8.400    1.600 
#    0.000    0.000    0.000    0.000    0.000    0.000 
#    0.000    0.000    0.000    0.000    0.000    0.000 
#
# Total GULP energy -247804.608147 kJ/mol
# GULP energy per Si atom -12390.230407 kJ/mol
# Density = 2.400247 g / cm^3
# Si number density = 24.057222 Si / 1000 Ang^3
#
#
#
# Elastic Constant Matrix: (Units=GPa)
#
#
# Indices 1 2 3 4 5 6 
#
# 1 8.1668 -27.7927 -11.9168 0.0000 49.3771 0.0000
# 2 -27.7927 137.1235 23.9466 0.0000 31.5761 0.0000
# 3 -11.9168 23.9466 87.0865 0.0000 30.9041 0.0000
# 4 0.0000 0.0000 0.0000 10.8462 0.0000 80.1307
# 5 49.3771 31.5761 30.9041 0.0000 4.4236 0.0000
# 6 0.0000 0.0000 0.0000 80.1307 0.0000 -127.7102
#
#
#
# Elastic Compliance Matrix: (Units=1/GPa)
#
#
# Indices 1 2 3 4 5 6 
#
# 1 0.003145 -0.002442 -0.004986 0.000000 0.017154 0.000000
# 2 -0.002442 0.006614 -0.003332 0.000000 0.003323 0.000000
# 3 -0.004986 -0.003332 0.011136 0.000000 0.001637 0.000000
# 4 0.000000 0.000000 0.000000 0.016360 0.000000 0.010265
# 5 0.017154 0.003323 0.001637 0.000000 -0.000572 0.000000
# 6 0.000000 0.000000 0.000000 0.010265 0.000000 -0.001389
#
#
# Mechanical properties :
#
#
# Convention : Reuss Voigt Hill
#
# Bulk Modulus (GPa) = -1603.11948 22.31678 -790.40135
# Shear Modulus (GPa) = 88.32937 -5.94544 41.19197
#
# Velocity S-wave (km/s) = 6.06598 -1.57377 4.14242
# Velocity P-wave (km/s) = 24.87494 2.44834 17.50384
#
# Compressibility (1/GPa) = -0.00062378
#
# Stress axis : x y z
#
# Youngs Moduli (GPa) = 317.94161 151.18335 89.79833
#
# Poissons Ratio (x) = 0.36920 0.44770
# Poissons Ratio (y) = 0.77643 0.29922
# Poissons Ratio (z) = 1.58513 0.50376
#
# Static dielectric constant tensor:
#      x y z
#    x 4.300180 0.000000 0.007520 
#    y 0.000000 4.576400 0.000000 
#    z 0.007520 0.000000 4.354050 
# 
# 
# High freq. dielectric constant tensor:
#      x y z
#    x 1.949090 0.000000 0.009410 
#    y 0.000000 1.974550 0.000000 
#    z 0.009410 0.000000 1.945040 
# 
# From -- ./inp_files/60261.got.cif
#   From: 2010.03.12/outbox.cif.g09.slc.cpg/sg14_31_cif.got.tgz:60261.got - 2010.03.31 13:35:05.
