data_PCOD8128952
_publ_section_title
;
Structure prediction by ZEFSAII (Michael W. Deem and Ramdas Pophale) SiO2 
 PCOD8128952
Probable space group: P 21/C
;
_chemical_formula_sum "Si O2"
_cell_formula_units_Z 28
_cell_length_a 10.707894
_cell_length_b 11.257502
_cell_length_c 10.355489
_cell_angle_alpha 90.000000
_cell_angle_beta 105.803463
_cell_angle_gamma 90.000000
_cell_volume 1201.109918
_symmetry_space_group_name_H-M "P 21/C"
_symmetry_group_IT_number 14
_symmetry_cell_setting 'monoclinic'
loop_
_space_group_symop_operation_xyz
x,y,z
-x,1/2+y,1/2-z
-x,-y,-z
x,1/2-y,1/2+z
loop_
_atom_site_type_symbol
_atom_site_label
_atom_site_fract_x
_atom_site_fract_y
_atom_site_fract_z
Si Si1 0.798985 0.918991 0.481552
Si Si2 0.426215 0.061583 0.760044
Si Si3 0.339215 0.197298 0.967580
Si Si4 0.956081 0.138101 0.588677
Si Si5 0.616326 0.322825 0.618447
Si Si6 0.700803 0.047801 0.905930
Si Si7 0.144143 0.782979 0.180914
O O1 0.659696 0.962669 0.389954
O O2 0.770810 0.799475 0.555700
O O3 0.893220 0.897333 0.384215
O O4 0.863639 0.022869 0.585259
O O5 0.579512 0.059604 0.771273
O O6 0.413626 0.958359 0.860212
O O7 0.373326 0.176057 0.826038
O O8 0.474574 0.242736 0.074143
O O9 0.281789 0.081217 0.024667
O O10 0.923240 0.200876 0.443908
O O11 0.942602 0.217618 0.713296
O O12 0.684217 0.338569 0.498493
O O13 0.711513 0.264521 0.747790
O O14 0.832973 0.082611 0.866259
#
# Coordination Sequence:
#
# PCOD8128952 Si02
#       7
#     4   4   4   4   4   4   4
#     4  11  23  45  58  94 123 173 209 273 306 367
#     4   9  18  36  64  89 131 164 201 263 327 371
#     4   9  20  36  64  96 124 167 205 262 317 394
#     4  11  28  41  68  84 131 170 220 258 317 365
#     4   9  17  36  64  92 129 166 201 253 330 374
#     4   9  19  36  63  99 124 162 210 254 324 390
#     4  12  21  44  62  94 122 173 210 266 304 386
#
# _framework density 23.311772999999999
#
# number of rings (size 3 to 8) (size 9 to 14) (size 15 to 20)
#    0.000    2.000    2.857    2.571    2.000    1.143 
#    2.571    5.000    0.000    0.000    0.000    0.000 
#    0.000    0.000    0.000    0.000    0.000    0.000 
#
# Total GULP energy -346928.507427 kJ/mol
# GULP energy per Si atom -12390.303837 kJ/mol
# Density = 2.325871 g / cm^3
# Si number density = 23.311773 Si / 1000 Ang^3
#
#
#
# Elastic Constant Matrix: (Units=GPa)
#
#
# Indices 1 2 3 4 5 6 
#
# 1 44.5750 19.1051 10.2746 0.0000 -8.2659 0.0000
# 2 19.1051 74.3575 14.0458 0.0000 -4.1334 0.0000
# 3 10.2746 14.0458 51.6602 0.0000 -5.9185 0.0000
# 4 0.0000 0.0000 0.0000 14.2029 0.0000 -6.0808
# 5 -8.2659 -4.1334 -5.9185 0.0000 28.8075 0.0000
# 6 0.0000 0.0000 0.0000 -6.0808 0.0000 34.6630
#
#
#
# Elastic Compliance Matrix: (Units=1/GPa)
#
#
# Indices 1 2 3 4 5 6 
#
# 1 0.026845 -0.005985 -0.002998 0.000000 0.006228 0.000000
# 2 -0.005985 0.015557 -0.003052 0.000000 -0.000112 0.000000
# 3 -0.002998 -0.003052 0.021132 0.000000 0.003043 0.000000
# 4 0.000000 0.000000 0.000000 0.076126 0.000000 0.013354
# 5 0.006228 -0.000112 0.003043 0.000000 0.037109 0.000000
# 6 0.000000 0.000000 0.000000 0.013354 0.000000 0.031192
#
#
# Mechanical properties :
#
#
# Convention : Reuss Voigt Hill
#
# Bulk Modulus (GPa) = 25.34023 28.60485 26.97254
# Shear Modulus (GPa) = 20.39263 24.01250 22.20257
#
# Velocity S-wave (km/s) = 2.96087 3.21293 3.08948
# Velocity P-wave (km/s) = 4.75213 5.10501 4.93173
#
# Compressibility (1/GPa) = 0.03946294
#
# Stress axis : x y z
#
# Youngs Moduli (GPa) = 37.25046 64.28143 47.32135
#
# Poissons Ratio (x) = 0.38472 0.14189
# Poissons Ratio (y) = 0.22294 0.14443
# Poissons Ratio (z) = 0.11169 0.19620
#
# Static dielectric constant tensor:
#      x y z
#    x 4.125300 0.000000 0.040480 
#    y 0.000000 4.038630 0.000000 
#    z 0.040480 0.000000 3.832990 
# 
# 
# High freq. dielectric constant tensor:
#      x y z
#    x 1.916550 0.000000 0.003910 
#    y 0.000000 1.909790 0.000000 
#    z 0.003910 0.000000 1.905520 
# 
# From -- ./inp_files/28688.got.cif
#   From: 2010.03.12/outbox.cif.g09.slc.cpg/sg14_15_cif.got.tgz:28688.got - 2010.03.31 13:35:05.
