data_PCOD8128858
_publ_section_title
;
Structure prediction by ZEFSAII (Michael W. Deem and Ramdas Pophale) SiO2 
 PCOD8128858
Probable space group: P 21/C
;
_chemical_formula_sum "Si O2"
_cell_formula_units_Z 28
_cell_length_a 16.092596
_cell_length_b 7.582805
_cell_length_c 23.131399
_cell_angle_alpha 90.000000
_cell_angle_beta 153.356111
_cell_angle_gamma 90.000000
_cell_volume 1265.802657
_symmetry_space_group_name_H-M "P 21/C"
_symmetry_group_IT_number 14
_symmetry_cell_setting 'monoclinic'
loop_
_space_group_symop_operation_xyz
x,y,z
-x,1/2+y,1/2-z
-x,-y,-z
x,1/2-y,1/2+z
loop_
_atom_site_type_symbol
_atom_site_label
_atom_site_fract_x
_atom_site_fract_y
_atom_site_fract_z
Si Si1 0.557451 0.792354 0.743135
Si Si2 0.153929 0.689894 0.453652
Si Si3 0.511867 0.670929 0.835316
Si Si4 0.900665 0.800476 0.390777
Si Si5 0.859769 0.302744 0.854124
Si Si6 0.964019 0.135196 0.801077
Si Si7 0.171858 0.467400 0.890482
O O1 0.348129 0.720630 0.606817
O O2 0.625429 0.754401 0.851522
O O3 0.683707 0.706702 0.771673
O O4 0.581773 0.998490 0.749437
O O5 0.974547 0.681936 0.384453
O O6 0.144995 0.494961 0.419019
O O7 0.118758 0.852052 0.389172
O O8 0.354737 0.804906 0.759449
O O9 0.638736 0.616721 0.968278
O O10 0.013570 0.727593 0.516033
O O11 0.938837 0.000617 0.394078
O O12 0.874444 0.182010 0.806776
O O13 0.016347 0.317964 0.802381
O O14 0.816883 0.024622 0.670093
#
# Coordination Sequence:
#
# PCOD8128858 Si02
#       7
#     4   4   4   4   4   4   4
#     4  11  24  39  67 100 139 177 223 284 351 417
#     4  11  24  44  69 102 136 176 235 285 342 414
#     4  11  24  41  63 102 139 175 231 284 347 416
#     4  11  23  42  64 106 144 172 231 287 344 425
#     4  11  24  40  68 100 140 184 224 287 351 406
#     4  12  24  44  72  92 134 191 232 280 346 398
#     4  11  25  44  67  99 134 181 238 281 331 413
#
# _framework density 22.120352
#
# number of rings (size 3 to 8) (size 9 to 14) (size 15 to 20)
#    0.000    0.857    4.286    2.571   10.000    1.714 
#    0.000    0.000    0.000    4.286    0.000    0.000 
#    0.000    0.000    0.000    0.000    0.000    0.000 
#
# Total GULP energy -347018.948973 kJ/mol
# GULP energy per Si atom -12393.533892 kJ/mol
# Density = 2.207000 g / cm^3
# Si number density = 22.120352 Si / 1000 Ang^3
#
#
#
# Elastic Constant Matrix: (Units=GPa)
#
#
# Indices 1 2 3 4 5 6 
#
# 1 99.2679 26.0978 45.8226 0.0000 -0.6248 0.0000
# 2 26.0978 57.0975 28.6043 0.0000 -10.2582 0.0000
# 3 45.8226 28.6043 84.5842 0.0000 -12.0113 0.0000
# 4 0.0000 0.0000 0.0000 37.8003 0.0000 -8.2124
# 5 -0.6248 -10.2582 -12.0113 0.0000 38.4799 0.0000
# 6 0.0000 0.0000 0.0000 -8.2124 0.0000 32.6004
#
#
#
# Elastic Compliance Matrix: (Units=1/GPa)
#
#
# Indices 1 2 3 4 5 6 
#
# 1 0.014163 -0.003540 -0.006882 0.000000 -0.002862 0.000000
# 2 -0.003540 0.022446 -0.005055 0.000000 0.004348 0.000000
# 3 -0.006882 -0.005055 0.017844 0.000000 0.004111 0.000000
# 4 0.000000 0.000000 0.000000 0.027986 0.000000 0.007050
# 5 -0.002862 0.004348 0.004111 0.000000 0.028383 0.000000
# 6 0.000000 0.000000 0.000000 0.007050 0.000000 0.032450
#
#
# Mechanical properties :
#
#
# Convention : Reuss Voigt Hill
#
# Bulk Modulus (GPa) = 42.55646 49.11099 45.83373
# Shear Modulus (GPa) = 27.46332 31.13779 29.30056
#
# Velocity S-wave (km/s) = 3.52737 3.75594 3.64345
# Velocity P-wave (km/s) = 5.98917 6.40776 6.20200
#
# Compressibility (1/GPa) = 0.02349820
#
# Stress axis : x y z
#
# Youngs Moduli (GPa) = 70.60543 44.55185 56.04093
#
# Poissons Ratio (x) = 0.15772 0.38567
# Poissons Ratio (y) = 0.24995 0.28331
# Poissons Ratio (z) = 0.48591 0.22522
#
# Static dielectric constant tensor:
#      x y z
#    x 3.943610 0.000000 -0.194320 
#    y 0.000000 4.157590 0.000000 
#    z -0.194320 0.000000 3.806500 
# 
# 
# High freq. dielectric constant tensor:
#      x y z
#    x 1.858890 0.000000 -0.012260 
#    y 0.000000 1.893070 0.000000 
#    z -0.012260 0.000000 1.852840 
# 
# From -- ./inp_files/43373.got.cif
#   From: 2010.03.12/outbox.cif.g09.slc.cpg/sg14_22_cif.got.tgz:43373.got - 2010.03.31 13:35:05.
