data_PCOD8128960
_publ_section_title
;
Structure prediction by ZEFSAII (Michael W. Deem and Ramdas Pophale) SiO2 
 PCOD8128960
Probable space group: P 21/C
;
_chemical_formula_sum "Si O2"
_cell_formula_units_Z 32
_cell_length_a 7.839277
_cell_length_b 29.840772
_cell_length_c 11.421729
_cell_angle_alpha 90.000000
_cell_angle_beta 35.102884
_cell_angle_gamma 90.000000
_cell_volume 1536.458486
_symmetry_space_group_name_H-M "P 21/C"
_symmetry_group_IT_number 14
_symmetry_cell_setting 'monoclinic'
loop_
_space_group_symop_operation_xyz
x,y,z
-x,1/2+y,1/2-z
-x,-y,-z
x,1/2-y,1/2+z
loop_
_atom_site_type_symbol
_atom_site_label
_atom_site_fract_x
_atom_site_fract_y
_atom_site_fract_z
Si Si1 0.309918 0.053192 0.375773
Si Si2 0.490167 0.630573 0.394062
Si Si3 0.656678 0.047855 0.665346
Si Si4 0.423572 0.918174 0.542654
Si Si5 0.892478 0.703363 0.535913
Si Si6 0.202184 0.386563 0.541596
Si Si7 0.147060 0.340750 0.205417
Si Si8 0.567690 0.794397 0.669070
O O1 0.509637 0.090405 0.199685
O O2 0.371455 0.054839 0.480426
O O3 0.966441 0.064660 0.544920
O O4 0.391865 0.004522 0.278267
O O5 0.722704 0.620653 0.365053
O O6 0.575723 0.677546 0.284751
O O7 0.162751 0.633053 0.632356
O O8 0.656467 0.052131 0.524767
O O9 0.398429 0.075328 0.871832
O O10 0.597534 0.874839 0.398433
O O11 0.133709 0.903194 0.776704
O O12 0.757454 0.659878 0.549229
O O13 0.875423 0.697997 0.685238
O O14 0.691756 0.745060 0.616249
O O15 0.234347 0.710129 0.305728
O O16 0.220055 0.319590 0.040086
#
# Coordination Sequence:
#
# PCOD8128960 Si02
#       8
#     4   4   4   4   4   4   4   4
#     4  11  24  47  68 100 142 174 231 283 337 409
#     4  11  25  44  67 101 133 180 222 275 342 400
#     4  11  26  45  68 103 136 182 225 283 344 398
#     4  12  22  46  70  97 134 181 227 275 337 400
#     4  11  26  42  65  98 130 171 226 273 336 406
#     4  12  25  43  68 100 134 176 229 275 338 409
#     4  11  23  45  69  91 137 175 216 280 335 396
#     4  11  26  44  66  98 131 174 223 278 336 404
#
# _framework density 20.827117999999999
#
# number of rings (size 3 to 8) (size 9 to 14) (size 15 to 20)
#    0.000    0.750    5.000    1.875    3.500    3.000 
#    2.250    0.000    0.000    0.000    0.000    0.000 
#    0.000    0.000    0.000    0.000    0.000    0.000 
#
# Total GULP energy -397001.414924 kJ/mol
# GULP energy per Si atom -12406.294216 kJ/mol
# Density = 2.077971 g / cm^3
# Si number density = 20.827118 Si / 1000 Ang^3
#
#
#
# Elastic Constant Matrix: (Units=GPa)
#
#
# Indices 1 2 3 4 5 6 
#
# 1 116.5735 16.2714 28.5130 0.0000 -0.1528 0.0000
# 2 16.2714 94.8582 37.7363 0.0000 -7.9710 0.0000
# 3 28.5130 37.7363 113.3991 0.0000 -9.8281 0.0000
# 4 0.0000 0.0000 0.0000 27.3642 0.0000 -4.2967
# 5 -0.1528 -7.9710 -9.8281 0.0000 31.5506 0.0000
# 6 0.0000 0.0000 0.0000 -4.2967 0.0000 28.7122
#
#
#
# Elastic Compliance Matrix: (Units=1/GPa)
#
#
# Indices 1 2 3 4 5 6 
#
# 1 0.009208 -0.000806 -0.002118 0.000000 -0.000819 0.000000
# 2 -0.000806 0.012328 -0.003731 0.000000 0.001948 0.000000
# 3 -0.002118 -0.003731 0.010802 0.000000 0.002412 0.000000
# 4 0.000000 0.000000 0.000000 0.037423 0.000000 0.005600
# 5 -0.000819 0.001948 0.002412 0.000000 0.032935 0.000000
# 6 0.000000 0.000000 0.000000 0.005600 0.000000 0.035666
#
#
# Mechanical properties :
#
#
# Convention : Reuss Voigt Hill
#
# Bulk Modulus (GPa) = 52.55397 54.43024 53.49211
# Shear Modulus (GPa) = 31.64268 33.67943 32.66105
#
# Velocity S-wave (km/s) = 3.90205 4.02567 3.96434
# Velocity P-wave (km/s) = 6.75200 6.91369 6.83333
#
# Compressibility (1/GPa) = 0.01902806
#
# Stress axis : x y z
#
# Youngs Moduli (GPa) = 108.60463 81.11442 92.57883
#
# Poissons Ratio (x) = 0.06535 0.19609
# Poissons Ratio (y) = 0.08750 0.34542
# Poissons Ratio (z) = 0.23003 0.30264
#
# Static dielectric constant tensor:
#      x y z
#    x 3.817080 0.000000 -0.048330 
#    y 0.000000 3.809400 0.000000 
#    z -0.048330 0.000000 3.786980 
# 
# 
# High freq. dielectric constant tensor:
#      x y z
#    x 1.824860 0.000000 -0.001610 
#    y 0.000000 1.818920 0.000000 
#    z -0.001610 0.000000 1.821800 
# 
# From -- ./inp_files/27142.got.cif
#   From: 2010.03.12/outbox.cif.g09.slc.cpg/sg14_14_cif.got.tgz:27142.got - 2010.03.31 13:35:05.
