data_PCOD8128733
_publ_section_title
;
Structure prediction by ZEFSAII (Michael W. Deem and Ramdas Pophale) SiO2 
 PCOD8128733
Probable space group: P 21/C
;
_chemical_formula_sum "Si O2"
_cell_formula_units_Z 32
_cell_length_a 13.306856
_cell_length_b 12.440808
_cell_length_c 22.305341
_cell_angle_alpha 90.000000
_cell_angle_beta 23.441377
_cell_angle_gamma 90.000000
_cell_volume 1468.957450
_symmetry_space_group_name_H-M "P 21/C"
_symmetry_group_IT_number 14
_symmetry_cell_setting 'monoclinic'
loop_
_space_group_symop_operation_xyz
x,y,z
-x,1/2+y,1/2-z
-x,-y,-z
x,1/2-y,1/2+z
loop_
_atom_site_type_symbol
_atom_site_label
_atom_site_fract_x
_atom_site_fract_y
_atom_site_fract_z
Si Si1 0.852522 0.333300 0.044558
Si Si2 0.202415 0.490348 0.247196
Si Si3 0.561735 0.978168 0.653497
Si Si4 0.284153 0.263867 0.139378
Si Si5 0.153362 0.790923 0.714492
Si Si6 0.299342 0.411911 0.731279
Si Si7 0.761699 0.095729 0.058806
Si Si8 0.083167 0.632287 0.857435
O O1 0.643328 0.399575 0.122346
O O2 0.864761 0.214332 0.012685
O O3 0.787018 0.337530 0.150509
O O4 0.124602 0.388012 0.884822
O O5 0.454356 0.523936 0.144907
O O6 0.237625 0.379582 0.193219
O O7 0.139912 0.580919 0.232046
O O8 0.990268 0.481347 0.414809
O O9 0.359899 0.946589 0.814003
O O10 0.790483 0.894345 0.528674
O O11 0.238916 0.169918 0.211648
O O12 0.074344 0.245948 0.203415
O O13 0.571858 0.255786 0.959531
O O14 0.108711 0.735999 0.802713
O O15 0.583398 0.403120 0.598188
O O16 0.233558 0.532522 0.745076
#
# Coordination Sequence:
#
# PCOD8128733 Si02
#       8
#     4   4   4   4   4   4   4   4
#     4  11  22  42  71 105 143 184 222 290 360 427
#     4  12  27  46  69 105 142 181 242 294 357 421
#     4  11  23  42  71 105 148 180 223 288 367 430
#     4  12  28  49  74 101 140 196 246 299 350 417
#     4  12  30  48  73 102 143 195 242 303 353 413
#     4  11  23  45  72 103 136 185 240 284 352 427
#     4  12  23  41  72 108 143 182 227 287 360 438
#     4  11  24  46  72 104 144 189 229 291 360 427
#
# _framework density 21.784155999999999
#
# number of rings (size 3 to 8) (size 9 to 14) (size 15 to 20)
#    0.000    0.500    3.750    4.500    7.000    1.500 
#    0.000    0.000    0.000    0.000    0.000    0.000 
#    0.000    0.000    0.000    0.000    0.000    0.000 
#
# Total GULP energy -396971.829371 kJ/mol
# GULP energy per Si atom -12405.369668 kJ/mol
# Density = 2.173457 g / cm^3
# Si number density = 21.784156 Si / 1000 Ang^3
#
#
#
# Elastic Constant Matrix: (Units=GPa)
#
#
# Indices 1 2 3 4 5 6 
#
# 1 89.8916 22.5082 24.8913 0.0000 -6.1826 0.0000
# 2 22.5082 62.0505 18.8512 0.0000 -1.1687 0.0000
# 3 24.8913 18.8512 89.2526 0.0000 -2.9018 0.0000
# 4 0.0000 0.0000 0.0000 27.5906 0.0000 7.5650
# 5 -6.1826 -1.1687 -2.9018 0.0000 35.6343 0.0000
# 6 0.0000 0.0000 0.0000 7.5650 0.0000 37.9716
#
#
#
# Elastic Compliance Matrix: (Units=1/GPa)
#
#
# Indices 1 2 3 4 5 6 
#
# 1 0.012977 -0.003837 -0.002747 0.000000 0.001902 0.000000
# 2 -0.003837 0.018358 -0.002817 0.000000 -0.000293 0.000000
# 3 -0.002747 -0.002817 0.012580 0.000000 0.000455 0.000000
# 4 0.000000 0.000000 0.000000 0.038338 0.000000 -0.007638
# 5 0.001902 -0.000293 0.000455 0.000000 0.028420 0.000000
# 6 0.000000 0.000000 0.000000 -0.007638 0.000000 0.027857
#
#
# Mechanical properties :
#
#
# Convention : Reuss Voigt Hill
#
# Bulk Modulus (GPa) = 39.81918 41.52177 40.67047
# Shear Modulus (GPa) = 30.17453 31.90224 31.03839
#
# Velocity S-wave (km/s) = 3.72581 3.83099 3.77877
# Velocity P-wave (km/s) = 6.06857 6.21857 6.14403
#
# Compressibility (1/GPa) = 0.02511352
#
# Stress axis : x y z
#
# Youngs Moduli (GPa) = 77.06164 54.47235 79.49152
#
# Poissons Ratio (x) = 0.20900 0.21835
# Poissons Ratio (y) = 0.29567 0.22392
# Poissons Ratio (z) = 0.21167 0.15344
#
# Static dielectric constant tensor:
#      x y z
#    x 3.917080 0.000000 -0.076320 
#    y 0.000000 4.038870 0.000000 
#    z -0.076320 0.000000 4.084030 
# 
# 
# High freq. dielectric constant tensor:
#      x y z
#    x 1.863470 0.000000 -0.003240 
#    y 0.000000 1.866310 0.000000 
#    z -0.003240 0.000000 1.861580 
# 
# From -- ./inp_files/67403.got.cif
#   From: 2010.03.12/outbox.cif.g09.slc.cpg/sg14_34_cif.got.tgz:67403.got - 2010.03.31 13:35:05.
