data_PCOD8128074
_publ_section_title
;
Structure prediction by ZEFSAII (Michael W. Deem and Ramdas Pophale) SiO2 
 PCOD8128074
Probable space group: P 21/C
;
_chemical_formula_sum "Si O2"
_cell_formula_units_Z 32
_cell_length_a 14.920249
_cell_length_b 12.501385
_cell_length_c 26.192828
_cell_angle_alpha 90.000000
_cell_angle_beta 160.772067
_cell_angle_gamma 90.000000
_cell_volume 1608.955182
_symmetry_space_group_name_H-M "P 21/C"
_symmetry_group_IT_number 14
_symmetry_cell_setting 'monoclinic'
loop_
_space_group_symop_operation_xyz
x,y,z
-x,1/2+y,1/2-z
-x,-y,-z
x,1/2-y,1/2+z
loop_
_atom_site_type_symbol
_atom_site_label
_atom_site_fract_x
_atom_site_fract_y
_atom_site_fract_z
Si Si1 0.431719 0.336253 0.352276
Si Si2 0.266796 0.923448 0.891858
Si Si3 0.801747 0.143337 0.532952
Si Si4 0.172240 0.749661 0.262935
Si Si5 0.234032 0.562446 0.871726
Si Si6 0.368710 0.530445 0.243740
Si Si7 0.746233 0.952644 0.426647
Si Si8 0.605786 0.758853 0.907540
O O1 0.603668 0.344661 0.496892
O O2 0.578567 0.236528 0.403607
O O3 0.463824 0.444256 0.336831
O O4 0.110601 0.313559 0.189570
O O5 0.159699 0.865676 0.783088
O O6 0.019625 0.990482 0.782627
O O7 0.500000 0.000000 0.000000
O O8 0.783672 0.089390 0.578337
O O9 0.712786 0.053633 0.445169
O O10 0.246477 0.829083 0.347703
O O11 0.389921 0.753513 0.335816
O O12 0.888677 0.779410 0.086472
O O13 0.500000 0.500000 0.000000
O O14 0.401107 0.477296 0.205918
O O15 0.552132 0.636537 0.344400
O O16 0.063477 0.571471 0.089274
O O17 0.602195 0.847377 0.371304
#
# Coordination Sequence:
#
# PCOD8128074 Si02
#       8
#     4   4   4   4   4   4   4   4
#     4  11  24  42  66  96 132 171 219 267 330 392
#     4  12  23  40  64  88 133 182 217 256 323 395
#     4  11  24  43  64  98 132 172 216 270 327 392
#     4  12  24  40  63  96 131 174 216 267 322 387
#     4  12  25  38  62  94 134 174 219 268 318 382
#     4  10  23  46  72  95 129 176 212 275 340 391
#     4  10  23  46  72  94 132 171 217 274 338 391
#     4  12  24  44  67 100 129 172 225 269 328 398
#
# _framework density 19.888684000000001
#
# number of rings (size 3 to 8) (size 9 to 14) (size 15 to 20)
#    0.000    0.750    3.750    4.500    3.500    0.000 
#    2.250    0.625    0.000    0.000    0.000    0.000 
#    0.000    0.000    0.000    0.000    0.000    0.000 
#
# Total GULP energy -396900.655017 kJ/mol
# GULP energy per Si atom -12403.145469 kJ/mol
# Density = 1.984342 g / cm^3
# Si number density = 19.888684 Si / 1000 Ang^3
#
#
#
# Elastic Constant Matrix: (Units=GPa)
#
#
# Indices 1 2 3 4 5 6 
#
# 1 359.7715 162.4887 184.4456 0.0000 131.0282 0.0000
# 2 162.4887 175.2061 117.4013 0.0000 66.7176 0.0000
# 3 184.4456 117.4013 192.7443 0.0000 83.5011 0.0000
# 4 0.0000 0.0000 0.0000 37.2673 0.0000 0.3124
# 5 131.0282 66.7176 83.5011 0.0000 103.9051 0.0000
# 6 0.0000 0.0000 0.0000 0.3124 0.0000 21.0505
#
#
#
# Elastic Compliance Matrix: (Units=1/GPa)
#
#
# Indices 1 2 3 4 5 6 
#
# 1 0.007686 -0.002935 -0.003352 0.000000 -0.005114 0.000000
# 2 -0.002935 0.011122 -0.003798 0.000000 -0.000389 0.000000
# 3 -0.003352 -0.003798 0.011999 0.000000 -0.002977 0.000000
# 4 0.000000 0.000000 0.000000 0.026837 0.000000 -0.000398
# 5 -0.005114 -0.000389 -0.002977 0.000000 0.018716 0.000000
# 6 0.000000 0.000000 0.000000 -0.000398 0.000000 0.047511
#
#
# Mechanical properties :
#
#
# Convention : Reuss Voigt Hill
#
# Bulk Modulus (GPa) = 94.00070 184.04367 139.02219
# Shear Modulus (GPa) = 33.87889 50.00366 41.94128
#
# Velocity S-wave (km/s) = 4.13174 5.01960 4.59715
# Velocity P-wave (km/s) = 8.37423 11.23979 9.91112
#
# Compressibility (1/GPa) = 0.01063822
#
# Stress axis : x y z
#
# Youngs Moduli (GPa) = 130.10620 89.91220 83.34078
#
# Poissons Ratio (x) = 0.26385 0.27936
# Poissons Ratio (y) = 0.38180 0.31651
# Poissons Ratio (z) = 0.43612 0.34147
#
# Static dielectric constant tensor:
#      x y z
#    x 2.793800 0.000000 0.552270 
#    y 0.000000 3.698380 0.000000 
#    z 0.552270 0.000000 3.317300 
# 
# 
# High freq. dielectric constant tensor:
#      x y z
#    x 1.781770 0.000000 -0.001210 
#    y 0.000000 1.790220 0.000000 
#    z -0.001210 0.000000 1.778730 
# 
# From -- ./inp_files/77584.got.cif
#   From: 2010.03.12/outbox.cif.g09.slc.cpg/sg14_39_cif.got.tgz:77584.got - 2010.03.31 13:35:05.
