data_PCOD8128051
_publ_section_title
;
Structure prediction by ZEFSAII (Michael W. Deem and Ramdas Pophale) SiO2 
 PCOD8128051
Probable space group: P 21/C
;
_chemical_formula_sum "Si O2"
_cell_formula_units_Z 28
_cell_length_a 7.466930
_cell_length_b 15.784923
_cell_length_c 14.353185
_cell_angle_alpha 90.000000
_cell_angle_beta 126.794816
_cell_angle_gamma 90.000000
_cell_volume 1354.718516
_symmetry_space_group_name_H-M "P 21/C"
_symmetry_group_IT_number 14
_symmetry_cell_setting 'monoclinic'
loop_
_space_group_symop_operation_xyz
x,y,z
-x,1/2+y,1/2-z
-x,-y,-z
x,1/2-y,1/2+z
loop_
_atom_site_type_symbol
_atom_site_label
_atom_site_fract_x
_atom_site_fract_y
_atom_site_fract_z
Si Si1 0.350594 0.817428 0.642864
Si Si2 0.149829 0.492665 0.674910
Si Si3 0.488773 0.373312 0.281019
Si Si4 0.605239 0.584475 0.076733
Si Si5 0.163006 0.333256 0.023941
Si Si6 0.292041 0.148630 0.099962
Si Si7 0.677648 0.570234 0.575123
O O1 0.388950 0.717328 0.670552
O O2 0.424405 0.851486 0.564752
O O3 0.488429 0.863678 0.767657
O O4 0.097770 0.850179 0.571333
O O5 0.321450 0.561126 0.688362
O O6 0.226183 0.443604 0.790780
O O7 0.115482 0.423265 0.580875
O O8 0.925667 0.536800 0.637540
O O9 0.294598 0.385758 0.143494
O O10 0.358264 0.391771 0.335030
O O11 0.500000 0.500000 0.000000
O O12 0.725830 0.644031 0.039303
O O13 0.178219 0.239009 0.070181
O O14 0.365188 0.141371 0.015699
O O15 0.500000 0.500000 0.500000
#
# Coordination Sequence:
#
# PCOD8128051 Si02
#       7
#     4   4   4   4   4   4   4
#     4  10  25  43  68  95 134 170 219 275 324 388
#     4  11  24  43  66  96 138 167 216 278 317 393
#     4  11  24  44  65 102 129 174 220 265 331 390
#     4  11  24  43  66  99 128 170 218 270 330 389
#     4  11  24  43  70  92 133 173 215 272 330 388
#     4  10  23  46  62  98 133 171 219 267 326 385
#     4  12  25  38  68  96 127 174 217 257 325 388
#
# _framework density 20.668502
#
# number of rings (size 3 to 8) (size 9 to 14) (size 15 to 20)
#    0.000    1.143    2.857    2.143    6.000    0.571 
#    0.000    4.286    0.000    0.000    0.000    0.000 
#    0.000    0.000    0.000    0.000    0.000    0.000 
#
# Total GULP energy -347041.016885 kJ/mol
# GULP energy per Si atom -12394.322032 kJ/mol
# Density = 2.062146 g / cm^3
# Si number density = 20.668502 Si / 1000 Ang^3
#
#
#
# Elastic Constant Matrix: (Units=GPa)
#
#
# Indices 1 2 3 4 5 6 
#
# 1 153.9520 35.3684 61.8779 0.0000 -5.6004 0.0000
# 2 35.3684 78.9992 18.1051 0.0000 -5.5551 0.0000
# 3 61.8779 18.1051 88.0481 0.0000 -17.2019 0.0000
# 4 0.0000 0.0000 0.0000 35.5197 0.0000 -11.4737
# 5 -5.6004 -5.5551 -17.2019 0.0000 38.2691 0.0000
# 6 0.0000 0.0000 0.0000 -11.4737 0.0000 26.7064
#
#
#
# Elastic Compliance Matrix: (Units=1/GPa)
#
#
# Indices 1 2 3 4 5 6 
#
# 1 0.009784 -0.002997 -0.006649 0.000000 -0.001992 0.000000
# 2 -0.002997 0.014223 -0.000549 0.000000 0.001379 0.000000
# 3 -0.006649 -0.000549 0.017472 0.000000 0.006801 0.000000
# 4 0.000000 0.000000 0.000000 0.032690 0.000000 0.014044
# 5 -0.001992 0.001379 0.006801 0.000000 0.029096 0.000000
# 6 0.000000 0.000000 0.000000 0.014044 0.000000 0.043478
#
#
# Mechanical properties :
#
#
# Convention : Reuss Voigt Hill
#
# Bulk Modulus (GPa) = 47.41797 61.30023 54.35910
# Shear Modulus (GPa) = 28.70899 33.80889 31.25894
#
# Velocity S-wave (km/s) = 3.73100 4.04885 3.89317
# Velocity P-wave (km/s) = 6.44612 7.18197 6.82397
#
# Compressibility (1/GPa) = 0.02108905
#
# Stress axis : x y z
#
# Youngs Moduli (GPa) = 102.20933 70.30968 57.23569
#
# Poissons Ratio (x) = 0.21069 0.38055
# Poissons Ratio (y) = 0.30628 0.03144
# Poissons Ratio (z) = 0.67957 0.03862
#
# Static dielectric constant tensor:
#      x y z
#    x 2.427940 0.000000 -0.051650 
#    y 0.000000 3.901910 0.000000 
#    z -0.051650 0.000000 4.109750 
# 
# 
# High freq. dielectric constant tensor:
#      x y z
#    x 1.809780 0.000000 -0.009130 
#    y 0.000000 1.819030 0.000000 
#    z -0.009130 0.000000 1.827860 
# 
# From -- ./inp_files/37739.got.cif
#   From: 2010.03.12/outbox.cif.g09.slc.cpg/sg14_19_cif.got.tgz:37739.got - 2010.03.31 13:35:05.
