data_PCOD8128759
_publ_section_title
;
Structure prediction by ZEFSAII (Michael W. Deem and Ramdas Pophale) SiO2 
 PCOD8128759
Probable space group: P 21/C
;
_chemical_formula_sum "Si O2"
_cell_formula_units_Z 28
_cell_length_a 5.288597
_cell_length_b 9.630796
_cell_length_c 27.443661
_cell_angle_alpha 90.000000
_cell_angle_beta 60.330121
_cell_angle_gamma 90.000000
_cell_volume 1214.536116
_symmetry_space_group_name_H-M "P 21/C"
_symmetry_group_IT_number 14
_symmetry_cell_setting 'monoclinic'
loop_
_space_group_symop_operation_xyz
x,y,z
-x,1/2+y,1/2-z
-x,-y,-z
x,1/2-y,1/2+z
loop_
_atom_site_type_symbol
_atom_site_label
_atom_site_fract_x
_atom_site_fract_y
_atom_site_fract_z
Si Si1 0.965221 0.754338 0.425023
Si Si2 0.977142 0.069304 0.910557
Si Si3 0.283317 0.861268 0.660511
Si Si4 0.695484 0.657055 0.268159
Si Si5 0.597890 0.709994 0.551499
Si Si6 0.376885 0.332630 0.136499
Si Si7 0.425258 0.354128 0.296361
O O1 0.770905 0.780776 0.491121
O O2 0.809288 0.832993 0.395249
O O3 0.011285 0.594304 0.408960
O O4 0.282967 0.813330 0.406031
O O5 0.168966 0.135341 0.935673
O O6 0.091112 0.123397 0.846685
O O7 0.634067 0.100111 0.948193
O O8 0.398094 0.829890 0.595084
O O9 0.436094 0.748516 0.678724
O O10 0.944378 0.845678 0.703582
O O11 0.353410 0.020460 0.666426
O O12 0.762528 0.710541 0.316203
O O13 0.561451 0.506278 0.283862
O O14 0.506903 0.783297 0.262528
#
# Coordination Sequence:
#
# PCOD8128759 Si02
#       7
#     4   4   4   4   4   4   4
#     4  12  26  46  71 108 145 191 240 295 354 423
#     4  11  22  44  73 108 141 186 241 293 360 420
#     4  11  27  44  70 103 142 193 235 294 361 427
#     4  12  25  46  72 104 142 188 237 298 358 429
#     4  11  24  45  75 104 145 190 240 297 354 424
#     4  12  29  44  73 104 149 185 239 292 362 424
#     4  11  25  43  74 101 144 182 241 293 359 429
#
# _framework density 23.054069999999999
#
# number of rings (size 3 to 8) (size 9 to 14) (size 15 to 20)
#    0.000    0.571    2.857    4.286    8.000    2.286 
#    0.000    0.000    0.000    0.000    0.000    0.000 
#    0.000    0.000    0.000    0.000    0.000    0.000 
#
# Total GULP energy -347008.520117 kJ/mol
# GULP energy per Si atom -12393.161433 kJ/mol
# Density = 2.300160 g / cm^3
# Si number density = 23.054070 Si / 1000 Ang^3
#
#
#
# Elastic Constant Matrix: (Units=GPa)
#
#
# Indices 1 2 3 4 5 6 
#
# 1 100.8349 18.6095 31.5432 0.0000 -2.6206 0.0000
# 2 18.6095 136.9596 45.3984 0.0000 1.2322 0.0000
# 3 31.5432 45.3984 125.6728 0.0000 -7.0393 0.0000
# 4 0.0000 0.0000 0.0000 42.1742 0.0000 -0.8601
# 5 -2.6206 1.2322 -7.0393 0.0000 30.8173 0.0000
# 6 0.0000 0.0000 0.0000 -0.8601 0.0000 18.1435
#
#
#
# Elastic Compliance Matrix: (Units=1/GPa)
#
#
# Indices 1 2 3 4 5 6 
#
# 1 0.010817 -0.000659 -0.002455 0.000000 0.000385 0.000000
# 2 -0.000659 0.008367 -0.002916 0.000000 -0.001057 0.000000
# 3 -0.002455 -0.002916 0.009746 0.000000 0.002134 0.000000
# 4 0.000000 0.000000 0.000000 0.023734 0.000000 0.001125
# 5 0.000385 -0.001057 0.002134 0.000000 0.033012 0.000000
# 6 0.000000 0.000000 0.000000 0.001125 0.000000 0.055170
#
#
# Mechanical properties :
#
#
# Convention : Reuss Voigt Hill
#
# Bulk Modulus (GPa) = 59.28097 61.61884 60.44990
# Shear Modulus (GPa) = 31.53964 36.08809 33.81386
#
# Velocity S-wave (km/s) = 3.70276 3.96076 3.83393
# Velocity P-wave (km/s) = 6.63704 6.90673 6.77322
#
# Compressibility (1/GPa) = 0.01686882
#
# Stress axis : x y z
#
# Youngs Moduli (GPa) = 92.44749 119.51443 102.60162
#
# Poissons Ratio (x) = 0.07881 0.25191
# Poissons Ratio (y) = 0.06096 0.29921
# Poissons Ratio (z) = 0.22698 0.34854
#
# Static dielectric constant tensor:
#      x y z
#    x 4.120520 0.000000 -0.241490 
#    y 0.000000 4.094340 0.000000 
#    z -0.241490 0.000000 5.444010 
# 
# 
# High freq. dielectric constant tensor:
#      x y z
#    x 1.906260 0.000000 -0.008760 
#    y 0.000000 1.922220 0.000000 
#    z -0.008760 0.000000 1.927890 
# 
# From -- ./inp_files/78760.got.cif
#   From: 2010.03.12/outbox.cif.g09.slc.cpg/sg14_40_cif.got.tgz:78760.got - 2010.03.31 13:35:05.
