data_PCOD8128667
_publ_section_title
;
Structure prediction by ZEFSAII (Michael W. Deem and Ramdas Pophale) SiO2 
 PCOD8128667
Probable space group: P 21/C
;
_chemical_formula_sum "Si O2"
_cell_formula_units_Z 32
_cell_length_a 9.393164
_cell_length_b 22.813673
_cell_length_c 13.598027
_cell_angle_alpha 90.000000
_cell_angle_beta 32.378001
_cell_angle_gamma 90.000000
_cell_volume 1560.431027
_symmetry_space_group_name_H-M "P 21/C"
_symmetry_group_IT_number 14
_symmetry_cell_setting 'monoclinic'
loop_
_space_group_symop_operation_xyz
x,y,z
-x,1/2+y,1/2-z
-x,-y,-z
x,1/2-y,1/2+z
loop_
_atom_site_type_symbol
_atom_site_label
_atom_site_fract_x
_atom_site_fract_y
_atom_site_fract_z
Si Si1 0.454791 0.708961 0.337870
Si Si2 0.079088 0.564766 0.801971
Si Si3 0.025584 0.562610 0.153892
Si Si4 0.165236 0.365716 0.557555
Si Si5 0.524783 0.455651 0.252413
Si Si6 0.370842 0.083337 0.293498
Si Si7 0.018552 0.757174 0.945228
Si Si8 0.336316 0.678095 0.617852
O O1 0.445488 0.640392 0.315606
O O2 0.223787 0.742880 0.415596
O O3 0.402684 0.716633 0.484194
O O4 0.733468 0.738979 0.151865
O O5 0.051760 0.502751 0.761929
O O6 0.258697 0.554701 0.791431
O O7 0.218100 0.614338 0.653333
O O8 0.798371 0.586659 0.007429
O O9 0.016395 0.605386 0.252236
O O10 0.813684 0.584033 0.196290
O O11 0.327093 0.561681 0.936039
O O12 0.269247 0.415262 0.420656
O O13 0.404232 0.329380 0.466826
O O14 0.984771 0.321233 0.601700
O O15 0.448452 0.524630 0.302902
O O16 0.109580 0.709890 0.812516
#
# Coordination Sequence:
#
# PCOD8128667 Si02
#       8
#     4   4   4   4   4   4   4   4
#     4  12  26  42  69  87 127 172 213 261 319 374
#     4   8  16  32  59  94 126 150 207 265 302 363
#     4   9  17  32  61  96 122 157 204 257 313 368
#     4  11  22  38  63  90 127 162 205 263 310 373
#     4   8  18  31  57  94 125 156 199 262 309 366
#     4   9  16  34  59  91 125 159 203 258 315 362
#     4  12  28  46  58  96 129 168 215 266 310 377
#     4  11  23  39  66  90 123 169 217 262 307 373
#
# _framework density 20.507152999999999
#
# number of rings (size 3 to 8) (size 9 to 14) (size 15 to 20)
#    0.000    2.000    3.750    1.500    3.500    2.500 
#    0.000    0.625    0.000    1.500    0.000    0.000 
#    0.000    0.000    0.000    0.000    0.000    0.000 
#
# Total GULP energy -396728.598727 kJ/mol
# GULP energy per Si atom -12397.768710 kJ/mol
# Density = 2.046048 g / cm^3
# Si number density = 20.507153 Si / 1000 Ang^3
#
#
#
# Elastic Constant Matrix: (Units=GPa)
#
#
# Indices 1 2 3 4 5 6 
#
# 1 53.5121 27.2668 38.0917 0.0000 -3.4408 0.0000
# 2 27.2668 90.2452 33.6877 0.0000 4.8250 0.0000
# 3 38.0917 33.6877 88.0072 0.0000 13.3993 0.0000
# 4 0.0000 0.0000 0.0000 35.4081 0.0000 2.6206
# 5 -3.4408 4.8250 13.3993 0.0000 18.7753 0.0000
# 6 0.0000 0.0000 0.0000 2.6206 0.0000 20.8248
#
#
#
# Elastic Compliance Matrix: (Units=1/GPa)
#
#
# Indices 1 2 3 4 5 6 
#
# 1 0.033448 -0.005414 -0.015202 0.000000 0.018370 0.000000
# 2 -0.005414 0.013805 -0.002524 0.000000 -0.002738 0.000000
# 3 -0.015202 -0.002524 0.021579 0.000000 -0.017537 0.000000
# 4 0.000000 0.000000 0.000000 0.028508 0.000000 -0.003587
# 5 0.018370 -0.002738 -0.017537 0.000000 0.069848 0.000000
# 6 0.000000 0.000000 0.000000 -0.003587 0.000000 0.048471
#
#
# Mechanical properties :
#
#
# Convention : Reuss Voigt Hill
#
# Bulk Modulus (GPa) = 44.34060 47.76188 46.05124
# Shear Modulus (GPa) = 18.55590 23.84954 21.20272
#
# Velocity S-wave (km/s) = 3.01134 3.41396 3.21895
# Velocity P-wave (km/s) = 5.81032 6.23547 6.02664
#
# Compressibility (1/GPa) = 0.02255269
#
# Stress axis : x y z
#
# Youngs Moduli (GPa) = 29.89693 72.43588 46.34156
#
# Poissons Ratio (x) = 0.39213 0.70448
# Poissons Ratio (y) = 0.16185 0.11699
# Poissons Ratio (z) = 0.45449 0.18286
#
# Static dielectric constant tensor:
#      x y z
#    x 3.140250 0.000000 0.111660 
#    y 0.000000 4.163180 0.000000 
#    z 0.111660 0.000000 3.946370 
# 
# 
# High freq. dielectric constant tensor:
#      x y z
#    x 1.741600 0.000000 0.008240 
#    y 0.000000 1.814740 0.000000 
#    z 0.008240 0.000000 1.810350 
# 
# From -- ./inp_files/27011.got.cif
#   From: 2010.03.12/outbox.cif.g09.slc.cpg/sg14_14_cif.got.tgz:27011.got - 2010.03.31 13:35:05.
