data_PCOD8128723
_publ_section_title
;
Structure prediction by ZEFSAII (Michael W. Deem and Ramdas Pophale) SiO2 
 PCOD8128723
Probable space group: P 21/C
;
_chemical_formula_sum "Si O2"
_cell_formula_units_Z 20
_cell_length_a 24.982838
_cell_length_b 7.397377
_cell_length_c 15.440934
_cell_angle_alpha 90.000000
_cell_angle_beta 160.069028
_cell_angle_gamma 90.000000
_cell_volume 972.757374
_symmetry_space_group_name_H-M "P 21/C"
_symmetry_group_IT_number 14
_symmetry_cell_setting 'monoclinic'
loop_
_space_group_symop_operation_xyz
x,y,z
-x,1/2+y,1/2-z
-x,-y,-z
x,1/2-y,1/2+z
loop_
_atom_site_type_symbol
_atom_site_label
_atom_site_fract_x
_atom_site_fract_y
_atom_site_fract_z
Si Si1 0.852671 0.704616 0.270808
Si Si2 0.679356 0.456228 0.577445
Si Si3 0.644558 0.383556 0.903735
Si Si4 0.979653 0.138539 0.628537
Si Si5 0.075688 0.755579 0.265454
O O1 0.947825 0.709042 0.324419
O O2 0.974766 0.660675 0.533257
O O3 0.771144 0.898444 0.159047
O O4 0.725021 0.547157 0.078079
O O5 0.526578 0.549954 0.387715
O O6 0.627149 0.288015 0.439763
O O7 0.794472 0.389402 0.828659
O O8 0.746739 0.329726 0.974679
O O9 0.002208 0.194204 0.761996
O O10 0.079216 0.959211 0.762440
#
# Coordination Sequence:
#
# PCOD8128723 Si02
#       5
#     4   4   4   4   4
#     4  11  22  42  68  91 122 169 214 261 314 365
#     4  11  23  40  64  93 130 165 209 258 315 373
#     4  12  22  40  67  91 127 172 206 257 320 369
#     4  11  23  42  64  98 127 161 215 264 305 378
#     4  11  23  39  66  95 126 164 214 259 312 370
#
# _framework density 20.560112
#
# number of rings (size 3 to 8) (size 9 to 14) (size 15 to 20)
#    0.000    0.800    6.000    3.000    2.800    0.800 
#    0.000    0.000    0.000    6.000    0.000    0.000 
#    0.000    0.000    0.000    0.000    0.000    0.000 
#
# Total GULP energy -248037.729011 kJ/mol
# GULP energy per Si atom -12401.886451 kJ/mol
# Density = 2.051332 g / cm^3
# Si number density = 20.560112 Si / 1000 Ang^3
#
#
#
# Elastic Constant Matrix: (Units=GPa)
#
#
# Indices 1 2 3 4 5 6 
#
# 1 123.5155 10.3025 49.1614 0.0000 0.2773 0.0000
# 2 10.3025 65.5887 25.1680 0.0000 9.5648 0.0000
# 3 49.1614 25.1680 98.5567 0.0000 22.9876 0.0000
# 4 0.0000 0.0000 0.0000 34.2134 0.0000 3.4179
# 5 0.2773 9.5648 22.9876 0.0000 26.9179 0.0000
# 6 0.0000 0.0000 0.0000 3.4179 0.0000 24.5611
#
#
#
# Elastic Compliance Matrix: (Units=1/GPa)
#
#
# Indices 1 2 3 4 5 6 
#
# 1 0.010732 0.000061 -0.006665 0.000000 0.005560 0.000000
# 2 0.000061 0.017086 -0.003718 0.000000 -0.002897 0.000000
# 3 -0.006665 -0.003718 0.017603 0.000000 -0.013643 0.000000
# 4 0.000000 0.000000 0.000000 0.029640 0.000000 -0.004125
# 5 0.005560 -0.002897 -0.013643 0.000000 0.049773 0.000000
# 6 0.000000 0.000000 0.000000 -0.004125 0.000000 0.041289
#
#
# Mechanical properties :
#
#
# Convention : Reuss Voigt Hill
#
# Bulk Modulus (GPa) = 40.36215 50.76941 45.56578
# Shear Modulus (GPa) = 25.63765 30.67376 28.15570
#
# Velocity S-wave (km/s) = 3.53506 3.86671 3.70460
# Velocity P-wave (km/s) = 6.02795 6.68446 6.36467
#
# Compressibility (1/GPa) = 0.02477569
#
# Stress axis : x y z
#
# Youngs Moduli (GPa) = 93.18331 58.52723 56.80904
#
# Poissons Ratio (x) = -0.00358 0.37866
# Poissons Ratio (y) = -0.00571 0.21122
# Poissons Ratio (z) = 0.62111 0.21761
#
# Static dielectric constant tensor:
#      x y z
#    x 3.588650 0.000000 0.171990 
#    y 0.000000 3.903300 0.000000 
#    z 0.171990 0.000000 3.788150 
# 
# 
# High freq. dielectric constant tensor:
#      x y z
#    x 1.787030 0.000000 0.015080 
#    y 0.000000 1.829330 0.000000 
#    z 0.015080 0.000000 1.793700 
# 
# From -- ./inp_files/42736.got.cif
#   From: 2010.03.12/outbox.cif.g09.slc.cpg/sg14_22_cif.got.tgz:42736.got - 2010.03.31 13:35:05.
