data_PCOD8128735
_publ_section_title
;
Structure prediction by ZEFSAII (Michael W. Deem and Ramdas Pophale) SiO2 
 PCOD8128735
Probable space group: P 21/C
;
_chemical_formula_sum "Si O2"
_cell_formula_units_Z 20
_cell_length_a 9.866879
_cell_length_b 4.859370
_cell_length_c 17.439089
_cell_angle_alpha 90.000000
_cell_angle_beta 106.361587
_cell_angle_gamma 90.000000
_cell_volume 802.287312
_symmetry_space_group_name_H-M "P 21/C"
_symmetry_group_IT_number 14
_symmetry_cell_setting 'monoclinic'
loop_
_space_group_symop_operation_xyz
x,y,z
-x,1/2+y,1/2-z
-x,-y,-z
x,1/2-y,1/2+z
loop_
_atom_site_type_symbol
_atom_site_label
_atom_site_fract_x
_atom_site_fract_y
_atom_site_fract_z
Si Si1 0.480636 0.755148 0.437631
Si Si2 0.145355 0.633064 0.997611
Si Si3 0.650159 0.423555 0.359301
Si Si4 0.233191 0.120051 0.920531
Si Si5 0.650827 0.868092 0.698230
O O1 0.372458 0.855042 0.354239
O O2 0.500000 0.000000 0.500000
O O3 0.765881 0.215295 0.412732
O O4 0.625899 0.666595 0.417320
O O5 0.120547 0.901315 0.937381
O O6 0.229192 0.413738 0.960909
O O7 0.000000 0.500000 0.000000
O O8 0.393564 0.497071 0.463552
O O9 0.501059 0.279814 0.317237
O O10 0.712725 0.554494 0.291210
O O11 0.232531 0.176634 0.828169
#
# Coordination Sequence:
#
# PCOD8128735 Si02
#       5
#     4   4   4   4   4
#     4  11  22  42  73 113 153 189 238 314 386 459
#     4  12  27  49  76 107 148 206 266 307 357 457
#     4  11  25  40  74 117 152 193 245 310 397 447
#     4  11  25  47  72 108 148 198 252 305 378 445
#     4  11  22  42  72 113 157 185 239 324 394 449
#
# _framework density 24.928723000000002
#
# number of rings (size 3 to 8) (size 9 to 14) (size 15 to 20)
#    0.000    0.800    4.000    3.000    2.800    5.600 
#    0.000    0.000    4.400    0.000    0.000    0.000 
#    0.000    0.000    0.000    0.000    0.000    0.000 
#
# Total GULP energy -247912.192117 kJ/mol
# GULP energy per Si atom -12395.609606 kJ/mol
# Density = 2.487198 g / cm^3
# Si number density = 24.928723 Si / 1000 Ang^3
#
#
#
# Elastic Constant Matrix: (Units=GPa)
#
#
# Indices 1 2 3 4 5 6 
#
# 1 115.4593 44.3408 75.3842 0.0000 -29.9153 0.0000
# 2 44.3408 159.4976 88.4531 0.0000 -27.8875 0.0000
# 3 75.3842 88.4531 172.2507 0.0000 -56.2675 0.0000
# 4 0.0000 0.0000 0.0000 36.4436 0.0000 -10.8093
# 5 -29.9153 -27.8875 -56.2675 0.0000 38.3941 0.0000
# 6 0.0000 0.0000 0.0000 -10.8093 0.0000 54.2871
#
#
#
# Elastic Compliance Matrix: (Units=1/GPa)
#
#
# Indices 1 2 3 4 5 6 
#
# 1 0.012382 -0.000640 -0.004010 0.000000 0.003305 0.000000
# 2 -0.000640 0.008803 -0.004440 0.000000 -0.000612 0.000000
# 3 -0.004010 -0.004440 0.014899 0.000000 0.015485 0.000000
# 4 0.000000 0.000000 0.000000 0.029162 0.000000 0.005807
# 5 0.003305 -0.000612 0.015485 0.000000 0.050870 0.000000
# 6 0.000000 0.000000 0.000000 0.005807 0.000000 0.019577
#
#
# Mechanical properties :
#
#
# Convention : Reuss Voigt Hill
#
# Bulk Modulus (GPa) = 55.85888 95.95153 75.90520
# Shear Modulus (GPa) = 31.28091 41.76023 36.52057
#
# Velocity S-wave (km/s) = 3.54618 4.09734 3.83168
# Velocity P-wave (km/s) = 6.26285 7.80757 7.07748
#
# Compressibility (1/GPa) = 0.01790226
#
# Stress axis : x y z
#
# Youngs Moduli (GPa) = 80.76470 113.59624 67.11814
#
# Poissons Ratio (x) = 0.07273 0.26917
# Poissons Ratio (y) = 0.05171 0.29802
# Poissons Ratio (z) = 0.32389 0.50439
#
# Static dielectric constant tensor:
#      x y z
#    x 4.386090 0.000000 -0.633790 
#    y 0.000000 5.531150 0.000000 
#    z -0.633790 0.000000 4.768430 
# 
# 
# High freq. dielectric constant tensor:
#      x y z
#    x 1.960210 0.000000 -0.048650 
#    y 0.000000 2.028030 0.000000 
#    z -0.048650 0.000000 1.988340 
# 
# From -- ./inp_files/64036.got.cif
#   From: 2010.03.12/outbox.cif.g09.slc.cpg/sg14_33_cif.got.tgz:64036.got - 2010.03.31 13:35:05.
