data_PCOD8128344
_publ_section_title
;
Structure prediction by ZEFSAII (Michael W. Deem and Ramdas Pophale) SiO2 
 PCOD8128344
Probable space group: P 21/C
;
_chemical_formula_sum "Si O2"
_cell_formula_units_Z 16
_cell_length_a 13.510629
_cell_length_b 8.814387
_cell_length_c 14.876275
_cell_angle_alpha 90.000000
_cell_angle_beta 159.875991
_cell_angle_gamma 90.000000
_cell_volume 609.519292
_symmetry_space_group_name_H-M "P 21/C"
_symmetry_group_IT_number 14
_symmetry_cell_setting 'monoclinic'
loop_
_space_group_symop_operation_xyz
x,y,z
-x,1/2+y,1/2-z
-x,-y,-z
x,1/2-y,1/2+z
loop_
_atom_site_type_symbol
_atom_site_label
_atom_site_fract_x
_atom_site_fract_y
_atom_site_fract_z
Si Si1 0.066118 0.849772 0.111311
Si Si2 0.528005 0.875700 0.946915
Si Si3 0.356745 0.129371 0.684511
Si Si4 0.959216 0.229311 0.716452
O O1 0.363673 0.778524 0.329754
O O2 0.094305 0.883039 0.243012
O O3 0.805317 0.727746 0.875095
O O4 0.000000 0.000000 0.000000
O O5 0.865655 0.846733 0.216063
O O6 0.500000 0.000000 0.000000
O O7 0.390688 0.953767 0.740681
O O8 0.166905 0.134204 0.431721
O O9 0.667462 0.202188 0.929059
#
# Coordination Sequence:
#
# PCOD8128344 Si02
#       4
#     4   4   4   4
#     4  10  25  45  72 111 148 196 252 319 383 457
#     4  12  24  49  79 109 154 207 258 314 400 471
#     4  10  24  48  68 108 145 196 250 311 387 449
#     4  10  26  44  73 107 147 189 255 314 374 457
#
# _framework density 26.250192999999999
#
# number of rings (size 3 to 8) (size 9 to 14) (size 15 to 20)
#    1.500    0.000    2.500    0.750    3.500    9.000 
#    0.000    0.000    0.000    0.000    0.000    0.000 
#    0.000    0.000    0.000    0.000    0.000    0.000 
#
# Total GULP energy -198312.869831 kJ/mol
# GULP energy per Si atom -12394.554364 kJ/mol
# Density = 2.619045 g / cm^3
# Si number density = 26.250193 Si / 1000 Ang^3
#
#
#
# Elastic Constant Matrix: (Units=GPa)
#
#
# Indices 1 2 3 4 5 6 
#
# 1 113.7171 40.0216 25.9285 0.0000 43.8301 0.0000
# 2 40.0216 93.0456 22.5742 0.0000 23.1205 0.0000
# 3 25.9285 22.5742 126.1092 0.0000 32.0818 0.0000
# 4 0.0000 0.0000 0.0000 37.8223 0.0000 1.3879
# 5 43.8301 23.1205 32.0818 0.0000 44.7517 0.0000
# 6 0.0000 0.0000 0.0000 1.3879 0.0000 35.8920
#
#
#
# Elastic Compliance Matrix: (Units=1/GPa)
#
#
# Indices 1 2 3 4 5 6 
#
# 1 0.015011 -0.003290 0.000991 0.000000 -0.013713 0.000000
# 2 -0.003290 0.013105 -0.000938 0.000000 -0.002876 0.000000
# 3 0.000991 -0.000938 0.009806 0.000000 -0.007516 0.000000
# 4 0.000000 0.000000 0.000000 0.026477 0.000000 -0.001024
# 5 -0.013713 -0.002876 -0.007516 0.000000 0.042649 0.000000
# 6 0.000000 0.000000 0.000000 -0.001024 0.000000 0.027901
#
#
# Mechanical properties :
#
#
# Convention : Reuss Voigt Hill
#
# Bulk Modulus (GPa) = 31.79818 56.65784 44.22801
# Shear Modulus (GPa) = 32.91553 39.98303 36.44928
#
# Velocity S-wave (km/s) = 3.54491 3.90699 3.73035
# Velocity P-wave (km/s) = 5.37540 6.47946 5.95308
#
# Compressibility (1/GPa) = 0.03144834
#
# Stress axis : x y z
#
# Youngs Moduli (GPa) = 66.61884 76.30911 101.98147
#
# Poissons Ratio (x) = 0.25103 -0.10106
# Poissons Ratio (y) = 0.21915 0.09563
# Poissons Ratio (z) = -0.06602 0.07156
#
# Static dielectric constant tensor:
#      x y z
#    x 4.807510 0.000000 0.317720 
#    y 0.000000 4.952840 0.000000 
#    z 0.317720 0.000000 4.962190 
# 
# 
# High freq. dielectric constant tensor:
#      x y z
#    x 2.051140 0.000000 0.012200 
#    y 0.000000 2.031300 0.000000 
#    z 0.012200 0.000000 2.060460 
# 
# From -- ./inp_files/36646.got.cif
#   From: 2010.03.12/outbox.cif.g09.slc.cpg/sg14_19_cif.got.tgz:36646.got - 2010.03.31 13:35:05.
