data_PCOD8128651
_publ_section_title
;
Structure prediction by ZEFSAII (Michael W. Deem and Ramdas Pophale) SiO2 
 PCOD8128651
Probable space group: P 21/C
;
_chemical_formula_sum "Si O2"
_cell_formula_units_Z 24
_cell_length_a 14.051527
_cell_length_b 11.518017
_cell_length_c 17.611428
_cell_angle_alpha 90.000000
_cell_angle_beta 26.571117
_cell_angle_gamma 90.000000
_cell_volume 1274.978176
_symmetry_space_group_name_H-M "P 21/C"
_symmetry_group_IT_number 14
_symmetry_cell_setting 'monoclinic'
loop_
_space_group_symop_operation_xyz
x,y,z
-x,1/2+y,1/2-z
-x,-y,-z
x,1/2-y,1/2+z
loop_
_atom_site_type_symbol
_atom_site_label
_atom_site_fract_x
_atom_site_fract_y
_atom_site_fract_z
Si Si1 0.767554 0.547258 0.648716
Si Si2 0.238133 0.347218 0.510086
Si Si3 0.736801 0.536064 0.350038
Si Si4 0.459520 0.674524 0.136771
Si Si5 0.821046 0.211466 0.776065
Si Si6 0.629605 0.735065 0.863925
O O1 0.737657 0.578314 0.582833
O O2 0.590232 0.451446 0.794643
O O3 0.729200 0.661552 0.725760
O O4 0.000000 0.500000 0.500000
O O5 0.242087 0.437182 0.576121
O O6 0.431207 0.254723 0.377193
O O7 0.015943 0.280143 0.671609
O O8 0.500000 0.500000 0.500000
O O9 0.884824 0.425498 0.223689
O O10 0.782477 0.652067 0.267677
O O11 0.242632 0.737669 0.261713
O O12 0.622848 0.662399 0.948460
O O13 0.615543 0.226363 0.978901
#
# Coordination Sequence:
#
# PCOD8128651 Si02
#       6
#     4   4   4   4   4   4
#     4  12  22  38  61  89 129 158 198 253 300 352
#     4  11  22  36  62  95 114 162 200 244 316 343
#     4   9  18  39  62  81 117 156 201 247 286 359
#     4   9  21  40  58  84 124 154 204 248 286 363
#     4   9  19  39  63  83 117 156 204 245 293 354
#     4   8  19  37  61  82 115 160 198 240 298 349
#
# _framework density 18.823851999999999
#
# number of rings (size 3 to 8) (size 9 to 14) (size 15 to 20)
#    1.000    1.333    3.333    0.500    0.000    6.667 
#    0.000    2.500    0.000    0.000    0.000    0.000 
#    0.000    0.000    0.000    0.000    0.000    0.000 
#
# Total GULP energy -297371.167077 kJ/mol
# GULP energy per Si atom -12390.465295 kJ/mol
# Density = 1.878101 g / cm^3
# Si number density = 18.823852 Si / 1000 Ang^3
#
#
#
# Elastic Constant Matrix: (Units=GPa)
#
#
# Indices 1 2 3 4 5 6 
#
# 1 134.5290 63.1655 32.7714 0.0000 4.2937 0.0000
# 2 63.1655 141.4293 43.9893 0.0000 16.8549 0.0000
# 3 32.7714 43.9893 38.8783 0.0000 -0.5311 0.0000
# 4 0.0000 0.0000 0.0000 23.3573 0.0000 -0.9825
# 5 4.2937 16.8549 -0.5311 0.0000 23.1903 0.0000
# 6 0.0000 0.0000 0.0000 -0.9825 0.0000 42.5197
#
#
#
# Elastic Compliance Matrix: (Units=1/GPa)
#
#
# Indices 1 2 3 4 5 6 
#
# 1 0.010052 -0.002883 -0.005210 0.000000 0.000115 0.000000
# 2 -0.002883 0.013563 -0.013048 0.000000 -0.009623 0.000000
# 3 -0.005210 -0.013048 0.045033 0.000000 0.011479 0.000000
# 4 0.000000 0.000000 0.000000 0.042855 0.000000 0.000990
# 5 0.000115 -0.009623 0.011479 0.000000 0.050357 0.000000
# 6 0.000000 0.000000 0.000000 0.000990 0.000000 0.023541
#
#
# Mechanical properties :
#
#
# Convention : Reuss Voigt Hill
#
# Bulk Modulus (GPa) = 37.92585 66.07655 52.00120
# Shear Modulus (GPa) = 21.14407 29.47416 25.30912
#
# Velocity S-wave (km/s) = 3.35514 3.96130 3.67075
# Velocity P-wave (km/s) = 5.93303 7.49008 6.75656
#
# Compressibility (1/GPa) = 0.02636724
#
# Stress axis : x y z
#
# Youngs Moduli (GPa) = 99.47858 73.72801 22.20593
#
# Poissons Ratio (x) = 0.21254 0.11569
# Poissons Ratio (y) = 0.28678 0.28974
# Poissons Ratio (z) = 0.51829 0.96200
#
# Static dielectric constant tensor:
#      x y z
#    x 3.419280 0.000000 -0.071420 
#    y 0.000000 3.416120 0.000000 
#    z -0.071420 0.000000 3.035660 
# 
# 
# High freq. dielectric constant tensor:
#      x y z
#    x 1.731500 0.000000 -0.007110 
#    y 0.000000 1.747390 0.000000 
#    z -0.007110 0.000000 1.687620 
# 
# From -- ./inp_files/44247.got.cif
#   From: 2010.03.12/outbox.cif.g09.slc.cpg/sg14_23_cif.got.tgz:44247.got - 2010.03.31 13:35:05.
