data_PCOD8128381
_publ_section_title
;
Structure prediction by ZEFSAII (Michael W. Deem and Ramdas Pophale) SiO2 
 PCOD8128381
Probable space group: P 21/C
;
_chemical_formula_sum "Si O2"
_cell_formula_units_Z 20
_cell_length_a 12.106296
_cell_length_b 9.361413
_cell_length_c 11.312198
_cell_angle_alpha 90.000000
_cell_angle_beta 44.502226
_cell_angle_gamma 90.000000
_cell_volume 898.625341
_symmetry_space_group_name_H-M "P 21/C"
_symmetry_group_IT_number 14
_symmetry_cell_setting 'monoclinic'
loop_
_space_group_symop_operation_xyz
x,y,z
-x,1/2+y,1/2-z
-x,-y,-z
x,1/2-y,1/2+z
loop_
_atom_site_type_symbol
_atom_site_label
_atom_site_fract_x
_atom_site_fract_y
_atom_site_fract_z
Si Si1 0.829118 0.835544 0.581393
Si Si2 0.672696 0.329096 0.853365
Si Si3 0.146022 0.947705 0.234343
Si Si4 0.571668 0.540274 0.113207
Si Si5 0.766849 0.521847 0.589297
O O1 0.832055 0.666415 0.597494
O O2 0.978444 0.879807 0.390341
O O3 0.827215 0.909557 0.710599
O O4 0.671181 0.875992 0.632952
O O5 0.714662 0.164824 0.843500
O O6 0.494290 0.348066 0.936716
O O7 0.796704 0.396725 0.663825
O O8 0.679185 0.416884 0.971457
O O9 0.142166 0.987613 0.100206
O O10 0.421511 0.466567 0.292249
#
# Coordination Sequence:
#
# PCOD8128381 Si02
#       5
#     4   4   4   4   4
#     4  11  27  44  65 106 133 177 230 273 341 404
#     4   9  23  44  68 100 132 177 224 283 332 391
#     4  11  27  44  71  98 143 177 221 282 338 406
#     4   9  23  44  71  96 137 174 226 286 320 410
#     4  10  25  44  71  96 132 185 219 280 336 397
#
# _framework density 22.256216999999999
#
# number of rings (size 3 to 8) (size 9 to 14) (size 15 to 20)
#    1.200    0.800    0.000    0.000   14.000    3.200 
#    0.000    0.000    0.000    0.000    0.000    0.000 
#    0.000    0.000    0.000    0.000    0.000    0.000 
#
# Total GULP energy -247960.934825 kJ/mol
# GULP energy per Si atom -12398.046741 kJ/mol
# Density = 2.220556 g / cm^3
# Si number density = 22.256217 Si / 1000 Ang^3
#
#
#
# Elastic Constant Matrix: (Units=GPa)
#
#
# Indices 1 2 3 4 5 6 
#
# 1 29.0282 19.5671 -10.6676 0.0000 -7.8717 0.0000
# 2 19.5671 116.0442 30.5471 0.0000 5.9878 0.0000
# 3 -10.6676 30.5471 85.9470 0.0000 14.6847 0.0000
# 4 0.0000 0.0000 0.0000 29.6700 0.0000 -2.6931
# 5 -7.8717 5.9878 14.6847 0.0000 29.7917 0.0000
# 6 0.0000 0.0000 0.0000 -2.6931 0.0000 23.0064
#
#
#
# Elastic Compliance Matrix: (Units=1/GPa)
#
#
# Indices 1 2 3 4 5 6 
#
# 1 0.047396 -0.010604 0.007805 0.000000 0.010807 0.000000
# 2 -0.010604 0.011881 -0.005080 0.000000 -0.002686 0.000000
# 3 0.007805 -0.005080 0.015159 0.000000 -0.004389 0.000000
# 4 0.000000 0.000000 0.000000 0.034066 0.000000 0.003988
# 5 0.010807 -0.002686 -0.004389 0.000000 0.039125 0.000000
# 6 0.000000 0.000000 0.000000 0.003988 0.000000 0.043933
#
#
# Mechanical properties :
#
#
# Convention : Reuss Voigt Hill
#
# Bulk Modulus (GPa) = 17.04204 34.43475 25.73839
# Shear Modulus (GPa) = 22.03825 29.26514 25.65169
#
# Velocity S-wave (km/s) = 3.15017 3.63012 3.39863
# Velocity P-wave (km/s) = 4.57223 5.75116 5.19524
#
# Compressibility (1/GPa) = 0.05867843
#
# Stress axis : x y z
#
# Youngs Moduli (GPa) = 21.09882 84.16598 65.96633
#
# Poissons Ratio (x) = 0.89250 -0.51487
# Poissons Ratio (y) = 0.22373 0.33511
# Poissons Ratio (z) = -0.16468 0.42757
#
# Static dielectric constant tensor:
#      x y z
#    x 3.669660 0.000000 -0.005690 
#    y 0.000000 3.951710 0.000000 
#    z -0.005690 0.000000 3.989120 
# 
# 
# High freq. dielectric constant tensor:
#      x y z
#    x 1.860060 0.000000 0.001700 
#    y 0.000000 1.869800 0.000000 
#    z 0.001700 0.000000 1.882980 
# 
# From -- ./inp_files/27949.got.cif
#   From: 2010.03.12/outbox.cif.g09.slc.cpg/sg14_14_cif.got.tgz:27949.got - 2010.03.31 13:35:05.
