data_PCOD8128805
_publ_section_title
;
Structure prediction by ZEFSAII (Michael W. Deem and Ramdas Pophale) SiO2 
 PCOD8128805
Probable space group: P 21/C
;
_chemical_formula_sum "Si O2"
_cell_formula_units_Z 20
_cell_length_a 15.558702
_cell_length_b 9.216688
_cell_length_c 14.888801
_cell_angle_alpha 90.000000
_cell_angle_beta 150.983098
_cell_angle_gamma 90.000000
_cell_volume 1035.643416
_symmetry_space_group_name_H-M "P 21/C"
_symmetry_group_IT_number 14
_symmetry_cell_setting 'monoclinic'
loop_
_space_group_symop_operation_xyz
x,y,z
-x,1/2+y,1/2-z
-x,-y,-z
x,1/2-y,1/2+z
loop_
_atom_site_type_symbol
_atom_site_label
_atom_site_fract_x
_atom_site_fract_y
_atom_site_fract_z
Si Si1 0.651107 0.437619 0.235702
Si Si2 0.836103 0.820104 0.130259
Si Si3 0.660697 0.797320 0.637955
Si Si4 0.818838 0.354592 0.558728
Si Si5 0.551420 0.779593 0.725169
O O1 0.727615 0.537590 0.223721
O O2 0.807328 0.370697 0.439518
O O3 0.535851 0.545808 0.195675
O O4 0.529300 0.309490 0.085934
O O5 0.798919 0.783704 0.200687
O O6 0.021559 0.750960 0.270005
O O7 0.683288 0.749767 0.928589
O O8 0.851988 0.991914 0.136093
O O9 0.631907 0.710187 0.705812
O O10 0.638637 0.286288 0.430319
#
# Coordination Sequence:
#
# PCOD8128805 Si02
#       5
#     4   4   4   4   4
#     4   8  18  37  64  86 108 167 199 242 291 349
#     4  11  24  38  61  93 121 160 197 250 300 354
#     4   9  18  39  64  87 115 159 207 238 299 355
#     4  11  23  38  62  91 124 158 197 251 301 350
#     4   9  20  40  60  86 119 155 202 245 294 353
#
# _framework density 19.311665999999999
#
# number of rings (size 3 to 8) (size 9 to 14) (size 15 to 20)
#    1.200    1.200    2.000    0.000    2.800    1.600 
#    3.600    1.000    0.000    0.000    0.000    0.000 
#    0.000    0.000    0.000    0.000    0.000    0.000 
#
# Total GULP energy -247781.080987 kJ/mol
# GULP energy per Si atom -12389.054049 kJ/mol
# Density = 1.926771 g / cm^3
# Si number density = 19.311666 Si / 1000 Ang^3
#
#
#
# Elastic Constant Matrix: (Units=GPa)
#
#
# Indices 1 2 3 4 5 6 
#
# 1 96.8922 13.5996 50.8442 0.0000 0.9149 0.0000
# 2 13.5996 61.0405 47.1491 0.0000 13.5156 0.0000
# 3 50.8442 47.1491 100.0502 0.0000 12.5599 0.0000
# 4 0.0000 0.0000 0.0000 27.9498 0.0000 1.1189
# 5 0.9149 13.5156 12.5599 0.0000 26.1818 0.0000
# 6 0.0000 0.0000 0.0000 1.1189 0.0000 22.6999
#
#
#
# Elastic Compliance Matrix: (Units=1/GPa)
#
#
# Indices 1 2 3 4 5 6 
#
# 1 0.014754 0.003508 -0.009427 0.000000 0.002196 0.000000
# 2 0.003508 0.028249 -0.014098 0.000000 -0.007942 0.000000
# 3 -0.009427 -0.014098 0.021787 0.000000 -0.002844 0.000000
# 4 0.000000 0.000000 0.000000 0.035849 0.000000 -0.001767
# 5 0.002196 -0.007942 -0.002844 0.000000 0.043582 0.000000
# 6 0.000000 0.000000 0.000000 -0.001767 0.000000 0.044140
#
#
# Mechanical properties :
#
#
# Convention : Reuss Voigt Hill
#
# Bulk Modulus (GPa) = 40.39406 53.46318 46.92862
# Shear Modulus (GPa) = 21.12845 25.12566 23.12705
#
# Velocity S-wave (km/s) = 3.31127 3.61094 3.46435
# Velocity P-wave (km/s) = 5.96504 6.71786 6.35261
#
# Compressibility (1/GPa) = 0.02475611
#
# Stress axis : x y z
#
# Youngs Moduli (GPa) = 67.77670 35.39894 45.89995
#
# Poissons Ratio (x) = -0.12418 0.43269
# Poissons Ratio (y) = -0.23777 0.64712
# Poissons Ratio (z) = 0.63892 0.49907
#
# Static dielectric constant tensor:
#      x y z
#    x 3.531090 0.000000 -0.340250 
#    y 0.000000 3.235400 0.000000 
#    z -0.340250 0.000000 3.397720 
# 
# 
# High freq. dielectric constant tensor:
#      x y z
#    x 1.747260 0.000000 -0.023980 
#    y 0.000000 1.724440 0.000000 
#    z -0.023980 0.000000 1.743970 
# 
# From -- ./inp_files/39411.got.cif
#   From: 2010.03.12/outbox.cif.g09.slc.cpg/sg14_20_cif.got.tgz:39411.got - 2010.03.31 13:35:05.
