data_PCOD8128756
_publ_section_title
;
Structure prediction by ZEFSAII (Michael W. Deem and Ramdas Pophale) SiO2 
 PCOD8128756
Probable space group: P 21/C
;
_chemical_formula_sum "Si O2"
_cell_formula_units_Z 28
_cell_length_a 10.550193
_cell_length_b 6.574313
_cell_length_c 19.975287
_cell_angle_alpha 90.000000
_cell_angle_beta 116.603657
_cell_angle_gamma 90.000000
_cell_volume 1238.803335
_symmetry_space_group_name_H-M "P 21/C"
_symmetry_group_IT_number 14
_symmetry_cell_setting 'monoclinic'
loop_
_space_group_symop_operation_xyz
x,y,z
-x,1/2+y,1/2-z
-x,-y,-z
x,1/2-y,1/2+z
loop_
_atom_site_type_symbol
_atom_site_label
_atom_site_fract_x
_atom_site_fract_y
_atom_site_fract_z
Si Si1 0.789881 0.621897 0.630275
Si Si2 0.333849 0.028947 0.766756
Si Si3 0.857804 0.109633 0.947429
Si Si4 0.943792 0.121614 0.349072
Si Si5 0.149375 0.789832 0.415502
Si Si6 0.633601 0.614856 0.003051
Si Si7 0.621977 0.790985 0.855863
O O1 0.712090 0.672892 0.682058
O O2 0.824427 0.380203 0.634526
O O3 0.672180 0.665911 0.544284
O O4 0.940191 0.738204 0.660482
O O5 0.362912 0.159193 0.707372
O O6 0.201950 0.875445 0.726777
O O7 0.471049 0.900774 0.819803
O O8 0.903331 0.293533 0.911555
O O9 0.745165 0.959385 0.886658
O O10 0.798872 0.200230 0.001660
O O11 0.000000 0.000000 0.000000
O O12 0.990737 0.883780 0.370798
O O13 0.240793 0.991832 0.431723
O O14 0.500000 0.500000 0.000000
O O15 0.630397 0.639160 0.921978
#
# Coordination Sequence:
#
# PCOD8128756 Si02
#       7
#     4   4   4   4   4   4   4
#     4  11  26  47  73 107 141 191 243 307 358 432
#     4  12  29  46  70 102 156 193 239 292 372 447
#     4  12  21  43  76 103 142 182 243 304 356 422
#     4  11  25  44  71 107 141 194 236 297 365 438
#     4  11  22  44  72 108 137 179 246 301 365 413
#     4  11  25  45  77 103 139 184 247 302 360 429
#     4  12  27  48  70 109 146 198 238 302 371 437
#
# _framework density 22.602454999999999
#
# number of rings (size 3 to 8) (size 9 to 14) (size 15 to 20)
#    0.000    0.571    2.857    4.714    6.000    1.143 
#    2.571    0.000    0.000    0.000    0.000    0.000 
#    0.000    0.000    0.000    0.000    0.000    0.000 
#
# Total GULP energy -347005.833964 kJ/mol
# GULP energy per Si atom -12393.065499 kJ/mol
# Density = 2.255101 g / cm^3
# Si number density = 22.602455 Si / 1000 Ang^3
#
#
#
# Elastic Constant Matrix: (Units=GPa)
#
#
# Indices 1 2 3 4 5 6 
#
# 1 126.1153 39.4542 56.9295 0.0000 3.0516 0.0000
# 2 39.4542 96.1110 32.7720 0.0000 7.5834 0.0000
# 3 56.9295 32.7720 106.3835 0.0000 3.9610 0.0000
# 4 0.0000 0.0000 0.0000 35.3574 0.0000 1.4712
# 5 3.0516 7.5834 3.9610 0.0000 58.6235 0.0000
# 6 0.0000 0.0000 0.0000 1.4712 0.0000 39.7496
#
#
#
# Elastic Compliance Matrix: (Units=1/GPa)
#
#
# Indices 1 2 3 4 5 6 
#
# 1 0.011104 -0.002839 -0.005072 0.000000 0.000132 0.000000
# 2 -0.002839 0.012446 -0.002266 0.000000 -0.001309 0.000000
# 3 -0.005072 -0.002266 0.012824 0.000000 -0.000309 0.000000
# 4 0.000000 0.000000 0.000000 0.028326 0.000000 -0.001048
# 5 0.000132 -0.001309 -0.000309 0.000000 0.017241 0.000000
# 6 0.000000 0.000000 0.000000 -0.001048 0.000000 0.025196
#
#
# Mechanical properties :
#
#
# Convention : Reuss Voigt Hill
#
# Bulk Modulus (GPa) = 62.42625 65.21344 63.81985
# Shear Modulus (GPa) = 37.64133 40.04305 38.84219
#
# Velocity S-wave (km/s) = 4.08532 4.21363 4.14997
# Velocity P-wave (km/s) = 7.06628 7.25175 7.15962
#
# Compressibility (1/GPa) = 0.01601890
#
# Stress axis : x y z
#
# Youngs Moduli (GPa) = 90.05773 80.34669 77.97889
#
# Poissons Ratio (x) = 0.22811 0.39554
# Poissons Ratio (y) = 0.25568 0.17670
# Poissons Ratio (z) = 0.45681 0.18207
#
# Static dielectric constant tensor:
#      x y z
#    x 3.764870 0.000000 -0.643270 
#    y 0.000000 3.612850 0.000000 
#    z -0.643270 0.000000 2.832090 
# 
# 
# High freq. dielectric constant tensor:
#      x y z
#    x 1.902110 0.000000 0.005200 
#    y 0.000000 1.893850 0.000000 
#    z 0.005200 0.000000 1.902070 
# 
# From -- ./inp_files/66566.got.cif
#   From: 2010.03.12/outbox.cif.g09.slc.cpg/sg14_34_cif.got.tgz:66566.got - 2010.03.31 13:35:05.
