data_PCOD8128471
_publ_section_title
;
Structure prediction by ZEFSAII (Michael W. Deem and Ramdas Pophale) SiO2 
 PCOD8128471
Probable space group: P 21/C
;
_chemical_formula_sum "Si O2"
_cell_formula_units_Z 28
_cell_length_a 22.294515
_cell_length_b 9.005028
_cell_length_c 18.794583
_cell_angle_alpha 90.000000
_cell_angle_beta 19.230841
_cell_angle_gamma 90.000000
_cell_volume 1242.814576
_symmetry_space_group_name_H-M "P 21/C"
_symmetry_group_IT_number 14
_symmetry_cell_setting 'monoclinic'
loop_
_space_group_symop_operation_xyz
x,y,z
-x,1/2+y,1/2-z
-x,-y,-z
x,1/2-y,1/2+z
loop_
_atom_site_type_symbol
_atom_site_label
_atom_site_fract_x
_atom_site_fract_y
_atom_site_fract_z
Si Si1 0.162106 0.439558 0.271928
Si Si2 0.131130 0.068054 0.160357
Si Si3 0.140801 0.402152 0.131372
Si Si4 0.362735 0.322527 0.609525
Si Si5 0.878239 0.428921 0.077031
Si Si6 0.624034 0.210951 0.427786
Si Si7 0.478454 0.974166 0.857750
O O1 0.108840 0.438030 0.249450
O O2 0.203591 0.271193 0.249634
O O3 0.338697 0.545852 0.085061
O O4 0.000000 0.500000 0.500000
O O5 0.165943 0.228112 0.086464
O O6 0.041538 0.958573 0.203306
O O7 0.983157 0.091001 0.387264
O O8 0.320830 0.001097 0.975672
O O9 0.324805 0.482466 0.899182
O O10 0.290138 0.454747 0.742332
O O11 0.472341 0.208187 0.536015
O O12 0.480598 0.395292 0.414231
O O13 0.807728 0.271307 0.184376
O O14 0.000000 0.500000 0.000000
O O15 0.563461 0.314391 0.561096
#
# Coordination Sequence:
#
# PCOD8128471 Si02
#       7
#     4   4   4   4   4   4   4
#     4  12  27  45  67 103 145 180 234 299 352 412
#     4  12  26  47  74 104 143 192 234 293 355 424
#     4  12  29  48  71 105 145 189 240 291 361 421
#     4  11  22  45  71 103 137 184 238 288 351 421
#     4  11  19  42  73  98 136 182 231 284 345 420
#     4  11  23  39  72 104 135 182 233 291 351 413
#     4  11  25  47  73 103 142 186 238 290 353 434
#
# _framework density 22.529506000000001
#
# number of rings (size 3 to 8) (size 9 to 14) (size 15 to 20)
#    0.000    0.571    4.286    5.571    4.000    1.143 
#    5.143    0.000    0.000    0.000    0.000    0.000 
#    0.000    0.000    0.000    0.000    0.000    0.000 
#
# Total GULP energy -347306.041707 kJ/mol
# GULP energy per Si atom -12403.787204 kJ/mol
# Density = 2.247823 g / cm^3
# Si number density = 22.529506 Si / 1000 Ang^3
#
#
#
# Elastic Constant Matrix: (Units=GPa)
#
#
# Indices 1 2 3 4 5 6 
#
# 1 124.8329 36.1313 33.1291 0.0000 -19.8987 0.0000
# 2 36.1313 98.3399 12.8825 0.0000 2.1879 0.0000
# 3 33.1291 12.8825 85.4146 0.0000 -1.3006 0.0000
# 4 0.0000 0.0000 0.0000 28.5107 0.0000 -9.3384
# 5 -19.8987 2.1879 -1.3006 0.0000 36.8998 0.0000
# 6 0.0000 0.0000 0.0000 -9.3384 0.0000 38.2261
#
#
#
# Elastic Compliance Matrix: (Units=1/GPa)
#
#
# Indices 1 2 3 4 5 6 
#
# 1 0.011003 -0.003703 -0.003617 0.000000 0.006026 0.000000
# 2 -0.003703 0.011636 -0.000360 0.000000 -0.002699 0.000000
# 3 -0.003617 -0.000360 0.013143 0.000000 -0.001466 0.000000
# 4 0.000000 0.000000 0.000000 0.038125 0.000000 0.009314
# 5 0.006026 -0.002699 -0.001466 0.000000 0.030458 0.000000
# 6 0.000000 0.000000 0.000000 0.009314 0.000000 0.028435
#
#
# Mechanical properties :
#
#
# Convention : Reuss Voigt Hill
#
# Bulk Modulus (GPa) = 48.96755 52.54146 50.75450
# Shear Modulus (GPa) = 32.26465 35.82362 34.04414
#
# Velocity S-wave (km/s) = 3.78842 3.99190 3.89149
# Velocity P-wave (km/s) = 6.39674 6.67973 6.53977
#
# Compressibility (1/GPa) = 0.02042169
#
# Stress axis : x y z
#
# Youngs Moduli (GPa) = 90.88488 85.93663 76.08830
#
# Poissons Ratio (x) = 0.31821 0.27524
# Poissons Ratio (y) = 0.33653 0.02739
# Poissons Ratio (z) = 0.32877 0.03094
#
# Static dielectric constant tensor:
#      x y z
#    x 4.112080 0.000000 -0.135070 
#    y 0.000000 4.297160 0.000000 
#    z -0.135070 0.000000 4.117250 
# 
# 
# High freq. dielectric constant tensor:
#      x y z
#    x 1.896670 0.000000 -0.012610 
#    y 0.000000 1.891680 0.000000 
#    z -0.012610 0.000000 1.891110 
# 
# From -- ./inp_files/70169.got.cif
#   From: 2010.03.12/outbox.cif.g09.slc.cpg/sg14_36_cif.got.tgz:70169.got - 2010.03.31 13:35:05.
