data_PCOD8128843
_publ_section_title
;
Structure prediction by ZEFSAII (Michael W. Deem and Ramdas Pophale) SiO2 
 PCOD8128843
Probable space group: P 21/C
;
_chemical_formula_sum "Si O2"
_cell_formula_units_Z 32
_cell_length_a 21.746582
_cell_length_b 13.707003
_cell_length_c 15.349572
_cell_angle_alpha 90.000000
_cell_angle_beta 162.063680
_cell_angle_gamma 90.000000
_cell_volume 1409.041482
_symmetry_space_group_name_H-M "P 21/C"
_symmetry_group_IT_number 14
_symmetry_cell_setting 'monoclinic'
loop_
_space_group_symop_operation_xyz
x,y,z
-x,1/2+y,1/2-z
-x,-y,-z
x,1/2-y,1/2+z
loop_
_atom_site_type_symbol
_atom_site_label
_atom_site_fract_x
_atom_site_fract_y
_atom_site_fract_z
Si Si1 0.505233 0.471280 0.906144
Si Si2 0.821112 0.932363 0.727115
Si Si3 0.337697 0.292572 0.231515
Si Si4 0.904910 0.622498 0.664992
Si Si5 0.562721 0.842767 0.957378
Si Si6 0.739512 0.997316 0.425868
Si Si7 0.958469 0.786846 0.420036
Si Si8 0.379983 0.722053 0.027517
O O1 0.279565 0.452535 0.568036
O O2 0.500000 0.500000 0.000000
O O3 0.617948 0.558973 0.010049
O O4 0.633988 0.374262 0.053451
O O5 0.774982 0.965360 0.569983
O O6 0.869319 0.819825 0.791476
O O7 0.000000 0.000000 0.000000
O O8 0.460838 0.273844 0.487771
O O9 0.252151 0.402637 0.125033
O O10 0.467761 0.292387 0.318208
O O11 0.166648 0.210482 0.994526
O O12 0.988529 0.664957 0.867047
O O13 0.086441 0.571491 0.863086
O O14 0.454803 0.799790 0.726097
O O15 0.473351 0.947793 0.863140
O O16 0.801332 0.852789 0.262217
O O17 0.170490 0.778195 0.754221
#
# Coordination Sequence:
#
# PCOD8128843 Si02
#       8
#     4   4   4   4   4   4   4   4
#     4  11  23  41  67 106 147 185 250 315 366 440
#     4  12  22  40  71 106 143 189 243 304 380 429
#     4  11  26  48  73 101 149 196 242 302 377 443
#     4  11  25  46  72 109 149 187 250 312 364 454
#     4  12  25  46  74 103 145 195 243 297 370 445
#     4  12  24  48  71 102 151 193 245 298 373 448
#     4  12  24  46  74 107 150 189 238 315 370 439
#     4  11  24  48  70 107 149 185 245 311 363 445
#
# _framework density 22.710474000000001
#
# number of rings (size 3 to 8) (size 9 to 14) (size 15 to 20)
#    0.000    0.500    6.250    1.875    7.000    0.000 
#    2.250    3.750    0.000    0.000    0.000    0.000 
#    0.000    0.000    0.000    0.000    0.000    0.000 
#
# Total GULP energy -396658.120694 kJ/mol
# GULP energy per Si atom -12395.566272 kJ/mol
# Density = 2.265878 g / cm^3
# Si number density = 22.710474 Si / 1000 Ang^3
#
#
#
# Elastic Constant Matrix: (Units=GPa)
#
#
# Indices 1 2 3 4 5 6 
#
# 1 139.5066 47.5620 49.4222 0.0000 -4.5202 0.0000
# 2 47.5620 102.9825 53.0815 0.0000 9.9015 0.0000
# 3 49.4222 53.0815 118.5470 0.0000 9.0917 0.0000
# 4 0.0000 0.0000 0.0000 33.0798 0.0000 4.5965
# 5 -4.5202 9.9015 9.0917 0.0000 49.0504 0.0000
# 6 0.0000 0.0000 0.0000 4.5965 0.0000 33.3434
#
#
#
# Elastic Compliance Matrix: (Units=1/GPa)
#
#
# Indices 1 2 3 4 5 6 
#
# 1 0.009210 -0.003101 -0.002601 0.000000 0.001957 0.000000
# 2 -0.003101 0.013781 -0.004710 0.000000 -0.002195 0.000000
# 3 -0.002601 -0.004710 0.011741 0.000000 -0.001465 0.000000
# 4 0.000000 0.000000 0.000000 0.030820 0.000000 -0.004249
# 5 0.001957 -0.002195 -0.001465 0.000000 0.021282 0.000000
# 6 0.000000 0.000000 0.000000 -0.004249 0.000000 0.030577
#
#
# Mechanical properties :
#
#
# Convention : Reuss Voigt Hill
#
# Bulk Modulus (GPa) = 71.89763 73.46306 72.68035
# Shear Modulus (GPa) = 34.99639 37.15941 36.07790
#
# Velocity S-wave (km/s) = 3.92979 4.04941 3.99005
# Velocity P-wave (km/s) = 7.23312 7.36760 7.30067
#
# Compressibility (1/GPa) = 0.01390866
#
# Stress axis : x y z
#
# Youngs Moduli (GPa) = 108.57373 72.56291 85.17070
#
# Poissons Ratio (x) = 0.22502 0.22155
# Poissons Ratio (y) = 0.33670 0.40112
# Poissons Ratio (z) = 0.28243 0.34174
#
# Static dielectric constant tensor:
#      x y z
#    x 4.399480 0.000000 0.014560 
#    y 0.000000 4.305990 0.000000 
#    z 0.014560 0.000000 4.349440 
# 
# 
# High freq. dielectric constant tensor:
#      x y z
#    x 1.911780 0.000000 -0.003530 
#    y 0.000000 1.891760 0.000000 
#    z -0.003530 0.000000 1.896000 
# 
# From -- ./inp_files/50720.got.cif
#   From: 2010.03.12/outbox.cif.g09.slc.cpg/sg14_26_cif.got.tgz:50720.got - 2010.03.31 13:35:05.
