data_PCOD8128435
_publ_section_title
;
Structure prediction by ZEFSAII (Michael W. Deem and Ramdas Pophale) SiO2 
 PCOD8128435
Probable space group: P 21/C
;
_chemical_formula_sum "Si O2"
_cell_formula_units_Z 24
_cell_length_a 11.366277
_cell_length_b 8.546470
_cell_length_c 11.944602
_cell_angle_alpha 90.000000
_cell_angle_beta 102.838264
_cell_angle_gamma 90.000000
_cell_volume 1131.310539
_symmetry_space_group_name_H-M "P 21/C"
_symmetry_group_IT_number 14
_symmetry_cell_setting 'monoclinic'
loop_
_space_group_symop_operation_xyz
x,y,z
-x,1/2+y,1/2-z
-x,-y,-z
x,1/2-y,1/2+z
loop_
_atom_site_type_symbol
_atom_site_label
_atom_site_fract_x
_atom_site_fract_y
_atom_site_fract_z
Si Si1 0.693298 0.165886 0.986690
Si Si2 0.143002 0.121422 0.619093
Si Si3 0.654229 0.030273 0.207814
Si Si4 0.256584 0.446042 0.710501
Si Si5 0.871389 0.431542 0.100767
Si Si6 0.489877 0.275792 0.810899
O O1 0.568750 0.263850 0.941805
O O2 0.727498 0.075124 0.881316
O O3 0.672819 0.037127 0.078843
O O4 0.798854 0.281177 0.044201
O O5 0.198907 0.292876 0.642421
O O6 0.009305 0.121140 0.640572
O O7 0.217817 0.990862 0.703736
O O8 0.143565 0.075652 0.488323
O O9 0.586512 0.187521 0.232944
O O10 0.568580 0.890040 0.228021
O O11 0.169378 0.514472 0.785958
O O12 0.384757 0.405544 0.796187
#
# Coordination Sequence:
#
# PCOD8128435 Si02
#       6
#     4   4   4   4   4   4
#     4  12  25  43  70 103 138 180 229 283 347 407
#     4  10  26  47  69  99 137 180 235 280 344 401
#     4  11  24  44  66  99 137 178 225 282 339 415
#     4  11  27  44  71 103 135 185 223 288 346 402
#     4  11  26  46  71 100 137 182 233 287 334 414
#     4  11  23  42  67  99 131 175 223 276 345 404
#
# _framework density 21.214334000000001
#
# number of rings (size 3 to 8) (size 9 to 14) (size 15 to 20)
#    0.000    1.000    3.333    1.500    7.000    4.000 
#    0.000    0.000    0.000    0.000    0.000    0.000 
#    0.000    0.000    0.000    0.000    0.000    0.000 
#
# Total GULP energy -297639.781982 kJ/mol
# GULP energy per Si atom -12401.657583 kJ/mol
# Density = 2.116605 g / cm^3
# Si number density = 21.214334 Si / 1000 Ang^3
#
#
#
# Elastic Constant Matrix: (Units=GPa)
#
#
# Indices 1 2 3 4 5 6 
#
# 1 125.1173 58.7008 47.0162 0.0000 21.6985 0.0000
# 2 58.7008 108.8291 42.5704 0.0000 -3.6105 0.0000
# 3 47.0162 42.5704 85.8635 0.0000 -2.2879 0.0000
# 4 0.0000 0.0000 0.0000 38.0554 0.0000 1.3754
# 5 21.6985 -3.6105 -2.2879 0.0000 37.6690 0.0000
# 6 0.0000 0.0000 0.0000 1.3754 0.0000 28.4313
#
#
#
# Elastic Compliance Matrix: (Units=1/GPa)
#
#
# Indices 1 2 3 4 5 6 
#
# 1 0.014324 -0.006037 -0.005094 0.000000 -0.009139 0.000000
# 2 -0.006037 0.013965 -0.003495 0.000000 0.004604 0.000000
# 3 -0.005094 -0.003495 0.016264 0.000000 0.003587 0.000000
# 4 0.000000 0.000000 0.000000 0.026323 0.000000 -0.001273
# 5 -0.009139 0.004604 0.003587 0.000000 0.032470 0.000000
# 6 0.000000 0.000000 0.000000 -0.001273 0.000000 0.035234
#
#
# Mechanical properties :
#
#
# Convention : Reuss Voigt Hill
#
# Bulk Modulus (GPa) = 65.35585 68.48718 66.92152
# Shear Modulus (GPa) = 28.91288 32.26597 30.58943
#
# Velocity S-wave (km/s) = 3.69574 3.90417 3.80139
# Velocity P-wave (km/s) = 7.00612 7.25789 7.13311
#
# Compressibility (1/GPa) = 0.01530085
#
# Stress axis : x y z
#
# Youngs Moduli (GPa) = 69.81396 71.60826 61.48459
#
# Poissons Ratio (x) = 0.43228 0.31319
# Poissons Ratio (y) = 0.42145 0.21492
# Poissons Ratio (z) = 0.35562 0.25031
#
# Static dielectric constant tensor:
#      x y z
#    x 4.053180 0.000000 0.219490 
#    y 0.000000 3.816570 0.000000 
#    z 0.219490 0.000000 3.896320 
# 
# 
# High freq. dielectric constant tensor:
#      x y z
#    x 1.845550 0.000000 0.011160 
#    y 0.000000 1.837490 0.000000 
#    z 0.011160 0.000000 1.831280 
# 
# From -- ./inp_files/28204.got.cif
#   From: 2010.03.12/outbox.cif.g09.slc.cpg/sg14_15_cif.got.tgz:28204.got - 2010.03.31 13:35:05.
