data_PCOD8128303
_publ_section_title
;
Structure prediction by ZEFSAII (Michael W. Deem and Ramdas Pophale) SiO2 
 PCOD8128303
Probable space group: P 21/C
;
_chemical_formula_sum "Si O2"
_cell_formula_units_Z 28
_cell_length_a 11.467364
_cell_length_b 13.962189
_cell_length_c 9.022060
_cell_angle_alpha 90.000000
_cell_angle_beta 119.185721
_cell_angle_gamma 90.000000
_cell_volume 1261.126846
_symmetry_space_group_name_H-M "P 21/C"
_symmetry_group_IT_number 14
_symmetry_cell_setting 'monoclinic'
loop_
_space_group_symop_operation_xyz
x,y,z
-x,1/2+y,1/2-z
-x,-y,-z
x,1/2-y,1/2+z
loop_
_atom_site_type_symbol
_atom_site_label
_atom_site_fract_x
_atom_site_fract_y
_atom_site_fract_z
Si Si1 0.970831 0.763919 0.180863
Si Si2 0.659924 0.068999 0.299050
Si Si3 0.788165 0.585335 0.068329
Si Si4 0.160582 0.758812 0.547294
Si Si5 0.287815 0.917351 0.997727
Si Si6 0.583971 0.948995 0.677175
Si Si7 0.972759 0.978767 0.151944
O O1 0.017007 0.746379 0.377631
O O2 0.114804 0.761869 0.186591
O O3 0.860513 0.684518 0.064190
O O4 0.914879 0.871379 0.133456
O O5 0.782129 0.134940 0.424993
O O6 0.628778 0.075804 0.103477
O O7 0.524624 0.109795 0.293605
O O8 0.697947 0.960352 0.378896
O O9 0.698387 0.610123 0.159541
O O10 0.894833 0.502306 0.172916
O O11 0.275863 0.688711 0.558414
O O12 0.140771 0.951237 0.858332
O O13 0.348889 0.978927 0.166463
O O14 0.500000 0.000000 0.500000
O O15 0.000000 0.000000 0.000000
#
# Coordination Sequence:
#
# PCOD8128303 Si02
#       7
#     4   4   4   4   4   4   4
#     4  12  24  39  66 104 138 172 221 281 345 410
#     4  11  25  43  67  98 135 184 229 279 332 412
#     4  11  22  43  66 100 136 177 222 280 349 401
#     4  12  23  40  68  98 132 175 224 275 341 410
#     4  12  24  43  69 100 131 177 230 282 335 408
#     4  10  24  45  69  88 133 182 225 276 339 406
#     4  12  21  39  69  97 137 173 216 278 345 404
#
# _framework density 22.202368
#
# number of rings (size 3 to 8) (size 9 to 14) (size 15 to 20)
#    0.000    0.571    7.143    0.429    4.000    1.143 
#    0.000    5.714    0.000    0.000    0.000    0.000 
#    0.000    0.000    0.000    0.000    0.000    0.000 
#
# Total GULP energy -346979.952932 kJ/mol
# GULP energy per Si atom -12392.141176 kJ/mol
# Density = 2.215183 g / cm^3
# Si number density = 22.202368 Si / 1000 Ang^3
#
#
#
# Elastic Constant Matrix: (Units=GPa)
#
#
# Indices 1 2 3 4 5 6 
#
# 1 114.6199 16.5969 23.7753 0.0000 -22.7137 0.0000
# 2 16.5969 94.7322 9.4132 0.0000 -9.8592 0.0000
# 3 23.7753 9.4132 74.5330 0.0000 -12.2851 0.0000
# 4 0.0000 0.0000 0.0000 22.8418 0.0000 -6.2888
# 5 -22.7137 -9.8592 -12.2851 0.0000 36.1969 0.0000
# 6 0.0000 0.0000 0.0000 -6.2888 0.0000 26.1007
#
#
#
# Elastic Compliance Matrix: (Units=1/GPa)
#
#
# Indices 1 2 3 4 5 6 
#
# 1 0.010437 -0.001029 -0.002294 0.000000 0.005491 0.000000
# 2 -0.001029 0.011028 -0.000716 0.000000 0.002115 0.000000
# 3 -0.002294 -0.000716 0.014798 0.000000 0.003387 0.000000
# 4 0.000000 0.000000 0.000000 0.046890 0.000000 0.011298
# 5 0.005491 0.002115 0.003387 0.000000 0.032798 0.000000
# 6 0.000000 0.000000 0.000000 0.011298 0.000000 0.041035
#
#
# Mechanical properties :
#
#
# Convention : Reuss Voigt Hill
#
# Bulk Modulus (GPa) = 35.48166 42.60621 39.04394
# Shear Modulus (GPa) = 28.66000 32.63452 30.64726
#
# Velocity S-wave (km/s) = 3.59674 3.83804 3.71935
# Velocity P-wave (km/s) = 5.76754 6.23477 6.00570
#
# Compressibility (1/GPa) = 0.02818357
#
# Stress axis : x y z
#
# Youngs Moduli (GPa) = 95.80852 90.68133 67.57883
#
# Poissons Ratio (x) = 0.09333 0.15506
# Poissons Ratio (y) = 0.09861 0.04838
# Poissons Ratio (z) = 0.21983 0.06491
#
# Static dielectric constant tensor:
#      x y z
#    x 4.441080 0.000000 -0.225950 
#    y 0.000000 3.850300 0.000000 
#    z -0.225950 0.000000 3.930590 
# 
# 
# High freq. dielectric constant tensor:
#      x y z
#    x 1.878500 0.000000 -0.015810 
#    y 0.000000 1.853050 0.000000 
#    z -0.015810 0.000000 1.878460 
# 
# From -- ./inp_files/13200.got.cif
#   From: 2010.03.12/outbox.cif.g09.slc.cpg/sg14_7_cif.got.tgz:13200.got - 2010.03.31 13:35:05.
