data_PCOD8128587
_publ_section_title
;
Structure prediction by ZEFSAII (Michael W. Deem and Ramdas Pophale) SiO2 
 PCOD8128587
Probable space group: P 21/C
;
_chemical_formula_sum "Si O2"
_cell_formula_units_Z 24
_cell_length_a 8.640315
_cell_length_b 16.713490
_cell_length_c 9.082428
_cell_angle_alpha 90.000000
_cell_angle_beta 124.546277
_cell_angle_gamma 90.000000
_cell_volume 1080.316755
_symmetry_space_group_name_H-M "P 21/C"
_symmetry_group_IT_number 14
_symmetry_cell_setting 'monoclinic'
loop_
_space_group_symop_operation_xyz
x,y,z
-x,1/2+y,1/2-z
-x,-y,-z
x,1/2-y,1/2+z
loop_
_atom_site_type_symbol
_atom_site_label
_atom_site_fract_x
_atom_site_fract_y
_atom_site_fract_z
Si Si1 0.976612 0.581471 0.070337
Si Si2 0.287741 0.702257 0.128173
Si Si3 0.274363 0.645910 0.801955
Si Si4 0.463709 0.093360 0.077129
Si Si5 0.046315 0.026595 0.865048
Si Si6 0.566899 0.567191 0.763590
O O1 0.111143 0.651352 0.089421
O O2 0.022515 0.556379 0.262661
O O3 0.761340 0.607422 0.922329
O O4 0.000000 0.500000 0.000000
O O5 0.240766 0.793026 0.148817
O O6 0.482742 0.675902 0.313902
O O7 0.331344 0.695722 0.978043
O O8 0.425904 0.581496 0.824292
O O9 0.093306 0.597014 0.758703
O O10 0.589480 0.027187 0.234145
O O11 0.249548 0.066274 0.967570
O O12 0.515030 0.105060 0.932334
O O13 0.000000 0.000000 0.000000
#
# Coordination Sequence:
#
# PCOD8128587 Si02
#       6
#     4   4   4   4   4   4
#     4  12  22  45  70 101 134 178 224 282 336 404
#     4  12  27  45  68  97 142 178 226 286 346 398
#     4  12  27  45  65 101 138 180 226 285 343 403
#     4  11  21  41  68  99 132 173 220 278 330 406
#     4  12  25  41  72 104 135 176 232 279 337 408
#     4  11  22  40  70  98 133 173 225 270 336 403
#
# _framework density 22.215706999999998
#
# number of rings (size 3 to 8) (size 9 to 14) (size 15 to 20)
#    0.000    0.333    6.667    2.000    4.667    2.667 
#    0.000    3.333    0.000    0.000    0.000    0.000 
#    0.000    0.000    0.000    0.000    0.000    0.000 
#
# Total GULP energy -297436.384297 kJ/mol
# GULP energy per Si atom -12393.182679 kJ/mol
# Density = 2.216514 g / cm^3
# Si number density = 22.215707 Si / 1000 Ang^3
#
#
#
# Elastic Constant Matrix: (Units=GPa)
#
#
# Indices 1 2 3 4 5 6 
#
# 1 98.4181 14.7601 43.8044 0.0000 -4.1112 0.0000
# 2 14.7601 54.7368 11.8945 0.0000 -0.3556 0.0000
# 3 43.8044 11.8945 95.5728 0.0000 -1.8840 0.0000
# 4 0.0000 0.0000 0.0000 29.7134 0.0000 -7.9266
# 5 -4.1112 -0.3556 -1.8840 0.0000 51.3070 0.0000
# 6 0.0000 0.0000 0.0000 -7.9266 0.0000 30.7211
#
#
#
# Elastic Compliance Matrix: (Units=1/GPa)
#
#
# Indices 1 2 3 4 5 6 
#
# 1 0.013070 -0.002283 -0.005690 0.000000 0.000823 0.000000
# 2 -0.002283 0.019176 -0.001342 0.000000 -0.000099 0.000000
# 3 -0.005690 -0.001342 0.013239 0.000000 0.000021 0.000000
# 4 0.000000 0.000000 0.000000 0.036142 0.000000 0.009325
# 5 0.000823 -0.000099 0.000021 0.000000 0.019556 0.000000
# 6 0.000000 0.000000 0.000000 0.009325 0.000000 0.034957
#
#
# Mechanical properties :
#
#
# Convention : Reuss Voigt Hill
#
# Bulk Modulus (GPa) = 37.23776 43.29395 40.26585
# Shear Modulus (GPa) = 30.53957 34.23290 32.38624
#
# Velocity S-wave (km/s) = 3.71170 3.92973 3.82227
# Velocity P-wave (km/s) = 5.93019 6.33409 6.13547
#
# Compressibility (1/GPa) = 0.02685446
#
# Stress axis : x y z
#
# Youngs Moduli (GPa) = 76.51102 52.14906 75.53614
#
# Poissons Ratio (x) = 0.11903 0.42981
# Poissons Ratio (y) = 0.17464 0.10139
# Poissons Ratio (z) = 0.43536 0.07000
#
# Static dielectric constant tensor:
#      x y z
#    x 3.762980 0.000000 0.655830 
#    y 0.000000 3.621960 0.000000 
#    z 0.655830 0.000000 4.320630 
# 
# 
# High freq. dielectric constant tensor:
#      x y z
#    x 1.884210 0.000000 -0.007770 
#    y 0.000000 1.851980 0.000000 
#    z -0.007770 0.000000 1.889990 
# 
# From -- ./inp_files/10277.got.cif
#   From: 2010.03.12/outbox.cif.g09.slc.cpg/sg14_6_cif.got.tgz:10277.got - 2010.03.31 13:35:05.
