data_PCOD8128689
_publ_section_title
;
Structure prediction by ZEFSAII (Michael W. Deem and Ramdas Pophale) SiO2 
 PCOD8128689
Probable space group: P 21/C
;
_chemical_formula_sum "Si O2"
_cell_formula_units_Z 16
_cell_length_a 8.466880
_cell_length_b 4.599754
_cell_length_c 26.881588
_cell_angle_alpha 90.000000
_cell_angle_beta 148.911310
_cell_angle_gamma 90.000000
_cell_volume 540.591403
_symmetry_space_group_name_H-M "P 21/C"
_symmetry_group_IT_number 14
_symmetry_cell_setting 'monoclinic'
loop_
_space_group_symop_operation_xyz
x,y,z
-x,1/2+y,1/2-z
-x,-y,-z
x,1/2-y,1/2+z
loop_
_atom_site_type_symbol
_atom_site_label
_atom_site_fract_x
_atom_site_fract_y
_atom_site_fract_z
Si Si1 0.179748 0.877170 0.929321
Si Si2 0.320252 0.622831 0.570679
Si Si3 0.353949 0.799576 0.686077
Si Si4 0.853949 0.200424 0.686077
O O1 0.071375 0.688899 0.852587
O O2 0.250000 0.695529 1.000000
O O3 0.958557 0.149318 0.881365
O O4 0.500000 0.000000 0.000000
O O5 0.428625 0.811101 0.647413
O O6 0.541443 0.350682 0.618635
O O7 0.000000 0.500000 0.500000
O O8 0.637021 0.633133 0.791629
O O9 0.862979 0.866867 0.708370
#
# Coordination Sequence:
#
# PCOD8128689 Si02
#       4
#     4   4   4   4
#     4   9  20  40  60  87 120 154 192 239 292 344
#     4   9  20  40  60  87 120 154 192 239 292 344
#     4  11  22  40  62  87 116 154 196 239 286 344
#     4  11  22  40  62  87 116 154 196 239 286 344
#
# _framework density 29.597216
#
# number of rings (size 3 to 8) (size 9 to 14) (size 15 to 20)
#    0.000    2.000    0.000    3.000    0.000    0.000 
#    0.000   50.000    0.000    0.000    0.000    0.000 
#    0.000    0.000    0.000    0.000    0.000    0.000 
#
# Total GULP energy -198291.188995 kJ/mol
# GULP energy per Si atom -12393.199312 kJ/mol
# Density = 2.952985 g / cm^3
# Si number density = 29.597216 Si / 1000 Ang^3
#
#
#
# Elastic Constant Matrix: (Units=GPa)
#
#
# Indices 1 2 3 4 5 6 
#
# 1 211.1714 26.1285 64.1680 0.1897 -49.7488 -0.0089
# 2 26.1285 75.7306 -0.3351 0.1457 -21.2892 0.0382
# 3 64.1680 -0.3351 118.0069 0.0301 -50.5480 0.0447
# 4 0.1897 0.1457 0.0301 0.4964 0.0316 -1.3309
# 5 -49.7488 -21.2892 -50.5480 0.0316 97.5575 0.0396
# 6 -0.0089 0.0382 0.0447 -1.3309 0.0396 34.0473
#
#
#
# Elastic Compliance Matrix: (Units=1/GPa)
#
#
# Indices 1 2 3 4 5 6 
#
# 1 0.006099 -0.001748 -0.002766 -0.001918 0.001296 -0.000069
# 2 -0.001748 0.014865 0.002574 -0.004640 0.003687 -0.000206
# 3 -0.002766 0.002574 0.012367 -0.000976 0.005559 -0.000064
# 4 -0.001918 -0.004640 -0.000976 2.253134 -0.003262 0.088083
# 5 0.001296 0.003687 0.005559 -0.003262 0.014598 -0.000156
# 6 -0.000069 -0.000206 -0.000064 0.088083 -0.000156 0.032814
#
#
# Mechanical properties :
#
#
# Convention : Reuss Voigt Hill
#
# Bulk Modulus (GPa) = 33.95565 64.98128 49.46847
# Shear Modulus (GPa) = 2.12986 47.41674 24.77330
#
# Velocity S-wave (km/s) = 0.84922 4.00693 2.89626
# Velocity P-wave (km/s) = 3.52974 6.58864 5.28532
#
# Compressibility (1/GPa) = 0.02945018
#
# Stress axis : x y z
#
# Youngs Moduli (GPa) = 163.95080 67.27230 80.86083
#
# Poissons Ratio (x) = 0.11762 0.22364
# Poissons Ratio (y) = 0.28666 -0.20811
# Poissons Ratio (z) = 0.45345 -0.17314
#
# Static dielectric constant tensor:
#      x y z
#    x 7.049100 0.000000 -1.258080 
#    y 0.000000 4.717930 0.000000 
#    z -1.258080 0.000000 8.067540 
# 
# 
# High freq. dielectric constant tensor:
#      x y z
#    x 2.254660 0.000000 0.012450 
#    y 0.000000 2.159090 0.000000 
#    z 0.012450 0.000000 2.245680 
# 
# From -- ./inp_files/882.got.cif
#   From: 2010.03.12/outbox.cif.g09.slc.cpg/sg14_1_cif.got.tgz:882.got - 2010.03.31 13:35:05.
