data_PCOD8128713
_publ_section_title
;
Structure prediction by ZEFSAII (Michael W. Deem and Ramdas Pophale) SiO2 
 PCOD8128713
Probable space group: P 21/C
;
_chemical_formula_sum "Si O2"
_cell_formula_units_Z 32
_cell_length_a 11.037103
_cell_length_b 8.950250
_cell_length_c 15.151675
_cell_angle_alpha 90.000000
_cell_angle_beta 89.700293
_cell_angle_gamma 90.000000
_cell_volume 1496.735179
_symmetry_space_group_name_H-M "P 21/C"
_symmetry_group_IT_number 14
_symmetry_cell_setting 'monoclinic'
loop_
_space_group_symop_operation_xyz
x,y,z
-x,1/2+y,1/2-z
-x,-y,-z
x,1/2-y,1/2+z
loop_
_atom_site_type_symbol
_atom_site_label
_atom_site_fract_x
_atom_site_fract_y
_atom_site_fract_z
Si Si1 0.376355 0.082497 0.070410
Si Si2 0.474080 0.316066 0.398786
Si Si3 0.611753 0.035512 0.434094
Si Si4 0.663241 0.809191 0.282268
Si Si5 0.885472 0.423640 0.950817
Si Si6 0.841359 0.413231 0.484434
Si Si7 0.074296 0.393472 0.214416
Si Si8 0.993398 0.089788 0.136095
O O1 0.324762 0.160920 0.157710
O O2 0.496809 0.993717 0.099801
O O3 0.297195 0.942038 0.036702
O O4 0.394575 0.203555 0.990409
O O5 0.589549 0.205831 0.402570
O O6 0.409048 0.278872 0.307047
O O7 0.746890 0.025306 0.479810
O O8 0.500000 0.000000 0.500000
O O9 0.603778 0.934322 0.345795
O O10 0.797399 0.843149 0.247525
O O11 0.894772 0.245386 0.952892
O O12 0.900512 0.469532 0.850370
O O13 0.000000 0.500000 0.000000
O O14 0.861424 0.421188 0.590144
O O15 0.908061 0.555052 0.439059
O O16 0.990791 0.463152 0.290337
O O17 0.003970 0.257897 0.170196
#
# Coordination Sequence:
#
# PCOD8128713 Si02
#       8
#     4   4   4   4   4   4   4   4
#     4  11  22  41  69  94 133 176 225 285 341 409
#     4  11  23  41  66  97 131 179 227 277 340 412
#     4  11  23  43  66  96 134 175 223 281 337 412
#     4  11  23  42  65  95 136 173 225 277 351 400
#     4  11  23  44  69  93 133 173 227 279 342 405
#     4  11  22  42  67  94 127 177 221 282 339 413
#     4  11  23  42  61  94 131 174 220 289 330 415
#     4  11  23  39  65  92 129 168 225 265 349 394
#
# _framework density 21.379867999999998
#
# number of rings (size 3 to 8) (size 9 to 14) (size 15 to 20)
#    0.000    1.000    5.000    2.250    0.000    0.000 
#    4.500    1.250    0.000    0.000    0.000    0.000 
#    0.000    0.000    0.000    0.000    0.000    0.000 
#
# Total GULP energy -396469.291895 kJ/mol
# GULP energy per Si atom -12389.665372 kJ/mol
# Density = 2.133121 g / cm^3
# Si number density = 21.379868 Si / 1000 Ang^3
#
#
#
# Elastic Constant Matrix: (Units=GPa)
#
#
# Indices 1 2 3 4 5 6 
#
# 1 94.4292 21.1568 41.2441 0.0000 18.2892 0.0000
# 2 21.1568 101.8275 37.0337 0.0000 11.2713 0.0000
# 3 41.2441 37.0337 105.5140 0.0000 13.1520 0.0000
# 4 0.0000 0.0000 0.0000 31.3043 0.0000 0.8766
# 5 18.2892 11.2713 13.1520 0.0000 31.8949 0.0000
# 6 0.0000 0.0000 0.0000 0.8766 0.0000 38.9420
#
#
#
# Elastic Compliance Matrix: (Units=1/GPa)
#
#
# Indices 1 2 3 4 5 6 
#
# 1 0.013807 -0.000599 -0.004455 0.000000 -0.005868 0.000000
# 2 -0.000599 0.011472 -0.003510 0.000000 -0.002263 0.000000
# 3 -0.004455 -0.003510 0.012627 0.000000 -0.001412 0.000000
# 4 0.000000 0.000000 0.000000 0.031965 0.000000 -0.000720
# 5 -0.005868 -0.002263 -0.001412 0.000000 0.036100 0.000000
# 6 0.000000 0.000000 0.000000 -0.000720 0.000000 0.025695
#
#
# Mechanical properties :
#
#
# Convention : Reuss Voigt Hill
#
# Bulk Modulus (GPa) = 48.13018 55.62668 51.87843
# Shear Modulus (GPa) = 32.10892 33.91730 33.01311
#
# Velocity S-wave (km/s) = 3.87955 3.98730 3.93379
# Velocity P-wave (km/s) = 6.52906 6.87552 6.70453
#
# Compressibility (1/GPa) = 0.02077698
#
# Stress axis : x y z
#
# Youngs Moduli (GPa) = 72.42918 87.16768 79.19577
#
# Poissons Ratio (x) = 0.05219 0.35283
# Poissons Ratio (y) = 0.04337 0.27801
# Poissons Ratio (z) = 0.32269 0.30599
#
# Static dielectric constant tensor:
#      x y z
#    x 3.929950 0.000000 0.132840 
#    y 0.000000 3.895040 0.000000 
#    z 0.132840 0.000000 3.805970 
# 
# 
# High freq. dielectric constant tensor:
#      x y z
#    x 1.833100 0.000000 0.008350 
#    y 0.000000 1.852310 0.000000 
#    z 0.008350 0.000000 1.833310 
# 
# From -- ./inp_files/43434.got.cif
#   From: 2010.03.12/outbox.cif.g09.slc.cpg/sg14_22_cif.got.tgz:43434.got - 2010.03.31 13:35:05.
