data_PCOD8128787
_publ_section_title
;
Structure prediction by ZEFSAII (Michael W. Deem and Ramdas Pophale) SiO2 
 PCOD8128787
Probable space group: P 21/C
;
_chemical_formula_sum "Si O2"
_cell_formula_units_Z 32
_cell_length_a 25.339347
_cell_length_b 8.286772
_cell_length_c 14.359531
_cell_angle_alpha 90.000000
_cell_angle_beta 29.206992
_cell_angle_gamma 90.000000
_cell_volume 1471.332365
_symmetry_space_group_name_H-M "P 21/C"
_symmetry_group_IT_number 14
_symmetry_cell_setting 'monoclinic'
loop_
_space_group_symop_operation_xyz
x,y,z
-x,1/2+y,1/2-z
-x,-y,-z
x,1/2-y,1/2+z
loop_
_atom_site_type_symbol
_atom_site_label
_atom_site_fract_x
_atom_site_fract_y
_atom_site_fract_z
Si Si1 0.489049 0.434752 0.414914
Si Si2 0.731696 0.849495 0.815299
Si Si3 0.850843 0.347463 0.759623
Si Si4 0.358182 0.479689 0.972901
Si Si5 0.000922 0.925401 0.132885
Si Si6 0.777851 0.490528 0.426036
Si Si7 0.529839 0.057645 0.352779
Si Si8 0.122933 0.310588 0.557945
O O1 0.500000 0.500000 0.500000
O O2 0.368164 0.462408 0.562250
O O3 0.575860 0.538132 0.224091
O O4 0.517334 0.247832 0.363846
O O5 0.796489 0.806880 0.621779
O O6 0.802849 0.943180 0.783165
O O7 0.693433 0.690243 0.925851
O O8 0.890194 0.489457 0.768428
O O9 0.836771 0.183054 0.840381
O O10 0.941301 0.329132 0.540015
O O11 0.735723 0.387492 0.890512
O O12 0.443642 0.534664 0.919976
O O13 0.975030 0.798418 0.253718
O O14 0.082068 0.059057 0.047209
O O15 0.649839 0.487271 0.638063
O O16 0.822574 0.605581 0.437427
O O17 0.500000 0.000000 0.500000
#
# Coordination Sequence:
#
# PCOD8128787 Si02
#       8
#     4   4   4   4   4   4   4   4
#     4  11  25  41  68 103 137 185 226 273 342 420
#     4  11  26  44  71 105 141 186 231 288 350 418
#     4  11  25  47  73 100 137 187 235 297 352 409
#     4  11  22  47  66  97 146 183 222 280 344 413
#     4  11  27  49  71 102 137 183 242 298 356 409
#     4  12  25  45  73 106 139 187 232 288 359 424
#     4  11  25  41  66 102 144 180 226 273 342 422
#     4  12  27  48  74 102 141 184 238 299 354 421
#
# _framework density 21.748996000000002
#
# number of rings (size 3 to 8) (size 9 to 14) (size 15 to 20)
#    0.000    0.750    3.750    3.000    8.750    1.500 
#    0.000    0.000    0.000    0.000    0.000    0.000 
#    0.000    0.000    0.000    0.000    0.000    0.000 
#
# Total GULP energy -396914.337910 kJ/mol
# GULP energy per Si atom -12403.573060 kJ/mol
# Density = 2.169949 g / cm^3
# Si number density = 21.748996 Si / 1000 Ang^3
#
#
#
# Elastic Constant Matrix: (Units=GPa)
#
#
# Indices 1 2 3 4 5 6 
#
# 1 118.2617 19.4997 43.0962 0.0000 11.2689 0.0000
# 2 19.4997 44.5323 29.5665 0.0000 4.2864 0.0000
# 3 43.0962 29.5665 107.2874 0.0000 6.6734 0.0000
# 4 0.0000 0.0000 0.0000 34.2214 0.0000 8.5356
# 5 11.2689 4.2864 6.6734 0.0000 38.7819 0.0000
# 6 0.0000 0.0000 0.0000 8.5356 0.0000 39.0414
#
#
#
# Elastic Compliance Matrix: (Units=1/GPa)
#
#
# Indices 1 2 3 4 5 6 
#
# 1 0.010241 -0.002000 -0.003428 0.000000 -0.002165 0.000000
# 2 -0.002000 0.027993 -0.006828 0.000000 -0.001338 0.000000
# 3 -0.003428 -0.006828 0.012605 0.000000 -0.000418 0.000000
# 4 0.000000 0.000000 0.000000 0.030907 0.000000 -0.006757
# 5 -0.002165 -0.001338 -0.000418 0.000000 0.026634 0.000000
# 6 0.000000 0.000000 0.000000 -0.006757 0.000000 0.027091
#
#
# Mechanical properties :
#
#
# Convention : Reuss Voigt Hill
#
# Bulk Modulus (GPa) = 37.98208 50.48956 44.23582
# Shear Modulus (GPa) = 29.62794 34.27021 31.94907
#
# Velocity S-wave (km/s) = 3.69489 3.97383 3.83690
# Velocity P-wave (km/s) = 5.97534 6.65734 6.32554
#
# Compressibility (1/GPa) = 0.02632821
#
# Stress axis : x y z
#
# Youngs Moduli (GPa) = 97.64617 35.72274 79.33132
#
# Poissons Ratio (x) = 0.07145 0.27194
# Poissons Ratio (y) = 0.19530 0.54166
# Poissons Ratio (z) = 0.33472 0.24391
#
# Static dielectric constant tensor:
#      x y z
#    x 4.118720 0.000000 0.045700 
#    y 0.000000 3.670850 0.000000 
#    z 0.045700 0.000000 3.776070 
# 
# 
# High freq. dielectric constant tensor:
#      x y z
#    x 1.868520 0.000000 0.002950 
#    y 0.000000 1.849550 0.000000 
#    z 0.002950 0.000000 1.864130 
# 
# From -- ./inp_files/51356.got.cif
#   From: 2010.03.12/outbox.cif.g09.slc.cpg/sg14_26_cif.got.tgz:51356.got - 2010.03.31 13:35:05.
