data_PCOD8128518
_publ_section_title
;
Structure prediction by ZEFSAII (Michael W. Deem and Ramdas Pophale) SiO2 
 PCOD8128518
Probable space group: P 21/C
;
_chemical_formula_sum "Si O2"
_cell_formula_units_Z 20
_cell_length_a 9.546172
_cell_length_b 6.795331
_cell_length_c 17.212580
_cell_angle_alpha 90.000000
_cell_angle_beta 50.377408
_cell_angle_gamma 90.000000
_cell_volume 860.051045
_symmetry_space_group_name_H-M "P 21/C"
_symmetry_group_IT_number 14
_symmetry_cell_setting 'monoclinic'
loop_
_space_group_symop_operation_xyz
x,y,z
-x,1/2+y,1/2-z
-x,-y,-z
x,1/2-y,1/2+z
loop_
_atom_site_type_symbol
_atom_site_label
_atom_site_fract_x
_atom_site_fract_y
_atom_site_fract_z
Si Si1 0.035767 0.189114 0.038299
Si Si2 0.097986 0.890033 0.142122
Si Si3 0.244420 0.117615 0.220652
Si Si4 0.721588 0.998590 0.627136
Si Si5 0.554973 0.337693 0.042297
O O1 0.866137 0.333587 0.096227
O O2 0.080499 0.105479 0.108238
O O3 0.204317 0.309633 0.945011
O O4 0.000000 0.000000 0.000000
O O5 0.906355 0.779479 0.204013
O O6 0.146591 0.929539 0.215239
O O7 0.251175 0.756372 0.047149
O O8 0.351656 0.062587 0.261938
O O9 0.391451 0.182413 0.104096
O O10 0.562928 0.076925 0.627390
O O11 0.500000 0.500000 0.000000
#
# Coordination Sequence:
#
# PCOD8128518 Si02
#       5
#     4   4   4   4   4
#     4  11  20  43  76  98 139 183 223 286 356 407
#     4  12  24  47  70 100 142 181 235 284 353 419
#     4  12  26  42  72 103 137 185 230 294 341 411
#     4  11  24  43  69 110 136 176 243 286 342 424
#     4  12  27  46  67 101 147 186 229 291 353 414
#
# _framework density 23.254432999999999
#
# number of rings (size 3 to 8) (size 9 to 14) (size 15 to 20)
#    0.000    0.400    4.000    5.400    0.000    4.800 
#    0.000    0.000    0.000    0.000    0.000    0.000 
#    0.000    0.000    0.000    0.000    0.000    0.000 
#
# Total GULP energy -247987.181913 kJ/mol
# GULP energy per Si atom -12399.359096 kJ/mol
# Density = 2.320150 g / cm^3
# Si number density = 23.254433 Si / 1000 Ang^3
#
#
#
# Elastic Constant Matrix: (Units=GPa)
#
#
# Indices 1 2 3 4 5 6 
#
# 1 117.0031 20.7079 24.4543 0.0000 33.6348 0.0000
# 2 20.7079 90.8159 20.1779 0.0000 9.1288 0.0000
# 3 24.4543 20.1779 81.9538 0.0000 6.9806 0.0000
# 4 0.0000 0.0000 0.0000 35.9088 0.0000 18.7035
# 5 33.6348 9.1288 6.9806 0.0000 47.6496 0.0000
# 6 0.0000 0.0000 0.0000 18.7035 0.0000 46.8248
#
#
#
# Elastic Compliance Matrix: (Units=1/GPa)
#
#
# Indices 1 2 3 4 5 6 
#
# 1 0.011437 -0.001313 -0.002454 0.000000 -0.007462 0.000000
# 2 -0.001313 0.011960 -0.002467 0.000000 -0.001003 0.000000
# 3 -0.002454 -0.002467 0.013523 0.000000 0.000224 0.000000
# 4 0.000000 0.000000 0.000000 0.035164 0.000000 -0.014046
# 5 -0.007462 -0.001003 0.000224 0.000000 0.026413 0.000000
# 6 0.000000 0.000000 0.000000 -0.014046 0.000000 0.026967
#
#
# Mechanical properties :
#
#
# Convention : Reuss Voigt Hill
#
# Bulk Modulus (GPa) = 40.89732 46.71700 43.80716
# Shear Modulus (GPa) = 34.22728 41.03883 37.63305
#
# Velocity S-wave (km/s) = 3.84065 4.20548 4.02720
# Velocity P-wave (km/s) = 6.10676 6.61170 6.36424
#
# Compressibility (1/GPa) = 0.02445148
#
# Stress axis : x y z
#
# Youngs Moduli (GPa) = 87.43433 83.61437 73.94975
#
# Poissons Ratio (x) = 0.10975 0.18147
# Poissons Ratio (y) = 0.11476 0.18247
# Poissons Ratio (z) = 0.21456 0.20632
#
# Static dielectric constant tensor:
#      x y z
#    x 4.447110 0.000000 0.385950 
#    y 0.000000 4.310540 0.000000 
#    z 0.385950 0.000000 4.107180 
# 
# 
# High freq. dielectric constant tensor:
#      x y z
#    x 1.934270 0.000000 0.019790 
#    y 0.000000 1.928590 0.000000 
#    z 0.019790 0.000000 1.913810 
# 
# From -- ./inp_files/71527.got.cif
#   From: 2010.03.12/outbox.cif.g09.slc.cpg/sg14_36_cif.got.tgz:71527.got - 2010.03.31 13:35:05.
