data_PCOD8128769
_publ_section_title
;
Structure prediction by ZEFSAII (Michael W. Deem and Ramdas Pophale) SiO2 
 PCOD8128769
Probable space group: P 21/C
;
_chemical_formula_sum "Si O2"
_cell_formula_units_Z 28
_cell_length_a 6.412224
_cell_length_b 13.736790
_cell_length_c 17.137451
_cell_angle_alpha 90.000000
_cell_angle_beta 53.447590
_cell_angle_gamma 90.000000
_cell_volume 1212.619797
_symmetry_space_group_name_H-M "P 21/C"
_symmetry_group_IT_number 14
_symmetry_cell_setting 'monoclinic'
loop_
_space_group_symop_operation_xyz
x,y,z
-x,1/2+y,1/2-z
-x,-y,-z
x,1/2-y,1/2+z
loop_
_atom_site_type_symbol
_atom_site_label
_atom_site_fract_x
_atom_site_fract_y
_atom_site_fract_z
Si Si1 0.995336 0.520920 0.409743
Si Si2 0.798243 0.771999 0.980646
Si Si3 0.240699 0.848750 0.129131
Si Si4 0.100611 0.896630 0.324917
Si Si5 0.088180 0.204233 0.372933
Si Si6 0.292626 0.947461 0.597204
Si Si7 0.482370 0.046981 0.291798
O O1 0.918956 0.632585 0.414721
O O2 0.790112 0.452025 0.409315
O O3 0.000000 0.500000 0.500000
O O4 0.286447 0.509986 0.313541
O O5 0.912379 0.681052 0.907563
O O6 0.487209 0.786757 0.042828
O O7 0.883621 0.756225 0.050380
O O8 0.275117 0.856670 0.214865
O O9 0.971769 0.790323 0.174630
O O10 0.288271 0.953696 0.344306
O O11 0.918224 0.976102 0.324372
O O12 0.334387 0.141104 0.288531
O O13 0.835054 0.134996 0.428071
O O14 0.432821 0.908884 0.643721
O O15 0.500000 0.000000 0.500000
#
# Coordination Sequence:
#
# PCOD8128769 Si02
#       7
#     4   4   4   4   4   4   4
#     4  12  26  49  71 102 144 196 239 295 360 435
#     4  12  27  45  74 105 141 191 243 296 364 434
#     4  12  26  47  71 105 147 187 247 298 358 438
#     4  11  26  43  74 106 142 190 235 304 366 424
#     4  11  25  44  71 105 141 185 239 300 355 432
#     4  11  22  45  71 104 145 181 234 295 369 428
#     4  11  25  46  74 105 146 186 241 297 365 434
#
# _framework density 23.090502000000001
#
# number of rings (size 3 to 8) (size 9 to 14) (size 15 to 20)
#    0.000    0.571    2.857    4.714    4.000    3.429 
#    2.571    0.000    0.000    0.000    0.000    0.000 
#    0.000    0.000    0.000    0.000    0.000    0.000 
#
# Total GULP energy -347050.235752 kJ/mol
# GULP energy per Si atom -12394.651277 kJ/mol
# Density = 2.303795 g / cm^3
# Si number density = 23.090502 Si / 1000 Ang^3
#
#
#
# Elastic Constant Matrix: (Units=GPa)
#
#
# Indices 1 2 3 4 5 6 
#
# 1 123.4315 53.5644 39.2033 0.0000 -5.1103 0.0000
# 2 53.5644 120.2311 21.7211 0.0000 -12.3211 0.0000
# 3 39.2033 21.7211 89.3524 0.0000 -7.4819 0.0000
# 4 0.0000 0.0000 0.0000 37.6842 0.0000 -0.7135
# 5 -5.1103 -12.3211 -7.4819 0.0000 36.1174 0.0000
# 6 0.0000 0.0000 0.0000 -0.7135 0.0000 50.1952
#
#
#
# Elastic Compliance Matrix: (Units=1/GPa)
#
#
# Indices 1 2 3 4 5 6 
#
# 1 0.011208 -0.004359 -0.003918 0.000000 -0.000713 0.000000
# 2 -0.004359 0.010636 -0.000429 0.000000 0.002923 0.000000
# 3 -0.003918 -0.000429 0.013185 0.000000 0.002031 0.000000
# 4 0.000000 0.000000 0.000000 0.026543 0.000000 0.000377
# 5 -0.000713 0.002923 0.002031 0.000000 0.029004 0.000000
# 6 0.000000 0.000000 0.000000 0.000377 0.000000 0.019928
#
#
# Mechanical properties :
#
#
# Convention : Reuss Voigt Hill
#
# Bulk Modulus (GPa) = 56.75568 62.44359 59.59964
# Shear Modulus (GPa) = 37.37300 39.36778 38.37039
#
# Velocity S-wave (km/s) = 4.02748 4.13356 4.08087
# Velocity P-wave (km/s) = 6.80150 7.06282 6.93340
#
# Compressibility (1/GPa) = 0.01761938
#
# Stress axis : x y z
#
# Youngs Moduli (GPa) = 89.22323 94.01998 75.84551
#
# Poissons Ratio (x) = 0.40979 0.29713
# Poissons Ratio (y) = 0.38888 0.03250
# Poissons Ratio (z) = 0.34954 0.04029
#
# Static dielectric constant tensor:
#      x y z
#    x 4.306170 0.000000 -0.254700 
#    y 0.000000 4.586820 0.000000 
#    z -0.254700 0.000000 4.097080 
# 
# 
# High freq. dielectric constant tensor:
#      x y z
#    x 1.925070 0.000000 -0.009880 
#    y 0.000000 1.933510 0.000000 
#    z -0.009880 0.000000 1.894840 
# 
# From -- ./inp_files/53412.got.cif
#   From: 2010.03.12/outbox.cif.g09.slc.cpg/sg14_27_cif.got.tgz:53412.got - 2010.03.31 13:35:05.
