data_PCOD8128913
_publ_section_title
;
Structure prediction by ZEFSAII (Michael W. Deem and Ramdas Pophale) SiO2 
 PCOD8128913
Probable space group: P 21/C
;
_chemical_formula_sum "Si O2"
_cell_formula_units_Z 28
_cell_length_a 12.507442
_cell_length_b 5.235988
_cell_length_c 19.470966
_cell_angle_alpha 90.000000
_cell_angle_beta 117.485632
_cell_angle_gamma 90.000000
_cell_volume 1131.202194
_symmetry_space_group_name_H-M "P 21/C"
_symmetry_group_IT_number 14
_symmetry_cell_setting 'monoclinic'
loop_
_space_group_symop_operation_xyz
x,y,z
-x,1/2+y,1/2-z
-x,-y,-z
x,1/2-y,1/2+z
loop_
_atom_site_type_symbol
_atom_site_label
_atom_site_fract_x
_atom_site_fract_y
_atom_site_fract_z
Si Si1 0.278050 0.139435 0.798166
Si Si2 0.359802 0.444798 0.947293
Si Si3 0.906270 0.979120 0.809982
Si Si4 0.860455 0.234467 0.161891
Si Si5 0.575052 0.486521 0.773647
Si Si6 0.250988 0.364997 0.057495
Si Si7 0.120762 0.858368 0.056240
O O1 0.361844 0.278982 0.878624
O O2 0.215868 0.313057 0.720830
O O3 0.352563 0.930269 0.776098
O O4 0.166507 0.025397 0.806575
O O5 0.267511 0.682802 0.909636
O O6 0.500000 0.500000 0.000000
O O7 0.306662 0.308906 0.999055
O O8 0.032673 0.824374 0.861185
O O9 0.911064 0.067241 0.732433
O O10 0.890824 0.193809 0.864525
O O11 0.482222 0.261986 0.757110
O O12 0.653706 0.497315 0.865161
O O13 0.144279 0.584677 0.025400
O O14 0.219517 0.080446 0.072919
O O15 0.000000 0.000000 0.000000
#
# Coordination Sequence:
#
# PCOD8128913 Si02
#       7
#     4   4   4   4   4   4   4
#     4  11  25  46  74 105 141 191 240 307 362 431
#     4  11  28  47  70 104 145 193 246 298 363 435
#     4  11  23  43  72 109 138 188 239 304 364 440
#     4  11  24  43  73 103 145 183 245 298 368 430
#     4  12  27  48  76 105 144 192 248 301 365 431
#     4  12  27  49  71 109 146 192 244 297 364 440
#     4  12  27  46  75 105 152 189 239 297 372 439
#
# _framework density 24.752427000000001
#
# number of rings (size 3 to 8) (size 9 to 14) (size 15 to 20)
#    0.000    0.571    2.857    3.857   10.000    0.571 
#    0.000    0.000    0.000    0.000    0.000    0.000 
#    0.000    0.000    0.000    0.000    0.000    0.000 
#
# Total GULP energy -346894.963260 kJ/mol
# GULP energy per Si atom -12389.105831 kJ/mol
# Density = 2.469609 g / cm^3
# Si number density = 24.752427 Si / 1000 Ang^3
#
#
#
# Elastic Constant Matrix: (Units=GPa)
#
#
# Indices 1 2 3 4 5 6 
#
# 1 93.5636 2.8494 28.6153 0.0000 2.0505 0.0000
# 2 2.8494 64.1494 -9.5046 0.0000 2.7409 0.0000
# 3 28.6153 -9.5046 79.4842 0.0000 12.2553 0.0000
# 4 0.0000 0.0000 0.0000 24.7167 0.0000 6.1245
# 5 2.0505 2.7409 12.2553 0.0000 46.4977 0.0000
# 6 0.0000 0.0000 0.0000 6.1245 0.0000 31.4483
#
#
#
# Elastic Compliance Matrix: (Units=1/GPa)
#
#
# Indices 1 2 3 4 5 6 
#
# 1 0.012127 -0.001258 -0.004633 0.000000 0.000761 0.000000
# 2 -0.001258 0.016101 0.002622 0.000000 -0.001585 0.000000
# 3 -0.004633 0.002622 0.015172 0.000000 -0.003949 0.000000
# 4 0.000000 0.000000 0.000000 0.042510 0.000000 -0.008279
# 5 0.000761 -0.001585 -0.003949 0.000000 0.022607 0.000000
# 6 0.000000 0.000000 0.000000 -0.008279 0.000000 0.033411
#
#
# Mechanical properties :
#
#
# Convention : Reuss Voigt Hill
#
# Bulk Modulus (GPa) = 27.12835 31.23526 29.18180
# Shear Modulus (GPa) = 31.10399 34.88166 32.99282
#
# Velocity S-wave (km/s) = 3.54871 3.75803 3.65487
# Velocity P-wave (km/s) = 5.27018 5.61043 5.44296
#
# Compressibility (1/GPa) = 0.03686181
#
# Stress axis : x y z
#
# Youngs Moduli (GPa) = 82.46320 62.10895 65.91235
#
# Poissons Ratio (x) = 0.07811 0.30540
# Poissons Ratio (y) = 0.10371 -0.17285
# Poissons Ratio (z) = 0.38208 -0.16288
#
# Static dielectric constant tensor:
#      x y z
#    x 2.787220 0.000000 0.684670 
#    y 0.000000 4.615630 0.000000 
#    z 0.684670 0.000000 4.396220 
# 
# 
# High freq. dielectric constant tensor:
#      x y z
#    x 1.998980 0.000000 -0.001440 
#    y 0.000000 1.968740 0.000000 
#    z -0.001440 0.000000 1.998730 
# 
# From -- ./inp_files/66553.got.cif
#   From: 2010.03.12/outbox.cif.g09.slc.cpg/sg14_34_cif.got.tgz:66553.got - 2010.03.31 13:35:05.
