data_PCOD8128446
_publ_section_title
;
Structure prediction by ZEFSAII (Michael W. Deem and Ramdas Pophale) SiO2 
 PCOD8128446
Probable space group: P 21/C
;
_chemical_formula_sum "Si O2"
_cell_formula_units_Z 28
_cell_length_a 8.147140
_cell_length_b 12.185776
_cell_length_c 16.607964
_cell_angle_alpha 90.000000
_cell_angle_beta 121.438613
_cell_angle_gamma 90.000000
_cell_volume 1406.777288
_symmetry_space_group_name_H-M "P 21/C"
_symmetry_group_IT_number 14
_symmetry_cell_setting 'monoclinic'
loop_
_space_group_symop_operation_xyz
x,y,z
-x,1/2+y,1/2-z
-x,-y,-z
x,1/2-y,1/2+z
loop_
_atom_site_type_symbol
_atom_site_label
_atom_site_fract_x
_atom_site_fract_y
_atom_site_fract_z
Si Si1 0.091870 0.893568 0.352174
Si Si2 0.048571 0.846172 0.161840
Si Si3 0.322001 0.104119 0.039905
Si Si4 0.080387 0.246565 0.072130
Si Si5 0.113790 0.367713 0.916674
Si Si6 0.292451 0.637452 0.577372
Si Si7 0.476809 0.777505 0.504995
O O1 0.071327 0.908393 0.251608
O O2 0.302052 0.850523 0.428571
O O3 0.928923 0.810412 0.345349
O O4 0.049648 0.009824 0.382265
O O5 0.245617 0.861140 0.160731
O O6 0.013575 0.716631 0.169368
O O7 0.865695 0.892946 0.066038
O O8 0.270008 0.171239 0.109191
O O9 0.499194 0.167786 0.043923
O O10 0.380267 0.980600 0.075449
O O11 0.073052 0.338160 0.999401
O O12 0.902117 0.162164 0.021762
O O13 0.337230 0.354108 0.950217
O O14 0.441751 0.732545 0.587420
#
# Coordination Sequence:
#
# PCOD8128446 Si02
#       7
#     4   4   4   4   4   4   4
#     4  11  19  32  53  74  99 129 162 208 247 279
#     4   9  20  32  48  78  99 121 169 210 240 284
#     4   9  17  34  53  73 100 131 164 201 241 293
#     4   8  17  30  50  74  94 128 172 193 233 304
#     4   9  19  36  51  70 102 131 161 202 243 294
#     4   9  16  32  53  70  99 134 160 197 244 292
#     4   9  19  32  51  73  96 134 171 189 234 310
#
# _framework density 19.903645999999998
#
# number of rings (size 3 to 8) (size 9 to 14) (size 15 to 20)
#    0.000    3.429    0.000    3.000    0.000    3.429 
#    0.000    7.143    0.000    0.000    0.000    0.000 
#    0.000    0.000    0.000    0.000    0.000    0.000 
#
# Total GULP energy -346921.325509 kJ/mol
# GULP energy per Si atom -12390.047340 kJ/mol
# Density = 1.985834 g / cm^3
# Si number density = 19.903646 Si / 1000 Ang^3
#
#
#
# Elastic Constant Matrix: (Units=GPa)
#
#
# Indices 1 2 3 4 5 6 
#
# 1 45.0925 8.7763 0.1969 0.0000 -13.6905 0.0000
# 2 8.7763 94.4126 17.5152 0.0000 -1.4459 0.0000
# 3 0.1969 17.5152 40.2704 0.0000 -16.6372 0.0000
# 4 0.0000 0.0000 0.0000 13.4786 0.0000 -7.2596
# 5 -13.6905 -1.4459 -16.6372 0.0000 19.6366 0.0000
# 6 0.0000 0.0000 0.0000 -7.2596 0.0000 28.7535
#
#
#
# Elastic Compliance Matrix: (Units=1/GPa)
#
#
# Indices 1 2 3 4 5 6 
#
# 1 0.035772 -0.006318 0.019515 0.000000 0.041009 0.000000
# 2 -0.006318 0.012997 -0.010841 0.000000 -0.012633 0.000000
# 3 0.019515 -0.010841 0.053453 0.000000 0.058096 0.000000
# 4 0.000000 0.000000 0.000000 0.085868 0.000000 0.021680
# 5 0.041009 -0.012633 0.058096 0.000000 0.127808 0.000000
# 6 0.000000 0.000000 0.000000 0.021680 0.000000 0.040252
#
#
# Mechanical properties :
#
#
# Convention : Reuss Voigt Hill
#
# Bulk Modulus (GPa) = 9.35147 25.86137 17.60642
# Shear Modulus (GPa) = 12.91715 22.59290 17.75503
#
# Velocity S-wave (km/s) = 2.55028 3.37280 2.98996
# Velocity P-wave (km/s) = 3.65793 5.30935 4.55904
#
# Compressibility (1/GPa) = 0.10693508
#
# Stress axis : x y z
#
# Youngs Moduli (GPa) = 27.95509 76.94208 18.70786
#
# Poissons Ratio (x) = 0.48609 -0.36509
# Poissons Ratio (y) = 0.17661 0.20281
# Poissons Ratio (z) = -0.54555 0.83412
#
# Static dielectric constant tensor:
#      x y z
#    x 3.847940 0.000000 -0.382500 
#    y 0.000000 3.643090 0.000000 
#    z -0.382500 0.000000 3.106400 
# 
# 
# High freq. dielectric constant tensor:
#      x y z
#    x 1.787480 0.000000 -0.033230 
#    y 0.000000 1.781610 0.000000 
#    z -0.033230 0.000000 1.716460 
# 
# From -- ./inp_files/55231.got.cif
#   From: 2010.03.12/outbox.cif.g09.slc.cpg/sg14_28_cif.got.tgz:55231.got - 2010.03.31 13:35:05.
