data_PCOD8128742
_publ_section_title
;
Structure prediction by ZEFSAII (Michael W. Deem and Ramdas Pophale) SiO2 
 PCOD8128742
Probable space group: P 21/C
;
_chemical_formula_sum "Si O2"
_cell_formula_units_Z 32
_cell_length_a 12.271660
_cell_length_b 20.094845
_cell_length_c 11.501647
_cell_angle_alpha 90.000000
_cell_angle_beta 33.679061
_cell_angle_gamma 90.000000
_cell_volume 1572.827742
_symmetry_space_group_name_H-M "P 21/C"
_symmetry_group_IT_number 14
_symmetry_cell_setting 'monoclinic'
loop_
_space_group_symop_operation_xyz
x,y,z
-x,1/2+y,1/2-z
-x,-y,-z
x,1/2-y,1/2+z
loop_
_atom_site_type_symbol
_atom_site_label
_atom_site_fract_x
_atom_site_fract_y
_atom_site_fract_z
Si Si1 0.901290 0.218613 0.338890
Si Si2 0.708373 0.465530 0.830291
Si Si3 0.567259 0.123556 0.656669
Si Si4 0.181289 0.317591 0.391963
Si Si5 0.129327 0.862447 0.226984
Si Si6 0.488431 0.577612 0.541135
Si Si7 0.990627 0.419091 0.396822
Si Si8 0.834461 0.822203 0.683248
O O1 0.692834 0.189858 0.565538
O O2 0.849646 0.295005 0.364050
O O3 0.059639 0.207251 0.298311
O O4 0.988980 0.186840 0.143607
O O5 0.879261 0.515996 0.708302
O O6 0.780785 0.427104 0.649695
O O7 0.500000 0.500000 0.000000
O O8 0.691016 0.415480 0.951536
O O9 0.348986 0.140618 0.807946
O O10 0.565532 0.080747 0.775469
O O11 0.113453 0.356197 0.336505
O O12 0.263250 0.243509 0.289097
O O13 0.335541 0.886990 0.092427
O O14 0.048224 0.914786 0.205794
O O15 0.983561 0.857162 0.463833
O O16 0.500000 0.500000 0.500000
O O17 0.686772 0.619479 0.348456
#
# Coordination Sequence:
#
# PCOD8128742 Si02
#       8
#     4   4   4   4   4   4   4   4
#     4  11  22  44  70  97 132 171 225 278 335 399
#     4  11  25  41  65 100 135 174 223 274 335 398
#     4  12  24  43  69  96 133 178 221 276 340 394
#     4  11  22  43  70  98 129 172 226 283 336 396
#     4  11  26  45  69 100 136 176 224 280 337 402
#     4  12  29  45  67 102 142 186 227 272 338 425
#     4  11  24  42  67  99 133 176 225 276 334 404
#     4  11  24  46  68 100 134 178 227 278 344 397
#
# _framework density 20.345521000000002
#
# number of rings (size 3 to 8) (size 9 to 14) (size 15 to 20)
#    0.000    0.750    6.250    0.750    3.500    1.500 
#    2.250    0.000    0.000    0.000    0.000    0.000 
#    0.000    0.000    0.000    0.000    0.000    0.000 
#
# Total GULP energy -396795.021749 kJ/mol
# GULP energy per Si atom -12399.844430 kJ/mol
# Density = 2.029921 g / cm^3
# Si number density = 20.345521 Si / 1000 Ang^3
#
#
#
# Elastic Constant Matrix: (Units=GPa)
#
#
# Indices 1 2 3 4 5 6 
#
# 1 116.9339 34.0127 23.4002 0.0000 -9.8865 0.0000
# 2 34.0127 101.4557 44.1808 0.0000 -5.6393 0.0000
# 3 23.4002 44.1808 74.0535 0.0000 -9.8888 0.0000
# 4 0.0000 0.0000 0.0000 34.3052 0.0000 -1.6776
# 5 -9.8865 -5.6393 -9.8888 0.0000 30.6133 0.0000
# 6 0.0000 0.0000 0.0000 -1.6776 0.0000 29.3674
#
#
#
# Elastic Compliance Matrix: (Units=1/GPa)
#
#
# Indices 1 2 3 4 5 6 
#
# 1 0.009747 -0.002611 -0.001219 0.000000 0.002273 0.000000
# 2 -0.002611 0.014016 -0.007634 0.000000 -0.000727 0.000000
# 3 -0.001219 -0.007634 0.019024 0.000000 0.004345 0.000000
# 4 0.000000 0.000000 0.000000 0.029232 0.000000 0.001670
# 5 0.002273 -0.000727 0.004345 0.000000 0.034669 0.000000
# 6 0.000000 0.000000 0.000000 0.001670 0.000000 0.034147
#
#
# Mechanical properties :
#
#
# Convention : Reuss Voigt Hill
#
# Bulk Modulus (GPa) = 50.35388 55.07006 52.71197
# Shear Modulus (GPa) = 29.34589 31.58046 30.46318
#
# Velocity S-wave (km/s) = 3.80198 3.94408 3.87368
# Velocity P-wave (km/s) = 6.63902 6.91861 6.78026
#
# Compressibility (1/GPa) = 0.01985944
#
# Stress axis : x y z
#
# Youngs Moduli (GPa) = 102.59235 71.34880 52.56599
#
# Poissons Ratio (x) = 0.18626 0.06408
# Poissons Ratio (y) = 0.26782 0.40129
# Poissons Ratio (z) = 0.12506 0.54468
#
# Static dielectric constant tensor:
#      x y z
#    x 3.763940 0.000000 0.145350 
#    y 0.000000 4.589000 0.000000 
#    z 0.145350 0.000000 3.767230 
# 
# 
# High freq. dielectric constant tensor:
#      x y z
#    x 1.804030 0.000000 0.006020 
#    y 0.000000 1.804170 0.000000 
#    z 0.006020 0.000000 1.799520 
# 
# From -- ./inp_files/30726.got.cif
#   From: 2010.03.12/outbox.cif.g09.slc.cpg/sg14_16_cif.got.tgz:30726.got - 2010.03.31 13:35:05.
