data_PCOD8128203
_publ_section_title
;
Structure prediction by ZEFSAII (Michael W. Deem and Ramdas Pophale) SiO2 
 PCOD8128203
Probable space group: P 21/C
;
_chemical_formula_sum "Si O2"
_cell_formula_units_Z 32
_cell_length_a 11.578168
_cell_length_b 10.034788
_cell_length_c 12.115059
_cell_angle_alpha 90.000000
_cell_angle_beta 103.477460
_cell_angle_gamma 90.000000
_cell_volume 1368.819174
_symmetry_space_group_name_H-M "P 21/C"
_symmetry_group_IT_number 14
_symmetry_cell_setting 'monoclinic'
loop_
_space_group_symop_operation_xyz
x,y,z
-x,1/2+y,1/2-z
-x,-y,-z
x,1/2-y,1/2+z
loop_
_atom_site_type_symbol
_atom_site_label
_atom_site_fract_x
_atom_site_fract_y
_atom_site_fract_z
Si Si1 0.739170 0.496533 0.950056
Si Si2 0.197951 0.778033 0.370388
Si Si3 0.661011 0.714920 0.077039
Si Si4 0.168831 0.118296 0.737701
Si Si5 0.458112 0.727866 0.366359
Si Si6 0.047505 0.894941 0.159134
Si Si7 0.972973 0.827308 0.922091
Si Si8 0.511051 0.528219 0.186201
O O1 0.782986 0.501856 0.832275
O O2 0.601606 0.451351 0.919418
O O3 0.811683 0.389587 0.036160
O O4 0.749164 0.642318 0.009910
O O5 0.326212 0.710197 0.387790
O O6 0.164715 0.839874 0.244214
O O7 0.096590 0.672691 0.380458
O O8 0.728125 0.832443 0.156872
O O9 0.622456 0.598947 0.153672
O O10 0.549314 0.778019 0.988490
O O11 0.054007 0.067131 0.775950
O O12 0.128354 0.234500 0.647554
O O13 0.486995 0.599661 0.297639
O O14 0.466899 0.867660 0.298717
O O15 0.998357 0.791223 0.056246
O O16 0.084853 0.026623 0.100973
#
# Coordination Sequence:
#
# PCOD8128203 Si02
#       8
#     4   4   4   4   4   4   4   4
#     4  11  22  40  65  98 129 177 228 277 336 413
#     4  11  23  42  70  93 135 182 220 290 339 418
#     4  11  20  43  65  95 136 177 224 276 345 410
#     4  11  24  40  70  96 129 177 227 286 338 418
#     4  11  24  43  69 104 137 184 227 282 347 418
#     4  10  24  43  62  97 132 170 228 282 348 404
#     4  10  24  43  63  95 130 176 222 285 348 414
#     4  11  23  42  65 100 138 177 229 279 341 411
#
# _framework density 23.377811999999999
#
# number of rings (size 3 to 8) (size 9 to 14) (size 15 to 20)
#    0.000    1.250    2.500    3.750    3.500    4.000 
#    2.250    2.500    0.000    0.000    0.000    0.000 
#    0.000    0.000    0.000    0.000    0.000    0.000 
#
# Total GULP energy -396770.991828 kJ/mol
# GULP energy per Si atom -12399.093495 kJ/mol
# Density = 2.332460 g / cm^3
# Si number density = 23.377812 Si / 1000 Ang^3
#
#
#
# Elastic Constant Matrix: (Units=GPa)
#
#
# Indices 1 2 3 4 5 6 
#
# 1 75.8363 -0.9242 17.9272 0.0000 3.5471 0.0000
# 2 -0.9242 47.4273 22.2510 0.0000 10.3972 0.0000
# 3 17.9272 22.2510 118.2142 0.0000 12.3494 0.0000
# 4 0.0000 0.0000 0.0000 30.1437 0.0000 0.8075
# 5 3.5471 10.3972 12.3494 0.0000 40.4704 0.0000
# 6 0.0000 0.0000 0.0000 0.8075 0.0000 15.4899
#
#
#
# Elastic Compliance Matrix: (Units=1/GPa)
#
#
# Indices 1 2 3 4 5 6 
#
# 1 0.013788 0.001540 -0.002286 0.000000 -0.000906 0.000000
# 2 0.001540 0.024224 -0.004265 0.000000 -0.005057 0.000000
# 3 -0.002286 -0.004265 0.009785 0.000000 -0.001690 0.000000
# 4 0.000000 0.000000 0.000000 0.033221 0.000000 -0.001732
# 5 -0.000906 -0.005057 -0.001690 0.000000 0.026604 0.000000
# 6 0.000000 0.000000 0.000000 -0.001732 0.000000 0.064649
#
#
# Mechanical properties :
#
#
# Convention : Reuss Voigt Hill
#
# Bulk Modulus (GPa) = 26.47223 35.55398 31.01311
# Shear Modulus (GPa) = 25.65620 30.70238 28.17929
#
# Velocity S-wave (km/s) = 3.31639 3.62790 3.47563
# Velocity P-wave (km/s) = 5.10027 5.72628 5.42232
#
# Compressibility (1/GPa) = 0.03777543
#
# Stress axis : x y z
#
# Youngs Moduli (GPa) = 72.52750 41.28059 102.19500
#
# Poissons Ratio (x) = -0.06357 0.23363
# Poissons Ratio (y) = -0.11169 0.43585
# Poissons Ratio (z) = 0.16580 0.17606
#
# Static dielectric constant tensor:
#      x y z
#    x 4.042440 0.000000 0.053540 
#    y 0.000000 3.919130 0.000000 
#    z 0.053540 0.000000 4.371350 
# 
# 
# High freq. dielectric constant tensor:
#      x y z
#    x 1.922710 0.000000 0.001960 
#    y 0.000000 1.905790 0.000000 
#    z 0.001960 0.000000 1.935930 
# 
# From -- ./inp_files/29137.got.cif
#   From: 2010.03.12/outbox.cif.g09.slc.cpg/sg14_15_cif.got.tgz:29137.got - 2010.03.31 13:35:05.
