data_PCOD8128130
_publ_section_title
;
Structure prediction by ZEFSAII (Michael W. Deem and Ramdas Pophale) SiO2 
 PCOD8128130
Probable space group: P 21/C
;
_chemical_formula_sum "Si O2"
_cell_formula_units_Z 20
_cell_length_a 9.525912
_cell_length_b 9.314457
_cell_length_c 8.997223
_cell_angle_alpha 90.000000
_cell_angle_beta 85.369065
_cell_angle_gamma 90.000000
_cell_volume 795.705737
_symmetry_space_group_name_H-M "P 21/C"
_symmetry_group_IT_number 14
_symmetry_cell_setting 'monoclinic'
loop_
_space_group_symop_operation_xyz
x,y,z
-x,1/2+y,1/2-z
-x,-y,-z
x,1/2-y,1/2+z
loop_
_atom_site_type_symbol
_atom_site_label
_atom_site_fract_x
_atom_site_fract_y
_atom_site_fract_z
Si Si1 0.742487 0.441117 0.733240
Si Si2 0.674687 0.245890 0.987718
Si Si3 0.432274 0.945368 0.254588
Si Si4 0.066941 0.336858 0.151837
Si Si5 0.145217 0.080223 0.324771
O O1 0.778567 0.353307 0.579461
O O2 0.575646 0.467721 0.745543
O O3 0.830269 0.586175 0.737029
O O4 0.776446 0.344019 0.876342
O O5 0.576481 0.344316 0.099902
O O6 0.573432 0.148653 0.894724
O O7 0.307513 0.063765 0.265171
O O8 0.057565 0.172703 0.209813
O O9 0.916845 0.417963 0.165086
O O10 0.135488 0.341496 0.983744
#
# Coordination Sequence:
#
# PCOD8128130 Si02
#       5
#     4   4   4   4   4
#     4  11  24  42  69  98 135 176 226 276 332 396
#     4  10  24  40  68  96 140 172 220 278 344 382
#     4  11  24  42  69  98 135 176 226 276 332 396
#     4  11  28  46  68  99 136 176 225 276 333 398
#     4  11  28  46  68  99 136 176 225 276 333 398
#
# _framework density 25.134920000000001
#
# number of rings (size 3 to 8) (size 9 to 14) (size 15 to 20)
#    0.000    1.200    2.000    1.200   14.000    0.800 
#    0.000    0.000    0.000    0.000    0.000    0.000 
#    0.000    0.000    0.000    0.000    0.000    0.000 
#
# Total GULP energy -248126.697986 kJ/mol
# GULP energy per Si atom -12406.334899 kJ/mol
# Density = 2.507771 g / cm^3
# Si number density = 25.134920 Si / 1000 Ang^3
#
#
#
# Elastic Constant Matrix: (Units=GPa)
#
#
# Indices 1 2 3 4 5 6 
#
# 1 47.5450 -12.6567 -6.5160 0.0000 4.0106 0.0000
# 2 -12.6567 80.0774 39.1772 0.0000 -4.0160 0.0000
# 3 -6.5160 39.1772 135.7813 0.0000 5.7240 0.0000
# 4 0.0000 0.0000 0.0000 43.6703 0.0000 12.2679
# 5 4.0106 -4.0160 5.7240 0.0000 19.0863 0.0000
# 6 0.0000 0.0000 0.0000 12.2679 0.0000 24.2830
#
#
#
# Elastic Compliance Matrix: (Units=1/GPa)
#
#
# Indices 1 2 3 4 5 6 
#
# 1 0.022264 0.003150 0.000333 0.000000 -0.004116 0.000000
# 2 0.003150 0.015356 -0.004444 0.000000 0.003902 0.000000
# 3 0.000333 -0.004444 0.008817 0.000000 -0.003649 0.000000
# 4 0.000000 0.000000 0.000000 0.026686 0.000000 -0.013482
# 5 -0.004116 0.003902 -0.003649 0.000000 0.055174 0.000000
# 6 0.000000 0.000000 0.000000 -0.013482 0.000000 0.047992
#
#
# Mechanical properties :
#
#
# Convention : Reuss Voigt Hill
#
# Bulk Modulus (GPa) = 22.46486 33.71250 28.08868
# Shear Modulus (GPa) = 25.90015 33.63453 29.76734
#
# Velocity S-wave (km/s) = 3.21354 3.66205 3.44510
# Velocity P-wave (km/s) = 4.76720 5.59666 5.19850
#
# Compressibility (1/GPa) = 0.04451397
#
# Stress axis : x y z
#
# Youngs Moduli (GPa) = 44.91563 65.12296 113.41952
#
# Poissons Ratio (x) = -0.20511 -0.03779
# Poissons Ratio (y) = -0.14146 0.50403
# Poissons Ratio (z) = -0.01496 0.28940
#
# Static dielectric constant tensor:
#      x y z
#    x 4.026900 0.000000 0.086140 
#    y 0.000000 4.576010 0.000000 
#    z 0.086140 0.000000 4.821360 
# 
# 
# High freq. dielectric constant tensor:
#      x y z
#    x 1.982830 0.000000 0.009070 
#    y 0.000000 2.008360 0.000000 
#    z 0.009070 0.000000 2.017130 
# 
# From -- ./inp_files/11884.got.cif
#   From: 2010.03.12/outbox.cif.g09.slc.cpg/sg14_6_cif.got.tgz:11884.got - 2010.03.31 13:35:05.
