data_PCOD8128441
_publ_section_title
;
Structure prediction by ZEFSAII (Michael W. Deem and Ramdas Pophale) SiO2 
 PCOD8128441
Probable space group: P 21/C
;
_chemical_formula_sum "Si O2"
_cell_formula_units_Z 32
_cell_length_a 15.431418
_cell_length_b 19.446881
_cell_length_c 10.025375
_cell_angle_alpha 90.000000
_cell_angle_beta 142.782659
_cell_angle_gamma 90.000000
_cell_volume 1819.688457
_symmetry_space_group_name_H-M "P 21/C"
_symmetry_group_IT_number 14
_symmetry_cell_setting 'monoclinic'
loop_
_space_group_symop_operation_xyz
x,y,z
-x,1/2+y,1/2-z
-x,-y,-z
x,1/2-y,1/2+z
loop_
_atom_site_type_symbol
_atom_site_label
_atom_site_fract_x
_atom_site_fract_y
_atom_site_fract_z
Si Si1 0.040152 0.200658 0.553865
Si Si2 0.038031 0.317867 0.750614
Si Si3 0.379208 0.291703 0.450688
Si Si4 0.940147 0.551213 0.817069
Si Si5 0.620983 0.688856 0.836897
Si Si6 0.054016 0.474072 0.707063
Si Si7 0.628777 0.962454 0.323257
Si Si8 0.375454 0.443179 0.490350
O O1 0.975638 0.263547 0.564366
O O2 0.978241 0.200757 0.325993
O O3 0.208907 0.209768 0.750179
O O4 0.004751 0.128203 0.582100
O O5 0.996204 0.396614 0.664157
O O6 0.208174 0.312476 0.957792
O O7 0.445541 0.232940 0.625088
O O8 0.433669 0.277349 0.367921
O O9 0.433242 0.365585 0.565451
O O10 0.767846 0.548042 0.599625
O O11 0.995079 0.528569 0.740849
O O12 0.000000 0.500000 0.000000
O O13 0.564640 0.611706 0.783060
O O14 0.000000 0.500000 0.500000
O O15 0.226481 0.477638 0.919075
O O16 0.662260 0.966508 0.206536
O O17 0.504032 0.014183 0.213319
#
# Coordination Sequence:
#
# PCOD8128441 Si02
#       8
#     4   4   4   4   4   4   4   4
#     4   9  17  28  48  72 102 129 171 214 255 302
#     4   9  17  30  46  73 100 131 171 215 252 303
#     4   8  14  26  44  71  93 123 161 206 242 290
#     4  11  18  34  54  78 102 136 175 215 256 309
#     4   8  14  26  46  67  96 123 161 204 244 289
#     4  11  22  34  52  78 110 137 172 218 264 307
#     4   9  17  33  52  78 100 131 170 212 253 301
#     4   9  17  31  56  77  97 129 177 211 247 305
#
# _framework density 17.585429000000001
#
# number of rings (size 3 to 8) (size 9 to 14) (size 15 to 20)
#    0.000    2.750    2.500    1.500    1.750    0.000 
#    6.750    0.625    0.000    3.000    0.000    0.000 
#    0.000    0.000    0.000    0.000    0.000    0.000 
#
# Total GULP energy -396612.476241 kJ/mol
# GULP energy per Si atom -12394.139883 kJ/mol
# Density = 1.754540 g / cm^3
# Si number density = 17.585429 Si / 1000 Ang^3
#
#
#
# Elastic Constant Matrix: (Units=GPa)
#
#
# Indices 1 2 3 4 5 6 
#
# 1 54.7928 39.7826 40.0813 0.0000 -24.7732 0.0000
# 2 39.7826 107.6169 52.7967 0.0000 -25.7067 0.0000
# 3 40.0813 52.7967 79.7544 0.0000 -25.3852 0.0000
# 4 0.0000 0.0000 0.0000 29.3015 0.0000 -6.1866
# 5 -24.7732 -25.7067 -25.3852 0.0000 28.5620 0.0000
# 6 0.0000 0.0000 0.0000 -6.1866 0.0000 30.1697
#
#
#
# Elastic Compliance Matrix: (Units=1/GPa)
#
#
# Indices 1 2 3 4 5 6 
#
# 1 0.037504 -0.004376 -0.009554 0.000000 0.020099 0.000000
# 2 -0.004376 0.015046 -0.006497 0.000000 0.003972 0.000000
# 3 -0.009554 -0.006497 0.023904 0.000000 0.007112 0.000000
# 4 0.000000 0.000000 0.000000 0.035672 0.000000 0.007315
# 5 0.020099 0.003972 0.007112 0.000000 0.062341 0.000000
# 6 0.000000 0.000000 0.000000 0.007315 0.000000 0.034646
#
#
# Mechanical properties :
#
#
# Convention : Reuss Voigt Hill
#
# Bulk Modulus (GPa) = 28.08879 56.38727 42.23803
# Shear Modulus (GPa) = 19.09618 24.90686 22.00152
#
# Velocity S-wave (km/s) = 3.29889 3.76751 3.54096
# Velocity P-wave (km/s) = 5.52428 7.14562 6.38661
#
# Compressibility (1/GPa) = 0.03560140
#
# Stress axis : x y z
#
# Youngs Moduli (GPa) = 26.66418 66.46255 41.83355
#
# Poissons Ratio (x) = 0.29082 0.39966
# Poissons Ratio (y) = 0.11668 0.27179
# Poissons Ratio (z) = 0.25474 0.43180
#
# Static dielectric constant tensor:
#      x y z
#    x 1.501420 0.000000 0.405690 
#    y 0.000000 3.698660 0.000000 
#    z 0.405690 0.000000 2.794430 
# 
# 
# High freq. dielectric constant tensor:
#      x y z
#    x 1.651620 0.000000 -0.024890 
#    y 0.000000 1.691920 0.000000 
#    z -0.024890 0.000000 1.647920 
# 
# From -- ./inp_files/16867.got.cif
#   From: 2010.03.12/outbox.cif.g09.slc.cpg/sg14_9_cif.got.tgz:16867.got - 2010.03.31 13:35:05.
