data_PCOD8128741
_publ_section_title
;
Structure prediction by ZEFSAII (Michael W. Deem and Ramdas Pophale) SiO2 
 PCOD8128741
Probable space group: P 21/C
;
_chemical_formula_sum "Si O2"
_cell_formula_units_Z 32
_cell_length_a 12.726209
_cell_length_b 10.187204
_cell_length_c 21.233637
_cell_angle_alpha 90.000000
_cell_angle_beta 149.125087
_cell_angle_gamma 90.000000
_cell_volume 1412.654290
_symmetry_space_group_name_H-M "P 21/C"
_symmetry_group_IT_number 14
_symmetry_cell_setting 'monoclinic'
loop_
_space_group_symop_operation_xyz
x,y,z
-x,1/2+y,1/2-z
-x,-y,-z
x,1/2-y,1/2+z
loop_
_atom_site_type_symbol
_atom_site_label
_atom_site_fract_x
_atom_site_fract_y
_atom_site_fract_z
Si Si1 0.329196 0.545788 0.566374
Si Si2 0.051595 0.710967 0.082259
Si Si3 0.951654 0.989346 0.636116
Si Si4 0.708190 0.634752 0.343423
Si Si5 0.678244 0.600069 0.105756
Si Si6 0.901199 0.478432 0.337999
Si Si7 0.276953 0.676366 0.074005
Si Si8 0.623879 0.599337 0.608078
O O1 0.399597 0.469252 0.664957
O O2 0.208799 0.679100 0.520228
O O3 0.526007 0.573367 0.625657
O O4 0.139222 0.464410 0.437830
O O5 0.048210 0.605194 0.134914
O O6 0.174826 0.643043 0.088498
O O7 0.822430 0.749267 0.940554
O O8 0.171369 0.834234 0.175793
O O9 0.840178 0.903752 0.632180
O O10 0.789400 0.081832 0.516966
O O11 0.133869 0.071225 0.763133
O O12 0.881985 0.568772 0.390069
O O13 0.523670 0.684329 0.205084
O O14 0.770686 0.542169 0.216586
O O15 0.596507 0.749298 0.072102
O O16 0.500000 0.500000 0.000000
O O17 0.500000 0.500000 0.500000
#
# Coordination Sequence:
#
# PCOD8128741 Si02
#       8
#     4   4   4   4   4   4   4   4
#     4  11  22  43  70 102 139 191 238 296 371 436
#     4  11  25  44  72 106 149 187 244 301 379 447
#     4  12  29  46  73 110 148 192 245 317 372 448
#     4  11  23  40  72 105 139 197 233 300 369 444
#     4  12  29  49  77 106 146 201 256 308 381 454
#     4  11  22  47  73 103 146 195 247 299 370 448
#     4  12  24  43  71 105 148 185 240 303 370 445
#     4  12  29  49  75 109 150 200 257 312 382 445
#
# _framework density 22.652393
#
# number of rings (size 3 to 8) (size 9 to 14) (size 15 to 20)
#    0.000    0.500    2.500    5.625   10.500    1.000 
#    0.000    0.000    0.000    0.000    0.000    0.000 
#    0.000    0.000    0.000    0.000    0.000    0.000 
#
# Total GULP energy -396688.449825 kJ/mol
# GULP energy per Si atom -12396.514057 kJ/mol
# Density = 2.260084 g / cm^3
# Si number density = 22.652393 Si / 1000 Ang^3
#
#
#
# Elastic Constant Matrix: (Units=GPa)
#
#
# Indices 1 2 3 4 5 6 
#
# 1 85.5151 1.1460 23.3497 0.0000 -1.1364 0.0000
# 2 1.1460 83.8974 47.3268 0.0000 -12.2967 0.0000
# 3 23.3497 47.3268 110.2380 0.0000 -8.8524 0.0000
# 4 0.0000 0.0000 0.0000 32.4597 0.0000 -1.7032
# 5 -1.1364 -12.2967 -8.8524 0.0000 38.0754 0.0000
# 6 0.0000 0.0000 0.0000 -1.7032 0.0000 38.6368
#
#
#
# Elastic Compliance Matrix: (Units=1/GPa)
#
#
# Indices 1 2 3 4 5 6 
#
# 1 0.012607 0.001781 -0.003422 0.000000 0.000156 0.000000
# 2 0.001781 0.016473 -0.007151 0.000000 0.003711 0.000000
# 3 -0.003422 -0.007151 0.012914 0.000000 0.000591 0.000000
# 4 0.000000 0.000000 0.000000 0.030879 0.000000 0.001361
# 5 0.000156 0.003711 0.000591 0.000000 0.027604 0.000000
# 6 0.000000 0.000000 0.000000 0.001361 0.000000 0.025942
#
#
# Mechanical properties :
#
#
# Convention : Reuss Voigt Hill
#
# Bulk Modulus (GPa) = 40.96995 47.03285 44.00140
# Shear Modulus (GPa) = 32.86459 35.68959 34.27709
#
# Velocity S-wave (km/s) = 3.81310 3.97360 3.89418
# Velocity P-wave (km/s) = 6.12470 6.46998 6.29970
#
# Compressibility (1/GPa) = 0.02440814
#
# Stress axis : x y z
#
# Youngs Moduli (GPa) = 79.32405 60.70552 77.43640
#
# Poissons Ratio (x) = -0.10813 0.26502
# Poissons Ratio (y) = -0.14129 0.55378
# Poissons Ratio (z) = 0.27148 0.43413
#
# Static dielectric constant tensor:
#      x y z
#    x 4.071650 0.000000 0.092710 
#    y 0.000000 4.081730 0.000000 
#    z 0.092710 0.000000 3.745180 
# 
# 
# High freq. dielectric constant tensor:
#      x y z
#    x 1.904760 0.000000 -0.001060 
#    y 0.000000 1.897030 0.000000 
#    z -0.001060 0.000000 1.894530 
# 
# From -- ./inp_files/67436.got.cif
#   From: 2010.03.12/outbox.cif.g09.slc.cpg/sg14_34_cif.got.tgz:67436.got - 2010.03.31 13:35:05.
