data_PCOD8128532
_publ_section_title
;
Structure prediction by ZEFSAII (Michael W. Deem and Ramdas Pophale) SiO2 
 PCOD8128532
Probable space group: P 21/C
;
_chemical_formula_sum "Si O2"
_cell_formula_units_Z 20
_cell_length_a 9.284558
_cell_length_b 11.961323
_cell_length_c 9.375789
_cell_angle_alpha 90.000000
_cell_angle_beta 113.617229
_cell_angle_gamma 90.000000
_cell_volume 954.022496
_symmetry_space_group_name_H-M "P 21/C"
_symmetry_group_IT_number 14
_symmetry_cell_setting 'monoclinic'
loop_
_space_group_symop_operation_xyz
x,y,z
-x,1/2+y,1/2-z
-x,-y,-z
x,1/2-y,1/2+z
loop_
_atom_site_type_symbol
_atom_site_label
_atom_site_fract_x
_atom_site_fract_y
_atom_site_fract_z
Si Si1 0.737716 0.808621 0.459825
Si Si2 0.459380 0.183440 0.345114
Si Si3 0.277716 0.543809 0.173583
Si Si4 0.087068 0.749713 0.607648
Si Si5 0.736854 0.325683 0.567917
O O1 0.624313 0.725237 0.331503
O O2 0.665846 0.846475 0.582557
O O3 0.900845 0.745241 0.554525
O O4 0.769614 0.917634 0.376740
O O5 0.557638 0.073714 0.339575
O O6 0.570894 0.282013 0.445715
O O7 0.143241 0.629683 0.064116
O O8 0.291559 0.560502 0.352298
O O9 0.178154 0.734023 0.794095
O O10 0.145831 0.654027 0.519964
#
# Coordination Sequence:
#
# PCOD8128532 Si02
#       5
#     4   4   4   4   4
#     4  12  21  36  60  84 112 139 194 230 268 322
#     4  11  21  37  57  84 112 147 182 229 274 325
#     4   9  21  37  59  78 113 153 180 215 285 336
#     4   9  19  35  57  80 107 149 182 223 271 324
#     4   9  18  38  54  76 114 148 178 216 283 325
#
# _framework density 20.963865999999999
#
# number of rings (size 3 to 8) (size 9 to 14) (size 15 to 20)
#    1.200    0.800    2.000    2.400    0.000    0.800 
#    0.000    0.000    0.000    2.400    0.000    0.000 
#    0.000    0.000    0.000    0.000    0.000    0.000 
#
# Total GULP energy -247827.523775 kJ/mol
# GULP energy per Si atom -12391.376189 kJ/mol
# Density = 2.091615 g / cm^3
# Si number density = 20.963866 Si / 1000 Ang^3
#
#
#
# Elastic Constant Matrix: (Units=GPa)
#
#
# Indices 1 2 3 4 5 6 
#
# 1 125.0726 -8.9913 28.4582 0.0000 0.0108 0.0000
# 2 -8.9913 17.5051 -17.0414 0.0000 2.7174 0.0000
# 3 28.4582 -17.0414 78.8172 0.0000 0.0215 0.0000
# 4 0.0000 0.0000 0.0000 14.6444 0.0000 -3.9708
# 5 0.0108 2.7174 0.0215 0.0000 31.9738 0.0000
# 6 0.0000 0.0000 0.0000 -3.9708 0.0000 16.1852
#
#
#
# Elastic Compliance Matrix: (Units=1/GPa)
#
#
# Indices 1 2 3 4 5 6 
#
# 1 0.008756 0.001829 -0.002766 0.000000 -0.000157 0.000000
# 2 0.001829 0.073972 0.015335 0.000000 -0.006298 0.000000
# 3 -0.002766 0.015335 0.017002 0.000000 -0.001314 0.000000
# 4 0.000000 0.000000 0.000000 0.073151 0.000000 0.017946
# 5 -0.000157 -0.006298 -0.001314 0.000000 0.031812 0.000000
# 6 0.000000 0.000000 0.000000 0.017946 0.000000 0.066188
#
#
# Mechanical properties :
#
#
# Convention : Reuss Voigt Hill
#
# Bulk Modulus (GPa) = 7.78045 25.13843 16.45944
# Shear Modulus (GPa) = 17.54829 27.15863 22.35346
#
# Velocity S-wave (km/s) = 2.89636 3.60321 3.26894
# Velocity P-wave (km/s) = 3.86065 5.41555 4.70281
#
# Compressibility (1/GPa) = 0.12852729
#
# Stress axis : x y z
#
# Youngs Moduli (GPa) = 114.20435 13.51856 58.81537
#
# Poissons Ratio (x) = -0.02473 0.16269
# Poissons Ratio (y) = -0.20889 -0.90194
# Poissons Ratio (z) = 0.31590 -0.20731
#
# Static dielectric constant tensor:
#      x y z
#    x 3.787750 0.000000 -0.126780 
#    y 0.000000 3.109690 0.000000 
#    z -0.126780 0.000000 3.818430 
# 
# 
# High freq. dielectric constant tensor:
#      x y z
#    x 1.831620 0.000000 -0.007160 
#    y 0.000000 1.759750 0.000000 
#    z -0.007160 0.000000 1.829200 
# 
# From -- ./inp_files/7982.got.cif
#   From: 2010.03.12/outbox.cif.g09.slc.cpg/sg14_4_cif.got.tgz:7982.got - 2010.03.31 13:35:05.
