data_PCOD8128287
_publ_section_title
;
Structure prediction by ZEFSAII (Michael W. Deem and Ramdas Pophale) SiO2 
 PCOD8128287
Probable space group: P 21/C
;
_chemical_formula_sum "Si O2"
_cell_formula_units_Z 20
_cell_length_a 11.638351
_cell_length_b 7.965010
_cell_length_c 9.821036
_cell_angle_alpha 90.000000
_cell_angle_beta 109.112188
_cell_angle_gamma 90.000000
_cell_volume 860.223707
_symmetry_space_group_name_H-M "P 21/C"
_symmetry_group_IT_number 14
_symmetry_cell_setting 'monoclinic'
loop_
_space_group_symop_operation_xyz
x,y,z
-x,1/2+y,1/2-z
-x,-y,-z
x,1/2-y,1/2+z
loop_
_atom_site_type_symbol
_atom_site_label
_atom_site_fract_x
_atom_site_fract_y
_atom_site_fract_z
Si Si1 0.468728 0.321544 0.424546
Si Si2 0.320593 0.244452 0.113129
Si Si3 0.860533 0.269388 0.215208
Si Si4 0.919316 0.909445 0.580652
Si Si5 0.282905 0.855953 0.081558
O O1 0.500000 0.500000 0.500000
O O2 0.369927 0.336415 0.266297
O O3 0.410444 0.208725 0.522076
O O4 0.595717 0.249649 0.413366
O O5 0.316985 0.044610 0.135952
O O6 0.184813 0.306143 0.034877
O O7 0.858637 0.458600 0.159416
O O8 0.777176 0.257191 0.316791
O O9 0.998562 0.218542 0.301227
O O10 0.808570 0.141831 0.082074
O O11 0.000000 0.000000 0.500000
#
# Coordination Sequence:
#
# PCOD8128287 Si02
#       5
#     4   4   4   4   4
#     4  10  24  44  72 102 140 177 230 284 352 416
#     4  11  25  45  72 103 141 186 232 290 351 414
#     4  12  26  45  70 102 141 185 237 289 351 414
#     4  12  28  44  72 102 144 186 238 292 347 415
#     4  11  25  45  73 103 142 182 236 288 353 418
#
# _framework density 23.249766999999999
#
# number of rings (size 3 to 8) (size 9 to 14) (size 15 to 20)
#    0.000    0.800    2.000    3.600   11.200    4.800 
#    0.000    7.000    0.000    0.000    0.000    0.000 
#    0.000    0.000    0.000    0.000    0.000    0.000 
#
# Total GULP energy -248088.578420 kJ/mol
# GULP energy per Si atom -12404.428921 kJ/mol
# Density = 2.319685 g / cm^3
# Si number density = 23.249767 Si / 1000 Ang^3
#
#
#
# Elastic Constant Matrix: (Units=GPa)
#
#
# Indices 1 2 3 4 5 6 
#
# 1 115.3293 23.5502 54.3610 0.0000 -3.4778 0.0000
# 2 23.5502 57.3898 31.2490 0.0000 8.3224 0.0000
# 3 54.3610 31.2490 174.4028 0.0000 8.3994 0.0000
# 4 0.0000 0.0000 0.0000 26.2798 0.0000 6.6664
# 5 -3.4778 8.3224 8.3994 0.0000 57.8274 0.0000
# 6 0.0000 0.0000 0.0000 6.6664 0.0000 37.7616
#
#
#
# Elastic Compliance Matrix: (Units=1/GPa)
#
#
# Indices 1 2 3 4 5 6 
#
# 1 0.010684 -0.003046 -0.002857 0.000000 0.001496 0.000000
# 2 -0.003046 0.020483 -0.002588 0.000000 -0.002755 0.000000
# 3 -0.002857 -0.002588 0.007128 0.000000 -0.000835 0.000000
# 4 0.000000 0.000000 0.000000 0.039836 0.000000 -0.007033
# 5 0.001496 -0.002755 -0.000835 0.000000 0.017901 0.000000
# 6 0.000000 0.000000 0.000000 -0.007033 0.000000 0.027723
#
#
# Mechanical properties :
#
#
# Convention : Reuss Voigt Hill
#
# Bulk Modulus (GPa) = 46.91570 62.82694 54.87132
# Shear Modulus (GPa) = 33.81990 40.23786 37.02888
#
# Velocity S-wave (km/s) = 3.81810 4.16465 3.99514
# Velocity P-wave (km/s) = 6.29762 7.08570 6.70325
#
# Compressibility (1/GPa) = 0.02131482
#
# Stress axis : x y z
#
# Youngs Moduli (GPa) = 93.59474 48.82013 140.28855
#
# Poissons Ratio (x) = 0.14870 0.40075
# Poissons Ratio (y) = 0.28508 0.36308
# Poissons Ratio (z) = 0.26736 0.12635
#
# Static dielectric constant tensor:
#      x y z
#    x 4.881080 0.000000 -0.171100 
#    y 0.000000 3.928110 0.000000 
#    z -0.171100 0.000000 4.391810 
# 
# 
# High freq. dielectric constant tensor:
#      x y z
#    x 1.941020 0.000000 -0.003600 
#    y 0.000000 1.896220 0.000000 
#    z -0.003600 0.000000 1.936850 
# 
# From -- ./inp_files/11774.got.cif
#   From: 2010.03.12/outbox.cif.g09.slc.cpg/sg14_6_cif.got.tgz:11774.got - 2010.03.31 13:35:05.
