data_PCOD8128198
_publ_section_title
;
Structure prediction by ZEFSAII (Michael W. Deem and Ramdas Pophale) SiO2 
 PCOD8128198
Probable space group: P 21/C
;
_chemical_formula_sum "Si O2"
_cell_formula_units_Z 24
_cell_length_a 5.230541
_cell_length_b 14.313952
_cell_length_c 15.245086
_cell_angle_alpha 90.000000
_cell_angle_beta 115.503774
_cell_angle_gamma 90.000000
_cell_volume 1030.174152
_symmetry_space_group_name_H-M "P 21/C"
_symmetry_group_IT_number 14
_symmetry_cell_setting 'monoclinic'
loop_
_space_group_symop_operation_xyz
x,y,z
-x,1/2+y,1/2-z
-x,-y,-z
x,1/2-y,1/2+z
loop_
_atom_site_type_symbol
_atom_site_label
_atom_site_fract_x
_atom_site_fract_y
_atom_site_fract_z
Si Si1 0.191380 0.073116 0.429037
Si Si2 0.003438 0.730335 0.635981
Si Si3 0.260592 0.445962 0.739761
Si Si4 0.651994 0.755741 0.259217
Si Si5 0.178232 0.032477 0.943341
Si Si6 0.303345 0.430042 0.131780
O O1 0.315172 0.077976 0.350264
O O2 0.410667 0.063180 0.544605
O O3 0.041577 0.173493 0.423653
O O4 0.984778 0.985801 0.403112
O O5 0.339215 0.712802 0.684260
O O6 0.884272 0.737095 0.716960
O O7 0.842103 0.644279 0.565595
O O8 0.346356 0.350709 0.702196
O O9 0.483067 0.530374 0.761712
O O10 0.954475 0.483118 0.663531
O O11 0.754642 0.822496 0.352826
O O12 0.500000 0.000000 0.000000
O O13 0.000000 0.000000 0.000000
#
# Coordination Sequence:
#
# PCOD8128198 Si02
#       6
#     4   4   4   4   4   4
#     4  10  24  42  71 102 139 180 234 295 350 431
#     4  11  23  47  66 100 142 177 235 283 348 412
#     4  11  24  45  70 100 146 182 239 290 364 413
#     4  11  24  42  73 100 136 189 218 294 347 421
#     4  12  28  45  72 102 141 192 237 289 348 429
#     4  11  22  43  71 103 138 181 238 285 366 413
#
# _framework density 23.297034
#
# number of rings (size 3 to 8) (size 9 to 14) (size 15 to 20)
#    0.000    1.000    3.333    2.500    4.667    0.000 
#    0.000    0.000    0.000    0.000    0.000    0.000 
#    0.000    0.000    0.000    0.000    0.000    0.000 
#
# Total GULP energy -297424.610868 kJ/mol
# GULP energy per Si atom -12392.692120 kJ/mol
# Density = 2.324401 g / cm^3
# Si number density = 23.297034 Si / 1000 Ang^3
#
#
#
# Elastic Constant Matrix: (Units=GPa)
#
#
# Indices 1 2 3 4 5 6 
#
# 1 82.8060 8.8588 24.7474 0.0000 16.2964 0.0000
# 2 8.8588 148.5141 55.6428 0.0000 19.4951 0.0000
# 3 24.7474 55.6428 109.7839 0.0000 19.9894 0.0000
# 4 0.0000 0.0000 0.0000 35.5825 0.0000 2.1423
# 5 16.2964 19.4951 19.9894 0.0000 41.8969 0.0000
# 6 0.0000 0.0000 0.0000 2.1423 0.0000 24.0508
#
#
#
# Elastic Compliance Matrix: (Units=1/GPa)
#
#
# Indices 1 2 3 4 5 6 
#
# 1 0.013656 0.000760 -0.002663 0.000000 -0.004395 0.000000
# 2 0.000760 0.008515 -0.004065 0.000000 -0.002318 0.000000
# 3 -0.002663 -0.004065 0.012306 0.000000 -0.002944 0.000000
# 4 0.000000 0.000000 0.000000 0.028255 0.000000 -0.002517
# 5 -0.004395 -0.002318 -0.002944 0.000000 0.028061 0.000000
# 6 0.000000 0.000000 0.000000 -0.002517 0.000000 0.041803
#
#
# Mechanical properties :
#
#
# Convention : Reuss Voigt Hill
#
# Bulk Modulus (GPa) = 44.36536 57.73356 51.04946
# Shear Modulus (GPa) = 32.88481 37.09637 34.99059
#
# Velocity S-wave (km/s) = 3.76113 3.99472 3.87968
# Velocity P-wave (km/s) = 6.16004 6.79061 6.48300
#
# Compressibility (1/GPa) = 0.02254011
#
# Stress axis : x y z
#
# Youngs Moduli (GPa) = 73.22809 117.43387 81.26422
#
# Poissons Ratio (x) = -0.08927 0.21644
# Poissons Ratio (y) = -0.05567 0.33035
# Poissons Ratio (z) = 0.19504 0.47739
#
# Static dielectric constant tensor:
#      x y z
#    x 3.736210 0.000000 -0.119500 
#    y 0.000000 4.958860 0.000000 
#    z -0.119500 0.000000 4.515980 
# 
# 
# High freq. dielectric constant tensor:
#      x y z
#    x 1.902280 0.000000 0.002640 
#    y 0.000000 1.954380 0.000000 
#    z 0.002640 0.000000 1.917340 
# 
# From -- ./inp_files/37267.got.cif
#   From: 2010.03.12/outbox.cif.g09.slc.cpg/sg14_19_cif.got.tgz:37267.got - 2010.03.31 13:35:05.
