data_PCOD8128862
_publ_section_title
;
Structure prediction by ZEFSAII (Michael W. Deem and Ramdas Pophale) SiO2 
 PCOD8128862
Probable space group: P 21/C
;
_chemical_formula_sum "Si O2"
_cell_formula_units_Z 28
_cell_length_a 14.521455
_cell_length_b 8.036106
_cell_length_c 12.401163
_cell_angle_alpha 90.000000
_cell_angle_beta 57.019630
_cell_angle_gamma 90.000000
_cell_volume 1213.965093
_symmetry_space_group_name_H-M "P 21/C"
_symmetry_group_IT_number 14
_symmetry_cell_setting 'monoclinic'
loop_
_space_group_symop_operation_xyz
x,y,z
-x,1/2+y,1/2-z
-x,-y,-z
x,1/2-y,1/2+z
loop_
_atom_site_type_symbol
_atom_site_label
_atom_site_fract_x
_atom_site_fract_y
_atom_site_fract_z
Si Si1 0.286743 0.024216 0.627947
Si Si2 0.051252 0.117017 0.694067
Si Si3 0.152908 0.162830 0.971441
Si Si4 0.627999 0.743330 0.244081
Si Si5 0.017261 0.690216 0.075370
Si Si6 0.225523 0.810959 0.857304
Si Si7 0.597793 0.086462 0.657352
O O1 0.281002 0.859347 0.708254
O O2 0.371431 0.994425 0.477259
O O3 0.162924 0.038497 0.667228
O O4 0.328560 0.187076 0.668176
O O5 0.082089 0.296866 0.622094
O O6 0.964906 0.170096 0.841264
O O7 0.001780 0.994327 0.635019
O O8 0.275658 0.235425 0.905578
O O9 0.095781 0.257513 0.907999
O O10 0.162992 0.968620 0.947150
O O11 0.525442 0.850361 0.270924
O O12 0.601364 0.546007 0.254782
O O13 0.122041 0.683318 0.926249
O O14 0.321669 0.740088 0.871000
#
# Coordination Sequence:
#
# PCOD8128862 Si02
#       7
#     4   4   4   4   4   4   4
#     4  11  24  47  68 104 146 184 240 298 354 429
#     4  12  24  43  69 105 141 192 233 293 360 421
#     4  11  23  42  66  99 140 182 236 294 350 423
#     4  11  23  45  73 100 140 185 237 295 355 425
#     4  12  24  42  68 100 143 187 235 296 354 426
#     4  11  24  44  69 103 141 187 237 295 357 425
#     4  12  25  49  74 105 144 191 237 301 364 421
#
# _framework density 23.064914000000002
#
# number of rings (size 3 to 8) (size 9 to 14) (size 15 to 20)
#    0.000    0.571    5.714    3.857    2.000    0.000 
#    2.571    1.429    0.000    0.000    0.000    0.000 
#    0.000    0.000    0.000    0.000    0.000    0.000 
#
# Total GULP energy -346960.825328 kJ/mol
# GULP energy per Si atom -12391.458047 kJ/mol
# Density = 2.301242 g / cm^3
# Si number density = 23.064914 Si / 1000 Ang^3
#
#
#
# Elastic Constant Matrix: (Units=GPa)
#
#
# Indices 1 2 3 4 5 6 
#
# 1 107.0503 32.0091 41.9694 0.0000 -10.7003 0.0000
# 2 32.0091 85.6456 38.9714 0.0000 12.5661 0.0000
# 3 41.9694 38.9714 87.3378 0.0000 1.4396 0.0000
# 4 0.0000 0.0000 0.0000 42.2601 0.0000 1.4812
# 5 -10.7003 12.5661 1.4396 0.0000 28.0451 0.0000
# 6 0.0000 0.0000 0.0000 1.4812 0.0000 40.3305
#
#
#
# Elastic Compliance Matrix: (Units=1/GPa)
#
#
# Indices 1 2 3 4 5 6 
#
# 1 0.012979 -0.003724 -0.004688 0.000000 0.006861 0.000000
# 2 -0.003724 0.016896 -0.005606 0.000000 -0.008704 0.000000
# 3 -0.004688 -0.005606 0.016206 0.000000 -0.000109 0.000000
# 4 0.000000 0.000000 0.000000 0.023693 0.000000 -0.000870
# 5 0.006861 -0.008704 -0.000109 0.000000 0.042180 0.000000
# 6 0.000000 0.000000 0.000000 -0.000870 0.000000 0.024827
#
#
# Mechanical properties :
#
#
# Convention : Reuss Voigt Hill
#
# Bulk Modulus (GPa) = 55.42070 56.21481 55.81776
# Shear Modulus (GPa) = 29.26842 33.26607 31.26725
#
# Velocity S-wave (km/s) = 3.56611 3.80186 3.68587
# Velocity P-wave (km/s) = 6.40597 6.61041 6.50899
#
# Compressibility (1/GPa) = 0.01804380
#
# Stress axis : x y z
#
# Youngs Moduli (GPa) = 77.04880 59.18619 61.70559
#
# Poissons Ratio (x) = 0.22042 0.28929
# Poissons Ratio (y) = 0.28694 0.34593
# Poissons Ratio (z) = 0.36122 0.33180
#
# Static dielectric constant tensor:
#      x y z
#    x 4.154780 0.000000 0.047140 
#    y 0.000000 4.379170 0.000000 
#    z 0.047140 0.000000 4.309960 
# 
# 
# High freq. dielectric constant tensor:
#      x y z
#    x 1.912650 0.000000 -0.007630 
#    y 0.000000 1.916550 0.000000 
#    z -0.007630 0.000000 1.910150 
# 
# From -- ./inp_files/31725.got.cif
#   From: 2010.03.12/outbox.cif.g09.slc.cpg/sg14_16_cif.got.tgz:31725.got - 2010.03.31 13:35:05.
