data_PCOD8128426
_publ_section_title
;
Structure prediction by ZEFSAII (Michael W. Deem and Ramdas Pophale) SiO2 
 PCOD8128426
Probable space group: P 21/C
;
_chemical_formula_sum "Si O2"
_cell_formula_units_Z 28
_cell_length_a 6.563896
_cell_length_b 15.878716
_cell_length_c 13.561760
_cell_angle_alpha 90.000000
_cell_angle_beta 122.996838
_cell_angle_gamma 90.000000
_cell_volume 1185.496000
_symmetry_space_group_name_H-M "P 21/C"
_symmetry_group_IT_number 14
_symmetry_cell_setting 'monoclinic'
loop_
_space_group_symop_operation_xyz
x,y,z
-x,1/2+y,1/2-z
-x,-y,-z
x,1/2-y,1/2+z
loop_
_atom_site_type_symbol
_atom_site_label
_atom_site_fract_x
_atom_site_fract_y
_atom_site_fract_z
Si Si1 0.188918 0.456010 0.180645
Si Si2 0.160263 0.472693 0.410342
Si Si3 0.527890 0.743605 0.117178
Si Si4 0.062084 0.731933 0.210634
Si Si5 0.314460 0.884002 0.201648
Si Si6 0.123008 0.626694 0.054092
Si Si7 0.601860 0.134649 0.070270
O O1 0.184569 0.453451 0.298496
O O2 0.455867 0.439085 0.203690
O O3 0.102587 0.545447 0.117496
O O4 0.009220 0.385990 0.085910
O O5 0.225467 0.570687 0.447575
O O6 0.349932 0.414870 0.521701
O O7 0.894649 0.451444 0.383798
O O8 0.422302 0.822782 0.148107
O O9 0.402098 0.654619 0.107246
O O10 0.816351 0.733867 0.210431
O O11 0.458613 0.773674 0.989642
O O12 0.186192 0.824097 0.249484
O O13 0.996621 0.704455 0.080670
O O14 0.251027 0.658741 0.292728
#
# Coordination Sequence:
#
# PCOD8128426 Si02
#       7
#     4   4   4   4   4   4   4
#     4  11  23  46  65 101 134 174 228 275 327 413
#     4  11  24  46  65 102 136 177 220 282 337 399
#     4  11  25  44  64 104 130 177 227 272 332 407
#     4  11  24  45  65 102 136 176 222 278 338 397
#     4  11  24  42  68  99 135 176 224 273 340 396
#     4  10  26  43  69  94 137 179 224 274 335 394
#     4  11  24  44  71  93 140 174 219 279 336 396
#
# _framework density 23.618805999999999
#
# number of rings (size 3 to 8) (size 9 to 14) (size 15 to 20)
#    0.000    1.143    4.286    0.000    8.000    0.571 
#    2.571    2.857    0.000    0.000    0.000    0.000 
#    0.000    0.000    0.000    0.000    0.000    0.000 
#
# Total GULP energy -346890.597294 kJ/mol
# GULP energy per Si atom -12388.949903 kJ/mol
# Density = 2.356505 g / cm^3
# Si number density = 23.618806 Si / 1000 Ang^3
#
#
#
# Elastic Constant Matrix: (Units=GPa)
#
#
# Indices 1 2 3 4 5 6 
#
# 1 110.0072 5.4816 21.4443 0.0000 34.6305 0.0000
# 2 5.4816 53.0273 9.7158 0.0000 11.7569 0.0000
# 3 21.4443 9.7158 74.5533 0.0000 21.7370 0.0000
# 4 0.0000 0.0000 0.0000 30.7844 0.0000 8.3534
# 5 34.6305 11.7569 21.7370 0.0000 29.7229 0.0000
# 6 0.0000 0.0000 0.0000 8.3534 0.0000 34.7187
#
#
#
# Elastic Compliance Matrix: (Units=1/GPa)
#
#
# Indices 1 2 3 4 5 6 
#
# 1 0.014699 0.002475 0.000926 0.000000 -0.018782 0.000000
# 2 0.002475 0.021097 -0.000238 0.000000 -0.011055 0.000000
# 3 0.000926 -0.000238 0.017114 0.000000 -0.013500 0.000000
# 4 0.000000 0.000000 0.000000 0.034753 0.000000 -0.008362
# 5 -0.018782 -0.011055 -0.013500 0.000000 0.069773 0.000000
# 6 0.000000 0.000000 0.000000 -0.008362 0.000000 0.030815
#
#
# Mechanical properties :
#
#
# Convention : Reuss Voigt Hill
#
# Bulk Modulus (GPa) = 16.88179 34.54126 25.71153
# Shear Modulus (GPa) = 24.79287 32.44162 28.61725
#
# Velocity S-wave (km/s) = 3.24344 3.71016 3.48462
# Velocity P-wave (km/s) = 4.60322 5.74543 5.20575
#
# Compressibility (1/GPa) = 0.05923541
#
# Stress axis : x y z
#
# Youngs Moduli (GPa) = 68.03083 47.40024 58.43116
#
# Poissons Ratio (x) = -0.11732 -0.05408
# Poissons Ratio (y) = -0.16839 0.01392
# Poissons Ratio (z) = -0.06297 0.01129
#
# Static dielectric constant tensor:
#      x y z
#    x 4.146950 0.000000 0.209290 
#    y 0.000000 4.390960 0.000000 
#    z 0.209290 0.000000 4.210510 
# 
# 
# High freq. dielectric constant tensor:
#      x y z
#    x 1.923080 0.000000 0.013000 
#    y 0.000000 1.948850 0.000000 
#    z 0.013000 0.000000 1.924640 
# 
# From -- ./inp_files/37920.got.cif
#   From: 2010.03.12/outbox.cif.g09.slc.cpg/sg14_19_cif.got.tgz:37920.got - 2010.03.31 13:35:05.
