data_PCOD8128760
_publ_section_title
;
Structure prediction by ZEFSAII (Michael W. Deem and Ramdas Pophale) SiO2 
 PCOD8128760
Probable space group: P 21/C
;
_chemical_formula_sum "Si O2"
_cell_formula_units_Z 20
_cell_length_a 7.433611
_cell_length_b 16.951226
_cell_length_c 6.785952
_cell_angle_alpha 90.000000
_cell_angle_beta 78.469560
_cell_angle_gamma 90.000000
_cell_volume 837.832935
_symmetry_space_group_name_H-M "P 21/C"
_symmetry_group_IT_number 14
_symmetry_cell_setting 'monoclinic'
loop_
_space_group_symop_operation_xyz
x,y,z
-x,1/2+y,1/2-z
-x,-y,-z
x,1/2-y,1/2+z
loop_
_atom_site_type_symbol
_atom_site_label
_atom_site_fract_x
_atom_site_fract_y
_atom_site_fract_z
Si Si1 0.636873 0.319407 0.276046
Si Si2 0.012969 0.364833 0.027438
Si Si3 0.587710 0.668086 0.038048
Si Si4 0.574379 0.435349 0.627489
Si Si5 0.070605 0.518416 0.270160
O O1 0.545443 0.236751 0.354893
O O2 0.665066 0.368803 0.468679
O O3 0.836570 0.311319 0.126112
O O4 0.493385 0.360283 0.154654
O O5 0.015856 0.443668 0.154974
O O6 0.195019 0.310994 0.025204
O O7 0.001819 0.398368 0.805770
O O8 0.588028 0.599496 0.202527
O O9 0.500000 0.500000 0.500000
O O10 0.711797 0.471860 0.757108
O O11 0.000000 0.500000 0.500000
#
# Coordination Sequence:
#
# PCOD8128760 Si02
#       5
#     4   4   4   4   4
#     4  12  26  50  70 106 151 194 247 308 362 451
#     4  11  26  44  76 108 147 191 249 302 370 444
#     4  12  27  48  70 109 147 197 248 301 377 439
#     4  12  25  45  76 107 153 191 247 309 369 439
#     4  11  22  44  74 112 144 188 244 312 371 431
#
# _framework density 23.871106000000001
#
# number of rings (size 3 to 8) (size 9 to 14) (size 15 to 20)
#    0.000    0.400    6.000    2.400    2.800    3.200 
#    0.000    0.000    0.000    0.000    0.000    0.000 
#    0.000    0.000    0.000    0.000    0.000    0.000 
#
# Total GULP energy -247866.215144 kJ/mol
# GULP energy per Si atom -12393.310757 kJ/mol
# Density = 2.381677 g / cm^3
# Si number density = 23.871106 Si / 1000 Ang^3
#
#
#
# Elastic Constant Matrix: (Units=GPa)
#
#
# Indices 1 2 3 4 5 6 
#
# 1 168.8737 13.7949 5.6310 0.0000 -3.7624 0.0000
# 2 13.7949 48.4132 -12.6271 0.0000 -3.7305 0.0000
# 3 5.6310 -12.6271 72.5265 0.0000 4.4560 0.0000
# 4 0.0000 0.0000 0.0000 25.9980 0.0000 2.6961
# 5 -3.7624 -3.7305 4.4560 0.0000 42.1922 0.0000
# 6 0.0000 0.0000 0.0000 2.6961 0.0000 33.9226
#
#
#
# Elastic Compliance Matrix: (Units=1/GPa)
#
#
# Indices 1 2 3 4 5 6 
#
# 1 0.006117 -0.001926 -0.000839 0.000000 0.000464 0.000000
# 2 -0.001926 0.022342 0.003954 0.000000 0.001386 0.000000
# 3 -0.000839 0.003954 0.014620 0.000000 -0.001269 0.000000
# 4 0.000000 0.000000 0.000000 0.038784 0.000000 -0.003082
# 5 0.000464 0.001386 -0.001269 0.000000 0.023999 0.000000
# 6 0.000000 0.000000 0.000000 -0.003082 0.000000 0.029724
#
#
# Mechanical properties :
#
#
# Convention : Reuss Voigt Hill
#
# Bulk Modulus (GPa) = 21.99822 33.71232 27.85527
# Shear Modulus (GPa) = 33.70176 39.29021 36.49598
#
# Velocity S-wave (km/s) = 3.76150 4.06141 3.91433
# Velocity P-wave (km/s) = 5.30100 6.01221 5.66777
#
# Compressibility (1/GPa) = 0.04545822
#
# Stress axis : x y z
#
# Youngs Moduli (GPa) = 163.47284 44.75775 68.40126
#
# Poissons Ratio (x) = 0.08621 0.05737
# Poissons Ratio (y) = 0.31486 -0.27048
# Poissons Ratio (z) = 0.13712 -0.17699
#
# Static dielectric constant tensor:
#      x y z
#    x 4.285110 0.000000 0.424270 
#    y 0.000000 4.860850 0.000000 
#    z 0.424270 0.000000 5.088670 
# 
# 
# High freq. dielectric constant tensor:
#      x y z
#    x 1.954090 0.000000 0.011150 
#    y 0.000000 1.924860 0.000000 
#    z 0.011150 0.000000 1.968470 
# 
# From -- ./inp_files/1150.got.cif
#   From: 2010.03.12/outbox.cif.g09.slc.cpg/sg14_1_cif.got.tgz:1150.got - 2010.03.31 13:35:05.
