data_PCOD8128729
_publ_section_title
;
Structure prediction by ZEFSAII (Michael W. Deem and Ramdas Pophale) SiO2 
 PCOD8128729
Probable space group: P 21/C
;
_chemical_formula_sum "Si O2"
_cell_formula_units_Z 28
_cell_length_a 8.776205
_cell_length_b 11.087516
_cell_length_c 14.896813
_cell_angle_alpha 90.000000
_cell_angle_beta 53.271937
_cell_angle_gamma 90.000000
_cell_volume 1161.792614
_symmetry_space_group_name_H-M "P 21/C"
_symmetry_group_IT_number 14
_symmetry_cell_setting 'monoclinic'
loop_
_space_group_symop_operation_xyz
x,y,z
-x,1/2+y,1/2-z
-x,-y,-z
x,1/2-y,1/2+z
loop_
_atom_site_type_symbol
_atom_site_label
_atom_site_fract_x
_atom_site_fract_y
_atom_site_fract_z
Si Si1 0.702480 0.401861 0.301060
Si Si2 0.689388 0.561245 0.147808
Si Si3 0.059183 0.467959 0.272278
Si Si4 0.702275 0.422746 0.959230
Si Si5 0.591178 0.776516 0.537467
Si Si6 0.024321 0.708861 0.386021
Si Si7 0.995437 0.755842 0.595690
O O1 0.600513 0.490931 0.264041
O O2 0.535440 0.343151 0.419111
O O3 0.837971 0.474003 0.321174
O O4 0.835989 0.309576 0.200710
O O5 0.569480 0.672307 0.148065
O O6 0.882717 0.619937 0.117474
O O7 0.717438 0.468195 0.055912
O O8 0.202035 0.477413 0.138494
O O9 0.090366 0.581530 0.325054
O O10 0.111391 0.343665 0.305733
O O11 0.489931 0.384543 0.999081
O O12 0.819739 0.296959 0.912864
O O13 0.807808 0.745816 0.436124
O O14 0.050813 0.694752 0.482738
#
# Coordination Sequence:
#
# PCOD8128729 Si02
#       7
#     4   4   4   4   4   4   4
#     4  12  24  48  71 102 144 178 232 286 345 408
#     4  11  25  45  71 100 138 184 231 290 335 406
#     4  12  23  41  76 101 137 186 224 280 351 408
#     4  12  22  45  74 100 135 184 235 283 336 411
#     4  11  26  44  69 109 133 178 241 279 342 415
#     4  11  25  47  71 102 142 184 223 287 349 406
#     4  11  22  42  71 100 139 184 225 277 350 407
#
# _framework density 24.100688000000002
#
# number of rings (size 3 to 8) (size 9 to 14) (size 15 to 20)
#    0.000    0.571    5.714    3.000    0.000    2.857 
#    5.143    0.000    0.000    0.000    0.000    0.000 
#    0.000    0.000    0.000    0.000    0.000    0.000 
#
# Total GULP energy -347113.854100 kJ/mol
# GULP energy per Si atom -12396.923361 kJ/mol
# Density = 2.404583 g / cm^3
# Si number density = 24.100688 Si / 1000 Ang^3
#
#
#
# Elastic Constant Matrix: (Units=GPa)
#
#
# Indices 1 2 3 4 5 6 
#
# 1 89.6377 8.7559 2.8696 0.0000 -0.4434 0.0000
# 2 8.7559 59.5515 -2.4934 0.0000 7.3925 0.0000
# 3 2.8696 -2.4934 29.0696 0.0000 12.3239 0.0000
# 4 0.0000 0.0000 0.0000 27.5643 0.0000 5.0423
# 5 -0.4434 7.3925 12.3239 0.0000 36.8247 0.0000
# 6 0.0000 0.0000 0.0000 5.0423 0.0000 37.4032
#
#
#
# Elastic Compliance Matrix: (Units=1/GPa)
#
#
# Indices 1 2 3 4 5 6 
#
# 1 0.011402 -0.001887 -0.001755 0.000000 0.001103 0.000000
# 2 -0.001887 0.017832 0.003779 0.000000 -0.004867 0.000000
# 3 -0.001755 0.003779 0.041053 0.000000 -0.014519 0.000000
# 4 0.000000 0.000000 0.000000 0.037196 0.000000 -0.005014
# 5 0.001103 -0.004867 -0.014519 0.000000 0.033005 0.000000
# 6 0.000000 0.000000 0.000000 -0.005014 0.000000 0.027412
#
#
# Mechanical properties :
#
#
# Convention : Reuss Voigt Hill
#
# Bulk Modulus (GPa) = 14.17216 21.83591 18.00403
# Shear Modulus (GPa) = 26.15808 31.63354 28.89581
#
# Velocity S-wave (km/s) = 3.29806 3.62685 3.46636
# Velocity P-wave (km/s) = 4.51621 5.15933 4.84845
#
# Compressibility (1/GPa) = 0.07056088
#
# Stress axis : x y z
#
# Youngs Moduli (GPa) = 87.70407 56.07880 24.35896
#
# Poissons Ratio (x) = 0.10582 0.04276
# Poissons Ratio (y) = 0.16549 -0.09206
# Poissons Ratio (z) = 0.15394 -0.21193
#
# Static dielectric constant tensor:
#      x y z
#    x 4.611410 0.000000 0.244140 
#    y 0.000000 4.417460 0.000000 
#    z 0.244140 0.000000 4.037580 
# 
# 
# High freq. dielectric constant tensor:
#      x y z
#    x 1.966540 0.000000 0.016420 
#    y 0.000000 1.971620 0.000000 
#    z 0.016420 0.000000 1.935550 
# 
# From -- ./inp_files/39968.got.cif
#   From: 2010.03.12/outbox.cif.g09.slc.cpg/sg14_20_cif.got.tgz:39968.got - 2010.03.31 13:35:05.
