data_PCOD8128166
_publ_section_title
;
Structure prediction by ZEFSAII (Michael W. Deem and Ramdas Pophale) SiO2 
 PCOD8128166
Probable space group: P 21/C
;
_chemical_formula_sum "Si O2"
_cell_formula_units_Z 28
_cell_length_a 14.828750
_cell_length_b 9.021273
_cell_length_c 11.548498
_cell_angle_alpha 90.000000
_cell_angle_beta 116.232211
_cell_angle_gamma 90.000000
_cell_volume 1385.782798
_symmetry_space_group_name_H-M "P 21/C"
_symmetry_group_IT_number 14
_symmetry_cell_setting 'monoclinic'
loop_
_space_group_symop_operation_xyz
x,y,z
-x,1/2+y,1/2-z
-x,-y,-z
x,1/2-y,1/2+z
loop_
_atom_site_type_symbol
_atom_site_label
_atom_site_fract_x
_atom_site_fract_y
_atom_site_fract_z
Si Si1 0.840997 0.381168 0.212085
Si Si2 0.935252 0.134369 0.996691
Si Si3 0.500291 0.751312 0.501084
Si Si4 0.639933 0.502813 0.176343
Si Si5 0.399164 0.002907 0.075301
Si Si6 0.989265 0.928204 0.368115
Si Si7 0.192638 0.561404 0.374960
O O1 0.893320 0.302055 0.352639
O O2 0.756165 0.499311 0.201107
O O3 0.919904 0.466202 0.170784
O O4 0.790411 0.237525 0.128489
O O5 0.001359 0.251396 0.107623
O O6 0.848572 0.054010 0.019321
O O7 0.000000 0.000000 0.000000
O O8 0.414190 0.859246 0.406528
O O9 0.534367 0.647714 0.413432
O O10 0.460082 0.647468 0.581986
O O11 0.593661 0.845860 0.601527
O O12 0.631875 0.500171 0.309445
O O13 0.301702 0.014678 0.935445
O O14 0.000000 0.000000 0.500000
O O15 0.881706 0.976560 0.255993
#
# Coordination Sequence:
#
# PCOD8128166 Si02
#       7
#     4   4   4   4   4   4   4
#     4  11  22  40  66  94 125 169 211 253 318 377
#     4  11  22  40  64  87 126 168 204 263 311 368
#     4  10  24  42  64  97 127 159 213 266 317 387
#     4  11  22  43  68  93 126 168 210 261 323 382
#     4  11  22  42  67  93 126 166 209 265 322 374
#     4  11  24  41  62  92 129 166 212 257 309 378
#     4  11  22  40  63  94 125 167 211 255 312 380
#
# _framework density 20.205186999999999
#
# number of rings (size 3 to 8) (size 9 to 14) (size 15 to 20)
#    0.000    1.143    5.714    0.857    0.000    1.143 
#    2.571    1.429    0.000    0.000    0.000    0.000 
#    0.000    0.000    0.000    0.000    0.000    0.000 
#
# Total GULP energy -346999.393184 kJ/mol
# GULP energy per Si atom -12392.835471 kJ/mol
# Density = 2.015920 g / cm^3
# Si number density = 20.205187 Si / 1000 Ang^3
#
#
#
# Elastic Constant Matrix: (Units=GPa)
#
#
# Indices 1 2 3 4 5 6 
#
# 1 110.8982 45.3339 39.6212 0.0000 -11.1386 0.0000
# 2 45.3339 93.2317 24.9241 0.0000 5.7002 0.0000
# 3 39.6212 24.9241 91.2602 0.0000 -10.1461 0.0000
# 4 0.0000 0.0000 0.0000 13.6795 0.0000 2.6798
# 5 -11.1386 5.7002 -10.1461 0.0000 32.2773 0.0000
# 6 0.0000 0.0000 0.0000 2.6798 0.0000 32.4059
#
#
#
# Elastic Compliance Matrix: (Units=1/GPa)
#
#
# Indices 1 2 3 4 5 6 
#
# 1 0.013065 -0.005645 -0.003646 0.000000 0.004360 0.000000
# 2 -0.005645 0.014326 -0.002031 0.000000 -0.005116 0.000000
# 3 -0.003646 -0.002031 0.013466 0.000000 0.003333 0.000000
# 4 0.000000 0.000000 0.000000 0.074306 0.000000 -0.006145
# 5 0.004360 -0.005116 0.003333 0.000000 0.034437 0.000000
# 6 0.000000 0.000000 0.000000 -0.006145 0.000000 0.031367
#
#
# Mechanical properties :
#
#
# Convention : Reuss Voigt Hill
#
# Bulk Modulus (GPa) = 54.90193 57.23872 56.07033
# Shear Modulus (GPa) = 23.84563 28.03995 25.94279
#
# Velocity S-wave (km/s) = 3.43909 3.72931 3.58714
# Velocity P-wave (km/s) = 6.55751 6.85083 6.70578
#
# Compressibility (1/GPa) = 0.01821430
#
# Stress axis : x y z
#
# Youngs Moduli (GPa) = 76.53842 69.80083 74.26194
#
# Poissons Ratio (x) = 0.39401 0.27076
# Poissons Ratio (y) = 0.43205 0.15081
# Poissons Ratio (z) = 0.27906 0.14175
#
# Static dielectric constant tensor:
#      x y z
#    x 3.669750 0.000000 -0.164830 
#    y 0.000000 3.589060 0.000000 
#    z -0.164830 0.000000 3.150980 
# 
# 
# High freq. dielectric constant tensor:
#      x y z
#    x 1.798170 0.000000 -0.006330 
#    y 0.000000 1.786580 0.000000 
#    z -0.006330 0.000000 1.791940 
# 
# From -- ./inp_files/31467.got.cif
#   From: 2010.03.12/outbox.cif.g09.slc.cpg/sg14_16_cif.got.tgz:31467.got - 2010.03.31 13:35:05.
