data_PCOD8128484
_publ_section_title
;
Structure prediction by ZEFSAII (Michael W. Deem and Ramdas Pophale) SiO2 
 PCOD8128484
Probable space group: P 21/C
;
_chemical_formula_sum "Si O2"
_cell_formula_units_Z 24
_cell_length_a 9.745665
_cell_length_b 7.924932
_cell_length_c 31.670095
_cell_angle_alpha 90.000000
_cell_angle_beta 151.391951
_cell_angle_gamma 90.000000
_cell_volume 1171.181793
_symmetry_space_group_name_H-M "P 21/C"
_symmetry_group_IT_number 14
_symmetry_cell_setting 'monoclinic'
loop_
_space_group_symop_operation_xyz
x,y,z
-x,1/2+y,1/2-z
-x,-y,-z
x,1/2-y,1/2+z
loop_
_atom_site_type_symbol
_atom_site_label
_atom_site_fract_x
_atom_site_fract_y
_atom_site_fract_z
Si Si1 0.805331 0.242350 0.741982
Si Si2 0.515221 0.812615 0.711693
Si Si3 0.870623 0.420992 0.344679
Si Si4 0.275057 0.109771 0.808213
Si Si5 0.183248 0.405513 0.084625
Si Si6 0.141185 0.930304 0.995088
O O1 0.960160 0.190756 0.828176
O O2 0.791982 0.444047 0.737248
O O3 0.488035 0.166036 0.650420
O O4 0.987082 0.172607 0.752179
O O5 0.417972 0.658895 0.714216
O O6 0.601794 0.754857 0.688460
O O7 0.795554 0.891449 0.808886
O O8 0.259515 0.952019 0.639955
O O9 0.097781 0.439609 0.444145
O O10 0.517557 0.076460 0.908797
O O11 0.996245 0.251708 0.052860
O O12 0.000000 0.500000 0.000000
O O13 0.000000 0.000000 0.000000
#
# Coordination Sequence:
#
# PCOD8128484 Si02
#       6
#     4   4   4   4   4   4
#     4  11  25  40  64  93 129 168 210 263 323 376
#     4  11  21  38  66  94 129 166 212 261 313 381
#     4  11  22  39  63  97 126 169 213 266 309 379
#     4  12  24  44  66  93 132 170 210 262 327 379
#     4  11  20  37  65  98 122 163 216 258 307 382
#     4  12  22  41  67  96 125 169 215 267 312 377
#
# _framework density 20.49212
#
# number of rings (size 3 to 8) (size 9 to 14) (size 15 to 20)
#    0.000    0.667    5.000    5.000    0.000    0.667 
#    0.000    0.000    0.000    3.000    0.000    0.000 
#    0.000    0.000    0.000    0.000    0.000    0.000 
#
# Total GULP energy -297532.412373 kJ/mol
# GULP energy per Si atom -12397.183849 kJ/mol
# Density = 2.044548 g / cm^3
# Si number density = 20.492120 Si / 1000 Ang^3
#
#
#
# Elastic Constant Matrix: (Units=GPa)
#
#
# Indices 1 2 3 4 5 6 
#
# 1 75.8653 38.0383 16.6699 0.0000 -11.0457 0.0000
# 2 38.0383 99.3728 40.0217 0.0000 -9.3841 0.0000
# 3 16.6699 40.0217 73.2429 0.0000 -12.7928 -0.0001
# 4 0.0000 0.0000 0.0000 29.2516 0.0000 7.8498
# 5 -11.0457 -9.3841 -12.7928 0.0000 36.9185 0.0000
# 6 0.0000 0.0000 -0.0001 7.8498 0.0000 12.8171
#
#
#
# Elastic Compliance Matrix: (Units=1/GPa)
#
#
# Indices 1 2 3 4 5 6 
#
# 1 0.016734 -0.006138 0.000157 0.000000 0.003501 0.000000
# 2 -0.006138 0.015182 -0.006967 0.000000 -0.000392 0.000000
# 3 0.000157 -0.006967 0.018226 0.000000 0.004592 0.000000
# 4 0.000000 0.000000 0.000000 0.040910 0.000000 -0.025055
# 5 0.003501 -0.000392 0.004592 0.000000 0.029626 0.000000
# 6 0.000000 0.000000 0.000000 -0.025055 0.000000 0.093366
#
#
# Mechanical properties :
#
#
# Convention : Reuss Voigt Hill
#
# Bulk Modulus (GPa) = 41.24458 48.66011 44.95235
# Shear Modulus (GPa) = 20.15953 26.04751 23.10352
#
# Velocity S-wave (km/s) = 3.13991 3.56912 3.36137
# Velocity P-wave (km/s) = 5.77201 6.38609 6.08680
#
# Compressibility (1/GPa) = 0.02424561
#
# Stress axis : x y z
#
# Youngs Moduli (GPa) = 59.75819 65.86913 54.86530
#
# Poissons Ratio (x) = 0.40431 -0.00861
# Poissons Ratio (y) = 0.36680 0.38225
# Poissons Ratio (z) = -0.00937 0.45891
#
# Static dielectric constant tensor:
#      x y z
#    x 3.526520 0.000000 -0.169720 
#    y 0.000000 4.078210 0.000000 
#    z -0.169720 0.000000 3.768080 
# 
# 
# High freq. dielectric constant tensor:
#      x y z
#    x 1.778670 0.000000 -0.018650 
#    y 0.000000 1.822180 0.000000 
#    z -0.018650 0.000000 1.797140 
# 
# From -- ./inp_files/54471.got.cif
#   From: 2010.03.12/outbox.cif.g09.slc.cpg/sg14_28_cif.got.tgz:54471.got - 2010.03.31 13:35:05.
