data_PCOD8128227
_publ_section_title
;
Structure prediction by ZEFSAII (Michael W. Deem and Ramdas Pophale) SiO2 
 PCOD8128227
Probable space group: P 21/C
;
_chemical_formula_sum "Si O2"
_cell_formula_units_Z 24
_cell_length_a 5.203558
_cell_length_b 18.651912
_cell_length_c 11.945988
_cell_angle_alpha 90.000000
_cell_angle_beta 94.426388
_cell_angle_gamma 90.000000
_cell_volume 1155.975238
_symmetry_space_group_name_H-M "P 21/C"
_symmetry_group_IT_number 14
_symmetry_cell_setting 'monoclinic'
loop_
_space_group_symop_operation_xyz
x,y,z
-x,1/2+y,1/2-z
-x,-y,-z
x,1/2-y,1/2+z
loop_
_atom_site_type_symbol
_atom_site_label
_atom_site_fract_x
_atom_site_fract_y
_atom_site_fract_z
Si Si1 0.255358 0.048301 0.012608
Si Si2 0.240144 0.360753 0.294634
Si Si3 0.725104 0.417953 0.178074
Si Si4 0.676248 0.917553 0.734817
Si Si5 0.358736 0.845021 0.553181
Si Si6 0.865545 0.790520 0.622322
O O1 0.305787 0.087198 0.131523
O O2 0.237097 0.110056 0.920406
O O3 0.500000 0.000000 0.000000
O O4 0.000000 0.000000 0.000000
O O5 0.516647 0.375964 0.247093
O O6 0.175776 0.276619 0.297331
O O7 0.015634 0.397119 0.216701
O O8 0.709858 0.502172 0.193867
O O9 0.685752 0.401474 0.046680
O O10 0.406801 0.888163 0.672224
O O11 0.896819 0.863880 0.696145
O O12 0.613904 0.797703 0.533454
O O13 0.125043 0.787959 0.557263
#
# Coordination Sequence:
#
# PCOD8128227 Si02
#       6
#     4   4   4   4   4   4
#     4  12  24  43  68  97 130 179 226 276 326 396
#     4  12  25  45  67 104 134 181 226 278 336 402
#     4  12  24  42  74  97 138 171 233 279 334 404
#     4  10  25  42  70  98 137 174 226 276 339 393
#     4  10  24  43  68  98 131 177 221 275 345 397
#     4  10  25  44  65 102 138 174 227 270 352 397
#
# _framework density 20.761690999999999
#
# number of rings (size 3 to 8) (size 9 to 14) (size 15 to 20)
#    1.000    0.000    3.333    2.500    4.667    3.333 
#    0.000    0.000    0.000    0.000    0.000    0.000 
#    0.000    0.000    0.000    0.000    0.000    0.000 
#
# Total GULP energy -297426.475463 kJ/mol
# GULP energy per Si atom -12392.769811 kJ/mol
# Density = 2.071444 g / cm^3
# Si number density = 20.761691 Si / 1000 Ang^3
#
#
#
# Elastic Constant Matrix: (Units=GPa)
#
#
# Indices 1 2 3 4 5 6 
#
# 1 123.9499 26.3669 26.1523 0.0000 5.3370 0.0000
# 2 26.3669 104.0508 9.3139 0.0000 -1.3709 0.0000
# 3 26.1523 9.3139 118.5178 0.0000 15.2215 0.0000
# 4 0.0000 0.0000 0.0000 -12.7813 0.0000 -15.8247
# 5 5.3370 -1.3709 15.2215 0.0000 28.7957 0.0000
# 6 0.0000 0.0000 0.0000 -15.8247 0.0000 21.6609
#
#
#
# Elastic Compliance Matrix: (Units=1/GPa)
#
#
# Indices 1 2 3 4 5 6 
#
# 1 0.008912 -0.002118 -0.001690 0.000000 -0.000859 0.000000
# 2 -0.002118 0.010205 -0.000480 0.000000 0.001132 0.000000
# 3 -0.001690 -0.000480 0.009453 0.000000 -0.004706 0.000000
# 4 0.000000 0.000000 0.000000 -0.041081 0.000000 -0.030012
# 5 -0.000859 0.001132 -0.004706 0.000000 0.037428 0.000000
# 6 0.000000 0.000000 0.000000 -0.030012 0.000000 0.024240
#
#
# Mechanical properties :
#
#
# Convention : Reuss Voigt Hill
#
# Bulk Modulus (GPa) = 50.01548 52.24274 51.12911
# Shear Modulus (GPa) = 77.64167 26.51409 52.07788
#
# Velocity S-wave (km/s) = 6.12191 3.57749 5.01379
# Velocity P-wave (km/s) = 8.60889 6.50248 7.62873
#
# Compressibility (1/GPa) = 0.01999381
#
# Stress axis : x y z
#
# Youngs Moduli (GPa) = 112.20940 97.98752 105.79141
#
# Poissons Ratio (x) = 0.20758 0.17875
# Poissons Ratio (y) = 0.23770 0.05078
# Poissons Ratio (z) = 0.18960 0.04703
#
# Static dielectric constant tensor:
#      x y z
#    x 3.932680 0.000000 0.135720 
#    y 0.000000 3.739720 0.000000 
#    z 0.135720 0.000000 3.662420 
# 
# 
# High freq. dielectric constant tensor:
#      x y z
#    x 1.826810 0.000000 0.009660 
#    y 0.000000 1.811200 0.000000 
#    z 0.009660 0.000000 1.808180 
# 
# From -- ./inp_files/21229.got.cif
#   From: 2010.03.12/outbox.cif.g09.slc.cpg/sg14_11_cif.got.tgz:21229.got - 2010.03.31 13:35:05.
