data_PCOD8128273
_publ_section_title
;
Structure prediction by ZEFSAII (Michael W. Deem and Ramdas Pophale) SiO2 
 PCOD8128273
Probable space group: P 21/C
;
_chemical_formula_sum "Si O2"
_cell_formula_units_Z 24
_cell_length_a 23.959169
_cell_length_b 7.873249
_cell_length_c 12.197698
_cell_angle_alpha 90.000000
_cell_angle_beta 152.744389
_cell_angle_gamma 90.000000
_cell_volume 1053.736649
_symmetry_space_group_name_H-M "P 21/C"
_symmetry_group_IT_number 14
_symmetry_cell_setting 'monoclinic'
loop_
_space_group_symop_operation_xyz
x,y,z
-x,1/2+y,1/2-z
-x,-y,-z
x,1/2-y,1/2+z
loop_
_atom_site_type_symbol
_atom_site_label
_atom_site_fract_x
_atom_site_fract_y
_atom_site_fract_z
Si Si1 0.371969 0.900693 0.554459
Si Si2 0.368013 0.265534 0.468696
Si Si3 0.157234 0.190865 0.765717
Si Si4 0.960471 0.444992 0.790636
Si Si5 0.837779 0.209370 0.422270
Si Si6 0.279893 0.467715 0.112353
O O1 0.500177 0.812426 0.752998
O O2 0.264859 0.765778 0.343494
O O3 0.355455 0.061796 0.444911
O O4 0.371416 0.958598 0.680631
O O5 0.266863 0.346315 0.372304
O O6 0.350845 0.339193 0.316840
O O7 0.150246 0.029318 0.835470
O O8 0.175139 0.363161 0.865604
O O9 0.028072 0.207376 0.475198
O O10 0.910414 0.377166 0.588551
O O11 0.066655 0.584741 0.965672
O O12 0.777213 0.124626 0.422971
#
# Coordination Sequence:
#
# PCOD8128273 Si02
#       6
#     4   4   4   4   4   4
#     4  11  27  44  75 100 142 179 232 283 348 400
#     4  11  23  48  68 103 140 180 227 290 335 414
#     4  10  24  44  68  98 136 184 221 289 335 409
#     4  11  25  42  70  99 142 176 238 273 349 406
#     4  12  26  44  70 102 138 185 225 289 340 407
#     4  11  24  44  70 103 138 177 234 269 355 403
#
# _framework density 22.776088999999999
#
# number of rings (size 3 to 8) (size 9 to 14) (size 15 to 20)
#    0.000    1.000    1.667    3.500    9.333    2.000 
#    0.000    5.000    0.000    0.000    0.000    0.000 
#    0.000    0.000    0.000    0.000    0.000    0.000 
#
# Total GULP energy -297642.652088 kJ/mol
# GULP energy per Si atom -12401.777170 kJ/mol
# Density = 2.272425 g / cm^3
# Si number density = 22.776089 Si / 1000 Ang^3
#
#
#
# Elastic Constant Matrix: (Units=GPa)
#
#
# Indices 1 2 3 4 5 6 
#
# 1 85.0575 36.5916 32.0644 0.0000 -6.9142 0.0000
# 2 36.5916 85.8066 35.8084 0.0000 2.0957 0.0000
# 3 32.0644 35.8084 93.6721 0.0000 0.5496 0.0000
# 4 0.0000 0.0000 0.0000 46.9435 0.0000 -5.1863
# 5 -6.9142 2.0957 0.5496 0.0000 33.2870 0.0000
# 6 0.0000 0.0000 0.0000 -5.1863 0.0000 42.7300
#
#
#
# Elastic Compliance Matrix: (Units=1/GPa)
#
#
# Indices 1 2 3 4 5 6 
#
# 1 0.015608 -0.005362 -0.003314 0.000000 0.003634 0.000000
# 2 -0.005362 0.015729 -0.004165 0.000000 -0.002035 0.000000
# 3 -0.003314 -0.004165 0.013406 0.000000 -0.000648 0.000000
# 4 0.000000 0.000000 0.000000 0.021592 0.000000 0.002621
# 5 0.003634 -0.002035 -0.000648 0.000000 0.030935 0.000000
# 6 0.000000 0.000000 0.000000 0.002621 0.000000 0.023721
#
#
# Mechanical properties :
#
#
# Convention : Reuss Voigt Hill
#
# Bulk Modulus (GPa) = 52.46577 52.60722 52.53649
# Shear Modulus (GPa) = 32.67395 35.26358 33.96877
#
# Velocity S-wave (km/s) = 3.79168 3.93908 3.86608
# Velocity P-wave (km/s) = 6.50036 6.62089 6.56090
#
# Compressibility (1/GPa) = 0.01906005
#
# Stress axis : x y z
#
# Youngs Moduli (GPa) = 64.06890 63.57884 74.59233
#
# Poissons Ratio (x) = 0.34088 0.24724
# Poissons Ratio (y) = 0.34351 0.31070
# Poissons Ratio (z) = 0.21236 0.26483
#
# Static dielectric constant tensor:
#      x y z
#    x 4.113480 0.000000 -0.029120 
#    y 0.000000 4.111290 0.000000 
#    z -0.029120 0.000000 4.070110 
# 
# 
# High freq. dielectric constant tensor:
#      x y z
#    x 1.902780 0.000000 -0.001600 
#    y 0.000000 1.900270 0.000000 
#    z -0.001600 0.000000 1.899110 
# 
# From -- ./inp_files/35771.got.cif
#   From: 2010.03.12/outbox.cif.g09.slc.cpg/sg14_18_cif.got.tgz:35771.got - 2010.03.31 13:35:05.
