data_PCOD8128262
_publ_section_title
;
Structure prediction by ZEFSAII (Michael W. Deem and Ramdas Pophale) SiO2 
 PCOD8128262
Probable space group: P 21/C
;
_chemical_formula_sum "Si O2"
_cell_formula_units_Z 32
_cell_length_a 8.340547
_cell_length_b 19.097387
_cell_length_c 9.124045
_cell_angle_alpha 90.000000
_cell_angle_beta 83.622233
_cell_angle_gamma 90.000000
_cell_volume 1444.307758
_symmetry_space_group_name_H-M "P 21/C"
_symmetry_group_IT_number 14
_symmetry_cell_setting 'monoclinic'
loop_
_space_group_symop_operation_xyz
x,y,z
-x,1/2+y,1/2-z
-x,-y,-z
x,1/2-y,1/2+z
loop_
_atom_site_type_symbol
_atom_site_label
_atom_site_fract_x
_atom_site_fract_y
_atom_site_fract_z
Si Si1 0.602698 0.454762 0.776777
Si Si2 0.577774 0.413620 0.108212
Si Si3 0.917206 0.199260 0.052492
Si Si4 0.546271 0.176885 0.109600
Si Si5 0.056833 0.316845 0.236423
Si Si6 0.034064 0.953484 0.857587
Si Si7 0.415518 0.295430 0.297295
Si Si8 0.071192 0.543721 0.862752
O O1 0.514314 0.529215 0.783163
O O2 0.540698 0.405646 0.650125
O O3 0.792677 0.467535 0.735849
O O4 0.553836 0.419912 0.936839
O O5 0.515534 0.339014 0.167189
O O6 0.766530 0.416425 0.117529
O O7 0.728638 0.205304 0.105539
O O8 0.993311 0.128084 0.110102
O O9 0.020967 0.263077 0.108007
O O10 0.925652 0.198076 0.875636
O O11 0.446362 0.215436 0.247451
O O12 0.470437 0.188457 0.957152
O O13 0.227191 0.308705 0.298672
O O14 0.052248 0.395933 0.176591
O O15 0.899274 0.983677 0.761459
O O16 0.000000 0.000000 0.000000
O O17 0.000000 0.500000 0.000000
#
# Coordination Sequence:
#
# PCOD8128262 Si02
#       8
#     4   4   4   4   4   4   4   4
#     4  10  24  44  67 102 135 179 229 283 348 412
#     4  11  24  42  70  99 139 181 229 286 346 418
#     4  11  25  44  73  99 138 184 235 286 343 423
#     4  11  24  46  70  99 137 184 233 282 355 416
#     4  12  27  45  68 104 138 181 235 289 350 412
#     4  11  23  45  71 100 143 180 230 290 349 419
#     4  12  26  44  70  98 143 180 230 292 349 417
#     4  12  25  44  71 102 140 186 234 285 351 422
#
# _framework density 22.155940999999999
#
# number of rings (size 3 to 8) (size 9 to 14) (size 15 to 20)
#    0.000    0.750    2.500    4.500    5.250    3.500 
#    0.000    0.000    0.000    0.000    0.000    0.000 
#    0.000    0.000    0.000    0.000    0.000    0.000 
#
# Total GULP energy -396797.761372 kJ/mol
# GULP energy per Si atom -12399.930043 kJ/mol
# Density = 2.210551 g / cm^3
# Si number density = 22.155941 Si / 1000 Ang^3
#
#
#
# Elastic Constant Matrix: (Units=GPa)
#
#
# Indices 1 2 3 4 5 6 
#
# 1 72.6847 19.6929 8.1061 0.0000 6.7593 0.0000
# 2 19.6929 102.1605 35.6444 0.0000 6.5703 0.0000
# 3 8.1061 35.6444 118.2470 0.0000 7.0215 0.0000
# 4 0.0000 0.0000 0.0000 49.4317 0.0000 -0.9538
# 5 6.7593 6.5703 7.0215 0.0000 39.9350 0.0000
# 6 0.0000 0.0000 0.0000 -0.9538 0.0000 40.0275
#
#
#
# Elastic Compliance Matrix: (Units=1/GPa)
#
#
# Indices 1 2 3 4 5 6 
#
# 1 0.014680 -0.002671 -0.000081 0.000000 -0.002031 0.000000
# 2 -0.002671 0.011485 -0.003227 0.000000 -0.000870 0.000000
# 3 -0.000081 -0.003227 0.009502 0.000000 -0.001126 0.000000
# 4 0.000000 0.000000 0.000000 0.020239 0.000000 0.000482
# 5 -0.002031 -0.000870 -0.001126 0.000000 0.025726 0.000000
# 6 0.000000 0.000000 0.000000 0.000482 0.000000 0.024994
#
#
# Mechanical properties :
#
#
# Convention : Reuss Voigt Hill
#
# Bulk Modulus (GPa) = 42.17767 46.66434 44.42100
# Shear Modulus (GPa) = 39.52971 41.18877 40.35924
#
# Velocity S-wave (km/s) = 4.22851 4.31634 4.27265
# Velocity P-wave (km/s) = 6.55122 6.77853 6.66584
#
# Compressibility (1/GPa) = 0.02370923
#
# Stress axis : x y z
#
# Youngs Moduli (GPa) = 68.12193 87.06712 105.23960
#
# Poissons Ratio (x) = 0.23255 0.00848
# Poissons Ratio (y) = 0.18195 0.33965
# Poissons Ratio (z) = 0.00549 0.28100
#
# Static dielectric constant tensor:
#      x y z
#    x 3.930450 0.000000 -0.126090 
#    y 0.000000 4.081930 0.000000 
#    z -0.126090 0.000000 4.186010 
# 
# 
# High freq. dielectric constant tensor:
#      x y z
#    x 1.869550 0.000000 -0.002160 
#    y 0.000000 1.884400 0.000000 
#    z -0.002160 0.000000 1.884850 
# 
# From -- ./inp_files/10190.got.cif
#   From: 2010.03.12/outbox.cif.g09.slc.cpg/sg14_6_cif.got.tgz:10190.got - 2010.03.31 13:35:05.
