data_PCOD8128521
_publ_section_title
;
Structure prediction by ZEFSAII (Michael W. Deem and Ramdas Pophale) SiO2 
 PCOD8128521
Probable space group: P 21/C
;
_chemical_formula_sum "Si O2"
_cell_formula_units_Z 32
_cell_length_a 9.561316
_cell_length_b 9.075289
_cell_length_c 19.203921
_cell_angle_alpha 90.000000
_cell_angle_beta 57.340774
_cell_angle_gamma 90.000000
_cell_volume 1402.897657
_symmetry_space_group_name_H-M "P 21/C"
_symmetry_group_IT_number 14
_symmetry_cell_setting 'monoclinic'
loop_
_space_group_symop_operation_xyz
x,y,z
-x,1/2+y,1/2-z
-x,-y,-z
x,1/2-y,1/2+z
loop_
_atom_site_type_symbol
_atom_site_label
_atom_site_fract_x
_atom_site_fract_y
_atom_site_fract_z
Si Si1 0.621343 0.426205 0.655823
Si Si2 0.345241 0.387902 0.555146
Si Si3 0.353182 0.674158 0.195381
Si Si4 0.444217 0.072937 0.585263
Si Si5 0.927546 0.930803 0.605710
Si Si6 0.223978 0.847001 0.446411
Si Si7 0.249722 0.989878 0.213260
Si Si8 0.292589 0.285676 0.422291
O O1 0.614600 0.357401 0.733154
O O2 0.732511 0.324841 0.574611
O O3 0.435356 0.452053 0.678665
O O4 0.711496 0.583449 0.633291
O O5 0.500000 0.500000 0.500000
O O6 0.392584 0.239071 0.583803
O O7 0.213532 0.467128 0.642743
O O8 0.244790 0.349006 0.511729
O O9 0.303205 0.527174 0.163745
O O10 0.524216 0.723963 0.113818
O O11 0.226994 0.812296 0.224849
O O12 0.600246 0.069695 0.596552
O O13 0.500000 0.000000 0.500000
O O14 0.873936 0.923911 0.700710
O O15 0.831756 0.832598 0.574483
O O16 0.119927 0.881640 0.545835
O O17 0.884459 0.095800 0.590379
#
# Coordination Sequence:
#
# PCOD8128521 Si02
#       8
#     4   4   4   4   4   4   4   4
#     4  11  21  35  62  89 122 151 215 268 305 364
#     4  12  21  36  60  95 122 161 205 266 319 369
#     4  11  21  34  58  98 116 152 214 262 315 362
#     4  12  21  37  63  89 123 158 205 262 304 373
#     4  11  23  39  61  87 127 167 203 259 322 394
#     4  11  22  39  61  90 121 165 207 251 326 378
#     4  11  21  36  62  90 124 159 210 271 314 376
#     4  11  22  37  57  90 125 157 203 257 322 378
#
# _framework density 22.809930999999999
#
# number of rings (size 3 to 8) (size 9 to 14) (size 15 to 20)
#    0.000    0.750    8.750    0.000    3.500    0.500 
#    0.000    0.000    2.750    3.000    0.000    0.000 
#    0.000    0.000    0.000    0.000    0.000    0.000 
#
# Total GULP energy -396478.027640 kJ/mol
# GULP energy per Si atom -12389.938364 kJ/mol
# Density = 2.275801 g / cm^3
# Si number density = 22.809931 Si / 1000 Ang^3
#
#
#
# Elastic Constant Matrix: (Units=GPa)
#
#
# Indices 1 2 3 4 5 6 
#
# 1 17.4365 11.7486 10.9586 0.0000 6.5136 0.0000
# 2 11.7486 128.9944 42.0181 0.0000 3.3956 0.0000
# 3 10.9586 42.0181 139.2458 0.0000 16.4012 0.0000
# 4 0.0000 0.0000 0.0000 40.6570 0.0000 11.8278
# 5 6.5136 3.3956 16.4012 0.0000 29.9352 0.0000
# 6 0.0000 0.0000 0.0000 11.8278 0.0000 18.1708
#
#
#
# Elastic Compliance Matrix: (Units=1/GPa)
#
#
# Indices 1 2 3 4 5 6 
#
# 1 0.066916 -0.005027 -0.002247 0.000000 -0.012759 0.000000
# 2 -0.005027 0.008981 -0.002484 0.000000 0.001436 0.000000
# 3 -0.002247 -0.002484 0.008570 0.000000 -0.003925 0.000000
# 4 0.000000 0.000000 0.000000 0.030342 0.000000 -0.019750
# 5 -0.012759 0.001436 -0.003925 0.000000 0.038169 0.000000
# 6 0.000000 0.000000 0.000000 -0.019750 0.000000 0.067889
#
#
# Mechanical properties :
#
#
# Convention : Reuss Voigt Hill
#
# Bulk Modulus (GPa) = 15.39562 46.12526 30.76044
# Shear Modulus (GPa) = 19.08152 32.48269 25.78211
#
# Velocity S-wave (km/s) = 2.89545 3.77776 3.36564
# Velocity P-wave (km/s) = 4.23584 6.26850 5.34960
#
# Compressibility (1/GPa) = 0.06495356
#
# Stress axis : x y z
#
# Youngs Moduli (GPa) = 14.94401 111.34195 116.68461
#
# Poissons Ratio (x) = 0.55971 0.26214
# Poissons Ratio (y) = 0.07512 0.28981
# Poissons Ratio (z) = 0.03357 0.27654
#
# Static dielectric constant tensor:
#      x y z
#    x 3.607490 0.000000 0.160080 
#    y 0.000000 4.232030 0.000000 
#    z 0.160080 0.000000 4.279720 
# 
# 
# High freq. dielectric constant tensor:
#      x y z
#    x 1.840710 0.000000 0.024560 
#    y 0.000000 1.924310 0.000000 
#    z 0.024560 0.000000 1.903800 
# 
# From -- ./inp_files/67022.got.cif
#   From: 2010.03.12/outbox.cif.g09.slc.cpg/sg14_34_cif.got.tgz:67022.got - 2010.03.31 13:35:05.
