data_PCOD8128091
_publ_section_title
;
Structure prediction by ZEFSAII (Michael W. Deem and Ramdas Pophale) SiO2 
 PCOD8128091
Probable space group: P 21/C
;
_chemical_formula_sum "Si O2"
_cell_formula_units_Z 32
_cell_length_a 9.289428
_cell_length_b 11.633289
_cell_length_c 32.104778
_cell_angle_alpha 90.000000
_cell_angle_beta 25.516382
_cell_angle_gamma 90.000000
_cell_volume 1494.533832
_symmetry_space_group_name_H-M "P 21/C"
_symmetry_group_IT_number 14
_symmetry_cell_setting 'monoclinic'
loop_
_space_group_symop_operation_xyz
x,y,z
-x,1/2+y,1/2-z
-x,-y,-z
x,1/2-y,1/2+z
loop_
_atom_site_type_symbol
_atom_site_label
_atom_site_fract_x
_atom_site_fract_y
_atom_site_fract_z
Si Si1 0.949700 0.148303 0.573610
Si Si2 0.895435 0.011970 0.394233
Si Si3 0.038402 0.659569 0.787615
Si Si4 0.406193 0.330396 0.877504
Si Si5 0.139488 0.232633 0.365343
Si Si6 0.275071 0.424658 0.213958
Si Si7 0.896560 0.307511 0.656570
Si Si8 0.129217 0.548829 0.602984
O O1 0.585110 0.152074 0.648296
O O2 0.046308 0.263113 0.574041
O O3 0.949750 0.040400 0.604302
O O4 0.239624 0.139339 0.464348
O O5 0.066931 0.955947 0.308429
O O6 0.500000 0.000000 0.500000
O O7 0.986650 0.146214 0.371097
O O8 0.380555 0.711349 0.678515
O O9 0.895273 0.757298 0.857570
O O10 0.798288 0.626232 0.812464
O O11 0.111162 0.315730 0.920064
O O12 0.645534 0.439077 0.805872
O O13 0.532303 0.250391 0.254851
O O14 0.943688 0.352678 0.411738
O O15 0.956373 0.405732 0.328030
O O16 0.876200 0.444095 0.660249
O O17 0.500000 0.500000 0.500000
#
# Coordination Sequence:
#
# PCOD8128091 Si02
#       8
#     4   4   4   4   4   4   4   4
#     4  11  23  43  72 100 132 182 236 284 345 422
#     4  11  24  41  72 104 132 179 245 288 346 423
#     4  10  25  41  68 101 144 172 229 298 353 401
#     4  11  24  42  70 101 142 176 231 291 347 410
#     4  11  24  45  71  96 137 189 230 290 353 420
#     4  12  23  44  68 103 140 182 227 296 344 422
#     4  10  23  48  67  94 141 184 233 279 351 432
#     4  12  27  44  69 101 144 188 231 285 369 424
#
# _framework density 21.411358
#
# number of rings (size 3 to 8) (size 9 to 14) (size 15 to 20)
#    0.000    1.000    5.000    1.125   10.500    1.000 
#    0.000    0.625    0.000    0.000    0.000    0.000 
#    0.000    0.000    0.000    0.000    0.000    0.000 
#
# Total GULP energy -396555.430574 kJ/mol
# GULP energy per Si atom -12392.357205 kJ/mol
# Density = 2.136262 g / cm^3
# Si number density = 21.411358 Si / 1000 Ang^3
#
#
#
# Elastic Constant Matrix: (Units=GPa)
#
#
# Indices 1 2 3 4 5 6 
#
# 1 148.0029 61.5907 41.3585 0.0000 7.7218 0.0000
# 2 61.5907 123.9213 14.1734 0.0000 -4.2965 0.0000
# 3 41.3585 14.1734 100.0515 0.0000 8.9957 0.0000
# 4 0.0000 0.0000 0.0000 27.2396 0.0000 -5.7319
# 5 7.7218 -4.2965 8.9957 0.0000 32.6395 0.0000
# 6 0.0000 0.0000 0.0000 -5.7319 0.0000 34.7545
#
#
#
# Elastic Compliance Matrix: (Units=1/GPa)
#
#
# Indices 1 2 3 4 5 6 
#
# 1 0.009609 -0.004484 -0.003158 0.000000 -0.001993 0.000000
# 2 -0.004484 0.010361 0.000172 0.000000 0.002377 0.000000
# 3 -0.003158 0.000172 0.011491 0.000000 -0.002397 0.000000
# 4 0.000000 0.000000 0.000000 0.038031 0.000000 0.006272
# 5 -0.001993 0.002377 -0.002397 0.000000 0.032083 0.000000
# 6 0.000000 0.000000 0.000000 0.006272 0.000000 0.029808
#
#
# Mechanical properties :
#
#
# Convention : Reuss Voigt Hill
#
# Bulk Modulus (GPa) = 60.52437 67.35789 63.94113
# Shear Modulus (GPa) = 32.93175 35.91692 34.42434
#
# Velocity S-wave (km/s) = 3.92605 4.10014 4.01404
# Velocity P-wave (km/s) = 6.99147 7.34453 7.17017
#
# Compressibility (1/GPa) = 0.01652227
#
# Stress axis : x y z
#
# Youngs Moduli (GPa) = 104.07030 96.51710 87.02208
#
# Poissons Ratio (x) = 0.43275 0.27479
# Poissons Ratio (y) = 0.46662 -0.01497
# Poissons Ratio (z) = 0.32862 -0.01660
#
# Static dielectric constant tensor:
#      x y z
#    x 4.071600 0.000000 0.211210 
#    y 0.000000 4.005210 0.000000 
#    z 0.211210 0.000000 3.730200 
# 
# 
# High freq. dielectric constant tensor:
#      x y z
#    x 1.842150 0.000000 0.011010 
#    y 0.000000 1.842390 0.000000 
#    z 0.011010 0.000000 1.830480 
# 
# From -- ./inp_files/79636.got.cif
#   From: 2010.03.12/outbox.cif.g09.slc.cpg/sg14_40_cif.got.tgz:79636.got - 2010.03.31 13:35:05.
