data_PCOD8128571
_publ_section_title
;
Structure prediction by ZEFSAII (Michael W. Deem and Ramdas Pophale) SiO2 
 PCOD8128571
Probable space group: P 21/C
;
_chemical_formula_sum "Si O2"
_cell_formula_units_Z 24
_cell_length_a 8.038148
_cell_length_b 5.230688
_cell_length_c 24.201622
_cell_angle_alpha 90.000000
_cell_angle_beta 102.489189
_cell_angle_gamma 90.000000
_cell_volume 993.479614
_symmetry_space_group_name_H-M "P 21/C"
_symmetry_group_IT_number 14
_symmetry_cell_setting 'monoclinic'
loop_
_space_group_symop_operation_xyz
x,y,z
-x,1/2+y,1/2-z
-x,-y,-z
x,1/2-y,1/2+z
loop_
_atom_site_type_symbol
_atom_site_label
_atom_site_fract_x
_atom_site_fract_y
_atom_site_fract_z
Si Si1 0.979088 0.750775 0.034922
Si Si2 0.258964 0.773919 0.246730
Si Si3 0.991639 0.612531 0.314310
Si Si4 0.195853 0.495617 0.134808
Si Si5 0.270257 0.312771 0.392499
Si Si6 0.458657 0.803714 0.366760
O O1 0.126184 0.730888 0.092773
O O2 0.790705 0.768188 0.048857
O O3 0.000000 0.500000 0.000000
O O4 0.000000 0.000000 0.000000
O O5 0.289592 0.585332 0.197690
O O6 0.420398 0.763959 0.298517
O O7 0.086116 0.717969 0.267873
O O8 0.204914 0.045258 0.215918
O O9 0.100382 0.371380 0.344556
O O10 0.969493 0.821077 0.362011
O O11 0.339412 0.339991 0.110522
O O12 0.397870 0.556318 0.396981
O O13 0.359066 0.057120 0.377793
#
# Coordination Sequence:
#
# PCOD8128571 Si02
#       6
#     4   4   4   4   4   4
#     4  12  26  49  77 102 127 183 253 307 344 405
#     4  11  22  37  68  98 147 182 230 267 350 420
#     4  11  21  40  68 103 139 192 233 276 332 427
#     4  12  27  43  69 107 142 186 237 293 346 422
#     4  11  24  49  69 103 141 186 228 293 351 426
#     4  11  28  42  70 106 154 181 217 280 372 435
#
# _framework density 24.157520000000002
#
# number of rings (size 3 to 8) (size 9 to 14) (size 15 to 20)
#    0.000    0.667    3.333    5.000    7.000    0.000 
#    0.000    5.000    0.000    0.000    0.000    0.000 
#    0.000    0.000    0.000    0.000    0.000    0.000 
#
# Total GULP energy -297457.820063 kJ/mol
# GULP energy per Si atom -12394.075836 kJ/mol
# Density = 2.410254 g / cm^3
# Si number density = 24.157520 Si / 1000 Ang^3
#
#
#
# Elastic Constant Matrix: (Units=GPa)
#
#
# Indices 1 2 3 4 5 6 
#
# 1 86.6421 26.4079 43.8563 0.0000 -15.3849 0.0000
# 2 26.4079 141.7698 60.3444 0.0000 -17.9307 0.0000
# 3 43.8563 60.3444 101.6113 0.0000 -37.4661 0.0000
# 4 0.0000 0.0000 0.0000 44.9872 0.0000 -7.2659
# 5 -15.3849 -17.9307 -37.4661 0.0000 18.8249 0.0000
# 6 0.0000 0.0000 0.0000 -7.2659 0.0000 42.6786
#
#
#
# Elastic Compliance Matrix: (Units=1/GPa)
#
#
# Indices 1 2 3 4 5 6 
#
# 1 0.014795 0.000046 -0.007283 0.000000 -0.002360 0.000000
# 2 0.000046 0.009784 -0.008943 0.000000 -0.008442 0.000000
# 3 -0.007283 -0.008943 0.048694 0.000000 0.082442 0.000000
# 4 0.000000 0.000000 0.000000 0.022857 0.000000 0.003891
# 5 -0.002360 -0.008442 0.082442 0.000000 0.207231 0.000000
# 6 0.000000 0.000000 0.000000 0.003891 0.000000 0.024093
#
#
# Mechanical properties :
#
#
# Convention : Reuss Voigt Hill
#
# Bulk Modulus (GPa) = 24.44222 65.69337 45.06779
# Shear Modulus (GPa) = 13.38858 34.59244 23.99051
#
# Velocity S-wave (km/s) = 2.35674 3.78822 3.15475
# Velocity P-wave (km/s) = 4.18873 6.81080 5.65387
#
# Compressibility (1/GPa) = 0.04091282
#
# Stress axis : x y z
#
# Youngs Moduli (GPa) = 67.58915 102.20751 20.53652
#
# Poissons Ratio (x) = -0.00465 0.14956
# Poissons Ratio (y) = -0.00308 0.18365
# Poissons Ratio (z) = 0.49224 0.91403
#
# Static dielectric constant tensor:
#      x y z
#    x 4.190330 0.000000 -0.287750 
#    y 0.000000 4.403700 0.000000 
#    z -0.287750 0.000000 4.546590 
# 
# 
# High freq. dielectric constant tensor:
#      x y z
#    x 1.948410 0.000000 -0.024910 
#    y 0.000000 1.972590 0.000000 
#    z -0.024910 0.000000 1.949040 
# 
# From -- ./inp_files/71620.got.cif
#   From: 2010.03.12/outbox.cif.g09.slc.cpg/sg14_36_cif.got.tgz:71620.got - 2010.03.31 13:35:05.
