data_PCOD8128396
_publ_section_title
;
Structure prediction by ZEFSAII (Michael W. Deem and Ramdas Pophale) SiO2 
 PCOD8128396
Probable space group: P 21/C
;
_chemical_formula_sum "Si O2"
_cell_formula_units_Z 32
_cell_length_a 20.614511
_cell_length_b 9.827641
_cell_length_c 13.087354
_cell_angle_alpha 90.000000
_cell_angle_beta 33.323383
_cell_angle_gamma 90.000000
_cell_volume 1456.579748
_symmetry_space_group_name_H-M "P 21/C"
_symmetry_group_IT_number 14
_symmetry_cell_setting 'monoclinic'
loop_
_space_group_symop_operation_xyz
x,y,z
-x,1/2+y,1/2-z
-x,-y,-z
x,1/2-y,1/2+z
loop_
_atom_site_type_symbol
_atom_site_label
_atom_site_fract_x
_atom_site_fract_y
_atom_site_fract_z
Si Si1 0.689382 0.154738 0.645537
Si Si2 0.543179 0.561461 0.226033
Si Si3 0.861551 0.315662 0.287012
Si Si4 0.411264 0.559846 0.197856
Si Si5 0.736826 0.766387 0.907448
Si Si6 0.060366 0.126709 0.974696
Si Si7 0.836683 0.936230 0.948525
Si Si8 0.685489 0.451680 0.368391
O O1 0.810345 0.209848 0.437402
O O2 0.599915 0.276692 0.793737
O O3 0.721506 0.066449 0.703116
O O4 0.631752 0.059338 0.636020
O O5 0.456920 0.513505 0.248411
O O6 0.453424 0.587793 0.438339
O O7 0.614047 0.696298 0.100977
O O8 0.902100 0.451996 0.292075
O O9 0.759663 0.347733 0.339680
O O10 0.973277 0.255618 0.079995
O O11 0.283728 0.495895 0.346253
O O12 0.500000 0.500000 0.000000
O O13 0.815631 0.658534 0.741869
O O14 0.807631 0.805794 0.916879
O O15 0.709493 0.893240 0.869875
O O16 0.077576 0.101018 0.072227
O O17 0.000000 0.000000 0.000000
#
# Coordination Sequence:
#
# PCOD8128396 Si02
#       8
#     4   4   4   4   4   4   4   4
#     4  11  25  40  71 104 135 192 233 281 353 430
#     4  12  23  43  68 104 149 176 235 280 350 425
#     4  10  25  47  69  98 139 177 234 297 343 419
#     4  11  24  40  70  99 144 189 226 292 352 417
#     4  11  26  46  68 106 143 182 232 294 348 424
#     4  12  28  45  76 100 133 184 245 289 357 415
#     4  10  25  46  65 102 136 180 231 288 357 410
#     4  11  25  44  71 104 138 187 234 278 367 417
#
# _framework density 21.969275
#
# number of rings (size 3 to 8) (size 9 to 14) (size 15 to 20)
#    0.000    1.000    3.750    2.625   10.500    3.000 
#    0.000    0.000    0.000    0.000    0.000    0.000 
#    0.000    0.000    0.000    0.000    0.000    0.000 
#
# Total GULP energy -396963.647830 kJ/mol
# GULP energy per Si atom -12405.113995 kJ/mol
# Density = 2.191927 g / cm^3
# Si number density = 21.969275 Si / 1000 Ang^3
#
#
#
# Elastic Constant Matrix: (Units=GPa)
#
#
# Indices 1 2 3 4 5 6 
#
# 1 91.9774 33.7082 8.5607 0.0000 0.9825 0.0000
# 2 33.7082 91.8742 25.8303 0.0000 -5.7813 0.0000
# 3 8.5607 25.8303 72.7231 0.0000 -7.4677 0.0000
# 4 0.0000 0.0000 0.0000 43.7166 0.0000 4.1190
# 5 0.9825 -5.7813 -7.4677 0.0000 23.9502 0.0000
# 6 0.0000 0.0000 0.0000 4.1190 0.0000 29.8433
#
#
#
# Elastic Compliance Matrix: (Units=1/GPa)
#
#
# Indices 1 2 3 4 5 6 
#
# 1 0.012626 -0.004745 0.000029 0.000000 -0.001654 0.000000
# 2 -0.004745 0.013937 -0.004159 0.000000 0.002262 0.000000
# 3 0.000029 -0.004159 0.015622 0.000000 0.003866 0.000000
# 4 0.000000 0.000000 0.000000 0.023176 0.000000 -0.003199
# 5 -0.001654 0.002262 0.003866 0.000000 0.043572 0.000000
# 6 0.000000 0.000000 0.000000 -0.003199 0.000000 0.033950
#
#
# Mechanical properties :
#
#
# Convention : Reuss Voigt Hill
#
# Bulk Modulus (GPa) = 40.92547 43.64146 42.28346
# Shear Modulus (GPa) = 29.62471 32.06707 30.84589
#
# Velocity S-wave (km/s) = 3.67612 3.82466 3.75113
# Velocity P-wave (km/s) = 6.05702 6.27789 6.16844
#
# Compressibility (1/GPa) = 0.02443466
#
# Stress axis : x y z
#
# Youngs Moduli (GPa) = 79.20129 71.75139 64.01356
#
# Poissons Ratio (x) = 0.34044 -0.00186
# Poissons Ratio (y) = 0.37579 0.26626
# Poissons Ratio (z) = -0.00231 0.29845
#
# Static dielectric constant tensor:
#      x y z
#    x 3.937510 0.000000 0.093090 
#    y 0.000000 3.977970 0.000000 
#    z 0.093090 0.000000 3.977340 
# 
# 
# High freq. dielectric constant tensor:
#      x y z
#    x 1.864910 0.000000 0.002840 
#    y 0.000000 1.867420 0.000000 
#    z 0.002840 0.000000 1.864730 
# 
# From -- ./inp_files/51364.got.cif
#   From: 2010.03.12/outbox.cif.g09.slc.cpg/sg14_26_cif.got.tgz:51364.got - 2010.03.31 13:35:05.
