data_PCOD8128382
_publ_section_title
;
Structure prediction by ZEFSAII (Michael W. Deem and Ramdas Pophale) SiO2 
 PCOD8128382
Probable space group: P 21/C
;
_chemical_formula_sum "Si O2"
_cell_formula_units_Z 28
_cell_length_a 13.243976
_cell_length_b 9.082434
_cell_length_c 19.409751
_cell_angle_alpha 90.000000
_cell_angle_beta 31.304832
_cell_angle_gamma 90.000000
_cell_volume 1213.116087
_symmetry_space_group_name_H-M "P 21/C"
_symmetry_group_IT_number 14
_symmetry_cell_setting 'monoclinic'
loop_
_space_group_symop_operation_xyz
x,y,z
-x,1/2+y,1/2-z
-x,-y,-z
x,1/2-y,1/2+z
loop_
_atom_site_type_symbol
_atom_site_label
_atom_site_fract_x
_atom_site_fract_y
_atom_site_fract_z
Si Si1 0.037196 0.776011 0.366656
Si Si2 0.198549 0.920965 0.659347
Si Si3 0.112865 0.413118 0.776982
Si Si4 0.589137 0.734425 0.116685
Si Si5 0.013276 0.190984 0.952023
Si Si6 0.587245 0.783319 0.461780
Si Si7 0.676055 0.992783 0.159428
O O1 0.812376 0.812131 0.486336
O O2 0.080689 0.747842 0.421342
O O3 0.099651 0.632040 0.287721
O O4 0.153617 0.917735 0.271814
O O5 0.400705 0.835256 0.526867
O O6 0.054982 0.889104 0.680790
O O7 0.242344 0.093959 0.640303
O O8 0.046826 0.327693 0.883428
O O9 0.319832 0.359982 0.627037
O O10 0.477171 0.601487 0.217862
O O11 0.560299 0.889012 0.173240
O O12 0.515327 0.750008 0.081474
O O13 0.219474 0.109251 0.843627
O O14 0.849595 0.079035 0.017757
#
# Coordination Sequence:
#
# PCOD8128382 Si02
#       7
#     4   4   4   4   4   4   4
#     4  11  24  46  69 101 148 181 242 299 351 418
#     4  11  24  46  70  99 144 191 238 290 361 430
#     4  12  24  43  73 105 140 192 240 296 352 424
#     4  11  23  45  70 109 138 188 238 299 352 429
#     4  10  25  45  70  99 143 195 234 295 362 422
#     4  11  26  43  75  99 144 189 240 292 366 422
#     4  10  25  44  72  99 140 186 241 286 367 417
#
# _framework density 23.081056
#
# number of rings (size 3 to 8) (size 9 to 14) (size 15 to 20)
#    0.000    1.143    2.857    1.286   12.000    1.714 
#    7.714    0.000    0.000    0.000    0.000    0.000 
#    0.000    0.000    0.000    0.000    0.000    0.000 
#
# Total GULP energy -347334.578516 kJ/mol
# GULP energy per Si atom -12404.806376 kJ/mol
# Density = 2.302852 g / cm^3
# Si number density = 23.081056 Si / 1000 Ang^3
#
#
#
# Elastic Constant Matrix: (Units=GPa)
#
#
# Indices 1 2 3 4 5 6 
#
# 1 77.5221 31.8560 24.0040 0.0000 13.5836 0.0000
# 2 31.8560 99.2861 50.3609 0.0000 19.0986 0.0000
# 3 24.0040 50.3609 100.0788 0.0000 13.9244 0.0000
# 4 0.0000 0.0000 0.0000 50.0025 0.0000 -4.6496
# 5 13.5836 19.0986 13.9244 0.0000 43.9197 0.0000
# 6 0.0000 0.0000 0.0000 -4.6496 0.0000 22.6319
#
#
#
# Elastic Compliance Matrix: (Units=1/GPa)
#
#
# Indices 1 2 3 4 5 6 
#
# 1 0.015326 -0.003660 -0.001461 0.000000 -0.002686 0.000000
# 2 -0.003660 0.015066 -0.006224 0.000000 -0.003446 0.000000
# 3 -0.001461 -0.006224 0.013637 0.000000 -0.001165 0.000000
# 4 0.000000 0.000000 0.000000 0.020389 0.000000 0.004189
# 5 -0.002686 -0.003446 -0.001165 0.000000 0.025467 0.000000
# 6 0.000000 0.000000 0.000000 0.004189 0.000000 0.045046
#
#
# Mechanical properties :
#
#
# Convention : Reuss Voigt Hill
#
# Bulk Modulus (GPa) = 46.86119 54.36989 50.61554
# Shear Modulus (GPa) = 30.35194 34.68854 32.52024
#
# Velocity S-wave (km/s) = 3.63025 3.88093 3.75768
# Velocity P-wave (km/s) = 6.15780 6.60979 6.38780
#
# Compressibility (1/GPa) = 0.02133962
#
# Stress axis : x y z
#
# Youngs Moduli (GPa) = 65.24696 66.37358 73.33185
#
# Poissons Ratio (x) = 0.24293 0.10711
# Poissons Ratio (y) = 0.23881 0.45643
# Poissons Ratio (z) = 0.09530 0.41312
#
# Static dielectric constant tensor:
#      x y z
#    x 4.211800 0.000000 -0.052010 
#    y 0.000000 4.296710 0.000000 
#    z -0.052010 0.000000 4.082760 
# 
# 
# High freq. dielectric constant tensor:
#      x y z
#    x 1.908200 0.000000 -0.006340 
#    y 0.000000 1.918860 0.000000 
#    z -0.006340 0.000000 1.918480 
# 
# From -- ./inp_files/68162.got.cif
#   From: 2010.03.12/outbox.cif.g09.slc.cpg/sg14_35_cif.got.tgz:68162.got - 2010.03.31 13:35:05.
