data_PCOD8128984
_publ_section_title
;
Structure prediction by ZEFSAII (Michael W. Deem and Ramdas Pophale) SiO2 
 PCOD8128984
Probable space group: P 21/C
;
_chemical_formula_sum "Si O2"
_cell_formula_units_Z 32
_cell_length_a 9.358145
_cell_length_b 11.036597
_cell_length_c 14.771132
_cell_angle_alpha 90.000000
_cell_angle_beta 107.802302
_cell_angle_gamma 90.000000
_cell_volume 1452.543354
_symmetry_space_group_name_H-M "P 21/C"
_symmetry_group_IT_number 14
_symmetry_cell_setting 'monoclinic'
loop_
_space_group_symop_operation_xyz
x,y,z
-x,1/2+y,1/2-z
-x,-y,-z
x,1/2-y,1/2+z
loop_
_atom_site_type_symbol
_atom_site_label
_atom_site_fract_x
_atom_site_fract_y
_atom_site_fract_z
Si Si1 0.384748 0.395708 0.578120
Si Si2 0.277536 0.774993 0.598546
Si Si3 0.278368 0.544282 0.715127
Si Si4 0.985221 0.066284 0.403000
Si Si5 0.933657 0.537726 0.705584
Si Si6 0.468014 0.436139 0.899461
Si Si7 0.764110 0.759443 0.588587
Si Si8 0.304057 0.616768 0.436076
O O1 0.329127 0.425728 0.667980
O O2 0.276586 0.291154 0.518438
O O3 0.361435 0.512035 0.511828
O O4 0.560381 0.355213 0.608543
O O5 0.330358 0.666254 0.674223
O O6 0.117289 0.815738 0.604859
O O7 0.380388 0.895899 0.623063
O O8 0.265544 0.732467 0.491178
O O9 0.371533 0.534950 0.825583
O O10 0.100044 0.541127 0.696131
O O11 0.145032 0.116849 0.403628
O O12 0.931937 0.975172 0.313820
O O13 0.000000 0.000000 0.500000
O O14 0.847006 0.661568 0.667127
O O15 0.845879 0.422359 0.646479
O O16 0.387728 0.304563 0.892885
O O17 0.500000 0.500000 0.000000
#
# Coordination Sequence:
#
# PCOD8128984 Si02
#       8
#     4   4   4   4   4   4   4   4
#     4   9  20  39  68  97 129 173 225 274 325 396
#     4  11  25  44  71  99 136 181 222 280 341 394
#     4  11  25  44  69 102 133 177 235 276 334 411
#     4  12  27  44  66 101 138 179 225 275 342 408
#     4  11  25  43  70 100 136 178 230 281 331 410
#     4  12  27  46  68  98 139 178 223 282 341 403
#     4  11  23  46  69  95 140 182 221 279 344 390
#     4   9  20  40  67  98 131 169 225 276 325 394
#
# _framework density 22.030322999999999
#
# number of rings (size 3 to 8) (size 9 to 14) (size 15 to 20)
#    0.000    1.250    3.750    0.750    5.250    5.500 
#    0.000    0.000    0.000    0.000    0.000    0.000 
#    0.000    0.000    0.000    0.000    0.000    0.000 
#
# Total GULP energy -396806.579046 kJ/mol
# GULP energy per Si atom -12400.205595 kJ/mol
# Density = 2.198018 g / cm^3
# Si number density = 22.030323 Si / 1000 Ang^3
#
#
#
# Elastic Constant Matrix: (Units=GPa)
#
#
# Indices 1 2 3 4 5 6 
#
# 1 94.0076 26.7157 46.8319 0.0000 0.6202 0.0000
# 2 26.7157 83.1898 51.0008 0.0000 2.2573 0.0000
# 3 46.8319 51.0008 143.4646 0.0000 1.2755 0.0000
# 4 0.0000 0.0000 0.0000 37.3916 0.0000 -3.8687
# 5 0.6202 2.2573 1.2755 0.0000 31.8340 0.0000
# 6 0.0000 0.0000 0.0000 -3.8687 0.0000 42.7397
#
#
#
# Elastic Compliance Matrix: (Units=1/GPa)
#
#
# Indices 1 2 3 4 5 6 
#
# 1 0.012960 -0.002006 -0.003518 0.000000 0.000031 0.000000
# 2 -0.002006 0.015705 -0.004920 0.000000 -0.000877 0.000000
# 3 -0.003518 -0.004920 0.009868 0.000000 0.000022 0.000000
# 4 0.000000 0.000000 0.000000 0.026997 0.000000 0.002444
# 5 0.000031 -0.000877 0.000022 0.000000 0.031474 0.000000
# 6 0.000000 0.000000 0.000000 0.002444 0.000000 0.023619
#
#
# Mechanical properties :
#
#
# Convention : Reuss Voigt Hill
#
# Bulk Modulus (GPa) = 56.67594 63.30653 59.99124
# Shear Modulus (GPa) = 33.92318 35.46729 34.69524
#
# Velocity S-wave (km/s) = 3.92834 4.01675 3.97279
# Velocity P-wave (km/s) = 6.80867 7.09301 6.95229
#
# Compressibility (1/GPa) = 0.01764417
#
# Stress axis : x y z
#
# Youngs Moduli (GPa) = 77.16198 63.67252 101.34154
#
# Poissons Ratio (x) = 0.12774 0.35648
# Poissons Ratio (y) = 0.15481 0.49865
# Poissons Ratio (z) = 0.27142 0.31330
#
# Static dielectric constant tensor:
#      x y z
#    x 4.339930 0.000000 -0.041370 
#    y 0.000000 3.915770 0.000000 
#    z -0.041370 0.000000 3.976950 
# 
# 
# High freq. dielectric constant tensor:
#      x y z
#    x 1.878630 0.000000 0.002550 
#    y 0.000000 1.860280 0.000000 
#    z 0.002550 0.000000 1.862230 
# 
# From -- ./inp_files/40367.got.cif
#   From: 2010.03.12/outbox.cif.g09.slc.cpg/sg14_21_cif.got.tgz:40367.got - 2010.03.31 13:35:05.
