data_PCOD8128454
_publ_section_title
;
Structure prediction by ZEFSAII (Michael W. Deem and Ramdas Pophale) SiO2 
 PCOD8128454
Probable space group: P 21/C
;
_chemical_formula_sum "Si O2"
_cell_formula_units_Z 28
_cell_length_a 12.136742
_cell_length_b 15.884306
_cell_length_c 8.088668
_cell_angle_alpha 90.000000
_cell_angle_beta 115.840546
_cell_angle_gamma 90.000000
_cell_volume 1403.443635
_symmetry_space_group_name_H-M "P 21/C"
_symmetry_group_IT_number 14
_symmetry_cell_setting 'monoclinic'
loop_
_space_group_symop_operation_xyz
x,y,z
-x,1/2+y,1/2-z
-x,-y,-z
x,1/2-y,1/2+z
loop_
_atom_site_type_symbol
_atom_site_label
_atom_site_fract_x
_atom_site_fract_y
_atom_site_fract_z
Si Si1 0.029647 0.420014 0.628615
Si Si2 0.605222 0.916609 0.916054
Si Si3 0.695024 0.928156 0.617390
Si Si4 0.658137 0.476651 0.765449
Si Si5 0.923079 0.418741 0.897069
Si Si6 0.263999 0.244263 0.478388
Si Si7 0.921881 0.763494 0.393646
O O1 0.159293 0.439154 0.799761
O O2 0.031749 0.331580 0.529467
O O3 0.000000 0.500000 0.500000
O O4 0.926753 0.411473 0.701856
O O5 0.646332 0.957282 0.766258
O O6 0.458693 0.916982 0.838368
O O7 0.669160 0.962842 0.112842
O O8 0.644250 0.820688 0.948769
O O9 0.634044 0.977529 0.425200
O O10 0.664936 0.829319 0.572071
O O11 0.782202 0.423189 0.860559
O O12 0.000000 0.500000 0.000000
O O13 0.976372 0.333771 0.012056
O O14 0.121996 0.263418 0.325809
O O15 0.216518 0.214507 0.627733
#
# Coordination Sequence:
#
# PCOD8128454 Si02
#       7
#     4   4   4   4   4   4   4
#     4  11  23  37  62  93 123 167 211 262 320 380
#     4  11  23  41  65  91 127 164 216 266 301 387
#     4  11  21  41  65  94 121 162 218 257 314 379
#     4  11  25  41  63  94 129 166 211 256 328 374
#     4  12  22  39  63  92 128 164 203 260 328 382
#     4  11  19  37  64  90 115 159 211 261 306 365
#     4  11  22  37  61  94 126 157 214 265 311 385
#
# _framework density 19.950925999999999
#
# number of rings (size 3 to 8) (size 9 to 14) (size 15 to 20)
#    0.000    0.857    7.143    3.000    2.000    0.000 
#    0.000    1.429    3.143    0.000    0.000    0.000 
#    0.000    0.000    0.000    0.000    0.000    0.000 
#
# Total GULP energy -346984.723102 kJ/mol
# GULP energy per Si atom -12392.311539 kJ/mol
# Density = 1.990552 g / cm^3
# Si number density = 19.950926 Si / 1000 Ang^3
#
#
#
# Elastic Constant Matrix: (Units=GPa)
#
#
# Indices 1 2 3 4 5 6 
#
# 1 82.0432 29.9354 19.2739 0.0000 6.1672 0.0000
# 2 29.9354 101.7431 52.1920 0.0000 13.8241 0.0000
# 3 19.2739 52.1920 69.3303 0.0000 -0.7751 0.0000
# 4 0.0000 0.0000 0.0000 33.3203 0.0000 3.0476
# 5 6.1672 13.8241 -0.7751 0.0000 41.2874 0.0000
# 6 0.0000 0.0000 0.0000 3.0476 0.0000 31.5565
#
#
#
# Elastic Compliance Matrix: (Units=1/GPa)
#
#
# Indices 1 2 3 4 5 6 
#
# 1 0.013762 -0.003163 -0.001456 0.000000 -0.001024 0.000000
# 2 -0.003163 0.018141 -0.012843 0.000000 -0.005843 0.000000
# 3 -0.001456 -0.012843 0.024552 0.000000 0.004979 0.000000
# 4 0.000000 0.000000 0.000000 0.030279 0.000000 -0.002924
# 5 -0.001024 -0.005843 0.004979 0.000000 0.026423 0.000000
# 6 0.000000 0.000000 0.000000 -0.002924 0.000000 0.031972
#
#
# Mechanical properties :
#
#
# Convention : Reuss Voigt Hill
#
# Bulk Modulus (GPa) = 46.44355 50.65768 48.55061
# Shear Modulus (GPa) = 26.70508 31.34722 29.02615
#
# Velocity S-wave (km/s) = 3.66257 3.96816 3.81842
# Velocity P-wave (km/s) = 6.41992 6.81478 6.62030
#
# Compressibility (1/GPa) = 0.02153152
#
# Stress axis : x y z
#
# Youngs Moduli (GPa) = 72.66474 55.12301 40.72942
#
# Poissons Ratio (x) = 0.17435 0.05931
# Poissons Ratio (y) = 0.22984 0.52308
# Poissons Ratio (z) = 0.10581 0.70793
#
# Static dielectric constant tensor:
#      x y z
#    x 3.591060 0.000000 -0.320500 
#    y 0.000000 3.566990 0.000000 
#    z -0.320500 0.000000 3.956880 
# 
# 
# High freq. dielectric constant tensor:
#      x y z
#    x 1.770490 0.000000 -0.024810 
#    y 0.000000 1.767070 0.000000 
#    z -0.024810 0.000000 1.792950 
# 
# From -- ./inp_files/12806.got.cif
#   From: 2010.03.12/outbox.cif.g09.slc.cpg/sg14_7_cif.got.tgz:12806.got - 2010.03.31 13:35:05.
