data_PCOD8128683
_publ_section_title
;
Structure prediction by ZEFSAII (Michael W. Deem and Ramdas Pophale) SiO2 
 PCOD8128683
Probable space group: P 21/C
;
_chemical_formula_sum "Si O2"
_cell_formula_units_Z 32
_cell_length_a 17.605454
_cell_length_b 11.777688
_cell_length_c 11.346581
_cell_angle_alpha 90.000000
_cell_angle_beta 143.258779
_cell_angle_gamma 90.000000
_cell_volume 1407.408030
_symmetry_space_group_name_H-M "P 21/C"
_symmetry_group_IT_number 14
_symmetry_cell_setting 'monoclinic'
loop_
_space_group_symop_operation_xyz
x,y,z
-x,1/2+y,1/2-z
-x,-y,-z
x,1/2-y,1/2+z
loop_
_atom_site_type_symbol
_atom_site_label
_atom_site_fract_x
_atom_site_fract_y
_atom_site_fract_z
Si Si1 0.650750 0.087285 0.401587
Si Si2 0.691298 0.942941 0.238055
Si Si3 0.753652 0.333565 0.510493
Si Si4 0.620972 0.946572 0.878496
Si Si5 0.996368 0.784050 0.801149
Si Si6 0.136832 0.047061 0.207805
Si Si7 0.219873 0.195945 0.100894
Si Si8 0.099821 0.590066 0.081753
O O1 0.610732 0.004010 0.242118
O O2 0.771733 0.050009 0.628702
O O3 0.682681 0.214855 0.400212
O O4 0.525103 0.087857 0.327778
O O5 0.703166 0.809297 0.273282
O O6 0.819791 0.017404 0.412130
O O7 0.640434 0.954717 0.042825
O O8 0.651386 0.431652 0.356460
O O9 0.808525 0.352385 0.708743
O O10 0.872588 0.345874 0.569225
O O11 0.714938 0.856112 0.934734
O O12 0.889525 0.868007 0.717809
O O13 0.928898 0.724874 0.605737
O O14 0.020676 0.690145 0.928134
O O15 0.217178 0.108009 0.205042
O O16 0.000000 0.000000 0.000000
O O17 0.000000 0.500000 0.000000
#
# Coordination Sequence:
#
# PCOD8128683 Si02
#       8
#     4   4   4   4   4   4   4   4
#     4  12  26  49  72 106 144 194 244 307 371 444
#     4  11  24  46  70 105 138 195 245 295 365 436
#     4  11  25  43  70 106 142 187 242 307 366 434
#     4  11  28  48  74 102 146 197 252 296 366 443
#     4  12  21  41  69  99 145 184 233 300 364 439
#     4  12  26  42  69 105 145 186 236 302 375 430
#     4  12  25  44  72 106 145 190 238 300 366 442
#     4  11  22  39  67 104 142 187 238 294 369 437
#
# _framework density 22.736833000000001
#
# number of rings (size 3 to 8) (size 9 to 14) (size 15 to 20)
#    0.000    0.500    2.500    7.125    1.750    0.500 
#    0.000    0.000    0.000    0.000    0.000    0.000 
#    0.000    0.000    0.000    0.000    0.000    0.000 
#
# Total GULP energy -396735.977437 kJ/mol
# GULP energy per Si atom -12397.999295 kJ/mol
# Density = 2.268508 g / cm^3
# Si number density = 22.736833 Si / 1000 Ang^3
#
#
#
# Elastic Constant Matrix: (Units=GPa)
#
#
# Indices 1 2 3 4 5 6 
#
# 1 106.3787 31.6589 32.8842 0.0000 15.9218 0.0000
# 2 31.6589 120.3499 32.5139 0.0000 6.0651 0.0000
# 3 32.8842 32.5139 67.7581 0.0000 12.6615 0.0000
# 4 0.0000 0.0000 0.0000 27.0791 0.0000 -3.8058
# 5 15.9218 6.0651 12.6615 0.0000 40.5650 0.0000
# 6 0.0000 0.0000 0.0000 -3.8058 0.0000 40.4634
#
#
#
# Elastic Compliance Matrix: (Units=1/GPa)
#
#
# Indices 1 2 3 4 5 6 
#
# 1 0.011695 -0.001773 -0.004265 0.000000 -0.002994 0.000000
# 2 -0.001773 0.009816 -0.003935 0.000000 0.000457 0.000000
# 3 -0.004265 -0.003935 0.019427 0.000000 -0.003801 0.000000
# 4 0.000000 0.000000 0.000000 0.037424 0.000000 0.003520
# 5 -0.002994 0.000457 -0.003801 0.000000 0.026945 0.000000
# 6 0.000000 0.000000 0.000000 0.003520 0.000000 0.025045
#
#
# Mechanical properties :
#
#
# Convention : Reuss Voigt Hill
#
# Bulk Modulus (GPa) = 47.64064 54.28897 50.96481
# Shear Modulus (GPa) = 31.78760 34.78346 33.28553
#
# Velocity S-wave (km/s) = 3.74313 3.91555 3.83031
# Velocity P-wave (km/s) = 6.29920 6.66115 6.48270
#
# Compressibility (1/GPa) = 0.02099048
#
# Stress axis : x y z
#
# Youngs Moduli (GPa) = 85.50892 101.87895 51.47505
#
# Poissons Ratio (x) = 0.18065 0.21956
# Poissons Ratio (y) = 0.15162 0.20254
# Poissons Ratio (z) = 0.36473 0.40087
#
# Static dielectric constant tensor:
#      x y z
#    x 4.618890 0.000000 -0.083970 
#    y 0.000000 4.255890 0.000000 
#    z -0.083970 0.000000 3.911800 
# 
# 
# High freq. dielectric constant tensor:
#      x y z
#    x 1.907090 0.000000 0.003750 
#    y 0.000000 1.911570 0.000000 
#    z 0.003750 0.000000 1.885130 
# 
# From -- ./inp_files/33957.got.cif
#   From: 2010.03.12/outbox.cif.g09.slc.cpg/sg14_17_cif.got.tgz:33957.got - 2010.03.31 13:35:05.
