data_PCOD8128635
_publ_section_title
;
Structure prediction by ZEFSAII (Michael W. Deem and Ramdas Pophale) SiO2 
 PCOD8128635
Probable space group: P 21/C
;
_chemical_formula_sum "Si O2"
_cell_formula_units_Z 24
_cell_length_a 7.541828
_cell_length_b 9.517811
_cell_length_c 19.419105
_cell_angle_alpha 90.000000
_cell_angle_beta 122.290769
_cell_angle_gamma 90.000000
_cell_volume 1178.361093
_symmetry_space_group_name_H-M "P 21/C"
_symmetry_group_IT_number 14
_symmetry_cell_setting 'monoclinic'
loop_
_space_group_symop_operation_xyz
x,y,z
-x,1/2+y,1/2-z
-x,-y,-z
x,1/2-y,1/2+z
loop_
_atom_site_type_symbol
_atom_site_label
_atom_site_fract_x
_atom_site_fract_y
_atom_site_fract_z
Si Si1 0.399915 0.450861 0.187005
Si Si2 0.218836 0.726128 0.096886
Si Si3 0.867683 0.092492 0.162196
Si Si4 0.154178 0.670340 0.734016
Si Si5 0.905517 0.716011 0.416486
Si Si6 0.453947 0.498924 0.632690
O O1 0.337679 0.577550 0.123562
O O2 0.607300 0.375860 0.201355
O O3 0.216676 0.335379 0.151281
O O4 0.436221 0.516442 0.269891
O O5 0.127608 0.769030 0.152000
O O6 0.386053 0.841091 0.105202
O O7 0.024783 0.712987 0.004782
O O8 0.916745 0.215247 0.225994
O O9 0.622631 0.049072 0.110879
O O10 0.926091 0.141897 0.097951
O O11 0.006498 0.962081 0.214227
O O12 0.749769 0.598626 0.413898
#
# Coordination Sequence:
#
# PCOD8128635 Si02
#       6
#     4   4   4   4   4   4
#     4  11  21  45  67  92 131 179 214 258 322 396
#     4  11  24  43  66  99 133 174 206 276 332 374
#     4  12  24  42  69 100 124 174 224 267 315 390
#     4  11  25  42  71  96 129 175 224 262 319 392
#     4  12  24  43  67  98 136 165 217 272 330 375
#     4  11  22  43  68  91 132 170 224 258 318 392
#
# _framework density 20.367272
#
# number of rings (size 3 to 8) (size 9 to 14) (size 15 to 20)
#    0.000    0.667    6.667    3.000    2.333    0.667 
#    0.000    0.833    0.000    0.000    0.000    0.000 
#    0.000    0.000    0.000    0.000    0.000    0.000 
#
# Total GULP energy -297763.152253 kJ/mol
# GULP energy per Si atom -12406.798011 kJ/mol
# Density = 2.032092 g / cm^3
# Si number density = 20.367272 Si / 1000 Ang^3
#
#
#
# Elastic Constant Matrix: (Units=GPa)
#
#
# Indices 1 2 3 4 5 6 
#
# 1 127.3079 31.9983 30.7983 0.0000 3.2050 0.0000
# 2 31.9983 81.7680 11.5601 0.0000 -5.7018 0.0000
# 3 30.7983 11.5601 70.1147 0.0000 14.0880 0.0000
# 4 0.0000 0.0000 0.0000 26.5072 0.0000 5.7523
# 5 3.2050 -5.7018 14.0880 0.0000 10.6367 0.0000
# 6 0.0000 0.0000 0.0000 5.7523 0.0000 40.6012
#
#
#
# Elastic Compliance Matrix: (Units=1/GPa)
#
#
# Indices 1 2 3 4 5 6 
#
# 1 0.009552 -0.003182 -0.003747 0.000000 0.000380 0.000000
# 2 -0.003182 0.015024 -0.003938 0.000000 0.014228 0.000000
# 3 -0.003747 -0.003938 0.022831 0.000000 -0.031221 0.000000
# 4 0.000000 0.000000 0.000000 0.038922 0.000000 -0.005514
# 5 0.000380 0.014228 -0.031221 0.000000 0.142878 0.000000
# 6 0.000000 0.000000 0.000000 -0.005514 0.000000 0.025411
#
#
# Mechanical properties :
#
#
# Convention : Reuss Voigt Hill
#
# Bulk Modulus (GPa) = 38.95352 47.54490 43.24921
# Shear Modulus (GPa) = 17.54946 29.20461 23.37704
#
# Velocity S-wave (km/s) = 2.93857 3.79079 3.39156
# Velocity P-wave (km/s) = 5.53901 6.52339 6.05125
#
# Compressibility (1/GPa) = 0.02567162
#
# Stress axis : x y z
#
# Youngs Moduli (GPa) = 104.69395 66.56137 43.80035
#
# Poissons Ratio (x) = 0.21177 0.16414
# Poissons Ratio (y) = 0.33309 0.17250
# Poissons Ratio (z) = 0.39233 0.26214
#
# Static dielectric constant tensor:
#      x y z
#    x 3.699760 0.000000 0.122100 
#    y 0.000000 3.886350 0.000000 
#    z 0.122100 0.000000 3.542380 
# 
# 
# High freq. dielectric constant tensor:
#      x y z
#    x 1.791880 0.000000 0.012140 
#    y 0.000000 1.816330 0.000000 
#    z 0.012140 0.000000 1.785810 
# 
# From -- ./inp_files/64878.got.cif
#   From: 2010.03.12/outbox.cif.g09.slc.cpg/sg14_33_cif.got.tgz:64878.got - 2010.03.31 13:35:05.
