data_PCOD8128293
_publ_section_title
;
Structure prediction by ZEFSAII (Michael W. Deem and Ramdas Pophale) SiO2 
 PCOD8128293
Probable space group: P 21/C
;
_chemical_formula_sum "Si O2"
_cell_formula_units_Z 24
_cell_length_a 10.740323
_cell_length_b 13.821568
_cell_length_c 18.809255
_cell_angle_alpha 90.000000
_cell_angle_beta 155.865015
_cell_angle_gamma 90.000000
_cell_volume 1141.695701
_symmetry_space_group_name_H-M "P 21/C"
_symmetry_group_IT_number 14
_symmetry_cell_setting 'monoclinic'
loop_
_space_group_symop_operation_xyz
x,y,z
-x,1/2+y,1/2-z
-x,-y,-z
x,1/2-y,1/2+z
loop_
_atom_site_type_symbol
_atom_site_label
_atom_site_fract_x
_atom_site_fract_y
_atom_site_fract_z
Si Si1 0.715817 0.463559 0.397141
Si Si2 0.314156 0.836531 0.520935
Si Si3 0.001348 0.642572 0.326770
Si Si4 0.669872 0.151323 0.304847
Si Si5 0.345559 0.335522 0.102828
Si Si6 0.253548 0.033335 0.427515
O O1 0.462993 0.545223 0.273808
O O2 0.558523 0.374168 0.276451
O O3 0.000000 0.500000 0.500000
O O4 0.815929 0.428439 0.526440
O O5 0.665100 0.842214 0.682277
O O6 0.286778 0.820951 0.590543
O O7 0.159601 0.746572 0.400549
O O8 0.137447 0.936132 0.407236
O O9 0.005851 0.591285 0.251405
O O10 0.437447 0.223426 0.143497
O O11 0.991341 0.154697 0.433939
O O12 0.414416 0.394110 0.066798
O O13 0.500000 0.000000 0.500000
#
# Coordination Sequence:
#
# PCOD8128293 Si02
#       6
#     4   4   4   4   4   4
#     4  12  22  41  66  97 129 173 221 267 326 389
#     4  11  22  42  66  93 133 171 214 277 333 376
#     4  11  24  40  68  94 128 176 218 264 330 400
#     4  12  24  40  70 102 133 171 224 280 326 387
#     4  12  25  41  68  98 133 174 223 272 330 391
#     4  10  24  45  64  92 135 177 212 270 334 392
#
# _framework density 21.021363999999998
#
# number of rings (size 3 to 8) (size 9 to 14) (size 15 to 20)
#    0.000    0.667    5.000    3.500    0.000    4.000 
#    0.000    1.667    0.000    0.000    0.000    0.000 
#    0.000    0.000    0.000    0.000    0.000    0.000 
#
# Total GULP energy -297679.061805 kJ/mol
# GULP energy per Si atom -12403.294242 kJ/mol
# Density = 2.097352 g / cm^3
# Si number density = 21.021364 Si / 1000 Ang^3
#
#
#
# Elastic Constant Matrix: (Units=GPa)
#
#
# Indices 1 2 3 4 5 6 
#
# 1 75.9068 31.6363 32.1755 0.0000 -9.6602 0.0000
# 2 31.6363 96.7583 28.8167 0.0000 -29.0490 0.0000
# 3 32.1755 28.8167 92.7400 0.0000 -13.0846 0.0000
# 4 0.0000 0.0000 0.0000 60.5511 0.0000 -13.6059
# 5 -9.6602 -29.0490 -13.0846 0.0000 46.4963 0.0000
# 6 0.0000 0.0000 0.0000 -13.6059 0.0000 25.4905
#
#
#
# Elastic Compliance Matrix: (Units=1/GPa)
#
#
# Indices 1 2 3 4 5 6 
#
# 1 0.016840 -0.004282 -0.004577 0.000000 -0.000465 0.000000
# 2 -0.004282 0.014634 -0.001976 0.000000 0.007697 0.000000
# 3 -0.004577 -0.001976 0.013201 0.000000 0.001530 0.000000
# 4 0.000000 0.000000 0.000000 0.018766 0.000000 0.010016
# 5 -0.000465 0.007697 0.001530 0.000000 0.026650 0.000000
# 6 0.000000 0.000000 0.000000 0.010016 0.000000 0.044577
#
#
# Mechanical properties :
#
#
# Convention : Reuss Voigt Hill
#
# Bulk Modulus (GPa) = 43.47006 50.07356 46.77181
# Shear Modulus (GPa) = 30.48667 38.02603 34.25635
#
# Velocity S-wave (km/s) = 3.81237 4.25776 4.04121
# Velocity P-wave (km/s) = 6.33268 6.93133 6.63876
#
# Compressibility (1/GPa) = 0.02300434
#
# Stress axis : x y z
#
# Youngs Moduli (GPa) = 59.38258 68.33179 75.75405
#
# Poissons Ratio (x) = 0.29262 0.34676
# Poissons Ratio (y) = 0.25429 0.14966
# Poissons Ratio (z) = 0.27182 0.13500
#
# Static dielectric constant tensor:
#      x y z
#    x 3.860710 0.000000 -0.296580 
#    y 0.000000 3.989090 0.000000 
#    z -0.296580 0.000000 3.928410 
# 
# 
# High freq. dielectric constant tensor:
#      x y z
#    x 1.814630 0.000000 -0.009660 
#    y 0.000000 1.847760 0.000000 
#    z -0.009660 0.000000 1.822170 
# 
# From -- ./inp_files/16144.got.cif
#   From: 2010.03.12/outbox.cif.g09.slc.cpg/sg14_9_cif.got.tgz:16144.got - 2010.03.31 13:35:05.
