data_PCOD8128319
_publ_section_title
;
Structure prediction by ZEFSAII (Michael W. Deem and Ramdas Pophale) SiO2 
 PCOD8128319
Probable space group: P 21/C
;
_chemical_formula_sum "Si O2"
_cell_formula_units_Z 32
_cell_length_a 8.551150
_cell_length_b 23.160994
_cell_length_c 11.682544
_cell_angle_alpha 90.000000
_cell_angle_beta 139.531149
_cell_angle_gamma 90.000000
_cell_volume 1501.713082
_symmetry_space_group_name_H-M "P 21/C"
_symmetry_group_IT_number 14
_symmetry_cell_setting 'monoclinic'
loop_
_space_group_symop_operation_xyz
x,y,z
-x,1/2+y,1/2-z
-x,-y,-z
x,1/2-y,1/2+z
loop_
_atom_site_type_symbol
_atom_site_label
_atom_site_fract_x
_atom_site_fract_y
_atom_site_fract_z
Si Si1 0.838194 0.354637 0.706843
Si Si2 0.709948 0.342248 0.374262
Si Si3 0.645224 0.898233 0.484823
Si Si4 0.224347 0.986519 0.546474
Si Si5 0.504209 0.548170 0.404606
Si Si6 0.411319 0.712423 0.250567
Si Si7 0.875061 0.853710 0.066514
Si Si8 0.261223 0.631968 0.958466
O O1 0.733982 0.349269 0.522141
O O2 0.723372 0.410694 0.701164
O O3 0.763806 0.299039 0.739695
O O4 0.124347 0.357587 0.871382
O O5 0.499026 0.384044 0.211915
O O6 0.617413 0.278600 0.294581
O O7 0.964491 0.359472 0.458622
O O8 0.726372 0.964953 0.522346
O O9 0.487676 0.885555 0.507827
O O10 0.463392 0.981069 0.758273
O O11 0.154380 0.927094 0.446976
O O12 0.000000 0.000000 0.500000
O O13 0.500000 0.500000 0.500000
O O14 0.749082 0.585387 0.530093
O O15 0.683434 0.697357 0.440903
O O16 0.343741 0.674123 0.103989
O O17 0.052638 0.836388 0.269430
#
# Coordination Sequence:
#
# PCOD8128319 Si02
#       8
#     4   4   4   4   4   4   4   4
#     4  11  24  44  67  99 133 174 229 282 334 418
#     4  11  27  44  68  99 138 181 231 285 353 402
#     4  11  25  43  68 102 139 174 230 277 350 413
#     4  12  21  42  68 100 139 178 227 280 339 421
#     4  11  22  42  70  99 139 180 227 274 349 408
#     4  11  25  46  69  98 133 182 233 282 344 412
#     4  10  24  46  66  99 140 173 229 285 339 409
#     4  11  23  44  69 101 136 180 222 287 347 407
#
# _framework density 21.308999
#
# number of rings (size 3 to 8) (size 9 to 14) (size 15 to 20)
#    0.000    1.000    3.750    2.625    5.250    3.000 
#    0.000    1.875    0.000    0.000    0.000    0.000 
#    0.000    0.000    0.000    0.000    0.000    0.000 
#
# Total GULP energy -396852.940061 kJ/mol
# GULP energy per Si atom -12401.654377 kJ/mol
# Density = 2.126050 g / cm^3
# Si number density = 21.308999 Si / 1000 Ang^3
#
#
#
# Elastic Constant Matrix: (Units=GPa)
#
#
# Indices 1 2 3 4 5 6 
#
# 1 89.9981 22.7317 41.2862 0.0000 -3.9432 0.0000
# 2 22.7317 82.2535 10.8191 0.0000 6.0186 0.0000
# 3 41.2862 10.8191 97.6942 0.0000 -0.4624 0.0000
# 4 0.0000 0.0000 0.0000 25.0575 0.0000 -3.6263
# 5 -3.9432 6.0186 -0.4624 0.0000 42.3085 0.0000
# 6 0.0000 0.0000 0.0000 -3.6263 0.0000 27.3974
#
#
#
# Elastic Compliance Matrix: (Units=1/GPa)
#
#
# Indices 1 2 3 4 5 6 
#
# 1 0.014737 -0.003436 -0.005839 0.000000 0.001798 0.000000
# 2 -0.003436 0.013272 -0.000028 0.000000 -0.002209 0.000000
# 3 -0.005839 -0.000028 0.012705 0.000000 -0.000401 0.000000
# 4 0.000000 0.000000 0.000000 0.040688 0.000000 0.005385
# 5 0.001798 -0.002209 -0.000401 0.000000 0.024113 0.000000
# 6 0.000000 0.000000 0.000000 0.005385 0.000000 0.037213
#
#
# Mechanical properties :
#
#
# Convention : Reuss Voigt Hill
#
# Bulk Modulus (GPa) = 45.23329 46.62443 45.92886
# Shear Modulus (GPa) = 29.63795 31.95992 30.79893
#
# Velocity S-wave (km/s) = 3.73348 3.87697 3.80590
# Velocity P-wave (km/s) = 6.31336 6.47834 6.39638
#
# Compressibility (1/GPa) = 0.02210761
#
# Stress axis : x y z
#
# Youngs Moduli (GPa) = 67.85854 75.34378 78.71094
#
# Poissons Ratio (x) = 0.25890 0.45957
# Poissons Ratio (y) = 0.23318 0.00221
# Poissons Ratio (z) = 0.39621 0.00212
#
# Static dielectric constant tensor:
#      x y z
#    x 4.017860 0.000000 -0.076410 
#    y 0.000000 3.964290 0.000000 
#    z -0.076410 0.000000 4.067700 
# 
# 
# High freq. dielectric constant tensor:
#      x y z
#    x 1.843570 0.000000 -0.002380 
#    y 0.000000 1.834530 0.000000 
#    z -0.002380 0.000000 1.850250 
# 
# From -- ./inp_files/27035.got.cif
#   From: 2010.03.12/outbox.cif.g09.slc.cpg/sg14_14_cif.got.tgz:27035.got - 2010.03.31 13:35:05.
