data_PCOD8128046
_publ_section_title
;
Structure prediction by ZEFSAII (Michael W. Deem and Ramdas Pophale) SiO2 
 PCOD8128046
Probable space group: P 21/C
;
_chemical_formula_sum "Si O2"
_cell_formula_units_Z 24
_cell_length_a 10.137075
_cell_length_b 11.538197
_cell_length_c 8.794941
_cell_angle_alpha 90.000000
_cell_angle_beta 77.874434
_cell_angle_gamma 90.000000
_cell_volume 1005.737255
_symmetry_space_group_name_H-M "P 21/C"
_symmetry_group_IT_number 14
_symmetry_cell_setting 'monoclinic'
loop_
_space_group_symop_operation_xyz
x,y,z
-x,1/2+y,1/2-z
-x,-y,-z
x,1/2-y,1/2+z
loop_
_atom_site_type_symbol
_atom_site_label
_atom_site_fract_x
_atom_site_fract_y
_atom_site_fract_z
Si Si1 0.509018 0.692292 0.651899
Si Si2 0.197216 0.904270 0.492046
Si Si3 0.786519 0.762545 0.427910
Si Si4 0.335171 0.830022 0.911204
Si Si5 0.908340 0.898126 0.667276
Si Si6 0.680636 0.968472 0.284288
O O1 0.639836 0.734196 0.529464
O O2 0.455845 0.799826 0.764170
O O3 0.394115 0.648673 0.564240
O O4 0.538034 0.584643 0.759883
O O5 0.226935 0.773679 0.435145
O O6 0.069641 0.912564 0.637640
O O7 0.165786 0.979489 0.348968
O O8 0.324637 0.957502 0.556588
O O9 0.882897 0.809832 0.535011
O O10 0.852655 0.647848 0.340623
O O11 0.776377 0.857442 0.293741
O O12 0.265855 0.947892 0.865254
#
# Coordination Sequence:
#
# PCOD8128046 Si02
#       6
#     4   4   4   4   4   4
#     4  12  24  43  67 100 135 177 221 272 340 396
#     4  10  25  46  68  99 137 180 221 282 343 383
#     4  11  22  44  69 101 131 181 224 276 335 401
#     4  12  25  43  68 101 137 178 219 280 335 406
#     4  10  23  45  72  94 138 178 228 276 332 402
#     4  11  24  44  68 101 133 176 224 273 340 397
#
# _framework density 23.863092000000002
#
# number of rings (size 3 to 8) (size 9 to 14) (size 15 to 20)
#    0.000    1.000    5.000    0.500    2.333    6.667 
#    0.000    1.667    0.000    0.000    0.000    0.000 
#    0.000    0.000    0.000    0.000    0.000    0.000 
#
# Total GULP energy -297499.966849 kJ/mol
# GULP energy per Si atom -12395.831952 kJ/mol
# Density = 2.380878 g / cm^3
# Si number density = 23.863092 Si / 1000 Ang^3
#
#
#
# Elastic Constant Matrix: (Units=GPa)
#
#
# Indices 1 2 3 4 5 6 
#
# 1 68.6281 33.9756 38.8592 0.0000 4.9217 0.0000
# 2 33.9756 85.1973 20.9290 0.0000 -2.6433 0.0000
# 3 38.8592 20.9290 67.8151 0.0000 -1.1166 0.0000
# 4 0.0000 0.0000 0.0000 50.3764 0.0000 3.5021
# 5 4.9217 -2.6433 -1.1166 0.0000 34.7449 0.0000
# 6 0.0000 0.0000 0.0000 3.5021 0.0000 18.6208
#
#
#
# Elastic Compliance Matrix: (Units=1/GPa)
#
#
# Indices 1 2 3 4 5 6 
#
# 1 0.025567 -0.007272 -0.012481 0.000000 -0.004576 0.000000
# 2 -0.007272 0.014793 -0.000363 0.000000 0.002144 0.000000
# 3 -0.012481 -0.000363 0.022051 0.000000 0.002449 0.000000
# 4 0.000000 0.000000 0.000000 0.020114 0.000000 -0.003783
# 5 -0.004576 0.002144 0.002449 0.000000 0.029671 0.000000
# 6 0.000000 0.000000 0.000000 -0.003783 0.000000 0.054415
#
#
# Mechanical properties :
#
#
# Convention : Reuss Voigt Hill
#
# Bulk Modulus (GPa) = 45.09049 45.46311 45.27680
# Shear Modulus (GPa) = 23.33887 29.27352 26.30619
#
# Velocity S-wave (km/s) = 3.13074 3.50627 3.32381
# Velocity P-wave (km/s) = 5.65732 5.95692 5.80905
#
# Compressibility (1/GPa) = 0.02217763
#
# Stress axis : x y z
#
# Youngs Moduli (GPa) = 39.11343 67.59936 45.35044
#
# Poissons Ratio (x) = 0.49155 0.56604
# Poissons Ratio (y) = 0.28441 0.01648
# Poissons Ratio (z) = 0.48819 0.02457
#
# Static dielectric constant tensor:
#      x y z
#    x 4.165910 0.000000 0.372510 
#    y 0.000000 4.481490 0.000000 
#    z 0.372510 0.000000 4.176040 
# 
# 
# High freq. dielectric constant tensor:
#      x y z
#    x 1.931800 0.000000 0.028400 
#    y 0.000000 1.954140 0.000000 
#    z 0.028400 0.000000 1.934170 
# 
# From -- ./inp_files/12351.got.cif
#   From: 2010.03.12/outbox.cif.g09.slc.cpg/sg14_7_cif.got.tgz:12351.got - 2010.03.31 13:35:05.
