data_PCOD8128798
_publ_section_title
;
Structure prediction by ZEFSAII (Michael W. Deem and Ramdas Pophale) SiO2 
 PCOD8128798
Probable space group: P 21/C
;
_chemical_formula_sum "Si O2"
_cell_formula_units_Z 32
_cell_length_a 11.755552
_cell_length_b 16.201840
_cell_length_c 14.506422
_cell_angle_alpha 90.000000
_cell_angle_beta 30.230638
_cell_angle_gamma 90.000000
_cell_volume 1391.078535
_symmetry_space_group_name_H-M "P 21/C"
_symmetry_group_IT_number 14
_symmetry_cell_setting 'monoclinic'
loop_
_space_group_symop_operation_xyz
x,y,z
-x,1/2+y,1/2-z
-x,-y,-z
x,1/2-y,1/2+z
loop_
_atom_site_type_symbol
_atom_site_label
_atom_site_fract_x
_atom_site_fract_y
_atom_site_fract_z
Si Si1 0.389083 0.273052 0.005217
Si Si2 0.259385 0.644151 0.796785
Si Si3 0.466812 0.914286 0.472120
Si Si4 0.811236 0.856249 0.725634
Si Si5 0.978202 0.949529 0.777609
Si Si6 0.039912 0.111991 0.655524
Si Si7 0.785389 0.963932 0.098848
Si Si8 0.383554 0.467399 0.783760
O O1 0.532265 0.346431 0.949093
O O2 0.279989 0.228191 0.169188
O O3 0.190617 0.310273 0.080168
O O4 0.549306 0.215135 0.830129
O O5 0.367825 0.556760 0.747201
O O6 0.178069 0.644641 0.746888
O O7 0.048501 0.663988 0.010462
O O8 0.226177 0.911545 0.590697
O O9 0.655007 0.902561 0.260273
O O10 0.500000 0.000000 0.500000
O O11 0.625096 0.894966 0.786584
O O12 0.829126 0.920724 0.796673
O O13 0.972909 0.050814 0.786947
O O14 0.872677 0.915433 0.947149
O O15 0.168881 0.046967 0.498954
O O16 0.611374 0.035847 0.185886
O O17 0.000000 0.000000 0.000000
#
# Coordination Sequence:
#
# PCOD8128798 Si02
#       8
#     4   4   4   4   4   4   4   4
#     4  12  28  44  69 113 152 184 247 313 369 435
#     4  11  24  49  76 104 147 189 244 304 373 433
#     4  12  24  49  66  99 148 193 238 299 369 443
#     4  11  25  48  73 111 142 192 248 311 365 434
#     4  12  23  44  80  97 142 193 254 292 368 449
#     4  11  22  48  74 104 144 201 241 303 372 437
#     4  12  24  39  72 113 133 188 253 294 353 443
#     4  11  22  49  80 101 145 197 249 297 366 454
#
# _framework density 23.003734000000001
#
# number of rings (size 3 to 8) (size 9 to 14) (size 15 to 20)
#    0.000    0.500    6.250    1.500    3.500    2.000 
#   15.750    0.000    0.000    0.000    0.000    0.000 
#    0.000    0.000    0.000    0.000    0.000    0.000 
#
# Total GULP energy -396776.124891 kJ/mol
# GULP energy per Si atom -12399.253903 kJ/mol
# Density = 2.295138 g / cm^3
# Si number density = 23.003734 Si / 1000 Ang^3
#
#
#
# Elastic Constant Matrix: (Units=GPa)
#
#
# Indices 1 2 3 4 5 6 
#
# 1 123.2801 30.8480 12.0654 0.0000 -7.5066 0.0000
# 2 30.8480 117.7405 19.1184 0.0000 3.8931 0.0000
# 3 12.0654 19.1184 87.2334 0.0000 18.3003 0.0000
# 4 0.0000 0.0000 0.0000 34.3113 0.0000 2.4909
# 5 -7.5066 3.8931 18.3003 0.0000 40.0295 0.0000
# 6 0.0000 0.0000 0.0000 2.4909 0.0000 37.4624
#
#
#
# Elastic Compliance Matrix: (Units=1/GPa)
#
#
# Indices 1 2 3 4 5 6 
#
# 1 0.008941 -0.002218 -0.001269 0.000000 0.002473 0.000000
# 2 -0.002218 0.009357 -0.001621 0.000000 -0.000585 0.000000
# 3 -0.001269 -0.001621 0.013285 0.000000 -0.006154 0.000000
# 4 0.000000 0.000000 0.000000 0.029286 0.000000 -0.001947
# 5 0.002473 -0.000585 -0.006154 0.000000 0.028316 0.000000
# 6 0.000000 0.000000 0.000000 -0.001947 0.000000 0.026823
#
#
# Mechanical properties :
#
#
# Convention : Reuss Voigt Hill
#
# Bulk Modulus (GPa) = 46.80277 50.25752 48.53015
# Shear Modulus (GPa) = 37.49574 40.10878 38.80226
#
# Velocity S-wave (km/s) = 4.04169 4.18015 4.11150
# Velocity P-wave (km/s) = 6.49386 6.72258 6.60921
#
# Compressibility (1/GPa) = 0.02136626
#
# Stress axis : x y z
#
# Youngs Moduli (GPa) = 111.83813 106.87130 75.27060
#
# Poissons Ratio (x) = 0.23708 0.09554
# Poissons Ratio (y) = 0.24809 0.12203
# Poissons Ratio (z) = 0.14196 0.17326
#
# Static dielectric constant tensor:
#      x y z
#    x 4.446190 0.000000 0.057100 
#    y 0.000000 3.908310 0.000000 
#    z 0.057100 0.000000 4.549680 
# 
# 
# High freq. dielectric constant tensor:
#      x y z
#    x 1.927040 0.000000 0.000420 
#    y 0.000000 1.879170 0.000000 
#    z 0.000420 0.000000 1.916300 
# 
# From -- ./inp_files/45378.got.cif
#   From: 2010.03.12/outbox.cif.g09.slc.cpg/sg14_23_cif.got.tgz:45378.got - 2010.03.31 13:35:05.
