data_PCOD8128252
_publ_section_title
;
Structure prediction by ZEFSAII (Michael W. Deem and Ramdas Pophale) SiO2 
 PCOD8128252
Probable space group: P 21/C
;
_chemical_formula_sum "Si O2"
_cell_formula_units_Z 32
_cell_length_a 8.355739
_cell_length_b 11.501974
_cell_length_c 28.069713
_cell_angle_alpha 90.000000
_cell_angle_beta 35.507138
_cell_angle_gamma 90.000000
_cell_volume 1566.841618
_symmetry_space_group_name_H-M "P 21/C"
_symmetry_group_IT_number 14
_symmetry_cell_setting 'monoclinic'
loop_
_space_group_symop_operation_xyz
x,y,z
-x,1/2+y,1/2-z
-x,-y,-z
x,1/2-y,1/2+z
loop_
_atom_site_type_symbol
_atom_site_label
_atom_site_fract_x
_atom_site_fract_y
_atom_site_fract_z
Si Si1 0.824433 0.503038 0.089072
Si Si2 0.285841 0.527909 0.673470
Si Si3 0.818266 0.386404 0.546473
Si Si4 0.285881 0.908823 0.683757
Si Si5 0.014134 0.735610 0.907247
Si Si6 0.624281 0.256883 0.418934
Si Si7 0.641637 0.200445 0.765373
Si Si8 0.041868 0.247643 0.403503
O O1 0.512683 0.497919 0.144979
O O2 0.884546 0.392635 0.105999
O O3 0.898582 0.611802 0.104336
O O4 0.000000 0.500000 0.000000
O O5 0.504291 0.424003 0.614923
O O6 0.345374 0.628942 0.620994
O O7 0.280643 0.577264 0.728957
O O8 0.999134 0.465881 0.732699
O O9 0.849439 0.328056 0.590441
O O10 0.000000 0.500000 0.500000
O O11 0.917588 0.295948 0.482779
O O12 0.302860 0.865800 0.624635
O O13 0.363324 0.790861 0.690978
O O14 0.134742 0.751999 0.825279
O O15 0.686272 0.749286 0.986297
O O16 0.827695 0.272032 0.413765
O O17 0.330935 0.189499 0.819676
#
# Coordination Sequence:
#
# PCOD8128252 Si02
#       8
#     4   4   4   4   4   4   4   4
#     4  11  22  45  68  91 130 176 218 270 327 395
#     4  11  25  44  68  96 137 176 220 276 328 397
#     4  12  23  45  71  92 132 180 212 265 336 398
#     4  10  24  44  65  93 136 174 217 273 329 389
#     4  12  25  42  70  98 130 176 224 271 334 394
#     4  11  25  44  63 100 136 166 225 281 325 394
#     4  10  25  44  63  99 136 167 221 274 333 394
#     4  11  25  44  67  98 134 174 220 274 332 394
#
# _framework density 20.423249999999999
#
# number of rings (size 3 to 8) (size 9 to 14) (size 15 to 20)
#    0.000    1.000    5.000    0.750    7.000    5.000 
#    0.000    0.000    0.000    0.000    0.000    0.000 
#    0.000    0.000    0.000    0.000    0.000    0.000 
#
# Total GULP energy -396765.983665 kJ/mol
# GULP energy per Si atom -12398.936990 kJ/mol
# Density = 2.037677 g / cm^3
# Si number density = 20.423250 Si / 1000 Ang^3
#
#
#
# Elastic Constant Matrix: (Units=GPa)
#
#
# Indices 1 2 3 4 5 6 
#
# 1 90.4380 18.1916 33.8069 0.0000 -23.2129 0.0000
# 2 18.1916 71.7410 12.6671 0.0000 -16.7349 0.0000
# 3 33.8069 12.6671 131.8102 0.0000 -27.3582 0.0000
# 4 0.0000 0.0000 0.0000 27.3777 0.0000 -1.9819
# 5 -23.2129 -16.7349 -27.3582 0.0000 47.6390 0.0000
# 6 0.0000 0.0000 0.0000 -1.9819 0.0000 18.0487
#
#
#
# Elastic Compliance Matrix: (Units=1/GPa)
#
#
# Indices 1 2 3 4 5 6 
#
# 1 0.013487 -0.001947 -0.002327 0.000000 0.004551 0.000000
# 2 -0.001947 0.015483 -0.000064 0.000000 0.004453 0.000000
# 3 -0.002327 -0.000064 0.009026 0.000000 0.004027 0.000000
# 4 0.000000 0.000000 0.000000 0.036819 0.000000 0.004043
# 5 0.004551 0.004453 0.004027 0.000000 0.027086 0.000000
# 6 0.000000 0.000000 0.000000 0.004043 0.000000 0.055850
#
#
# Mechanical properties :
#
#
# Convention : Reuss Voigt Hill
#
# Bulk Modulus (GPa) = 34.10915 47.03561 40.57238
# Shear Modulus (GPa) = 28.37683 33.90133 31.13908
#
# Velocity S-wave (km/s) = 3.73156 4.07865 3.90896
# Velocity P-wave (km/s) = 5.94167 6.72763 6.34683
#
# Compressibility (1/GPa) = 0.02931765
#
# Stress axis : x y z
#
# Youngs Moduli (GPa) = 74.14435 64.58720 110.79687
#
# Poissons Ratio (x) = 0.12578 0.25787
# Poissons Ratio (y) = 0.14439 0.00711
# Poissons Ratio (z) = 0.17257 0.00414
#
# Static dielectric constant tensor:
#      x y z
#    x 3.668920 0.000000 0.072410 
#    y 0.000000 3.863190 0.000000 
#    z 0.072410 0.000000 5.267500 
# 
# 
# High freq. dielectric constant tensor:
#      x y z
#    x 1.802610 0.000000 -0.006700 
#    y 0.000000 1.802700 0.000000 
#    z -0.006700 0.000000 1.808880 
# 
# From -- ./inp_files/79633.got.cif
#   From: 2010.03.12/outbox.cif.g09.slc.cpg/sg14_40_cif.got.tgz:79633.got - 2010.03.31 13:35:05.
