data_PCOD8128427
_publ_section_title
;
Structure prediction by ZEFSAII (Michael W. Deem and Ramdas Pophale) SiO2 
 PCOD8128427
Probable space group: P 21/C
;
_chemical_formula_sum "Si O2"
_cell_formula_units_Z 28
_cell_length_a 8.389756
_cell_length_b 26.531514
_cell_length_c 8.443561
_cell_angle_alpha 90.000000
_cell_angle_beta 44.455666
_cell_angle_gamma 90.000000
_cell_volume 1316.305154
_symmetry_space_group_name_H-M "P 21/C"
_symmetry_group_IT_number 14
_symmetry_cell_setting 'monoclinic'
loop_
_space_group_symop_operation_xyz
x,y,z
-x,1/2+y,1/2-z
-x,-y,-z
x,1/2-y,1/2+z
loop_
_atom_site_type_symbol
_atom_site_label
_atom_site_fract_x
_atom_site_fract_y
_atom_site_fract_z
Si Si1 0.389666 0.794236 0.864360
Si Si2 0.467690 0.445176 0.457270
Si Si3 0.056293 0.354324 0.301328
Si Si4 0.207205 0.897340 0.501034
Si Si5 0.508854 0.190070 0.565426
Si Si6 0.763805 0.632066 0.164586
Si Si7 0.963048 0.554117 0.448852
O O1 0.383599 0.802039 0.681968
O O2 0.614761 0.817342 0.786897
O O3 0.402197 0.735038 0.887826
O O4 0.163822 0.821361 0.091631
O O5 0.500000 0.500000 0.500000
O O6 0.391076 0.413590 0.664230
O O7 0.291600 0.443080 0.437144
O O8 0.707440 0.425359 0.218230
O O9 0.991764 0.400927 0.459164
O O10 0.234887 0.315533 0.256525
O O11 0.171080 0.377905 0.063582
O O12 0.404161 0.861933 0.424937
O O13 0.987208 0.863258 0.615079
O O14 0.142005 0.939059 0.678523
O O15 0.000000 0.500000 0.500000
#
# Coordination Sequence:
#
# PCOD8128427 Si02
#       7
#     4   4   4   4   4   4   4
#     4  11  26  43  69 100 134 182 223 281 339 414
#     4  11  26  44  69 101 134 180 228 282 345 408
#     4  11  24  47  66 102 137 176 230 281 335 412
#     4  11  24  47  67  99 140 177 227 292 331 413
#     4  11  26  43  69  98 135 177 228 275 349 393
#     4  10  26  43  69  97 134 178 226 276 340 404
#     4  11  26  42  71  99 137 183 226 283 345 408
#
# _framework density 21.271661000000002
#
# number of rings (size 3 to 8) (size 9 to 14) (size 15 to 20)
#    0.000    1.143    2.857    0.857   12.000    2.857 
#    0.000    0.000    0.000    0.000    0.000    0.000 
#    0.000    0.000    0.000    0.000    0.000    0.000 
#
# Total GULP energy -347306.117623 kJ/mol
# GULP energy per Si atom -12403.789915 kJ/mol
# Density = 2.122325 g / cm^3
# Si number density = 21.271661 Si / 1000 Ang^3
#
#
#
# Elastic Constant Matrix: (Units=GPa)
#
#
# Indices 1 2 3 4 5 6 
#
# 1 80.1960 40.4909 37.3068 0.0000 -7.2760 0.0000
# 2 40.4909 122.3757 52.4831 0.0000 1.5865 0.0000
# 3 37.3068 52.4831 137.6729 0.0000 -1.0348 0.0000
# 4 0.0000 0.0000 0.0000 31.3259 0.0000 4.8525
# 5 -7.2760 1.5865 -1.0348 0.0000 32.8742 0.0000
# 6 0.0000 0.0000 0.0000 4.8525 0.0000 40.7104
#
#
#
# Elastic Compliance Matrix: (Units=1/GPa)
#
#
# Indices 1 2 3 4 5 6 
#
# 1 0.016226 -0.004235 -0.002754 0.000000 0.003709 0.000000
# 2 -0.004235 0.010886 -0.003014 0.000000 -0.001558 0.000000
# 3 -0.002754 -0.003014 0.009158 0.000000 -0.000176 0.000000
# 4 0.000000 0.000000 0.000000 0.032523 0.000000 -0.003877
# 5 0.003709 -0.001558 -0.000176 0.000000 0.031310 0.000000
# 6 0.000000 0.000000 0.000000 -0.003877 0.000000 0.025026
#
#
# Mechanical properties :
#
#
# Convention : Reuss Voigt Hill
#
# Bulk Modulus (GPa) = 61.49404 66.75624 64.12514
# Shear Modulus (GPa) = 33.21044 34.97970 34.09507
#
# Velocity S-wave (km/s) = 3.95556 4.05955 4.00789
# Velocity P-wave (km/s) = 7.05929 7.30918 7.18532
#
# Compressibility (1/GPa) = 0.01626174
#
# Stress axis : x y z
#
# Youngs Moduli (GPa) = 61.63040 91.86390 109.19962
#
# Poissons Ratio (x) = 0.38909 0.30078
# Poissons Ratio (y) = 0.26104 0.32910
# Poissons Ratio (z) = 0.16975 0.27686
#
# Static dielectric constant tensor:
#      x y z
#    x 3.940500 0.000000 -0.069070 
#    y 0.000000 3.856790 0.000000 
#    z -0.069070 0.000000 4.076250 
# 
# 
# High freq. dielectric constant tensor:
#      x y z
#    x 1.841370 0.000000 -0.002090 
#    y 0.000000 1.828310 0.000000 
#    z -0.002090 0.000000 1.848220 
# 
# From -- ./inp_files/11154.got.cif
#   From: 2010.03.12/outbox.cif.g09.slc.cpg/sg14_6_cif.got.tgz:11154.got - 2010.03.31 13:35:05.
