data_PCOD8128706
_publ_section_title
;
Structure prediction by ZEFSAII (Michael W. Deem and Ramdas Pophale) SiO2 
 PCOD8128706
Probable space group: P 21/C
;
_chemical_formula_sum "Si O2"
_cell_formula_units_Z 24
_cell_length_a 24.929260
_cell_length_b 9.015792
_cell_length_c 9.616470
_cell_angle_alpha 90.000000
_cell_angle_beta 30.808401
_cell_angle_gamma 90.000000
_cell_volume 1106.985863
_symmetry_space_group_name_H-M "P 21/C"
_symmetry_group_IT_number 14
_symmetry_cell_setting 'monoclinic'
loop_
_space_group_symop_operation_xyz
x,y,z
-x,1/2+y,1/2-z
-x,-y,-z
x,1/2-y,1/2+z
loop_
_atom_site_type_symbol
_atom_site_label
_atom_site_fract_x
_atom_site_fract_y
_atom_site_fract_z
Si Si1 0.131970 0.085182 0.894068
Si Si2 0.888475 0.414461 0.946224
Si Si3 0.198261 0.717364 0.128776
Si Si4 0.208703 0.294252 0.949106
Si Si5 0.565986 0.297732 0.449608
Si Si6 0.443506 0.127592 0.945681
O O1 0.171352 0.146616 0.953563
O O2 0.153964 0.203287 0.722019
O O3 0.196603 0.936804 0.717318
O O4 0.010235 0.045215 0.170116
O O5 0.860900 0.297436 0.886390
O O6 0.860041 0.346442 0.158112
O O7 0.823769 0.564139 0.069927
O O8 0.318353 0.762220 0.839907
O O9 0.333011 0.288727 0.689182
O O10 0.509263 0.171137 0.664186
O O11 0.572631 0.450735 0.521173
O O12 0.503547 0.319852 0.447792
#
# Coordination Sequence:
#
# PCOD8128706 Si02
#       6
#     4   4   4   4   4   4
#     4  11  22  41  67  90 128 166 210 261 315 375
#     4  11  22  41  65  92 127 166 211 259 316 375
#     4  11  23  43  62  94 127 166 209 262 317 370
#     4  11  23  42  61  97 126 166 212 260 316 370
#     4  11  24  44  65  95 127 168 211 260 319 372
#     4  11  24  43  66  94 128 168 211 261 316 376
#
# _framework density 21.680492999999998
#
# number of rings (size 3 to 8) (size 9 to 14) (size 15 to 20)
#    0.000    1.000    3.333    6.000    2.333    2.000 
#    3.000    3.333    0.000    0.000    0.000    0.000 
#    0.000    0.000    0.000    0.000    0.000    0.000 
#
# Total GULP energy -297788.973584 kJ/mol
# GULP energy per Si atom -12407.873899 kJ/mol
# Density = 2.163115 g / cm^3
# Si number density = 21.680493 Si / 1000 Ang^3
#
#
#
# Elastic Constant Matrix: (Units=GPa)
#
#
# Indices 1 2 3 4 5 6 
#
# 1 117.6649 38.3880 55.8909 0.0000 -19.9660 0.0000
# 2 38.3880 41.1423 37.0676 0.0000 3.7668 0.0000
# 3 55.8909 37.0676 156.7963 0.0000 -12.3364 0.0000
# 4 0.0000 0.0000 0.0000 30.8707 0.0000 9.0042
# 5 -19.9660 3.7668 -12.3364 0.0000 40.9814 0.0000
# 6 0.0000 0.0000 0.0000 9.0042 0.0000 31.6723
#
#
#
# Elastic Compliance Matrix: (Units=1/GPa)
#
#
# Indices 1 2 3 4 5 6 
#
# 1 0.014924 -0.013259 -0.001554 0.000000 0.008022 0.000000
# 2 -0.013259 0.043767 -0.006602 0.000000 -0.012470 0.000000
# 3 -0.001554 -0.006602 0.008686 0.000000 0.002464 0.000000
# 4 0.000000 0.000000 0.000000 0.035322 0.000000 -0.010042
# 5 0.008022 -0.012470 0.002464 0.000000 0.030197 0.000000
# 6 0.000000 0.000000 0.000000 -0.010042 0.000000 0.034428
#
#
# Mechanical properties :
#
#
# Convention : Reuss Voigt Hill
#
# Bulk Modulus (GPa) = 40.73740 64.25515 52.49627
# Shear Modulus (GPa) = 22.90050 32.98869 27.94460
#
# Velocity S-wave (km/s) = 3.25356 3.90498 3.59406
# Velocity P-wave (km/s) = 5.73976 7.07343 6.44121
#
# Compressibility (1/GPa) = 0.02454747
#
# Stress axis : x y z
#
# Youngs Moduli (GPa) = 67.00727 22.84846 115.12536
#
# Poissons Ratio (x) = 0.30295 0.17891
# Poissons Ratio (y) = 0.88845 0.76001
# Poissons Ratio (z) = 0.10413 0.15084
#
# Static dielectric constant tensor:
#      x y z
#    x 3.996710 0.000000 0.011220 
#    y 0.000000 3.742350 0.000000 
#    z 0.011220 0.000000 4.003620 
# 
# 
# High freq. dielectric constant tensor:
#      x y z
#    x 1.860780 0.000000 -0.004720 
#    y 0.000000 1.835750 0.000000 
#    z -0.004720 0.000000 1.867170 
# 
# From -- ./inp_files/19456.got.cif
#   From: 2010.03.12/outbox.cif.g09.slc.cpg/sg14_10_cif.got.tgz:19456.got - 2010.03.31 13:35:05.
