data_PCOD8128433
_publ_section_title
;
Structure prediction by ZEFSAII (Michael W. Deem and Ramdas Pophale) SiO2 
 PCOD8128433
Probable space group: P 21/C
;
_chemical_formula_sum "Si O2"
_cell_formula_units_Z 28
_cell_length_a 11.121274
_cell_length_b 14.072680
_cell_length_c 9.709207
_cell_angle_alpha 90.000000
_cell_angle_beta 123.826030
_cell_angle_gamma 90.000000
_cell_volume 1262.338628
_symmetry_space_group_name_H-M "P 21/C"
_symmetry_group_IT_number 14
_symmetry_cell_setting 'monoclinic'
loop_
_space_group_symop_operation_xyz
x,y,z
-x,1/2+y,1/2-z
-x,-y,-z
x,1/2-y,1/2+z
loop_
_atom_site_type_symbol
_atom_site_label
_atom_site_fract_x
_atom_site_fract_y
_atom_site_fract_z
Si Si1 0.627251 0.343166 0.403445
Si Si2 0.882358 0.642610 0.194904
Si Si3 0.737324 0.301008 0.194431
Si Si4 0.356132 0.510745 0.996288
Si Si5 0.153806 0.505524 0.374366
Si Si6 0.387080 0.036472 0.816983
Si Si7 0.935649 0.687249 0.536608
O O1 0.630349 0.294381 0.256499
O O2 0.697911 0.284404 0.570283
O O3 0.723451 0.440319 0.457368
O O4 0.455756 0.360666 0.321704
O O5 0.738220 0.582262 0.087127
O O6 0.886076 0.689960 0.347381
O O7 0.860788 0.728246 0.073159
O O8 0.022881 0.577049 0.254715
O O9 0.731493 0.398029 0.107122
O O10 0.896056 0.289085 0.354569
O O11 0.500000 0.500000 0.000000
O O12 0.388865 0.526147 0.179024
O O13 0.225847 0.464358 0.278764
O O14 0.096073 0.417212 0.424740
O O15 0.500000 0.000000 0.000000
#
# Coordination Sequence:
#
# PCOD8128433 Si02
#       7
#     4   4   4   4   4   4   4
#     4  11  24  45  69 107 141 189 244 288 359 433
#     4  12  27  46  76 108 148 188 248 299 367 437
#     4  12  23  43  77 102 144 190 240 296 362 435
#     4  12  27  49  72 105 146 198 243 296 367 442
#     4  11  23  45  76 100 146 187 238 300 363 423
#     4  10  26  46  70 101 141 185 246 295 356 421
#     4  12  25  46  75 109 143 189 236 307 366 427
#
# _framework density 22.181054
#
# number of rings (size 3 to 8) (size 9 to 14) (size 15 to 20)
#    0.000    0.571    5.714    1.286    8.000    2.857 
#    0.000    0.000    0.000    0.000    0.000    0.000 
#    0.000    0.000    0.000    0.000    0.000    0.000 
#
# Total GULP energy -347156.177351 kJ/mol
# GULP energy per Si atom -12398.434905 kJ/mol
# Density = 2.213057 g / cm^3
# Si number density = 22.181054 Si / 1000 Ang^3
#
#
#
# Elastic Constant Matrix: (Units=GPa)
#
#
# Indices 1 2 3 4 5 6 
#
# 1 112.0512 53.9503 58.7117 0.0000 -28.2426 0.0000
# 2 53.9503 95.1746 30.9628 0.0000 -4.9724 0.0000
# 3 58.7117 30.9628 139.2812 0.0000 -27.0803 0.0000
# 4 0.0000 0.0000 0.0000 22.4735 0.0000 -1.6173
# 5 -28.2426 -4.9724 -27.0803 0.0000 36.4855 0.0000
# 6 0.0000 0.0000 0.0000 -1.6173 0.0000 34.8095
#
#
#
# Elastic Compliance Matrix: (Units=1/GPa)
#
#
# Indices 1 2 3 4 5 6 
#
# 1 0.017020 -0.007996 -0.003561 0.000000 0.009442 0.000000
# 2 -0.007996 0.015087 -0.000920 0.000000 -0.004816 0.000000
# 3 -0.003561 -0.000920 0.009729 0.000000 0.004339 0.000000
# 4 0.000000 0.000000 0.000000 0.044646 0.000000 0.002074
# 5 0.009442 -0.004816 0.004339 0.000000 0.037281 0.000000
# 6 0.000000 0.000000 0.000000 0.002074 0.000000 0.028824
#
#
# Mechanical properties :
#
#
# Convention : Reuss Voigt Hill
#
# Bulk Modulus (GPa) = 59.23356 70.41740 64.82548
# Shear Modulus (GPa) = 27.29706 32.27918 29.78812
#
# Velocity S-wave (km/s) = 3.51186 3.81892 3.66861
# Velocity P-wave (km/s) = 6.57319 7.15969 6.87270
#
# Compressibility (1/GPa) = 0.01688232
#
# Stress axis : x y z
#
# Youngs Moduli (GPa) = 58.75308 66.28097 102.78554
#
# Poissons Ratio (x) = 0.53000 0.36605
# Poissons Ratio (y) = 0.46980 0.09453
# Poissons Ratio (z) = 0.20924 0.06096
#
# Static dielectric constant tensor:
#      x y z
#    x 4.553680 0.000000 -0.245370 
#    y 0.000000 4.351420 0.000000 
#    z -0.245370 0.000000 4.172360 
# 
# 
# High freq. dielectric constant tensor:
#      x y z
#    x 1.886030 0.000000 -0.008850 
#    y 0.000000 1.868670 0.000000 
#    z -0.008850 0.000000 1.882040 
# 
# From -- ./inp_files/13430.got.cif
#   From: 2010.03.12/outbox.cif.g09.slc.cpg/sg14_7_cif.got.tgz:13430.got - 2010.03.31 13:35:05.
