data_PCOD8128301
_publ_section_title
;
Structure prediction by ZEFSAII (Michael W. Deem and Ramdas Pophale) SiO2 
 PCOD8128301
Probable space group: P 21/C
;
_chemical_formula_sum "Si O2"
_cell_formula_units_Z 20
_cell_length_a 21.242618
_cell_length_b 5.209011
_cell_length_c 10.380528
_cell_angle_alpha 90.000000
_cell_angle_beta 40.043141
_cell_angle_gamma 90.000000
_cell_volume 738.991876
_symmetry_space_group_name_H-M "P 21/C"
_symmetry_group_IT_number 14
_symmetry_cell_setting 'monoclinic'
loop_
_space_group_symop_operation_xyz
x,y,z
-x,1/2+y,1/2-z
-x,-y,-z
x,1/2-y,1/2+z
loop_
_atom_site_type_symbol
_atom_site_label
_atom_site_fract_x
_atom_site_fract_y
_atom_site_fract_z
Si Si1 0.095902 0.243787 0.709662
Si Si2 0.751286 0.912855 0.839432
Si Si3 0.381617 0.015084 0.535717
Si Si4 0.399951 0.688106 0.268275
Si Si5 0.879633 0.243699 0.990014
O O1 0.151557 0.274176 0.757545
O O2 0.132207 0.465491 0.554676
O O3 0.979518 0.263987 0.916706
O O4 0.120715 0.963556 0.617917
O O5 0.703874 0.724813 0.806546
O O6 0.786158 0.189889 0.727128
O O7 0.666462 0.951517 0.078303
O O8 0.372130 0.927518 0.401744
O O9 0.374053 0.785588 0.655703
O O10 0.485603 0.146889 0.394349
#
# Coordination Sequence:
#
# PCOD8128301 Si02
#       5
#     4   4   4   4   4
#     4  10  24  45  70 103 149 192 246 314 376 448
#     4  12  25  42  73 105 142 197 256 303 373 454
#     4  11  26  48  69 109 145 205 243 322 367 455
#     4  11  26  46  71 102 153 193 258 307 383 441
#     4  10  24  45  69 105 147 193 246 312 380 442
#
# _framework density 27.063897000000001
#
# number of rings (size 3 to 8) (size 9 to 14) (size 15 to 20)
#    0.000    1.200    2.000    1.800    8.400    2.400 
#    0.000    6.000    0.000    0.000    0.000    0.000 
#    0.000    0.000    0.000    0.000    0.000    0.000 
#
# Total GULP energy -247928.338426 kJ/mol
# GULP energy per Si atom -12396.416921 kJ/mol
# Density = 2.700230 g / cm^3
# Si number density = 27.063897 Si / 1000 Ang^3
#
#
#
# Elastic Constant Matrix: (Units=GPa)
#
#
# Indices 1 2 3 4 5 6 
#
# 1 112.3788 7.7004 55.1475 0.0000 -23.0229 0.0000
# 2 7.7004 48.2208 13.4605 0.0000 -5.7130 0.0000
# 3 55.1475 13.4605 115.4571 0.0000 -11.6487 0.0000
# 4 0.0000 0.0000 0.0000 36.4425 0.0000 1.6797
# 5 -23.0229 -5.7130 -11.6487 0.0000 36.5293 0.0000
# 6 0.0000 0.0000 0.0000 1.6797 0.0000 32.8946
#
#
#
# Elastic Compliance Matrix: (Units=1/GPa)
#
#
# Indices 1 2 3 4 5 6 
#
# 1 0.012920 0.000246 -0.005553 0.000000 0.006411 0.000000
# 2 0.000246 0.021690 -0.002365 0.000000 0.002793 0.000000
# 3 -0.005553 -0.002365 0.011571 0.000000 -0.000180 0.000000
# 4 0.000000 0.000000 0.000000 0.027505 0.000000 -0.001404
# 5 0.006411 0.002793 -0.000180 0.000000 0.031795 0.000000
# 6 0.000000 0.000000 0.000000 -0.001404 0.000000 0.030472
#
#
# Mechanical properties :
#
#
# Convention : Reuss Voigt Hill
#
# Bulk Modulus (GPa) = 32.42721 47.63038 40.02879
# Shear Modulus (GPa) = 30.94543 34.48986 32.71764
#
# Velocity S-wave (km/s) = 3.38512 3.57373 3.48070
# Velocity P-wave (km/s) = 5.22364 5.88780 5.56564
#
# Compressibility (1/GPa) = 0.03083830
#
# Stress axis : x y z
#
# Youngs Moduli (GPa) = 77.39940 46.10513 86.42175
#
# Poissons Ratio (x) = -0.01136 0.47991
# Poissons Ratio (y) = -0.01907 0.20435
# Poissons Ratio (z) = 0.42981 0.10902
#
# Static dielectric constant tensor:
#      x y z
#    x 5.021440 0.000000 -0.282870 
#    y 0.000000 4.610850 0.000000 
#    z -0.282870 0.000000 5.116200 
# 
# 
# High freq. dielectric constant tensor:
#      x y z
#    x 2.094140 0.000000 -0.026370 
#    y 0.000000 2.078500 0.000000 
#    z -0.026370 0.000000 2.102240 
# 
# From -- ./inp_files/34519.got.cif
#   From: 2010.03.12/outbox.cif.g09.slc.cpg/sg14_18_cif.got.tgz:34519.got - 2010.03.31 13:35:05.
