data_PCOD8128721
_publ_section_title
;
Structure prediction by ZEFSAII (Michael W. Deem and Ramdas Pophale) SiO2 
 PCOD8128721
Probable space group: P 21/C
;
_chemical_formula_sum "Si O2"
_cell_formula_units_Z 32
_cell_length_a 10.268088
_cell_length_b 9.520442
_cell_length_c 24.411677
_cell_angle_alpha 90.000000
_cell_angle_beta 36.785570
_cell_angle_gamma 90.000000
_cell_volume 1429.032132
_symmetry_space_group_name_H-M "P 21/C"
_symmetry_group_IT_number 14
_symmetry_cell_setting 'monoclinic'
loop_
_space_group_symop_operation_xyz
x,y,z
-x,1/2+y,1/2-z
-x,-y,-z
x,1/2-y,1/2+z
loop_
_atom_site_type_symbol
_atom_site_label
_atom_site_fract_x
_atom_site_fract_y
_atom_site_fract_z
Si Si1 0.095137 0.393727 0.246869
Si Si2 0.011514 0.707920 0.081026
Si Si3 0.940040 0.983984 0.903673
Si Si4 0.555689 0.527607 0.610269
Si Si5 0.080816 0.411781 0.775951
Si Si6 0.368848 0.179058 0.364523
Si Si7 0.304144 0.833247 0.841348
Si Si8 0.587778 0.114171 0.611343
O O1 0.992408 0.237230 0.281302
O O2 0.337611 0.356622 0.184284
O O3 0.967956 0.509240 0.328240
O O4 0.079332 0.465093 0.192322
O O5 0.933553 0.597182 0.153379
O O6 0.883612 0.689566 0.067078
O O7 0.955406 0.865751 0.116908
O O8 0.268068 0.687130 0.984367
O O9 0.077042 0.857475 0.885650
O O10 0.691506 0.969771 0.007498
O O11 0.325622 0.454671 0.676215
O O12 0.527377 0.685457 0.641755
O O13 0.690967 0.440431 0.609406
O O14 0.501879 0.136606 0.265685
O O15 0.378476 0.052032 0.403845
O O16 0.337253 0.676534 0.854616
#
# Coordination Sequence:
#
# PCOD8128721 Si02
#       8
#     4   4   4   4   4   4   4   4
#     4  11  25  47  67  95 130 177 229 275 323 385
#     4  11  22  42  67  98 134 175 215 269 338 392
#     4  11  22  42  71  96 130 175 220 270 327 402
#     4  12  23  43  68  99 131 175 222 266 334 397
#     4  11  26  45  69  94 130 178 229 274 323 389
#     4  12  24  38  65 105 138 166 213 271 336 403
#     4  12  20  40  70  96 135 173 208 267 337 399
#     4  12  24  42  63  99 139 168 215 277 332 390
#
# _framework density 22.392779999999998
#
# number of rings (size 3 to 8) (size 9 to 14) (size 15 to 20)
#    0.000    0.500    6.250    3.000    1.750    1.000 
#    2.250    0.000    0.000    0.000    0.000    0.000 
#    0.000    0.000    0.000    0.000    0.000    0.000 
#
# Total GULP energy -396736.780841 kJ/mol
# GULP energy per Si atom -12398.024401 kJ/mol
# Density = 2.234181 g / cm^3
# Si number density = 22.392780 Si / 1000 Ang^3
#
#
#
# Elastic Constant Matrix: (Units=GPa)
#
#
# Indices 1 2 3 4 5 6 
#
# 1 62.2099 35.0049 21.2642 0.0000 -1.9237 0.0000
# 2 35.0049 106.9081 1.1731 0.0000 -0.3528 0.0000
# 3 21.2642 1.1731 116.9865 0.0000 -4.5546 0.0000
# 4 0.0000 0.0000 0.0000 25.2013 0.0000 -0.0643
# 5 -1.9237 -0.3528 -4.5546 0.0000 15.4259 0.0000
# 6 0.0000 0.0000 0.0000 -0.0643 0.0000 39.1137
#
#
#
# Elastic Compliance Matrix: (Units=1/GPa)
#
#
# Indices 1 2 3 4 5 6 
#
# 1 0.021297 -0.006927 -0.003747 0.000000 0.001391 0.000000
# 2 -0.006927 0.011609 0.001132 0.000000 -0.000264 0.000000
# 3 -0.003747 0.001132 0.009308 0.000000 0.002307 0.000000
# 4 0.000000 0.000000 0.000000 0.039681 0.000000 0.000065
# 5 0.001391 -0.000264 0.002307 0.000000 0.065674 0.000000
# 6 0.000000 0.000000 0.000000 0.000065 0.000000 0.025567
#
#
# Mechanical properties :
#
#
# Convention : Reuss Voigt Hill
#
# Bulk Modulus (GPa) = 43.23710 44.55433 43.89572
# Shear Modulus (GPa) = 25.00893 31.19233 28.10063
#
# Velocity S-wave (km/s) = 3.34553 3.73629 3.54630
# Velocity P-wave (km/s) = 5.85438 6.20911 6.03436
#
# Compressibility (1/GPa) = 0.02312828
#
# Stress axis : x y z
#
# Youngs Moduli (GPa) = 46.95603 86.14179 107.43923
#
# Poissons Ratio (x) = 0.59674 0.40261
# Poissons Ratio (y) = 0.32528 -0.12167
# Poissons Ratio (z) = 0.17596 -0.09755
#
# Static dielectric constant tensor:
#      x y z
#    x 3.856570 0.000000 0.132790 
#    y 0.000000 4.171880 0.000000 
#    z 0.132790 0.000000 3.976320 
# 
# 
# High freq. dielectric constant tensor:
#      x y z
#    x 1.851110 0.000000 0.001880 
#    y 0.000000 1.889020 0.000000 
#    z 0.001880 0.000000 1.884960 
# 
# From -- ./inp_files/79944.got.cif
#   From: 2010.03.12/outbox.cif.g09.slc.cpg/sg14_40_cif.got.tgz:79944.got - 2010.03.31 13:35:05.
