data_PCOD8128975
_publ_section_title
;
Structure prediction by ZEFSAII (Michael W. Deem and Ramdas Pophale) SiO2 
 PCOD8128975
Probable space group: P 21/C
;
_chemical_formula_sum "Si O2"
_cell_formula_units_Z 24
_cell_length_a 11.380928
_cell_length_b 5.535373
_cell_length_c 18.971960
_cell_angle_alpha 90.000000
_cell_angle_beta 61.620746
_cell_angle_gamma 90.000000
_cell_volume 1051.552496
_symmetry_space_group_name_H-M "P 21/C"
_symmetry_group_IT_number 14
_symmetry_cell_setting 'monoclinic'
loop_
_space_group_symop_operation_xyz
x,y,z
-x,1/2+y,1/2-z
-x,-y,-z
x,1/2-y,1/2+z
loop_
_atom_site_type_symbol
_atom_site_label
_atom_site_fract_x
_atom_site_fract_y
_atom_site_fract_z
Si Si1 0.550049 0.149338 0.202456
Si Si2 0.924424 0.059508 0.265158
Si Si3 0.505037 0.305925 0.558773
Si Si4 0.724867 0.501905 0.937342
Si Si5 0.839335 0.473045 0.635467
Si Si6 0.911000 0.713447 0.998056
O O1 0.516032 0.904619 0.255685
O O2 0.498414 0.085939 0.138833
O O3 0.709919 0.195659 0.160022
O O4 0.850133 0.975561 0.215319
O O5 0.002481 0.312143 0.229379
O O6 0.822989 0.136733 0.355902
O O7 0.500000 0.500000 0.500000
O O8 0.379226 0.134081 0.583875
O O9 0.648080 0.178081 0.510979
O O10 0.807447 0.672881 0.964896
O O11 0.820379 0.707795 0.591222
O O12 0.982790 0.393381 0.566042
O O13 0.000000 0.500000 0.000000
#
# Coordination Sequence:
#
# PCOD8128975 Si02
#       6
#     4   4   4   4   4   4
#     4  12  30  50  77 111 154 202 255 316 381 458
#     4  12  27  46  72 110 151 193 243 311 379 449
#     4  11  27  47  78 105 151 205 259 312 375 459
#     4  11  25  46  74 109 148 199 253 313 375 450
#     4  11  26  44  73 107 145 196 244 310 378 446
#     4  11  23  45  75 106 147 191 249 310 374 450
#
# _framework density 22.823395000000001
#
# number of rings (size 3 to 8) (size 9 to 14) (size 15 to 20)
#    0.000    0.667    1.667    4.000   14.000    2.667 
#    0.000    0.000    0.000    0.000    0.000    0.000 
#    0.000    0.000    0.000    0.000    0.000    0.000 
#
# Total GULP energy -297362.155438 kJ/mol
# GULP energy per Si atom -12390.089810 kJ/mol
# Density = 2.277145 g / cm^3
# Si number density = 22.823395 Si / 1000 Ang^3
#
#
#
# Elastic Constant Matrix: (Units=GPa)
#
#
# Indices 1 2 3 4 5 6 
#
# 1 112.1993 22.5328 61.1825 0.0000 0.2136 0.0000
# 2 22.5328 90.1124 26.7077 0.0000 -3.4239 0.0000
# 3 61.1825 26.7077 110.3173 0.0000 29.2144 0.0000
# 4 0.0000 0.0000 0.0000 31.7125 0.0000 5.9047
# 5 0.2136 -3.4239 29.2144 0.0000 42.8207 0.0000
# 6 0.0000 0.0000 0.0000 5.9047 0.0000 23.8054
#
#
#
# Elastic Compliance Matrix: (Units=1/GPa)
#
#
# Indices 1 2 3 4 5 6 
#
# 1 0.014110 -0.000515 -0.009363 0.000000 0.006276 0.000000
# 2 -0.000515 0.012440 -0.003650 0.000000 0.003487 0.000000
# 3 -0.009363 -0.003650 0.018559 0.000000 -0.012907 0.000000
# 4 0.000000 0.000000 0.000000 0.033060 0.000000 -0.008200
# 5 0.006276 0.003487 -0.012907 0.000000 0.032407 0.000000
# 6 0.000000 0.000000 0.000000 -0.008200 0.000000 0.044041
#
#
# Mechanical properties :
#
#
# Convention : Reuss Voigt Hill
#
# Bulk Modulus (GPa) = 55.38832 59.27501 57.33166
# Shear Modulus (GPa) = 26.63975 33.14813 29.89394
#
# Velocity S-wave (km/s) = 3.42016 3.81514 3.62303
# Velocity P-wave (km/s) = 6.31803 6.74052 6.53269
#
# Compressibility (1/GPa) = 0.01805435
#
# Stress axis : x y z
#
# Youngs Moduli (GPa) = 70.87345 80.38451 53.88205
#
# Poissons Ratio (x) = 0.04138 0.50448
# Poissons Ratio (y) = 0.03648 0.19666
# Poissons Ratio (z) = 0.66357 0.29339
#
# Static dielectric constant tensor:
#      x y z
#    x 3.776180 0.000000 0.092610 
#    y 0.000000 3.577360 0.000000 
#    z 0.092610 0.000000 4.138840 
# 
# 
# High freq. dielectric constant tensor:
#      x y z
#    x 1.918630 0.000000 0.003380 
#    y 0.000000 1.885870 0.000000 
#    z 0.003380 0.000000 1.925030 
# 
# From -- ./inp_files/56537.got.cif
#   From: 2010.03.12/outbox.cif.g09.slc.cpg/sg14_29_cif.got.tgz:56537.got - 2010.03.31 13:35:05.
