data_PCOD8128513
_publ_section_title
;
Structure prediction by ZEFSAII (Michael W. Deem and Ramdas Pophale) SiO2 
 PCOD8128513
Probable space group: P 21/C
;
_chemical_formula_sum "Si O2"
_cell_formula_units_Z 28
_cell_length_a 14.784974
_cell_length_b 8.079882
_cell_length_c 19.485593
_cell_angle_alpha 90.000000
_cell_angle_beta 34.153053
_cell_angle_gamma 90.000000
_cell_volume 1306.820295
_symmetry_space_group_name_H-M "P 21/C"
_symmetry_group_IT_number 14
_symmetry_cell_setting 'monoclinic'
loop_
_space_group_symop_operation_xyz
x,y,z
-x,1/2+y,1/2-z
-x,-y,-z
x,1/2-y,1/2+z
loop_
_atom_site_type_symbol
_atom_site_label
_atom_site_fract_x
_atom_site_fract_y
_atom_site_fract_z
Si Si1 0.884768 0.753064 0.798808
Si Si2 0.411628 0.468971 0.983999
Si Si3 0.001279 0.461556 0.649779
Si Si4 0.657059 0.535398 0.354292
Si Si5 0.490985 0.253596 0.165474
Si Si6 0.299858 0.522074 0.372844
Si Si7 0.281704 0.695864 0.251804
O O1 0.982383 0.827086 0.800550
O O2 0.797899 0.903756 0.815471
O O3 0.005704 0.651338 0.673650
O O4 0.759699 0.615125 0.902877
O O5 0.383924 0.636049 0.957391
O O6 0.530138 0.349200 0.868207
O O7 0.500000 0.500000 0.000000
O O8 0.146845 0.440035 0.505487
O O9 0.828845 0.426072 0.723608
O O10 0.500000 0.500000 0.500000
O O11 0.627479 0.674811 0.316255
O O12 0.732815 0.381493 0.265778
O O13 0.389280 0.368553 0.280567
O O14 0.581964 0.105867 0.146427
O O15 0.236711 0.664526 0.359923
#
# Coordination Sequence:
#
# PCOD8128513 Si02
#       7
#     4   4   4   4   4   4   4
#     4  12  25  42  69 101 138 174 225 278 347 394
#     4  11  20  42  71  97 129 175 225 280 329 387
#     4  12  27  44  65  99 142 176 218 283 342 403
#     4  12  22  41  71 103 130 168 229 286 327 390
#     4  11  24  41  71  98 131 175 233 274 332 398
#     4  11  26  45  65  96 139 180 226 273 333 408
#     4  11  23  44  66  96 134 181 220 271 333 399
#
# _framework density 21.426051999999999
#
# number of rings (size 3 to 8) (size 9 to 14) (size 15 to 20)
#    0.000    0.571    4.286    3.857    6.000    0.000 
#    0.000    1.429    0.000    0.000    0.000    0.000 
#    0.000    0.000    0.000    0.000    0.000    0.000 
#
# Total GULP energy -347212.352569 kJ/mol
# GULP energy per Si atom -12400.441163 kJ/mol
# Density = 2.137729 g / cm^3
# Si number density = 21.426052 Si / 1000 Ang^3
#
#
#
# Elastic Constant Matrix: (Units=GPa)
#
#
# Indices 1 2 3 4 5 6 
#
# 1 78.7213 7.0595 11.7571 0.0000 9.2626 0.0000
# 2 7.0595 87.0988 19.2351 0.0000 12.7761 0.0000
# 3 11.7571 19.2351 58.5902 0.0000 4.8695 0.0000
# 4 0.0000 0.0000 0.0000 42.2391 0.0000 7.8722
# 5 9.2626 12.7761 4.8695 0.0000 25.2817 0.0000
# 6 0.0000 0.0000 0.0000 7.8722 0.0000 59.3596
#
#
#
# Elastic Compliance Matrix: (Units=1/GPa)
#
#
# Indices 1 2 3 4 5 6 
#
# 1 0.013587 0.000094 -0.002378 0.000000 -0.004567 0.000000
# 2 0.000094 0.013200 -0.003857 0.000000 -0.005962 0.000000
# 3 -0.002378 -0.003857 0.018879 0.000000 -0.000816 0.000000
# 4 0.000000 0.000000 0.000000 0.024275 0.000000 -0.003219
# 5 -0.004567 -0.005962 -0.000816 0.000000 0.044398 0.000000
# 6 0.000000 0.000000 0.000000 -0.003219 0.000000 0.017273
#
#
# Mechanical properties :
#
#
# Convention : Reuss Voigt Hill
#
# Bulk Modulus (GPa) = 29.95402 33.39040 31.67221
# Shear Modulus (GPa) = 32.25363 37.79999 35.02681
#
# Velocity S-wave (km/s) = 3.88409 4.20480 4.04762
# Velocity P-wave (km/s) = 5.84169 6.26033 6.05463
#
# Compressibility (1/GPa) = 0.03338450
#
# Stress axis : x y z
#
# Youngs Moduli (GPa) = 73.59889 75.75818 52.96943
#
# Poissons Ratio (x) = -0.00711 0.12594
# Poissons Ratio (y) = -0.00690 0.20429
# Poissons Ratio (z) = 0.17499 0.29219
#
# Static dielectric constant tensor:
#      x y z
#    x 4.062230 0.000000 0.316770 
#    y 0.000000 4.087500 0.000000 
#    z 0.316770 0.000000 4.065270 
# 
# 
# High freq. dielectric constant tensor:
#      x y z
#    x 1.852580 0.000000 0.009590 
#    y 0.000000 1.849270 0.000000 
#    z 0.009590 0.000000 1.834620 
# 
# From -- ./inp_files/68320.got.cif
#   From: 2010.03.12/outbox.cif.g09.slc.cpg/sg14_35_cif.got.tgz:68320.got - 2010.03.31 13:35:05.
