data_PCOD8128942
_publ_section_title
;
Structure prediction by ZEFSAII (Michael W. Deem and Ramdas Pophale) SiO2 
 PCOD8128942
Probable space group: P 21/C
;
_chemical_formula_sum "Si O2"
_cell_formula_units_Z 28
_cell_length_a 9.346332
_cell_length_b 13.851571
_cell_length_c 20.953221
_cell_angle_alpha 90.000000
_cell_angle_beta 28.446091
_cell_angle_gamma 90.000000
_cell_volume 1292.113000
_symmetry_space_group_name_H-M "P 21/C"
_symmetry_group_IT_number 14
_symmetry_cell_setting 'monoclinic'
loop_
_space_group_symop_operation_xyz
x,y,z
-x,1/2+y,1/2-z
-x,-y,-z
x,1/2-y,1/2+z
loop_
_atom_site_type_symbol
_atom_site_label
_atom_site_fract_x
_atom_site_fract_y
_atom_site_fract_z
Si Si1 0.313071 0.814711 0.970325
Si Si2 0.814307 0.433740 0.155287
Si Si3 0.717190 0.509215 0.329624
Si Si4 0.379650 0.216686 0.770452
Si Si5 0.531085 0.194000 0.951944
Si Si6 0.633463 0.603678 0.135605
Si Si7 0.097048 0.647397 0.268833
O O1 0.436296 0.924433 0.917694
O O2 0.448976 0.745182 0.862184
O O3 0.407067 0.767971 0.000880
O O4 0.955271 0.819282 0.110977
O O5 0.853493 0.461790 0.213247
O O6 0.539147 0.364851 0.248773
O O7 0.751033 0.525483 0.137650
O O8 0.128901 0.383988 0.014557
O O9 0.625497 0.419758 0.411103
O O10 0.965157 0.578126 0.265465
O O11 0.382797 0.301769 0.817846
O O12 0.701290 0.263820 0.836598
O O13 0.169563 0.195095 0.084384
O O14 0.307410 0.582555 0.232194
#
# Coordination Sequence:
#
# PCOD8128942 Si02
#       7
#     4   4   4   4   4   4   4
#     4  11  23  44  72 102 138 185 229 288 347 416
#     4  11  26  45  70 104 142 181 235 289 343 425
#     4  11  25  48  71 106 140 181 241 287 345 419
#     4  12  24  44  73 100 142 183 231 285 355 408
#     4  11  26  45  73 102 144 180 240 287 346 419
#     4  11  26  45  67 106 140 182 234 286 348 419
#     4  11  26  47  73  99 145 185 228 292 352 409
#
# _framework density 21.669931999999999
#
# number of rings (size 3 to 8) (size 9 to 14) (size 15 to 20)
#    0.000    0.857    2.857    4.286    8.000    2.286 
#    0.000    0.000    0.000    0.000    0.000    0.000 
#    0.000    0.000    0.000    0.000    0.000    0.000 
#
# Total GULP energy -347137.160408 kJ/mol
# GULP energy per Si atom -12397.755729 kJ/mol
# Density = 2.162061 g / cm^3
# Si number density = 21.669932 Si / 1000 Ang^3
#
#
#
# Elastic Constant Matrix: (Units=GPa)
#
#
# Indices 1 2 3 4 5 6 
#
# 1 85.3448 9.0376 35.7795 0.0000 -13.9673 0.0000
# 2 9.0376 97.7490 25.6903 0.0000 -0.5375 0.0000
# 3 35.7795 25.6903 133.1959 0.0000 -15.9739 0.0000
# 4 0.0000 0.0000 0.0000 36.6748 0.0000 3.4581
# 5 -13.9673 -0.5375 -15.9739 0.0000 43.5355 0.0000
# 6 0.0000 0.0000 0.0000 3.4581 0.0000 28.8920
#
#
#
# Elastic Compliance Matrix: (Units=1/GPa)
#
#
# Indices 1 2 3 4 5 6 
#
# 1 0.013623 -0.000401 -0.003199 0.000000 0.003192 0.000000
# 2 -0.000401 0.010806 -0.002067 0.000000 -0.000754 0.000000
# 3 -0.003199 -0.002067 0.009037 0.000000 0.002264 0.000000
# 4 0.000000 0.000000 0.000000 0.027578 0.000000 -0.003301
# 5 0.003192 -0.000754 0.002264 0.000000 0.024815 0.000000
# 6 0.000000 0.000000 0.000000 -0.003301 0.000000 0.035007
#
#
# Mechanical properties :
#
#
# Convention : Reuss Voigt Hill
#
# Bulk Modulus (GPa) = 45.18310 50.81162 47.99736
# Shear Modulus (GPa) = 35.82192 38.20593 37.01393
#
# Velocity S-wave (km/s) = 4.07021 4.20347 4.13737
# Velocity P-wave (km/s) = 6.55627 6.85986 6.70978
#
# Compressibility (1/GPa) = 0.02213217
#
# Stress axis : x y z
#
# Youngs Moduli (GPa) = 73.40358 92.53726 110.65195
#
# Poissons Ratio (x) = 0.03712 0.35402
# Poissons Ratio (y) = 0.02945 0.22871
# Poissons Ratio (z) = 0.23485 0.19127
#
# Static dielectric constant tensor:
#      x y z
#    x 4.029080 0.000000 0.157410 
#    y 0.000000 3.880700 0.000000 
#    z 0.157410 0.000000 3.909940 
# 
# 
# High freq. dielectric constant tensor:
#      x y z
#    x 1.862200 0.000000 0.003460 
#    y 0.000000 1.855120 0.000000 
#    z 0.003460 0.000000 1.865180 
# 
# From -- ./inp_files/65899.got.cif
#   From: 2010.03.12/outbox.cif.g09.slc.cpg/sg14_33_cif.got.tgz:65899.got - 2010.03.31 13:35:05.
