data_PCOD8128897
_publ_section_title
;
Structure prediction by ZEFSAII (Michael W. Deem and Ramdas Pophale) SiO2 
 PCOD8128897
Probable space group: P 21/C
;
_chemical_formula_sum "Si O2"
_cell_formula_units_Z 28
_cell_length_a 8.305578
_cell_length_b 13.084457
_cell_length_c 14.391856
_cell_angle_alpha 90.000000
_cell_angle_beta 121.509264
_cell_angle_gamma 90.000000
_cell_volume 1333.414331
_symmetry_space_group_name_H-M "P 21/C"
_symmetry_group_IT_number 14
_symmetry_cell_setting 'monoclinic'
loop_
_space_group_symop_operation_xyz
x,y,z
-x,1/2+y,1/2-z
-x,-y,-z
x,1/2-y,1/2+z
loop_
_atom_site_type_symbol
_atom_site_label
_atom_site_fract_x
_atom_site_fract_y
_atom_site_fract_z
Si Si1 0.852225 0.670558 0.800272
Si Si2 0.916872 0.893967 0.510726
Si Si3 0.190266 0.755967 0.183854
Si Si4 0.952230 0.040501 0.780058
Si Si5 0.532520 0.273173 0.387453
Si Si6 0.841097 0.161289 0.128302
Si Si7 0.359443 0.428061 0.906224
O O1 0.791153 0.648656 0.887645
O O2 0.671027 0.671745 0.677754
O O3 0.985884 0.579312 0.803621
O O4 0.966917 0.776983 0.834116
O O5 0.796960 0.889193 0.568509
O O6 0.088378 0.816823 0.579246
O O7 0.000000 0.000000 0.500000
O O8 0.068027 0.860166 0.160122
O O9 0.386421 0.781852 0.192409
O O10 0.232663 0.696547 0.292592
O O11 0.747802 0.987282 0.708671
O O12 0.106295 0.958830 0.862445
O O13 0.672898 0.323300 0.504407
O O14 0.492294 0.157334 0.403046
O O15 0.500000 0.500000 0.000000
#
# Coordination Sequence:
#
# PCOD8128897 Si02
#       7
#     4   4   4   4   4   4   4
#     4  11  23  43  68 100 136 176 232 281 343 418
#     4  12  22  44  74  99 133 186 229 289 347 406
#     4  11  24  44  69 103 136 182 237 283 350 418
#     4  11  23  45  66  95 143 186 220 287 355 411
#     4  12  26  43  67 104 137 181 235 289 343 420
#     4  11  23  48  67  95 141 185 223 291 351 412
#     4  12  23  40  69 103 132 179 238 286 339 407
#
# _framework density 20.998726000000001
#
# number of rings (size 3 to 8) (size 9 to 14) (size 15 to 20)
#    0.000    0.571    5.714    3.429    4.000    1.143 
#    0.000    0.000    0.000    0.000    0.000    0.000 
#    0.000    0.000    0.000    0.000    0.000    0.000 
#
# Total GULP energy -347148.858188 kJ/mol
# GULP energy per Si atom -12398.173507 kJ/mol
# Density = 2.095093 g / cm^3
# Si number density = 20.998726 Si / 1000 Ang^3
#
#
#
# Elastic Constant Matrix: (Units=GPa)
#
#
# Indices 1 2 3 4 5 6 
#
# 1 80.7117 27.5163 31.1098 0.0000 -9.4236 0.0000
# 2 27.5163 115.6052 41.3570 0.0000 -8.4821 0.0000
# 3 31.1098 41.3570 124.8894 0.0000 10.7093 0.0000
# 4 0.0000 0.0000 0.0000 34.2171 0.0000 5.2045
# 5 -9.4236 -8.4821 10.7093 0.0000 37.5903 0.0000
# 6 0.0000 0.0000 0.0000 5.2045 0.0000 34.4899
#
#
#
# Elastic Compliance Matrix: (Units=1/GPa)
#
#
# Indices 1 2 3 4 5 6 
#
# 1 0.014884 -0.002013 -0.003405 0.000000 0.004247 0.000000
# 2 -0.002013 0.010480 -0.003207 0.000000 0.002774 0.000000
# 3 -0.003405 -0.003207 0.010304 0.000000 -0.004513 0.000000
# 4 0.000000 0.000000 0.000000 0.029912 0.000000 -0.004514
# 5 0.004247 0.002774 -0.004513 0.000000 0.029579 0.000000
# 6 0.000000 0.000000 0.000000 -0.004514 0.000000 0.029675
#
#
# Mechanical properties :
#
#
# Convention : Reuss Voigt Hill
#
# Bulk Modulus (GPa) = 54.29326 57.90807 56.10066
# Shear Modulus (GPa) = 33.73267 36.00769 34.87018
#
# Velocity S-wave (km/s) = 4.01236 4.14545 4.07945
# Velocity P-wave (km/s) = 6.88309 7.10984 6.99739
#
# Compressibility (1/GPa) = 0.01841849
#
# Stress axis : x y z
#
# Youngs Moduli (GPa) = 67.18400 95.41992 97.04696
#
# Poissons Ratio (x) = 0.19207 0.33048
# Poissons Ratio (y) = 0.13524 0.31122
# Poissons Ratio (z) = 0.22878 0.30600
#
# Static dielectric constant tensor:
#      x y z
#    x -0.205160 0.000000 0.355930 
#    y 0.000000 -1.380150 0.000000 
#    z 0.355930 0.000000 3.724490 
# 
# 
# High freq. dielectric constant tensor:
#      x y z
#    x 1.821850 0.000000 -0.001270 
#    y 0.000000 1.829530 0.000000 
#    z -0.001270 0.000000 1.823390 
# 
# From -- ./inp_files/40399.got.cif
#   From: 2010.03.12/outbox.cif.g09.slc.cpg/sg14_21_cif.got.tgz:40399.got - 2010.03.31 13:35:05.
