data_PCOD8128132
_publ_section_title
;
Structure prediction by ZEFSAII (Michael W. Deem and Ramdas Pophale) SiO2 
 PCOD8128132
Probable space group: P 21/C
;
_chemical_formula_sum "Si O2"
_cell_formula_units_Z 32
_cell_length_a 16.808566
_cell_length_b 10.764672
_cell_length_c 15.950509
_cell_angle_alpha 90.000000
_cell_angle_beta 148.856981
_cell_angle_gamma 90.000000
_cell_volume 1492.603476
_symmetry_space_group_name_H-M "P 21/C"
_symmetry_group_IT_number 14
_symmetry_cell_setting 'monoclinic'
loop_
_space_group_symop_operation_xyz
x,y,z
-x,1/2+y,1/2-z
-x,-y,-z
x,1/2-y,1/2+z
loop_
_atom_site_type_symbol
_atom_site_label
_atom_site_fract_x
_atom_site_fract_y
_atom_site_fract_z
Si Si1 0.794296 0.186294 0.586703
Si Si2 0.146896 0.347217 0.417512
Si Si3 0.210532 0.629002 0.275292
Si Si4 0.730301 0.850675 0.153726
Si Si5 0.385355 0.979248 0.684884
Si Si6 0.676533 0.093956 0.880399
Si Si7 0.417664 0.732559 0.331259
Si Si8 0.147258 0.144518 0.555920
O O1 0.737664 0.257887 0.618280
O O2 0.691663 0.065031 0.472696
O O3 0.781175 0.289281 0.501873
O O4 0.965067 0.134592 0.751215
O O5 0.197593 0.304829 0.369658
O O6 0.220385 0.472974 0.518775
O O7 0.193666 0.247459 0.529766
O O8 0.292901 0.500170 0.375590
O O9 0.265798 0.674845 0.235473
O O10 0.028781 0.603043 0.114150
O O11 0.831540 0.816580 0.327310
O O12 0.569737 0.777702 0.026210
O O13 0.462482 0.855484 0.792773
O O14 0.518700 0.079734 0.790588
O O15 0.257746 0.029257 0.634925
O O16 0.622135 0.127648 0.736105
#
# Coordination Sequence:
#
# PCOD8128132 Si02
#       8
#     4   4   4   4   4   4   4   4
#     4  10  24  40  69  94 132 177 219 272 338 400
#     4  11  24  45  65  99 133 178 221 274 338 397
#     4  11  22  42  64 102 132 172 228 283 329 394
#     4  12  22  41  69  98 132 175 226 282 330 394
#     4  11  22  40  64  98 131 171 220 276 333 392
#     4  11  24  44  65  96 138 172 222 278 329 403
#     4  11  24  39  64  98 129 172 220 282 333 388
#     4  11  26  39  68 103 135 172 230 281 333 400
#
# _framework density 21.439050000000002
#
# number of rings (size 3 to 8) (size 9 to 14) (size 15 to 20)
#    0.000    1.000    3.750    2.250    8.750    0.000 
#    0.000    6.250    0.000    0.000    0.000    0.000 
#    0.000    0.000    0.000    0.000    0.000    0.000 
#
# Total GULP energy -396611.935690 kJ/mol
# GULP energy per Si atom -12394.122990 kJ/mol
# Density = 2.139025 g / cm^3
# Si number density = 21.439050 Si / 1000 Ang^3
#
#
#
# Elastic Constant Matrix: (Units=GPa)
#
#
# Indices 1 2 3 4 5 6 
#
# 1 98.9339 39.4045 29.4160 0.0000 -14.0413 0.0000
# 2 39.4045 68.2224 42.0021 0.0000 -8.0003 0.0000
# 3 29.4160 42.0021 99.6125 0.0000 -10.9326 0.0000
# 4 0.0000 0.0000 0.0000 44.3667 0.0000 -7.2603
# 5 -14.0413 -8.0003 -10.9326 0.0000 32.4003 0.0000
# 6 0.0000 0.0000 0.0000 -7.2603 0.0000 35.8676
#
#
#
# Elastic Compliance Matrix: (Units=1/GPa)
#
#
# Indices 1 2 3 4 5 6 
#
# 1 0.013662 -0.007036 -0.000632 0.000000 0.003970 0.000000
# 2 -0.007036 0.023567 -0.007846 0.000000 0.000122 0.000000
# 3 -0.000632 -0.007846 0.013802 0.000000 0.002446 0.000000
# 4 0.000000 0.000000 0.000000 0.023312 0.000000 0.004719
# 5 0.003970 0.000122 0.002446 0.000000 0.033440 0.000000
# 6 0.000000 0.000000 0.000000 0.004719 0.000000 0.028836
#
#
# Mechanical properties :
#
#
# Convention : Reuss Voigt Hill
#
# Bulk Modulus (GPa) = 49.99277 54.26820 52.13049
# Shear Modulus (GPa) = 28.68410 32.92331 30.80371
#
# Velocity S-wave (km/s) = 3.66175 3.92301 3.79463
# Velocity P-wave (km/s) = 6.42239 6.77405 6.60056
#
# Compressibility (1/GPa) = 0.02000289
#
# Stress axis : x y z
#
# Youngs Moduli (GPa) = 73.19833 42.43271 72.45270
#
# Poissons Ratio (x) = 0.29857 0.04577
# Poissons Ratio (y) = 0.51504 0.56844
# Poissons Ratio (z) = 0.04624 0.33292
#
# Static dielectric constant tensor:
#      x y z
#    x 3.798450 0.000000 -0.161100 
#    y 0.000000 3.813500 0.000000 
#    z -0.161100 0.000000 4.122900 
# 
# 
# High freq. dielectric constant tensor:
#      x y z
#    x 1.831730 0.000000 -0.002760 
#    y 0.000000 1.824120 0.000000 
#    z -0.002760 0.000000 1.859800 
# 
# From -- ./inp_files/60543.got.cif
#   From: 2010.03.12/outbox.cif.g09.slc.cpg/sg14_31_cif.got.tgz:60543.got - 2010.03.31 13:35:05.
