data_PCOD8128010
_publ_section_title
;
Structure prediction by ZEFSAII (Michael W. Deem and Ramdas Pophale) SiO2 
 PCOD8128010
Probable space group: P 21/C
;
_chemical_formula_sum "Si O2"
_cell_formula_units_Z 20
_cell_length_a 21.169679
_cell_length_b 8.445090
_cell_length_c 9.052120
_cell_angle_alpha 90.000000
_cell_angle_beta 30.785166
_cell_angle_gamma 90.000000
_cell_volume 828.297788
_symmetry_space_group_name_H-M "P 21/C"
_symmetry_group_IT_number 14
_symmetry_cell_setting 'monoclinic'
loop_
_space_group_symop_operation_xyz
x,y,z
-x,1/2+y,1/2-z
-x,-y,-z
x,1/2-y,1/2+z
loop_
_atom_site_type_symbol
_atom_site_label
_atom_site_fract_x
_atom_site_fract_y
_atom_site_fract_z
Si Si1 0.421830 0.104885 0.765915
Si Si2 0.990257 0.737373 0.756708
Si Si3 0.843615 0.292341 0.831239
Si Si4 0.417226 0.597422 0.556994
Si Si5 0.838749 0.584774 0.317011
O O1 0.505217 0.250702 0.652028
O O2 0.500000 0.000000 0.500000
O O3 0.297050 0.159710 0.933624
O O4 0.380155 0.003045 0.989682
O O5 0.892780 0.837898 0.857436
O O6 0.080595 0.847846 0.675667
O O7 0.082424 0.642764 0.460366
O O8 0.922649 0.618873 0.005334
O O9 0.834613 0.102216 0.845533
O O10 0.706675 0.360760 0.105896
O O11 0.500000 0.500000 0.500000
#
# Coordination Sequence:
#
# PCOD8128010 Si02
#       5
#     4   4   4   4   4
#     4  12  27  50  77 110 155 198 259 313 377 456
#     4  10  23  44  74 113 147 201 250 309 385 447
#     4  11  24  49  75 109 155 195 251 315 383 454
#     4  12  29  49  79 113 148 208 253 315 387 448
#     4  11  25  47  74 109 156 198 253 320 376 455
#
# _framework density 24.145904999999999
#
# number of rings (size 3 to 8) (size 9 to 14) (size 15 to 20)
#    0.000    0.800    2.000    4.800    8.400    0.000 
#    3.600    9.000    0.000    0.000    0.000    0.000 
#    0.000    0.000    0.000    0.000    0.000    0.000 
#
# Total GULP energy -248025.298621 kJ/mol
# GULP energy per Si atom -12401.264931 kJ/mol
# Density = 2.409095 g / cm^3
# Si number density = 24.145905 Si / 1000 Ang^3
#
#
#
# Elastic Constant Matrix: (Units=GPa)
#
#
# Indices 1 2 3 4 5 6 
#
# 1 178.7547 33.8267 76.5541 0.0000 -11.6754 0.0000
# 2 33.8267 82.1962 25.4929 0.0000 -1.0069 0.0000
# 3 76.5541 25.4929 142.4176 0.0000 -15.1264 0.0000
# 4 0.0000 0.0000 0.0000 39.1232 0.0000 -5.4418
# 5 -11.6754 -1.0069 -15.1264 0.0000 55.8147 0.0000
# 6 0.0000 0.0000 0.0000 -5.4418 0.0000 38.7728
#
#
#
# Elastic Compliance Matrix: (Units=1/GPa)
#
#
# Indices 1 2 3 4 5 6 
#
# 1 0.007570 -0.001975 -0.003657 0.000000 0.000557 0.000000
# 2 -0.001975 0.013405 -0.001397 0.000000 -0.000550 0.000000
# 3 -0.003657 -0.001397 0.009425 0.000000 0.001764 0.000000
# 4 0.000000 0.000000 0.000000 0.026069 0.000000 0.003659
# 5 0.000557 -0.000550 0.001764 0.000000 0.018501 0.000000
# 6 0.000000 0.000000 0.000000 0.003659 0.000000 0.026305
#
#
# Mechanical properties :
#
#
# Convention : Reuss Voigt Hill
#
# Bulk Modulus (GPa) = 61.18316 75.01288 68.09802
# Shear Modulus (GPa) = 41.39810 44.57513 42.98661
#
# Velocity S-wave (km/s) = 4.14514 4.30126 4.22392
# Velocity P-wave (km/s) = 6.95007 7.47005 7.21475
#
# Compressibility (1/GPa) = 0.01634437
#
# Stress axis : x y z
#
# Youngs Moduli (GPa) = 132.09491 74.59905 106.10603
#
# Poissons Ratio (x) = 0.14730 0.38800
# Poissons Ratio (y) = 0.26082 0.14818
# Poissons Ratio (z) = 0.48303 0.10418
#
# Static dielectric constant tensor:
#      x y z
#    x 4.198350 0.000000 -0.989930 
#    y 0.000000 3.933360 0.000000 
#    z -0.989930 0.000000 4.246860 
# 
# 
# High freq. dielectric constant tensor:
#      x y z
#    x 1.985110 0.000000 -0.005410 
#    y 0.000000 1.944820 0.000000 
#    z -0.005410 0.000000 1.974770 
# 
# From -- ./inp_files/19346.got.cif
#   From: 2010.03.12/outbox.cif.g09.slc.cpg/sg14_10_cif.got.tgz:19346.got - 2010.03.31 13:35:05.
