data_PCOD8128567
_publ_section_title
;
Structure prediction by ZEFSAII (Michael W. Deem and Ramdas Pophale) SiO2 
 PCOD8128567
Probable space group: P 21/C
;
_chemical_formula_sum "Si O2"
_cell_formula_units_Z 28
_cell_length_a 11.380950
_cell_length_b 7.798109
_cell_length_c 14.023651
_cell_angle_alpha 90.000000
_cell_angle_beta 74.955365
_cell_angle_gamma 90.000000
_cell_volume 1201.937525
_symmetry_space_group_name_H-M "P 21/C"
_symmetry_group_IT_number 14
_symmetry_cell_setting 'monoclinic'
loop_
_space_group_symop_operation_xyz
x,y,z
-x,1/2+y,1/2-z
-x,-y,-z
x,1/2-y,1/2+z
loop_
_atom_site_type_symbol
_atom_site_label
_atom_site_fract_x
_atom_site_fract_y
_atom_site_fract_z
Si Si1 0.881482 0.975060 0.232381
Si Si2 0.221943 0.326145 0.869561
Si Si3 0.487145 0.396643 0.748331
Si Si4 0.458493 0.737529 0.952156
Si Si5 0.703236 0.576586 0.946803
Si Si6 0.617492 0.181672 0.842358
Si Si7 0.125098 0.862400 0.278611
O O1 0.843561 0.842270 0.158220
O O2 0.795978 0.979480 0.344399
O O3 0.014623 0.920589 0.237152
O O4 0.889275 0.165076 0.183081
O O5 0.356559 0.314560 0.797519
O O6 0.224448 0.322212 0.984490
O O7 0.148260 0.500523 0.857750
O O8 0.565361 0.321181 0.644136
O O9 0.578354 0.380541 0.822241
O O10 0.460309 0.593049 0.726918
O O11 0.363392 0.582695 0.986881
O O12 0.601340 0.696901 0.923112
O O13 0.432652 0.870211 0.044012
O O14 0.757288 0.134671 0.814447
#
# Coordination Sequence:
#
# PCOD8128567 Si02
#       7
#     4   4   4   4   4   4   4
#     4  12  24  48  72  95 143 187 233 291 339 403
#     4  11  24  45  69 103 137 182 235 280 349 414
#     4  11  23  39  65 101 139 174 220 285 346 420
#     4  11  21  40  65 102 138 177 218 283 357 410
#     4  11  24  41  69 103 139 181 229 284 355 411
#     4  11  24  40  65 102 139 174 228 279 347 418
#     4  11  25  45  70  99 135 191 235 278 344 407
#
# _framework density 23.295718999999998
#
# number of rings (size 3 to 8) (size 9 to 14) (size 15 to 20)
#    0.000    0.857    5.714    2.143    4.000    0.571 
#    0.000    2.143    0.000    0.000    0.000    0.000 
#    0.000    0.000    0.000    0.000    0.000    0.000 
#
# Total GULP energy -346943.589066 kJ/mol
# GULP energy per Si atom -12390.842467 kJ/mol
# Density = 2.324270 g / cm^3
# Si number density = 23.295719 Si / 1000 Ang^3
#
#
#
# Elastic Constant Matrix: (Units=GPa)
#
#
# Indices 1 2 3 4 5 6 
#
# 1 111.7309 33.2609 23.5697 0.0000 -2.3214 0.0000
# 2 33.2609 108.4845 26.3385 0.0000 1.3997 0.0000
# 3 23.5697 26.3385 72.6196 0.0000 9.6247 0.0000
# 4 0.0000 0.0000 0.0000 26.8034 0.0000 1.3129
# 5 -2.3214 1.3997 9.6247 0.0000 21.3242 0.0000
# 6 0.0000 0.0000 0.0000 1.3129 0.0000 35.8822
#
#
#
# Elastic Compliance Matrix: (Units=1/GPa)
#
#
# Indices 1 2 3 4 5 6 
#
# 1 0.010342 -0.002529 -0.002776 0.000000 0.002545 0.000000
# 2 -0.002529 0.010749 -0.003135 0.000000 0.000434 0.000000
# 3 -0.002776 -0.003135 0.016828 0.000000 -0.007692 0.000000
# 4 0.000000 0.000000 0.000000 0.037376 0.000000 -0.001368
# 5 0.002545 0.000434 -0.007692 0.000000 0.050615 0.000000
# 6 0.000000 0.000000 0.000000 -0.001368 0.000000 0.027919
#
#
# Mechanical properties :
#
#
# Convention : Reuss Voigt Hill
#
# Bulk Modulus (GPa) = 47.53608 51.01925 49.27767
# Shear Modulus (GPa) = 28.13367 30.77968 29.45668
#
# Velocity S-wave (km/s) = 3.47893 3.63886 3.55979
# Velocity P-wave (km/s) = 6.04873 6.29311 6.17213
#
# Compressibility (1/GPa) = 0.02103665
#
# Stress axis : x y z
#
# Youngs Moduli (GPa) = 96.69653 93.03197 59.42464
#
# Poissons Ratio (x) = 0.23532 0.16499
# Poissons Ratio (y) = 0.24459 0.18630
# Poissons Ratio (z) = 0.26847 0.29167
#
# Static dielectric constant tensor:
#      x y z
#    x 4.256430 0.000000 0.079610 
#    y 0.000000 4.505780 0.000000 
#    z 0.079610 0.000000 4.215690 
# 
# 
# High freq. dielectric constant tensor:
#      x y z
#    x 1.923510 0.000000 0.010410 
#    y 0.000000 1.930880 0.000000 
#    z 0.010410 0.000000 1.915150 
# 
# From -- ./inp_files/43078.got.cif
#   From: 2010.03.12/outbox.cif.g09.slc.cpg/sg14_22_cif.got.tgz:43078.got - 2010.03.31 13:35:05.
