data_PCOD8128764
_publ_section_title
;
Structure prediction by ZEFSAII (Michael W. Deem and Ramdas Pophale) SiO2 
 PCOD8128764
Probable space group: P 21/C
;
_chemical_formula_sum "Si O2"
_cell_formula_units_Z 24
_cell_length_a 24.749380
_cell_length_b 7.466651
_cell_length_c 12.683005
_cell_angle_alpha 90.000000
_cell_angle_beta 26.855850
_cell_angle_gamma 90.000000
_cell_volume 1058.785515
_symmetry_space_group_name_H-M "P 21/C"
_symmetry_group_IT_number 14
_symmetry_cell_setting 'monoclinic'
loop_
_space_group_symop_operation_xyz
x,y,z
-x,1/2+y,1/2-z
-x,-y,-z
x,1/2-y,1/2+z
loop_
_atom_site_type_symbol
_atom_site_label
_atom_site_fract_x
_atom_site_fract_y
_atom_site_fract_z
Si Si1 0.774042 0.658663 0.362578
Si Si2 0.456925 0.324609 0.352413
Si Si3 0.596042 0.108142 0.270546
Si Si4 0.883510 0.410227 0.016001
Si Si5 0.376163 0.817577 0.086280
Si Si6 0.056555 0.393504 0.303923
O O1 0.674026 0.742339 0.458155
O O2 0.713832 0.503739 0.537421
O O3 0.822682 0.806309 0.359322
O O4 0.880269 0.576952 0.104189
O O5 0.531165 0.165569 0.276764
O O6 0.445505 0.494120 0.449165
O O7 0.541832 0.347595 0.101215
O O8 0.639607 0.280404 0.261981
O O9 0.500000 0.000000 0.500000
O O10 0.916177 0.474142 0.840904
O O11 0.974656 0.264454 0.901124
O O12 0.752720 0.320692 0.244681
O O13 0.000000 0.500000 0.500000
#
# Coordination Sequence:
#
# PCOD8128764 Si02
#       6
#     4   4   4   4   4   4
#     4  11  26  46  74 105 149 187 244 299 364 439
#     4  11  22  45  64 109 143 185 231 290 356 433
#     4  12  24  41  67 107 142 189 227 290 356 440
#     4  11  27  50  71 107 140 190 245 310 362 431
#     4  11  24  41  72 101 148 188 234 289 363 434
#     4  12  29  50  77 105 139 198 251 311 366 431
#
# _framework density 22.667480999999999
#
# number of rings (size 3 to 8) (size 9 to 14) (size 15 to 20)
#    0.000    0.667    5.000    2.000    9.333    4.000 
#    0.000    0.000    0.000    0.000    0.000    0.000 
#    0.000    0.000    0.000    0.000    0.000    0.000 
#
# Total GULP energy -297449.512089 kJ/mol
# GULP energy per Si atom -12393.729670 kJ/mol
# Density = 2.261589 g / cm^3
# Si number density = 22.667481 Si / 1000 Ang^3
#
#
#
# Elastic Constant Matrix: (Units=GPa)
#
#
# Indices 1 2 3 4 5 6 
#
# 1 129.2049 65.7767 44.9120 0.0000 6.8379 0.0000
# 2 65.7767 92.2303 48.9568 0.0000 0.3793 0.0000
# 3 44.9120 48.9568 112.3174 0.0000 12.7720 0.0000
# 4 0.0000 0.0000 0.0000 53.5805 0.0000 3.5140
# 5 6.8379 0.3793 12.7720 0.0000 43.0823 0.0000
# 6 0.0000 0.0000 0.0000 3.5140 0.0000 48.6752
#
#
#
# Elastic Compliance Matrix: (Units=1/GPa)
#
#
# Indices 1 2 3 4 5 6 
#
# 1 0.012422 -0.008208 -0.001214 0.000000 -0.001539 0.000000
# 2 -0.008208 0.019660 -0.005604 0.000000 0.002791 0.000000
# 3 -0.001214 -0.005604 0.012216 0.000000 -0.003379 0.000000
# 4 0.000000 0.000000 0.000000 0.018752 0.000000 -0.001354
# 5 -0.001539 0.002791 -0.003379 0.000000 0.024433 0.000000
# 6 0.000000 0.000000 0.000000 -0.001354 0.000000 0.020642
#
#
# Mechanical properties :
#
#
# Convention : Reuss Voigt Hill
#
# Bulk Modulus (GPa) = 70.20590 72.56041 71.38315
# Shear Modulus (GPa) = 34.98296 40.67474 37.82885
#
# Velocity S-wave (km/s) = 3.93276 4.24064 4.08960
# Velocity P-wave (km/s) = 7.18759 7.48717 7.33891
#
# Compressibility (1/GPa) = 0.01424382
#
# Stress axis : x y z
#
# Youngs Moduli (GPa) = 80.50330 50.86546 81.85942
#
# Poissons Ratio (x) = 0.41751 0.09940
# Poissons Ratio (y) = 0.66078 0.45878
# Poissons Ratio (z) = 0.09776 0.28508
#
# Static dielectric constant tensor:
#      x y z
#    x 4.765410 0.000000 0.515510 
#    y 0.000000 3.974150 0.000000 
#    z 0.515510 0.000000 4.365810 
# 
# 
# High freq. dielectric constant tensor:
#      x y z
#    x 1.914360 0.000000 0.013730 
#    y 0.000000 1.889900 0.000000 
#    z 0.013730 0.000000 1.899740 
# 
# From -- ./inp_files/35681.got.cif
#   From: 2010.03.12/outbox.cif.g09.slc.cpg/sg14_18_cif.got.tgz:35681.got - 2010.03.31 13:35:05.
