data_PCOD8128691
_publ_section_title
;
Structure prediction by ZEFSAII (Michael W. Deem and Ramdas Pophale) SiO2 
 PCOD8128691
Probable space group: P 21/C
;
_chemical_formula_sum "Si O2"
_cell_formula_units_Z 32
_cell_length_a 19.681399
_cell_length_b 11.648280
_cell_length_c 19.234249
_cell_angle_alpha 90.000000
_cell_angle_beta 158.696589
_cell_angle_gamma 90.000000
_cell_volume 1602.014358
_symmetry_space_group_name_H-M "P 21/C"
_symmetry_group_IT_number 14
_symmetry_cell_setting 'monoclinic'
loop_
_space_group_symop_operation_xyz
x,y,z
-x,1/2+y,1/2-z
-x,-y,-z
x,1/2-y,1/2+z
loop_
_atom_site_type_symbol
_atom_site_label
_atom_site_fract_x
_atom_site_fract_y
_atom_site_fract_z
Si Si1 0.025374 0.357983 0.452137
Si Si2 0.628907 0.167199 0.904186
Si Si3 0.125011 0.620855 0.545363
Si Si4 0.239232 0.598146 0.914736
Si Si5 0.872629 0.745488 0.199826
Si Si6 0.041522 0.497364 0.242873
Si Si7 0.517205 0.885251 0.382822
Si Si8 0.214578 0.322136 0.042482
O O1 0.092846 0.486651 0.506169
O O2 0.179115 0.271819 0.567923
O O3 0.988128 0.327834 0.497021
O O4 0.835629 0.344075 0.227095
O O5 0.593983 0.149444 0.791059
O O6 0.432367 0.148096 0.756183
O O7 0.693268 0.299055 0.972058
O O8 0.777876 0.075390 0.072306
O O9 0.347696 0.630457 0.775923
O O10 0.053571 0.684780 0.406985
O O11 0.076660 0.526148 0.799068
O O12 0.409147 0.514974 0.055663
O O13 0.888412 0.881088 0.226146
O O14 0.855658 0.720461 0.101098
O O15 0.687811 0.699685 0.063334
O O16 0.904665 0.562137 0.057765
#
# Coordination Sequence:
#
# PCOD8128691 Si02
#       8
#     4   4   4   4   4   4   4   4
#     4  11  22  42  67  89 126 168 199 253 308 371
#     4  11  24  35  62  93 123 161 199 258 308 357
#     4  11  24  43  62  91 129 164 200 250 316 362
#     4  12  21  38  62  93 126 159 203 253 307 365
#     4  11  23  39  63  90 125 161 203 259 302 361
#     4  12  21  38  62  90 127 154 203 257 308 354
#     4  11  23  37  60  93 126 158 205 249 308 366
#     4  11  22  40  63  95 118 160 210 250 304 365
#
# _framework density 19.974851000000001
#
# number of rings (size 3 to 8) (size 9 to 14) (size 15 to 20)
#    0.000    0.750    6.250    3.000    3.500    1.500 
#    2.250    0.625    0.000    1.500    0.000    0.000 
#    0.000    0.000    0.000    0.000    0.000    0.000 
#
# Total GULP energy -396689.839169 kJ/mol
# GULP energy per Si atom -12396.557474 kJ/mol
# Density = 1.992939 g / cm^3
# Si number density = 19.974851 Si / 1000 Ang^3
#
#
#
# Elastic Constant Matrix: (Units=GPa)
#
#
# Indices 1 2 3 4 5 6 
#
# 1 49.0221 22.8144 18.5276 0.0000 13.7531 0.0000
# 2 22.8144 112.1545 41.6759 0.0000 19.8519 0.0000
# 3 18.5276 41.6759 117.1069 0.0000 30.0776 0.0000
# 4 0.0000 0.0000 0.0000 35.8053 0.0000 -1.2392
# 5 13.7531 19.8519 30.0776 0.0000 16.9169 0.0000
# 6 0.0000 0.0000 0.0000 -1.2392 0.0000 29.6107
#
#
#
# Elastic Compliance Matrix: (Units=1/GPa)
#
#
# Indices 1 2 3 4 5 6 
#
# 1 0.027255 -0.002246 0.002763 0.000000 -0.024435 0.000000
# 2 -0.002246 0.011521 -0.001364 0.000000 -0.009268 0.000000
# 3 0.002763 -0.001364 0.016110 0.000000 -0.029288 0.000000
# 4 0.000000 0.000000 0.000000 0.027969 0.000000 0.001171
# 5 -0.024435 -0.009268 -0.029288 0.000000 0.141926 0.000000
# 6 0.000000 0.000000 0.000000 0.001171 0.000000 0.033821
#
#
# Mechanical properties :
#
#
# Convention : Reuss Voigt Hill
#
# Bulk Modulus (GPa) = 18.80008 49.36881 34.08445
# Shear Modulus (GPa) = 17.98391 29.48429 23.73410
#
# Velocity S-wave (km/s) = 3.00380 3.84613 3.45077
# Velocity P-wave (km/s) = 4.63279 6.67029 5.74263
#
# Compressibility (1/GPa) = 0.05319126
#
# Stress axis : x y z
#
# Youngs Moduli (GPa) = 36.69051 86.80154 62.07368
#
# Poissons Ratio (x) = 0.19494 -0.17151
# Poissons Ratio (y) = 0.08240 0.08468
# Poissons Ratio (z) = -0.10138 0.11842
#
# Static dielectric constant tensor:
#      x y z
#    x 3.444640 0.000000 0.240440 
#    y 0.000000 3.760500 0.000000 
#    z 0.240440 0.000000 4.040730 
# 
# 
# High freq. dielectric constant tensor:
#      x y z
#    x 1.743580 0.000000 0.018900 
#    y 0.000000 1.782360 0.000000 
#    z 0.018900 0.000000 1.795730 
# 
# From -- ./inp_files/69937.got.cif
#   From: 2010.03.12/outbox.cif.g09.slc.cpg/sg14_35_cif.got.tgz:69937.got - 2010.03.31 13:35:05.
