data_PCOD8128492
_publ_section_title
;
Structure prediction by ZEFSAII (Michael W. Deem and Ramdas Pophale) SiO2 
 PCOD8128492
Probable space group: P 21/C
;
_chemical_formula_sum "Si O2"
_cell_formula_units_Z 28
_cell_length_a 7.481246
_cell_length_b 11.815038
_cell_length_c 13.860601
_cell_angle_alpha 90.000000
_cell_angle_beta 101.050932
_cell_angle_gamma 90.000000
_cell_volume 1202.437402
_symmetry_space_group_name_H-M "P 21/C"
_symmetry_group_IT_number 14
_symmetry_cell_setting 'monoclinic'
loop_
_space_group_symop_operation_xyz
x,y,z
-x,1/2+y,1/2-z
-x,-y,-z
x,1/2-y,1/2+z
loop_
_atom_site_type_symbol
_atom_site_label
_atom_site_fract_x
_atom_site_fract_y
_atom_site_fract_z
Si Si1 0.853724 0.031302 0.352288
Si Si2 0.151976 0.058102 0.849451
Si Si3 0.284768 0.271515 0.501299
Si Si4 0.807246 0.297017 0.338590
Si Si5 0.744195 0.526763 0.046684
Si Si6 0.900115 0.326628 0.553141
Si Si7 0.379495 0.817425 0.366091
O O1 0.840287 0.164360 0.341242
O O2 0.737299 0.987727 0.430270
O O3 0.769342 0.974443 0.247143
O O4 0.062184 0.993067 0.387609
O O5 0.303734 0.120724 0.931596
O O6 0.987564 0.144243 0.816628
O O7 0.074542 0.948316 0.896283
O O8 0.453115 0.266647 0.593172
O O9 0.096347 0.277044 0.541784
O O10 0.295491 0.158412 0.436015
O O11 0.770750 0.337012 0.444757
O O12 0.638061 0.330227 0.251636
O O13 0.597117 0.440907 0.080095
O O14 0.808045 0.239680 0.617035
#
# Coordination Sequence:
#
# PCOD8128492 Si02
#       7
#     4   4   4   4   4   4   4
#     4  11  20  38  71  98 126 185 227 267 345 405
#     4  11  23  42  71 102 138 180 225 285 346 406
#     4  11  25  44  65 102 135 174 231 278 343 404
#     4  11  21  40  64 102 130 177 227 268 338 408
#     4  11  21  41  64  96 141 173 227 288 323 408
#     4  11  23  46  69  94 142 176 222 285 337 403
#     4  12  24  42  70  96 138 177 225 281 337 401
#
# _framework density 23.286037
#
# number of rings (size 3 to 8) (size 9 to 14) (size 15 to 20)
#    0.000    0.857    7.143    3.000    0.000    0.571 
#    2.571    1.429    0.000    0.000    0.000    0.000 
#    0.000    0.000    0.000    0.000    0.000    0.000 
#
# Total GULP energy -347200.962582 kJ/mol
# GULP energy per Si atom -12400.034378 kJ/mol
# Density = 2.323304 g / cm^3
# Si number density = 23.286037 Si / 1000 Ang^3
#
#
#
# Elastic Constant Matrix: (Units=GPa)
#
#
# Indices 1 2 3 4 5 6 
#
# 1 48.9177 7.9532 14.7485 0.0000 10.0343 0.0000
# 2 7.9532 111.6723 10.2804 0.0000 -7.1859 0.0000
# 3 14.7485 10.2804 120.1458 0.0000 5.5385 0.0000
# 4 0.0000 0.0000 0.0000 19.7356 0.0000 4.2270
# 5 10.0343 -7.1859 5.5385 0.0000 24.3959 0.0000
# 6 0.0000 0.0000 0.0000 4.2270 0.0000 21.2962
#
#
#
# Elastic Compliance Matrix: (Units=1/GPa)
#
#
# Indices 1 2 3 4 5 6 
#
# 1 0.023462 -0.002091 -0.002251 0.000000 -0.009755 0.000000
# 2 -0.002091 0.009415 -0.000724 0.000000 0.003798 0.000000
# 3 -0.002251 -0.000724 0.008720 0.000000 -0.001267 0.000000
# 4 0.000000 0.000000 0.000000 0.052920 0.000000 -0.010504
# 5 -0.009755 0.003798 -0.001267 0.000000 0.046409 0.000000
# 6 0.000000 0.000000 0.000000 -0.010504 0.000000 0.049042
#
#
# Mechanical properties :
#
#
# Convention : Reuss Voigt Hill
#
# Bulk Modulus (GPa) = 31.78295 38.52222 35.15259
# Shear Modulus (GPa) = 23.74296 29.60246 26.67271
#
# Velocity S-wave (km/s) = 3.19662 3.56933 3.38810
# Velocity P-wave (km/s) = 5.22523 5.79360 5.51674
#
# Compressibility (1/GPa) = 0.03146341
#
# Stress axis : x y z
#
# Youngs Moduli (GPa) = 42.62144 106.21642 114.67967
#
# Poissons Ratio (x) = 0.22214 0.25820
# Poissons Ratio (y) = 0.08914 0.08302
# Poissons Ratio (z) = 0.09596 0.07689
#
# Static dielectric constant tensor:
#      x y z
#    x 3.768250 0.000000 0.105900 
#    y 0.000000 4.337170 0.000000 
#    z 0.105900 0.000000 4.591310 
# 
# 
# High freq. dielectric constant tensor:
#      x y z
#    x 1.888570 0.000000 0.009030 
#    y 0.000000 1.934710 0.000000 
#    z 0.009030 0.000000 1.928730 
# 
# From -- ./inp_files/40108.got.cif
#   From: 2010.03.12/outbox.cif.g09.slc.cpg/sg14_21_cif.got.tgz:40108.got - 2010.03.31 13:35:05.
