data_PCOD8128107
_publ_section_title
;
Structure prediction by ZEFSAII (Michael W. Deem and Ramdas Pophale) SiO2 
 PCOD8128107
Probable space group: P 21/C
;
_chemical_formula_sum "Si O2"
_cell_formula_units_Z 16
_cell_length_a 7.714547
_cell_length_b 12.461610
_cell_length_c 10.363731
_cell_angle_alpha 90.000000
_cell_angle_beta 121.461561
_cell_angle_gamma 90.000000
_cell_volume 849.855161
_symmetry_space_group_name_H-M "P 21/C"
_symmetry_group_IT_number 14
_symmetry_cell_setting 'monoclinic'
loop_
_space_group_symop_operation_xyz
x,y,z
-x,1/2+y,1/2-z
-x,-y,-z
x,1/2-y,1/2+z
loop_
_atom_site_type_symbol
_atom_site_label
_atom_site_fract_x
_atom_site_fract_y
_atom_site_fract_z
Si Si1 0.768714 0.457419 0.779696
Si Si2 0.640552 0.683841 0.762629
Si Si3 0.925124 0.128928 0.597465
Si Si4 0.408963 0.763404 0.919678
O O1 0.609656 0.554081 0.748370
O O2 0.681812 0.382892 0.633023
O O3 0.985793 0.512273 0.822921
O O4 0.799858 0.383265 0.916728
O O5 0.556115 0.733052 0.860856
O O6 0.532950 0.739563 0.600078
O O7 0.882910 0.708985 0.850676
O O8 0.775840 0.178137 0.646506
#
# Coordination Sequence:
#
# PCOD8128107 Si02
#       4
#     4   4   4   4
#     4   9  21  44  57  92 126 151 206 255 288 366
#     4  10  24  37  65  89 122 160 205 242 303 358
#     4   9  22  40  61  88 127 155 196 257 296 354
#     4  12  21  42  63  91 121 165 198 249 302 358
#
# _framework density 18.826739
#
# number of rings (size 3 to 8) (size 9 to 14) (size 15 to 20)
#    1.500    0.500    2.500    0.750    3.500    1.000 
#    4.500    1.250    0.000    0.000    0.000    0.000 
#    0.000    0.000    0.000    0.000    0.000    0.000 
#
# Total GULP energy -198263.623149 kJ/mol
# GULP energy per Si atom -12391.476447 kJ/mol
# Density = 1.878389 g / cm^3
# Si number density = 18.826739 Si / 1000 Ang^3
#
#
#
# Elastic Constant Matrix: (Units=GPa)
#
#
# Indices 1 2 3 4 5 6 
#
# 1 74.3476 14.1498 53.6377 0.0000 -9.3638 0.0000
# 2 14.1498 62.0174 31.7816 0.0000 -3.1814 0.0000
# 3 53.6377 31.7816 83.5705 0.0000 -6.6641 0.0000
# 4 0.0000 0.0000 0.0000 19.9988 0.0000 8.3632
# 5 -9.3638 -3.1814 -6.6641 0.0000 18.3966 0.0000
# 6 0.0000 0.0000 0.0000 8.3632 0.0000 34.5881
#
#
#
# Elastic Compliance Matrix: (Units=1/GPa)
#
#
# Indices 1 2 3 4 5 6 
#
# 1 0.026565 0.003424 -0.017739 0.000000 0.007688 0.000000
# 2 0.003424 0.020478 -0.009849 0.000000 0.001717 0.000000
# 3 -0.017739 -0.009849 0.027021 0.000000 -0.000944 0.000000
# 4 0.000000 0.000000 0.000000 0.055628 0.000000 -0.013451
# 5 0.007688 0.001717 -0.000944 0.000000 0.058226 0.000000
# 6 0.000000 0.000000 0.000000 -0.013451 0.000000 0.032164
#
#
# Mechanical properties :
#
#
# Convention : Reuss Voigt Hill
#
# Bulk Modulus (GPa) = 38.85417 46.56373 42.70895
# Shear Modulus (GPa) = 18.05131 22.62111 20.33621
#
# Velocity S-wave (km/s) = 3.09983 3.47009 3.29017
# Velocity P-wave (km/s) = 5.78744 6.39076 6.09657
#
# Compressibility (1/GPa) = 0.02573727
#
# Stress axis : x y z
#
# Youngs Moduli (GPa) = 37.64419 48.83197 37.00782
#
# Poissons Ratio (x) = -0.16720 0.65648
# Poissons Ratio (y) = -0.12889 0.36447
# Poissons Ratio (z) = 0.66777 0.48093
#
# Static dielectric constant tensor:
#      x y z
#    x 3.197490 0.000000 0.162100 
#    y 0.000000 3.293260 0.000000 
#    z 0.162100 0.000000 3.374650 
# 
# 
# High freq. dielectric constant tensor:
#      x y z
#    x 1.709230 0.000000 0.012500 
#    y 0.000000 1.721880 0.000000 
#    z 0.012500 0.000000 1.735350 
# 
# From -- ./inp_files/5035.got.cif
#   From: 2010.03.12/outbox.cif.g09.slc.cpg/sg14_3_cif.got.tgz:5035.got - 2010.03.31 13:35:05.
