data_PCOD8128238
_publ_section_title
;
Structure prediction by ZEFSAII (Michael W. Deem and Ramdas Pophale) SiO2 
 PCOD8128238
Probable space group: P 21/C
;
_chemical_formula_sum "Si O2"
_cell_formula_units_Z 24
_cell_length_a 7.917779
_cell_length_b 14.647392
_cell_length_c 9.761801
_cell_angle_alpha 90.000000
_cell_angle_beta 95.447810
_cell_angle_gamma 90.000000
_cell_volume 1127.009346
_symmetry_space_group_name_H-M "P 21/C"
_symmetry_group_IT_number 14
_symmetry_cell_setting 'monoclinic'
loop_
_space_group_symop_operation_xyz
x,y,z
-x,1/2+y,1/2-z
-x,-y,-z
x,1/2-y,1/2+z
loop_
_atom_site_type_symbol
_atom_site_label
_atom_site_fract_x
_atom_site_fract_y
_atom_site_fract_z
Si Si1 0.815760 0.364836 0.771746
Si Si2 0.790594 0.845923 0.640173
Si Si3 0.314246 0.836877 0.267423
Si Si4 0.624968 0.756234 0.893515
Si Si5 0.392365 0.590331 0.492999
Si Si6 0.813881 0.031946 0.528532
O O1 0.744905 0.263509 0.777710
O O2 0.763162 0.412776 0.626069
O O3 0.016513 0.359137 0.801580
O O4 0.729799 0.426972 0.884177
O O5 0.693172 0.806416 0.763486
O O6 0.773444 0.779724 0.506049
O O7 0.715895 0.945213 0.587730
O O8 0.505756 0.829301 0.341934
O O9 0.185254 0.884212 0.363927
O O10 0.308878 0.900226 0.134458
O O11 0.514457 0.825266 0.973576
O O12 0.500000 0.500000 0.500000
O O13 0.000000 0.000000 0.500000
#
# Coordination Sequence:
#
# PCOD8128238 Si02
#       6
#     4   4   4   4   4   4
#     4  10  24  43  71  95 137 181 225 282 349 417
#     4  11  25  43  67 101 138 175 237 285 348 417
#     4  11  23  44  67  97 134 179 223 283 347 411
#     4  11  24  43  67 102 134 186 225 283 352 406
#     4  11  24  43  65 101 136 179 230 284 343 411
#     4  10  24  44  67 101 133 180 231 285 344 414
#
# _framework density 21.295297000000001
#
# number of rings (size 3 to 8) (size 9 to 14) (size 15 to 20)
#    0.000    1.333    1.667    3.000   11.667    0.667 
#    3.000    4.167    0.000    0.000    0.000    0.000 
#    0.000    0.000    0.000    0.000    0.000    0.000 
#
# Total GULP energy -297526.958630 kJ/mol
# GULP energy per Si atom -12396.956610 kJ/mol
# Density = 2.124683 g / cm^3
# Si number density = 21.295297 Si / 1000 Ang^3
#
#
#
# Elastic Constant Matrix: (Units=GPa)
#
#
# Indices 1 2 3 4 5 6 
#
# 1 88.0810 37.7412 61.9911 0.0000 7.3274 0.0000
# 2 37.7412 92.7890 58.4391 0.0000 7.0793 0.0000
# 3 61.9911 58.4391 157.3702 0.0000 3.8398 0.0000
# 4 0.0000 0.0000 0.0000 44.7169 0.0000 -3.9470
# 5 7.3274 7.0793 3.8398 0.0000 39.3939 0.0000
# 6 0.0000 0.0000 0.0000 -3.9470 0.0000 27.8095
#
#
#
# Elastic Compliance Matrix: (Units=1/GPa)
#
#
# Indices 1 2 3 4 5 6 
#
# 1 0.016651 -0.003290 -0.005289 0.000000 -0.001990 0.000000
# 2 -0.003290 0.014880 -0.004189 0.000000 -0.001654 0.000000
# 3 -0.005289 -0.004189 0.009975 0.000000 0.000764 0.000000
# 4 0.000000 0.000000 0.000000 0.022647 0.000000 0.003214
# 5 -0.001990 -0.001654 0.000764 0.000000 0.025978 0.000000
# 6 0.000000 0.000000 0.000000 0.003214 0.000000 0.036415
#
#
# Mechanical properties :
#
#
# Convention : Reuss Voigt Hill
#
# Bulk Modulus (GPa) = 62.61916 72.73145 67.67531
# Shear Modulus (GPa) = 31.76547 34.38864 33.07706
#
# Velocity S-wave (km/s) = 3.86640 4.02288 3.94541
# Velocity P-wave (km/s) = 7.02859 7.47034 7.25283
#
# Compressibility (1/GPa) = 0.01596955
#
# Stress axis : x y z
#
# Youngs Moduli (GPa) = 60.05789 67.20491 100.25201
#
# Poissons Ratio (x) = 0.22109 0.53021
# Poissons Ratio (y) = 0.19757 0.41999
# Poissons Ratio (z) = 0.31763 0.28155
#
# Static dielectric constant tensor:
#      x y z
#    x 3.877400 0.000000 -0.316550 
#    y 0.000000 4.165750 0.000000 
#    z -0.316550 0.000000 5.222530 
# 
# 
# High freq. dielectric constant tensor:
#      x y z
#    x 1.817370 0.000000 -0.001740 
#    y 0.000000 1.845330 0.000000 
#    z -0.001740 0.000000 1.858150 
# 
# From -- ./inp_files/8596.got.cif
#   From: 2010.03.12/outbox.cif.g09.slc.cpg/sg14_5_cif.got.tgz:8596.got - 2010.03.31 13:35:05.
