data_PCOD8128200
_publ_section_title
;
Structure prediction by ZEFSAII (Michael W. Deem and Ramdas Pophale) SiO2 
 PCOD8128200
Probable space group: P 21/C
;
_chemical_formula_sum "Si O2"
_cell_formula_units_Z 20
_cell_length_a 5.089283
_cell_length_b 18.181998
_cell_length_c 9.661480
_cell_angle_alpha 90.000000
_cell_angle_beta 100.158710
_cell_angle_gamma 90.000000
_cell_volume 879.993542
_symmetry_space_group_name_H-M "P 21/C"
_symmetry_group_IT_number 14
_symmetry_cell_setting 'monoclinic'
loop_
_space_group_symop_operation_xyz
x,y,z
-x,1/2+y,1/2-z
-x,-y,-z
x,1/2-y,1/2+z
loop_
_atom_site_type_symbol
_atom_site_label
_atom_site_fract_x
_atom_site_fract_y
_atom_site_fract_z
Si Si1 0.151476 0.445051 0.229921
Si Si2 0.615403 0.383964 0.087671
Si Si3 0.412765 0.599440 0.230354
Si Si4 0.226861 0.357555 0.508396
Si Si5 0.259229 0.717986 0.408750
O O1 0.364896 0.398567 0.162297
O O2 0.230469 0.529559 0.245094
O O3 0.134678 0.413657 0.382953
O O4 0.856287 0.441063 0.136406
O O5 0.734701 0.303533 0.126977
O O6 0.510890 0.394509 0.922447
O O7 0.684532 0.594944 0.347621
O O8 0.248030 0.672266 0.262848
O O9 0.993955 0.300401 0.521219
O O10 0.476477 0.307259 0.481456
#
# Coordination Sequence:
#
# PCOD8128200 Si02
#       5
#     4   4   4   4   4
#     4  12  26  44  70 104 136 181 220 284 335 409
#     4  12  27  43  70  99 143 173 231 274 349 390
#     4  10  27  44  72  98 142 176 230 273 342 398
#     4  10  24  42  72  93 138 171 233 269 338 390
#     4  10  25  42  70  98 134 180 227 278 328 401
#
# _framework density 22.727440000000001
#
# number of rings (size 3 to 8) (size 9 to 14) (size 15 to 20)
#    1.200    0.000    0.000    4.200   11.200    0.800 
#    0.000    0.000    0.000    0.000    0.000    0.000 
#    0.000    0.000    0.000    0.000    0.000    0.000 
#
# Total GULP energy -248008.357471 kJ/mol
# GULP energy per Si atom -12400.417874 kJ/mol
# Density = 2.267571 g / cm^3
# Si number density = 22.727440 Si / 1000 Ang^3
#
#
#
# Elastic Constant Matrix: (Units=GPa)
#
#
# Indices 1 2 3 4 5 6 
#
# 1 88.3799 -16.0551 41.0774 0.0000 0.9538 0.0000
# 2 -16.0551 66.6624 17.2174 0.0000 2.9039 0.0000
# 3 41.0774 17.2174 119.5612 0.0000 2.1924 0.0000
# 4 0.0000 0.0000 0.0000 26.6616 0.0000 -6.0042
# 5 0.9538 2.9039 2.1924 0.0000 16.3197 0.0000
# 6 0.0000 0.0000 0.0000 -6.0042 0.0000 25.8976
#
#
#
# Elastic Compliance Matrix: (Units=1/GPa)
#
#
# Indices 1 2 3 4 5 6 
#
# 1 0.014998 0.005175 -0.005880 0.000000 -0.001007 0.000000
# 2 0.005175 0.017466 -0.004241 0.000000 -0.002841 0.000000
# 3 -0.005880 -0.004241 0.011002 0.000000 -0.000380 0.000000
# 4 0.000000 0.000000 0.000000 0.039573 0.000000 0.009175
# 5 -0.001007 -0.002841 -0.000380 0.000000 0.061891 0.000000
# 6 0.000000 0.000000 0.000000 0.009175 0.000000 0.040741
#
#
# Mechanical properties :
#
#
# Convention : Reuss Voigt Hill
#
# Bulk Modulus (GPa) = 29.78448 39.89811 34.84130
# Shear Modulus (GPa) = 24.18321 29.26670 26.72495
#
# Velocity S-wave (km/s) = 3.26552 3.59238 3.43284
# Velocity P-wave (km/s) = 5.22989 5.89916 5.57458
#
# Compressibility (1/GPa) = 0.03357453
#
# Stress axis : x y z
#
# Youngs Moduli (GPa) = 66.67336 57.25295 90.89510
#
# Poissons Ratio (x) = -0.29627 0.53444
# Poissons Ratio (y) = -0.34502 0.38549
# Poissons Ratio (z) = 0.39202 0.24281
#
# Static dielectric constant tensor:
#      x y z
#    x 3.971860 0.000000 0.064530 
#    y 0.000000 4.020970 0.000000 
#    z 0.064530 0.000000 4.042170 
# 
# 
# High freq. dielectric constant tensor:
#      x y z
#    x 1.899840 0.000000 -0.001480 
#    y 0.000000 1.899920 0.000000 
#    z -0.001480 0.000000 1.894290 
# 
# From -- ./inp_files/5503.got.cif
#   From: 2010.03.12/outbox.cif.g09.slc.cpg/sg14_3_cif.got.tgz:5503.got - 2010.03.31 13:35:05.
