data_PCOD8128863
_publ_section_title
;
Structure prediction by ZEFSAII (Michael W. Deem and Ramdas Pophale) SiO2 
 PCOD8128863
Probable space group: P 21/C
;
_chemical_formula_sum "Si O2"
_cell_formula_units_Z 32
_cell_length_a 24.071712
_cell_length_b 13.321747
_cell_length_c 9.257874
_cell_angle_alpha 90.000000
_cell_angle_beta 151.528380
_cell_angle_gamma 90.000000
_cell_volume 1415.291498
_symmetry_space_group_name_H-M "P 21/C"
_symmetry_group_IT_number 14
_symmetry_cell_setting 'monoclinic'
loop_
_space_group_symop_operation_xyz
x,y,z
-x,1/2+y,1/2-z
-x,-y,-z
x,1/2-y,1/2+z
loop_
_atom_site_type_symbol
_atom_site_label
_atom_site_fract_x
_atom_site_fract_y
_atom_site_fract_z
Si Si1 0.633936 0.019761 0.126275
Si Si2 0.781898 0.659940 0.064649
Si Si3 0.740892 0.839592 0.805156
Si Si4 0.100128 0.038669 0.629967
Si Si5 0.257309 0.663554 0.926650
Si Si6 0.002128 0.399668 0.597751
Si Si7 0.610862 0.461997 0.993011
Si Si8 0.304289 0.894233 0.030043
O O1 0.649802 0.127664 0.239763
O O2 0.736316 0.951949 0.427887
O O3 0.644096 0.040227 0.981045
O O4 0.511461 0.961869 0.872926
O O5 0.697849 0.736018 0.782229
O O6 0.785785 0.679945 0.244809
O O7 0.911870 0.673774 0.294872
O O8 0.637681 0.919842 0.570438
O O9 0.841252 0.873193 0.144796
O O10 0.053712 0.081182 0.373524
O O11 0.000000 0.000000 0.500000
O O12 0.182885 0.943427 0.796694
O O13 0.124910 0.650744 0.678960
O O14 0.283695 0.593503 0.848860
O O15 0.283040 0.778195 0.943442
O O16 0.000000 0.500000 0.500000
O O17 0.601819 0.406841 0.126505
#
# Coordination Sequence:
#
# PCOD8128863 Si02
#       8
#     4   4   4   4   4   4   4   4
#     4  12  25  48  72 101 143 185 238 301 358 423
#     4  12  25  45  71 104 139 190 240 292 364 426
#     4  11  26  45  69 102 142 182 247 293 359 431
#     4  11  23  42  67 102 145 189 233 293 351 422
#     4  12  25  45  71 107 141 188 237 292 359 430
#     4  12  22  44  70 101 150 189 233 292 361 428
#     4  11  25  49  71 101 143 184 236 304 356 419
#     4  11  25  45  70 106 140 185 242 289 361 431
#
# _framework density 22.610182999999999
#
# number of rings (size 3 to 8) (size 9 to 14) (size 15 to 20)
#    0.000    0.500    3.750    4.500    3.500    2.000 
#    4.500    0.000    0.000    0.000    0.000    0.000 
#    0.000    0.000    0.000    0.000    0.000    0.000 
#
# Total GULP energy -396745.906195 kJ/mol
# GULP energy per Si atom -12398.309569 kJ/mol
# Density = 2.255872 g / cm^3
# Si number density = 22.610183 Si / 1000 Ang^3
#
#
#
# Elastic Constant Matrix: (Units=GPa)
#
#
# Indices 1 2 3 4 5 6 
#
# 1 109.7188 33.4091 38.7865 0.0000 -30.4973 0.0000
# 2 33.4091 111.1861 20.7241 0.0000 -2.8881 0.0000
# 3 38.7865 20.7241 101.4147 0.0000 -15.2264 0.0000
# 4 0.0000 0.0000 0.0000 31.3335 0.0000 -8.5948
# 5 -30.4973 -2.8881 -15.2264 0.0000 46.8398 0.0000
# 6 0.0000 0.0000 0.0000 -8.5948 0.0000 34.6439
#
#
#
# Elastic Compliance Matrix: (Units=1/GPa)
#
#
# Indices 1 2 3 4 5 6 
#
# 1 0.013317 -0.003189 -0.003332 0.000000 0.007391 0.000000
# 2 -0.003189 0.010114 -0.001120 0.000000 -0.001817 0.000000
# 3 -0.003332 -0.001120 0.011593 0.000000 0.001530 0.000000
# 4 0.000000 0.000000 0.000000 0.034245 0.000000 0.008496
# 5 0.007391 -0.001817 0.001530 0.000000 0.026547 0.000000
# 6 0.000000 0.000000 0.000000 0.008496 0.000000 0.030973
#
#
# Mechanical properties :
#
#
# Convention : Reuss Voigt Hill
#
# Bulk Modulus (GPa) = 50.64981 56.46210 53.55596
# Shear Modulus (GPa) = 33.63564 37.85679 35.74622
#
# Velocity S-wave (km/s) = 3.86117 4.09629 3.98047
# Velocity P-wave (km/s) = 6.50601 6.88469 6.69803
#
# Compressibility (1/GPa) = 0.01974341
#
# Stress axis : x y z
#
# Youngs Moduli (GPa) = 75.08931 98.87681 86.25551
#
# Poissons Ratio (x) = 0.31528 0.28740
# Poissons Ratio (y) = 0.23943 0.09660
# Poissons Ratio (z) = 0.25020 0.11074
#
# Static dielectric constant tensor:
#      x y z
#    x 4.266560 0.000000 -0.130120 
#    y 0.000000 3.887550 0.000000 
#    z -0.130120 0.000000 4.033840 
# 
# 
# High freq. dielectric constant tensor:
#      x y z
#    x 1.905840 0.000000 -0.015280 
#    y 0.000000 1.895200 0.000000 
#    z -0.015280 0.000000 1.890170 
# 
# From -- ./inp_files/19536.got.cif
#   From: 2010.03.12/outbox.cif.g09.slc.cpg/sg14_10_cif.got.tgz:19536.got - 2010.03.31 13:35:05.
