data_PCOD8128410
_publ_section_title
;
Structure prediction by ZEFSAII (Michael W. Deem and Ramdas Pophale) SiO2 
 PCOD8128410
Probable space group: P 21/C
;
_chemical_formula_sum "Si O2"
_cell_formula_units_Z 20
_cell_length_a 5.051461
_cell_length_b 17.167768
_cell_length_c 10.767295
_cell_angle_alpha 90.000000
_cell_angle_beta 111.646675
_cell_angle_gamma 90.000000
_cell_volume 867.912151
_symmetry_space_group_name_H-M "P 21/C"
_symmetry_group_IT_number 14
_symmetry_cell_setting 'monoclinic'
loop_
_space_group_symop_operation_xyz
x,y,z
-x,1/2+y,1/2-z
-x,-y,-z
x,1/2-y,1/2+z
loop_
_atom_site_type_symbol
_atom_site_label
_atom_site_fract_x
_atom_site_fract_y
_atom_site_fract_z
Si Si1 0.313013 0.883886 0.702414
Si Si2 0.522840 0.653208 0.507015
Si Si3 0.288125 0.172478 0.445429
Si Si4 0.088930 0.570823 0.602481
Si Si5 0.444514 0.034947 0.623599
O O1 0.445281 0.881429 0.860800
O O2 0.555899 0.861506 0.647192
O O3 0.046221 0.825803 0.645547
O O4 0.231952 0.975114 0.660079
O O5 0.580916 0.744248 0.501982
O O6 0.269317 0.635680 0.558615
O O7 0.805784 0.611279 0.606871
O O8 0.317527 0.121126 0.577156
O O9 0.261920 0.539822 0.749826
O O10 0.000000 0.500000 0.500000
O O11 0.500000 0.000000 0.500000
#
# Coordination Sequence:
#
# PCOD8128410 Si02
#       5
#     4   4   4   4   4
#     4  11  24  47  70 102 144 187 246 293 356 433
#     4  12  27  44  73 105 146 190 240 303 362 423
#     4  11  26  43  71 103 145 188 237 301 360 423
#     4  12  26  48  73 104 143 189 242 294 361 430
#     4  10  25  47  74 106 139 192 240 294 354 432
#
# _framework density 23.043807999999999
#
# number of rings (size 3 to 8) (size 9 to 14) (size 15 to 20)
#    0.000    0.800    2.000    3.600    8.400    3.200 
#    0.000    0.000    0.000    0.000    0.000    0.000 
#    0.000    0.000    0.000    0.000    0.000    0.000 
#
# Total GULP energy -248020.552205 kJ/mol
# GULP energy per Si atom -12401.027610 kJ/mol
# Density = 2.299136 g / cm^3
# Si number density = 23.043808 Si / 1000 Ang^3
#
#
#
# Elastic Constant Matrix: (Units=GPa)
#
#
# Indices 1 2 3 4 5 6 
#
# 1 82.5224 11.4028 27.4575 0.0000 13.3235 0.0000
# 2 11.4028 132.1263 34.4829 0.0000 1.6436 0.0000
# 3 27.4575 34.4829 143.0866 0.0000 -0.8547 0.0000
# 4 0.0000 0.0000 0.0000 31.4583 0.0000 8.0985
# 5 13.3235 1.6436 -0.8547 0.0000 29.1383 0.0000
# 6 0.0000 0.0000 0.0000 8.0985 0.0000 35.0331
#
#
#
# Elastic Compliance Matrix: (Units=1/GPa)
#
#
# Indices 1 2 3 4 5 6 
#
# 1 0.014107 -0.000448 -0.002638 0.000000 -0.006503 0.000000
# 2 -0.000448 0.008098 -0.001867 0.000000 -0.000307 0.000000
# 3 -0.002638 -0.001867 0.007954 0.000000 0.001545 0.000000
# 4 0.000000 0.000000 0.000000 0.033800 0.000000 -0.007813
# 5 -0.006503 -0.000307 0.001545 0.000000 0.037355 0.000000
# 6 0.000000 0.000000 0.000000 -0.007813 0.000000 0.030351
#
#
# Mechanical properties :
#
#
# Convention : Reuss Voigt Hill
#
# Bulk Modulus (GPa) = 49.37567 56.04686 52.71127
# Shear Modulus (GPa) = 33.71008 38.08540 35.89774
#
# Velocity S-wave (km/s) = 3.82890 4.06980 3.95118
# Velocity P-wave (km/s) = 6.40474 6.81609 6.61361
#
# Compressibility (1/GPa) = 0.02025289
#
# Stress axis : x y z
#
# Youngs Moduli (GPa) = 70.88444 123.48123 125.71858
#
# Poissons Ratio (x) = 0.05534 0.33164
# Poissons Ratio (y) = 0.03177 0.23478
# Poissons Ratio (z) = 0.18699 0.23060
#
# Static dielectric constant tensor:
#      x y z
#    x 4.113000 0.000000 0.085790 
#    y 0.000000 4.887650 0.000000 
#    z 0.085790 0.000000 4.350110 
# 
# 
# High freq. dielectric constant tensor:
#      x y z
#    x 1.906690 0.000000 0.003650 
#    y 0.000000 1.920410 0.000000 
#    z 0.003650 0.000000 1.923570 
# 
# From -- ./inp_files/21036.got.cif
#   From: 2010.03.12/outbox.cif.g09.slc.cpg/sg14_11_cif.got.tgz:21036.got - 2010.03.31 13:35:05.
