data_PCOD8128647
_publ_section_title
;
Structure prediction by ZEFSAII (Michael W. Deem and Ramdas Pophale) SiO2 
 PCOD8128647
Probable space group: P 21/C
;
_chemical_formula_sum "Si O2"
_cell_formula_units_Z 24
_cell_length_a 8.743844
_cell_length_b 18.829863
_cell_length_c 15.124051
_cell_angle_alpha 90.000000
_cell_angle_beta 30.135291
_cell_angle_gamma 90.000000
_cell_volume 1250.141194
_symmetry_space_group_name_H-M "P 21/C"
_symmetry_group_IT_number 14
_symmetry_cell_setting 'monoclinic'
loop_
_space_group_symop_operation_xyz
x,y,z
-x,1/2+y,1/2-z
-x,-y,-z
x,1/2-y,1/2+z
loop_
_atom_site_type_symbol
_atom_site_label
_atom_site_fract_x
_atom_site_fract_y
_atom_site_fract_z
Si Si1 0.861169 0.325804 0.577828
Si Si2 0.860326 0.069735 0.927669
Si Si3 0.860787 0.588981 0.409248
Si Si4 0.139677 0.430264 0.787994
Si Si5 0.860785 0.411019 0.229965
Si Si6 0.138834 0.325804 0.938996
O O1 0.992305 0.380377 0.438750
O O2 0.500002 0.320728 0.755523
O O3 0.967392 0.351264 0.620915
O O4 0.000003 0.250000 0.486006
O O5 0.961606 0.099544 0.781416
O O6 0.973732 0.988908 0.884703
O O7 0.500001 0.068595 0.110665
O O8 0.961606 0.599545 0.256977
O O9 0.500001 0.598034 0.601530
O O10 0.026269 0.511092 0.858435
O O11 0.007697 0.380376 0.931055
O O12 0.032608 0.351263 0.088307
#
# Coordination Sequence:
#
# PCOD8128647 Si02
#       6
#     4   4   4   4   4   4
#     4  11  22  35  50  75 107 140 173 210 254 305
#     4   8  17  34  57  79 103 134 170 209 258 310
#     4   9  17  35  59  80 101 132 170 213 259 307
#     4   8  17  34  57  79 103 134 170 209 258 310
#     4   9  17  35  59  80 101 132 170 213 259 307
#     4  11  22  35  50  75 107 140 173 210 254 305
#
# _framework density 19.197831000000001
#
# number of rings (size 3 to 8) (size 9 to 14) (size 15 to 20)
#    0.000    2.667    0.000    4.000    0.000    1.333 
#    0.000   11.667    0.000    0.000    0.000    0.000 
#    0.000    0.000    0.000    0.000    0.000    0.000 
#
# Total GULP energy -297576.236953 kJ/mol
# GULP energy per Si atom -12399.009873 kJ/mol
# Density = 1.915414 g / cm^3
# Si number density = 19.197831 Si / 1000 Ang^3
#
#
#
# Elastic Constant Matrix: (Units=GPa)
#
#
# Indices 1 2 3 4 5 6 
#
# 1 75.3273 30.2019 18.8783 0.0000 7.9831 0.0000
# 2 30.2019 79.8227 25.0543 0.0000 5.2321 0.0000
# 3 18.8783 25.0543 58.4826 0.0000 9.1394 0.0000
# 4 0.0000 0.0000 0.0000 20.1436 0.0000 3.3196
# 5 7.9831 5.2321 9.1394 0.0000 23.1215 0.0000
# 6 0.0000 0.0000 0.0000 3.3196 0.0000 23.4091
#
#
#
# Elastic Compliance Matrix: (Units=1/GPa)
#
#
# Indices 1 2 3 4 5 6 
#
# 1 0.016347 -0.005166 -0.002520 0.000000 -0.003479 0.000000
# 2 -0.005166 0.016123 -0.005274 0.000000 0.000220 0.000000
# 3 -0.002520 -0.005274 0.021156 0.000000 -0.006299 0.000000
# 4 0.000000 0.000000 0.000000 0.050831 0.000000 -0.007208
# 5 -0.003479 0.000220 -0.006299 0.000000 0.046891 0.000000
# 6 0.000000 0.000000 0.000000 -0.007208 0.000000 0.043741
#
#
# Mechanical properties :
#
#
# Convention : Reuss Voigt Hill
#
# Bulk Modulus (GPa) = 36.09269 40.21131 38.15200
# Shear Modulus (GPa) = 21.71594 22.63473 22.17534
#
# Velocity S-wave (km/s) = 3.36693 3.43742 3.40236
# Velocity P-wave (km/s) = 5.82719 6.06182 5.94567
#
# Compressibility (1/GPa) = 0.02770644
#
# Stress axis : x y z
#
# Youngs Moduli (GPa) = 61.17353 62.02162 47.26699
#
# Poissons Ratio (x) = 0.32041 0.11911
# Poissons Ratio (y) = 0.31603 0.24929
# Poissons Ratio (z) = 0.15415 0.32711
#
# Static dielectric constant tensor:
#      x y z
#    x 3.603120 0.000000 0.317060 
#    y 0.000000 3.663120 0.000000 
#    z 0.317060 0.000000 3.291150 
# 
# 
# High freq. dielectric constant tensor:
#      x y z
#    x 1.745760 0.000000 0.019790 
#    y 0.000000 1.746180 0.000000 
#    z 0.019790 0.000000 1.726290 
# 
# From -- ./inp_files/9823.got.cif
#   From: 2010.03.12/outbox.cif.g09.slc.cpg/sg14_5_cif.got.tgz:9823.got - 2010.03.31 13:35:05.
