data_PCOD8128582
_publ_section_title
;
Structure prediction by ZEFSAII (Michael W. Deem and Ramdas Pophale) SiO2 
 PCOD8128582
Probable space group: P 21/C
;
_chemical_formula_sum "Si O2"
_cell_formula_units_Z 28
_cell_length_a 9.281727
_cell_length_b 14.268622
_cell_length_c 21.070797
_cell_angle_alpha 90.000000
_cell_angle_beta 27.119338
_cell_angle_gamma 90.000000
_cell_volume 1272.065003
_symmetry_space_group_name_H-M "P 21/C"
_symmetry_group_IT_number 14
_symmetry_cell_setting 'monoclinic'
loop_
_space_group_symop_operation_xyz
x,y,z
-x,1/2+y,1/2-z
-x,-y,-z
x,1/2-y,1/2+z
loop_
_atom_site_type_symbol
_atom_site_label
_atom_site_fract_x
_atom_site_fract_y
_atom_site_fract_z
Si Si1 0.919525 0.085915 0.351399
Si Si2 0.736995 0.588272 0.837960
Si Si3 0.707845 0.439183 0.235532
Si Si4 0.832709 0.645831 0.478414
Si Si5 0.623197 0.006571 0.253839
Si Si6 0.028680 0.775027 0.768492
Si Si7 0.716497 0.836866 0.540664
O O1 0.620676 0.122516 0.508875
O O2 0.092592 0.168056 0.245210
O O3 0.807777 0.007106 0.346176
O O4 0.183633 0.045549 0.295339
O O5 0.765692 0.561019 0.752154
O O6 0.978977 0.667183 0.767635
O O7 0.498752 0.403630 0.376315
O O8 0.518057 0.437573 0.243833
O O9 0.018388 0.372739 0.112898
O O10 0.857515 0.739075 0.514697
O O11 0.106827 0.571205 0.383433
O O12 0.837989 0.688903 0.404984
O O13 0.350261 0.078272 0.385047
O O14 0.397968 0.803397 0.629980
#
# Coordination Sequence:
#
# PCOD8128582 Si02
#       7
#     4   4   4   4   4   4   4
#     4  11  21  41  66  96 129 179 225 276 345 409
#     4  11  22  43  69  96 136 173 227 292 334 408
#     4  12  24  42  71  99 138 182 224 278 345 412
#     4  11  23  43  68  99 136 178 229 282 338 408
#     4  11  24  46  66 100 139 183 227 278 348 407
#     4  11  23  41  68 101 131 175 235 287 343 401
#     4  11  21  43  72  96 126 182 235 274 333 418
#
# _framework density 22.011455000000002
#
# number of rings (size 3 to 8) (size 9 to 14) (size 15 to 20)
#    0.000    0.857    4.286    6.000    0.000    0.571 
#   10.286    0.000    0.000    0.000    0.000    0.000 
#    0.000    0.000    0.000    0.000    0.000    0.000 
#
# Total GULP energy -346985.807236 kJ/mol
# GULP energy per Si atom -12392.350258 kJ/mol
# Density = 2.196136 g / cm^3
# Si number density = 22.011455 Si / 1000 Ang^3
#
#
#
# Elastic Constant Matrix: (Units=GPa)
#
#
# Indices 1 2 3 4 5 6 
#
# 1 93.4084 31.0837 30.2628 0.0000 0.5156 0.0000
# 2 31.0837 102.2781 50.6229 0.0000 -0.4728 0.0000
# 3 30.2628 50.6229 148.2557 0.0000 -3.2030 0.0000
# 4 0.0000 0.0000 0.0000 33.9206 0.0000 -5.5723
# 5 0.5156 -0.4728 -3.2030 0.0000 14.1678 0.0000
# 6 0.0000 0.0000 0.0000 -5.5723 0.0000 26.4866
#
#
#
# Elastic Compliance Matrix: (Units=1/GPa)
#
#
# Indices 1 2 3 4 5 6 
#
# 1 0.012182 -0.002968 -0.001492 0.000000 -0.000880 0.000000
# 2 -0.002968 0.012492 -0.003666 0.000000 -0.000304 0.000000
# 3 -0.001492 -0.003666 0.008341 0.000000 0.001818 0.000000
# 4 0.000000 0.000000 0.000000 0.030536 0.000000 0.006424
# 5 -0.000880 -0.000304 0.001818 0.000000 0.071016 0.000000
# 6 0.000000 0.000000 0.000000 0.006424 0.000000 0.039107
#
#
# Mechanical properties :
#
#
# Convention : Reuss Voigt Hill
#
# Bulk Modulus (GPa) = 59.65766 63.09789 61.37778
# Shear Modulus (GPa) = 25.57374 30.37984 27.97679
#
# Velocity S-wave (km/s) = 3.41227 3.71911 3.56899
# Velocity P-wave (km/s) = 6.53350 6.86808 6.70288
#
# Compressibility (1/GPa) = 0.01676231
#
# Stress axis : x y z
#
# Youngs Moduli (GPa) = 82.09142 80.04814 119.89096
#
# Poissons Ratio (x) = 0.23755 0.17891
# Poissons Ratio (y) = 0.24362 0.43957
# Poissons Ratio (z) = 0.12250 0.29349
#
# Static dielectric constant tensor:
#      x y z
#    x 3.619730 0.000000 0.049780 
#    y 0.000000 4.259230 0.000000 
#    z 0.049780 0.000000 4.195150 
# 
# 
# High freq. dielectric constant tensor:
#      x y z
#    x 1.828430 0.000000 0.006460 
#    y 0.000000 1.875770 0.000000 
#    z 0.006460 0.000000 1.877240 
# 
# From -- ./inp_files/65906.got.cif
#   From: 2010.03.12/outbox.cif.g09.slc.cpg/sg14_33_cif.got.tgz:65906.got - 2010.03.31 13:35:05.
