data_PCOD8128197
_publ_section_title
;
Structure prediction by ZEFSAII (Michael W. Deem and Ramdas Pophale) SiO2 
 PCOD8128197
Probable space group: P 21/C
;
_chemical_formula_sum "Si O2"
_cell_formula_units_Z 28
_cell_length_a 11.402912
_cell_length_b 20.859025
_cell_length_c 8.827289
_cell_angle_alpha 90.000000
_cell_angle_beta 140.725740
_cell_angle_gamma 90.000000
_cell_volume 1329.118138
_symmetry_space_group_name_H-M "P 21/C"
_symmetry_group_IT_number 14
_symmetry_cell_setting 'monoclinic'
loop_
_space_group_symop_operation_xyz
x,y,z
-x,1/2+y,1/2-z
-x,-y,-z
x,1/2-y,1/2+z
loop_
_atom_site_type_symbol
_atom_site_label
_atom_site_fract_x
_atom_site_fract_y
_atom_site_fract_z
Si Si1 0.863584 0.565500 0.704293
Si Si2 0.250000 0.750000 0.722397
Si Si3 0.363584 0.434500 0.022874
Si Si4 0.496148 0.923924 0.673608
Si Si5 0.855934 0.339112 0.136763
Si Si6 0.996149 0.076077 0.318689
Si Si7 0.644066 0.339112 0.424896
O O1 0.651132 0.582849 0.458280
O O2 0.992959 0.605096 0.718043
O O3 0.890187 0.490901 0.695091
O O4 0.910043 0.582104 0.923356
O O5 0.125272 0.796851 0.495895
O O6 0.111117 0.707415 0.686968
O O7 0.374727 0.703149 0.745350
O O8 0.388885 0.792585 0.964735
O O9 0.390184 0.509099 0.085280
O O10 0.492961 0.394904 0.267878
O O11 0.410046 0.417895 0.896733
O O12 0.151133 0.417150 0.843985
O O13 0.350777 0.867589 0.556013
O O14 0.850778 0.132411 0.145544
#
# Coordination Sequence:
#
# PCOD8128197 Si02
#       7
#     4   4   4   4   4   4   4
#     4  11  24  40  66 101 132 166 211 272 332 383
#     4  10  24  42  70  82 136 184 212 260 314 382
#     4  11  24  40  66 101 132 166 211 272 332 383
#     4  11  24  40  66 101 132 166 211 272 332 383
#     4  11  22  46  64  96 128 175 220 262 318 391
#     4  11  24  40  66 101 132 166 211 272 332 383
#     4  11  22  46  64  96 128 175 220 262 318 391
#
# _framework density 21.066600999999999
#
# number of rings (size 3 to 8) (size 9 to 14) (size 15 to 20)
#    0.000    1.143    5.714    0.000    4.000    1.143 
#    0.000    8.571    0.000    0.000    0.000    0.000 
#    0.000    0.000    0.000    0.000    0.000    0.000 
#
# Total GULP energy -347288.593250 kJ/mol
# GULP energy per Si atom -12403.164045 kJ/mol
# Density = 2.101865 g / cm^3
# Si number density = 21.066601 Si / 1000 Ang^3
#
#
#
# Elastic Constant Matrix: (Units=GPa)
#
#
# Indices 1 2 3 4 5 6 
#
# 1 88.6058 44.5180 33.6600 0.0000 -0.1968 0.0000
# 2 44.5180 106.4570 42.1761 0.0000 -7.8010 0.0000
# 3 33.6600 42.1761 89.3281 0.0000 2.6019 0.0000
# 4 0.0000 0.0000 0.0000 24.5321 0.0000 -6.6325
# 5 -0.1968 -7.8010 2.6019 0.0000 36.7666 0.0000
# 6 0.0000 0.0000 0.0000 -6.6325 0.0000 26.5231
#
#
#
# Elastic Compliance Matrix: (Units=1/GPa)
#
#
# Indices 1 2 3 4 5 6 
#
# 1 0.015069 -0.005064 -0.003265 0.000000 -0.000763 0.000000
# 2 -0.005064 0.013561 -0.004587 0.000000 0.003175 0.000000
# 3 -0.003265 -0.004587 0.014650 0.000000 -0.002027 0.000000
# 4 0.000000 0.000000 0.000000 0.043719 0.000000 0.010933
# 5 -0.000763 0.003175 -0.002027 0.000000 0.028012 0.000000
# 6 0.000000 0.000000 0.000000 0.010933 0.000000 0.040437
#
#
# Mechanical properties :
#
#
# Convention : Reuss Voigt Hill
#
# Bulk Modulus (GPa) = 57.31428 58.34435 57.82932
# Shear Modulus (GPa) = 26.72446 28.50017 27.61231
#
# Velocity S-wave (km/s) = 3.56556 3.68212 3.62431
# Velocity P-wave (km/s) = 6.64953 6.76998 6.71003
#
# Compressibility (1/GPa) = 0.01744766
#
# Stress axis : x y z
#
# Youngs Moduli (GPa) = 66.36242 73.74083 68.25995
#
# Poissons Ratio (x) = 0.37341 0.22287
# Poissons Ratio (y) = 0.33604 0.31312
# Poissons Ratio (z) = 0.21668 0.33826
#
# Static dielectric constant tensor:
#      x y z
#    x 3.713230 0.000000 -0.221020 
#    y 0.000000 3.989820 0.000000 
#    z -0.221020 0.000000 3.646880 
# 
# 
# High freq. dielectric constant tensor:
#      x y z
#    x 1.820060 0.000000 -0.019490 
#    y 0.000000 1.842150 0.000000 
#    z -0.019490 0.000000 1.814210 
# 
# From -- ./inp_files/14265.got.cif
#   From: 2010.03.12/outbox.cif.g09.slc.cpg/sg14_8_cif.got.tgz:14265.got - 2010.03.31 13:35:05.
