data_PCOD8128973
_publ_section_title
;
Structure prediction by ZEFSAII (Michael W. Deem and Ramdas Pophale) SiO2 
 PCOD8128973
Probable space group: P 21/C
;
_chemical_formula_sum "Si O2"
_cell_formula_units_Z 20
_cell_length_a 18.450670
_cell_length_b 10.673717
_cell_length_c 13.115929
_cell_angle_alpha 90.000000
_cell_angle_beta 22.054875
_cell_angle_gamma 90.000000
_cell_volume 969.907646
_symmetry_space_group_name_H-M "P 21/C"
_symmetry_group_IT_number 14
_symmetry_cell_setting 'monoclinic'
loop_
_space_group_symop_operation_xyz
x,y,z
-x,1/2+y,1/2-z
-x,-y,-z
x,1/2-y,1/2+z
loop_
_atom_site_type_symbol
_atom_site_label
_atom_site_fract_x
_atom_site_fract_y
_atom_site_fract_z
Si Si1 0.793831 0.792056 0.567744
Si Si2 0.195446 0.525275 0.804037
Si Si3 0.537804 0.609624 0.028373
Si Si4 0.598324 0.540117 0.174059
Si Si5 0.209626 0.693173 0.967787
O O1 0.675105 0.826885 0.619833
O O2 0.000546 0.736888 0.274228
O O3 0.793237 0.923490 0.623901
O O4 0.695689 0.695563 0.770678
O O5 0.374401 0.519345 0.494091
O O6 0.200711 0.656066 0.859511
O O7 0.000000 0.500000 0.000000
O O8 0.620368 0.549984 0.024177
O O9 0.346422 0.687603 0.303090
O O10 0.500000 0.500000 0.000000
O O11 0.720451 0.420058 0.051341
#
# Coordination Sequence:
#
# PCOD8128973 Si02
#       5
#     4   4   4   4   4
#     4  11  25  45  69 103 139 180 232 284 343 417
#     4  11  23  45  74  97 133 194 227 275 360 408
#     4  12  28  43  71 105 138 178 237 288 340 408
#     4  11  25  48  71  96 147 186 225 290 350 405
#     4  11  25  46  69 103 142 180 233 285 344 417
#
# _framework density 20.620519000000002
#
# number of rings (size 3 to 8) (size 9 to 14) (size 15 to 20)
#    0.000    0.800    4.000    2.400   14.000    2.400 
#    0.000    0.000    0.000    0.000    0.000    0.000 
#    0.000    0.000    0.000    0.000    0.000    0.000 
#
# Total GULP energy -248008.130874 kJ/mol
# GULP energy per Si atom -12400.406544 kJ/mol
# Density = 2.057359 g / cm^3
# Si number density = 20.620519 Si / 1000 Ang^3
#
#
#
# Elastic Constant Matrix: (Units=GPa)
#
#
# Indices 1 2 3 4 5 6 
#
# 1 158.8442 47.9239 45.5887 0.0000 2.8138 0.0000
# 2 47.9239 102.0972 49.5332 0.0000 4.9554 0.0000
# 3 45.5887 49.5332 155.5524 0.0000 -8.0461 0.0000
# 4 0.0000 0.0000 0.0000 30.9922 0.0000 0.0517
# 5 2.8138 4.9554 -8.0461 0.0000 36.4557 0.0000
# 6 0.0000 0.0000 0.0000 0.0517 0.0000 34.1066
#
#
#
# Elastic Compliance Matrix: (Units=1/GPa)
#
#
# Indices 1 2 3 4 5 6 
#
# 1 0.007552 -0.002881 -0.001321 0.000000 -0.000483 0.000000
# 2 -0.002881 0.012897 -0.003380 0.000000 -0.002277 0.000000
# 3 -0.001321 -0.003380 0.008013 0.000000 0.002330 0.000000
# 4 0.000000 0.000000 0.000000 0.032266 0.000000 -0.000049
# 5 -0.000483 -0.002277 0.002330 0.000000 0.028292 0.000000
# 6 0.000000 0.000000 0.000000 -0.000049 0.000000 0.029320
#
#
# Mechanical properties :
#
#
# Convention : Reuss Voigt Hill
#
# Bulk Modulus (GPa) = 75.19884 78.06505 76.63195
# Shear Modulus (GPa) = 36.24836 38.54077 37.39457
#
# Velocity S-wave (km/s) = 4.19725 4.32794 4.26310
# Velocity P-wave (km/s) = 7.74832 7.93189 7.84064
#
# Compressibility (1/GPa) = 0.01329808
#
# Stress axis : x y z
#
# Youngs Moduli (GPa) = 132.41028 77.53550 124.79933
#
# Poissons Ratio (x) = 0.22335 0.16487
# Poissons Ratio (y) = 0.38142 0.42188
# Poissons Ratio (z) = 0.17493 0.26211
#
# Static dielectric constant tensor:
#      x y z
#    x 2.819820 0.000000 0.047340 
#    y 0.000000 3.655360 0.000000 
#    z 0.047340 0.000000 3.868560 
# 
# 
# High freq. dielectric constant tensor:
#      x y z
#    x 1.817190 0.000000 -0.000190 
#    y 0.000000 1.816370 0.000000 
#    z -0.000190 0.000000 1.816920 
# 
# From -- ./inp_files/23733.got.cif
#   From: 2010.03.12/outbox.cif.g09.slc.cpg/sg14_12_cif.got.tgz:23733.got - 2010.03.31 13:35:05.
