data_PCOD8128642
_publ_section_title
;
Structure prediction by ZEFSAII (Michael W. Deem and Ramdas Pophale) SiO2 
 PCOD8128642
Probable space group: P 21/C
;
_chemical_formula_sum "Si O2"
_cell_formula_units_Z 20
_cell_length_a 13.057631
_cell_length_b 8.559506
_cell_length_c 10.012959
_cell_angle_alpha 90.000000
_cell_angle_beta 34.540758
_cell_angle_gamma 90.000000
_cell_volume 634.530827
_symmetry_space_group_name_H-M "P 21/C"
_symmetry_group_IT_number 14
_symmetry_cell_setting 'monoclinic'
loop_
_space_group_symop_operation_xyz
x,y,z
-x,1/2+y,1/2-z
-x,-y,-z
x,1/2-y,1/2+z
loop_
_atom_site_type_symbol
_atom_site_label
_atom_site_fract_x
_atom_site_fract_y
_atom_site_fract_z
Si Si1 0.537552 0.467399 0.181389
Si Si2 0.007633 0.123283 0.167345
Si Si3 0.779881 0.322445 0.573478
Si Si4 0.204283 0.208628 0.696895
Si Si5 0.521368 0.179552 0.031221
O O1 0.377430 0.553963 0.274958
O O2 0.515086 0.505288 0.366192
O O3 0.732547 0.532554 0.917321
O O4 0.495339 0.286131 0.194004
O O5 0.134718 0.176140 0.154496
O O6 0.807902 0.190456 0.427086
O O7 0.057629 0.203525 0.974572
O O8 0.033962 0.930629 0.120549
O O9 0.725052 0.220010 0.762010
O O10 0.381302 0.289184 0.564792
#
# Coordination Sequence:
#
# PCOD8128642 Si02
#       5
#     4   4   4   4   4
#     4  11  21  47  77 104 140 195 247 300 364 436
#     4  12  26  47  73 106 154 195 242 305 374 428
#     4  11  26  47  69 107 153 195 241 305 365 441
#     4  11  22  46  75 103 146 194 237 304 368 430
#     4  11  23  48  78 107 146 195 247 306 368 435
#
# _framework density 31.519351
#
# number of rings (size 3 to 8) (size 9 to 14) (size 15 to 20)
#    0.000    0.800    6.000    1.200    2.800    3.200 
#    3.600    7.000    0.000    0.000    0.000    0.000 
#    0.000    0.000    0.000    0.000    0.000    0.000 
#
# Total GULP energy -247948.499041 kJ/mol
# GULP energy per Si atom -12397.424952 kJ/mol
# Density = 3.144761 g / cm^3
# Si number density = 31.519351 Si / 1000 Ang^3
#
#
#
# Elastic Constant Matrix: (Units=GPa)
#
#
# Indices 1 2 3 4 5 6 
#
# 1 150.1377 30.7840 19.6193 0.0000 32.3221 0.0000
# 2 30.7840 206.4210 68.2912 0.0000 26.3517 0.0000
# 3 19.6193 68.2912 188.9449 0.0000 41.7831 0.0000
# 4 0.0000 0.0000 0.0000 36.5107 0.0000 17.4149
# 5 32.3221 26.3517 41.7831 0.0000 59.3300 0.0000
# 6 0.0000 0.0000 0.0000 17.4149 0.0000 43.5168
#
#
#
# Elastic Compliance Matrix: (Units=1/GPa)
#
#
# Indices 1 2 3 4 5 6 
#
# 1 0.007647 -0.000743 0.000382 0.000000 -0.004105 0.000000
# 2 -0.000743 0.005652 -0.001777 0.000000 -0.000854 0.000000
# 3 0.000382 -0.001777 0.006830 0.000000 -0.004229 0.000000
# 4 0.000000 0.000000 0.000000 0.033851 0.000000 -0.013547
# 5 -0.004105 -0.000854 -0.004229 0.000000 0.022449 0.000000
# 6 0.000000 0.000000 0.000000 -0.013547 0.000000 0.028401
#
#
# Mechanical properties :
#
#
# Convention : Reuss Voigt Hill
#
# Bulk Modulus (GPa) = 63.07359 86.98807 75.03083
# Shear Modulus (GPa) = 43.71035 56.32544 50.01790
#
# Velocity S-wave (km/s) = 3.72799 4.23189 3.98791
# Velocity P-wave (km/s) = 6.21169 7.17891 6.71274
#
# Compressibility (1/GPa) = 0.01585450
#
# Stress axis : x y z
#
# Youngs Moduli (GPa) = 130.77619 176.92394 146.40597
#
# Poissons Ratio (x) = 0.13141 -0.05596
# Poissons Ratio (y) = 0.09714 0.26013
# Poissons Ratio (z) = -0.04999 0.31436
#
# Static dielectric constant tensor:
#      x y z
#    x 6.444820 0.000000 -0.592720 
#    y 0.000000 6.407920 0.000000 
#    z -0.592720 0.000000 7.293700 
# 
# 
# High freq. dielectric constant tensor:
#      x y z
#    x 2.344070 0.000000 -0.011950 
#    y 0.000000 2.332150 0.000000 
#    z -0.011950 0.000000 2.336440 
# 
# From -- ./inp_files/33656.got.cif
#   From: 2010.03.12/outbox.cif.g09.slc.cpg/sg14_17_cif.got.tgz:33656.got - 2010.03.31 13:35:05.
