data_PCOD8128399
_publ_section_title
;
Structure prediction by ZEFSAII (Michael W. Deem and Ramdas Pophale) SiO2 
 PCOD8128399
Probable space group: P 21/C
;
_chemical_formula_sum "Si O2"
_cell_formula_units_Z 20
_cell_length_a 11.093182
_cell_length_b 11.117003
_cell_length_c 11.843373
_cell_angle_alpha 90.000000
_cell_angle_beta 142.055391
_cell_angle_gamma 90.000000
_cell_volume 898.097153
_symmetry_space_group_name_H-M "P 21/C"
_symmetry_group_IT_number 14
_symmetry_cell_setting 'monoclinic'
loop_
_space_group_symop_operation_xyz
x,y,z
-x,1/2+y,1/2-z
-x,-y,-z
x,1/2-y,1/2+z
loop_
_atom_site_type_symbol
_atom_site_label
_atom_site_fract_x
_atom_site_fract_y
_atom_site_fract_z
Si Si1 0.997792 0.890203 0.915095
Si Si2 0.959816 0.592832 0.713416
Si Si3 0.689584 0.530936 0.714152
Si Si4 0.724646 0.320798 0.904096
Si Si5 0.294676 0.228739 0.156359
O O1 0.793133 0.819827 0.788281
O O2 0.010381 0.954482 0.803071
O O3 0.190838 0.807781 0.074720
O O4 0.000000 0.000000 0.000000
O O5 0.847342 0.587131 0.747750
O O6 0.862580 0.688903 0.555285
O O7 0.169993 0.647292 0.900286
O O8 0.500000 0.500000 0.500000
O O9 0.767705 0.411781 0.833218
O O10 0.659857 0.629754 0.792264
O O11 0.496557 0.329207 0.765205
#
# Coordination Sequence:
#
# PCOD8128399 Si02
#       5
#     4   4   4   4   4
#     4  10  25  46  70 106 144 184 241 299 358 432
#     4  11  25  48  72 105 148 186 246 303 359 434
#     4  12  25  47  75 106 146 192 245 295 362 436
#     4  12  26  45  76 104 141 196 238 299 365 429
#     4  11  26  47  71 107 145 187 242 300 365 429
#
# _framework density 22.269304999999999
#
# number of rings (size 3 to 8) (size 9 to 14) (size 15 to 20)
#    0.000    0.800    4.000    1.800    5.600    5.600 
#    0.000    0.000    0.000    0.000    0.000    0.000 
#    0.000    0.000    0.000    0.000    0.000    0.000 
#
# Total GULP energy -247824.993949 kJ/mol
# GULP energy per Si atom -12391.249697 kJ/mol
# Density = 2.221862 g / cm^3
# Si number density = 22.269305 Si / 1000 Ang^3
#
#
#
# Elastic Constant Matrix: (Units=GPa)
#
#
# Indices 1 2 3 4 5 6 
#
# 1 91.0211 32.8592 24.1925 0.0000 0.1960 0.0000
# 2 32.8592 150.9335 57.5260 0.0000 -14.2361 0.0000
# 3 24.1925 57.5260 133.8896 0.0000 -9.5529 0.0000
# 4 0.0000 0.0000 0.0000 43.6954 0.0000 -15.3165
# 5 0.1960 -14.2361 -9.5529 0.0000 30.1816 0.0000
# 6 0.0000 0.0000 0.0000 -15.3165 0.0000 38.4717
#
#
#
# Elastic Compliance Matrix: (Units=1/GPa)
#
#
# Indices 1 2 3 4 5 6 
#
# 1 0.012170 -0.002293 -0.001327 0.000000 -0.001581 0.000000
# 2 -0.002293 0.008579 -0.003051 0.000000 0.003096 0.000000
# 3 -0.001327 -0.003051 0.009123 0.000000 0.001457 0.000000
# 4 0.000000 0.000000 0.000000 0.026597 0.000000 0.010589
# 5 -0.001581 0.003096 0.001457 0.000000 0.035065 0.000000
# 6 0.000000 0.000000 0.000000 0.010589 0.000000 0.030209
#
#
# Mechanical properties :
#
#
# Convention : Reuss Voigt Hill
#
# Bulk Modulus (GPa) = 60.48900 67.22218 63.85559
# Shear Modulus (GPa) = 35.56293 39.88752 37.72522
#
# Velocity S-wave (km/s) = 4.00052 4.23678 4.12034
# Velocity P-wave (km/s) = 6.96852 7.36107 7.16748
#
# Compressibility (1/GPa) = 0.01653193
#
# Stress axis : x y z
#
# Youngs Moduli (GPa) = 82.16754 116.55714 109.60846
#
# Poissons Ratio (x) = 0.26727 0.14541
# Poissons Ratio (y) = 0.18841 0.33441
# Poissons Ratio (z) = 0.10900 0.35561
#
# Static dielectric constant tensor:
#      x y z
#    x 4.006810 0.000000 1.230800 
#    y 0.000000 6.106870 0.000000 
#    z 1.230800 0.000000 0.942060 
# 
# 
# High freq. dielectric constant tensor:
#      x y z
#    x 1.887990 0.000000 -0.001450 
#    y 0.000000 1.895810 0.000000 
#    z -0.001450 0.000000 1.865310 
# 
# From -- ./inp_files/29258.got.cif
#   From: 2010.03.12/outbox.cif.g09.slc.cpg/sg14_15_cif.got.tgz:29258.got - 2010.03.31 13:35:05.
