data_PCOD8128112
_publ_section_title
;
Structure prediction by ZEFSAII (Michael W. Deem and Ramdas Pophale) SiO2 
 PCOD8128112
Probable space group: P 21/C
;
_chemical_formula_sum "Si O2"
_cell_formula_units_Z 16
_cell_length_a 6.549064
_cell_length_b 11.490966
_cell_length_c 10.129692
_cell_angle_alpha 90.000000
_cell_angle_beta 95.990069
_cell_angle_gamma 90.000000
_cell_volume 758.148481
_symmetry_space_group_name_H-M "P 21/C"
_symmetry_group_IT_number 14
_symmetry_cell_setting 'monoclinic'
loop_
_space_group_symop_operation_xyz
x,y,z
-x,1/2+y,1/2-z
-x,-y,-z
x,1/2-y,1/2+z
loop_
_atom_site_type_symbol
_atom_site_label
_atom_site_fract_x
_atom_site_fract_y
_atom_site_fract_z
Si Si1 0.068684 0.163928 0.591103
Si Si2 0.641829 0.271560 0.998262
Si Si3 0.738116 0.990125 0.605117
Si Si4 0.413958 0.306510 0.728487
O O1 0.220740 0.121553 0.485622
O O2 0.201684 0.234846 0.705480
O O3 0.888364 0.247263 0.519327
O O4 0.959004 0.051605 0.651997
O O5 0.593188 0.409687 0.028479
O O6 0.532879 0.188535 0.097819
O O7 0.559104 0.243469 0.846748
O O8 0.637662 0.939310 0.732178
#
# Coordination Sequence:
#
# PCOD8128112 Si02
#       4
#     4   4   4   4
#     4   9  22  39  65  91 119 169 211 245 297 385
#     4  10  24  38  67  90 124 164 210 247 314 367
#     4   9  21  43  64  88 126 169 205 243 315 378
#     4  12  21  39  66  95 121 165 210 255 302 374
#
# _framework density 21.104047000000001
#
# number of rings (size 3 to 8) (size 9 to 14) (size 15 to 20)
#    1.500    0.500    2.500    0.750    3.500    0.000 
#    0.000    2.500    0.000    0.000    0.000    0.000 
#    0.000    0.000    0.000    0.000    0.000    0.000 
#
# Total GULP energy -198312.756013 kJ/mol
# GULP energy per Si atom -12394.547251 kJ/mol
# Density = 2.105601 g / cm^3
# Si number density = 21.104047 Si / 1000 Ang^3
#
#
#
# Elastic Constant Matrix: (Units=GPa)
#
#
# Indices 1 2 3 4 5 6 
#
# 1 105.6361 4.8843 27.1208 0.0000 27.8931 0.0000
# 2 4.8843 26.2300 -7.9699 0.0000 16.1400 0.0000
# 3 27.1208 -7.9699 59.4606 0.0000 32.0912 0.0000
# 4 0.0000 0.0000 0.0000 38.5760 0.0000 -2.9118
# 5 27.8931 16.1400 32.0912 0.0000 42.9572 0.0000
# 6 0.0000 0.0000 0.0000 -2.9118 0.0000 35.0984
#
#
#
# Elastic Compliance Matrix: (Units=1/GPa)
#
#
# Indices 1 2 3 4 5 6 
#
# 1 0.011636 0.002691 -0.000542 0.000000 -0.008162 0.000000
# 2 0.002691 0.113446 0.063547 0.000000 -0.091844 0.000000
# 3 -0.000542 0.063547 0.064139 0.000000 -0.071439 0.000000
# 4 0.000000 0.000000 0.000000 0.026086 0.000000 0.002164
# 5 -0.008162 -0.091844 -0.071439 0.000000 0.116455 0.000000
# 6 0.000000 0.000000 0.000000 0.002164 0.000000 0.028671
#
#
# Mechanical properties :
#
#
# Convention : Reuss Voigt Hill
#
# Bulk Modulus (GPa) = 3.11901 26.59970 14.85935
# Shear Modulus (GPa) = 14.88487 34.47908 24.68198
#
# Velocity S-wave (km/s) = 2.65865 4.04637 3.42356
# Velocity P-wave (km/s) = 3.30237 5.87046 4.76277
#
# Compressibility (1/GPa) = 0.32061443
#
# Stress axis : x y z
#
# Youngs Moduli (GPa) = 85.93794 8.81477 15.59121
#
# Poissons Ratio (x) = -0.02372 0.00845
# Poissons Ratio (y) = -0.23125 -0.99078
# Poissons Ratio (z) = 0.04655 -0.56016
#
# Static dielectric constant tensor:
#      x y z
#    x 3.958970 0.000000 0.112960 
#    y 0.000000 3.415330 0.000000 
#    z 0.112960 0.000000 3.410750 
# 
# 
# High freq. dielectric constant tensor:
#      x y z
#    x 1.860220 0.000000 0.009590 
#    y 0.000000 1.789830 0.000000 
#    z 0.009590 0.000000 1.795120 
# 
# From -- ./inp_files/7520.got.cif
#   From: 2010.03.12/outbox.cif.g09.slc.cpg/sg14_4_cif.got.tgz:7520.got - 2010.03.31 13:35:05.
