data_PCOD8128696
_publ_section_title
;
Structure prediction by ZEFSAII (Michael W. Deem and Ramdas Pophale) SiO2 
 PCOD8128696
Probable space group: P 21/C
;
_chemical_formula_sum "Si O2"
_cell_formula_units_Z 32
_cell_length_a 28.956878
_cell_length_b 7.824738
_cell_length_c 20.067621
_cell_angle_alpha 90.000000
_cell_angle_beta 160.366495
_cell_angle_gamma 90.000000
_cell_volume 1527.776456
_symmetry_space_group_name_H-M "P 21/C"
_symmetry_group_IT_number 14
_symmetry_cell_setting 'monoclinic'
loop_
_space_group_symop_operation_xyz
x,y,z
-x,1/2+y,1/2-z
-x,-y,-z
x,1/2-y,1/2+z
loop_
_atom_site_type_symbol
_atom_site_label
_atom_site_fract_x
_atom_site_fract_y
_atom_site_fract_z
Si Si1 0.247563 0.607659 0.311282
Si Si2 0.212638 0.827492 0.053905
Si Si3 0.919801 0.060354 0.953430
Si Si4 0.137111 0.290310 0.091519
Si Si5 0.442125 0.662178 0.458740
Si Si6 0.063400 0.251137 0.755995
Si Si7 0.733072 0.785066 0.860206
Si Si8 0.158571 0.610183 0.334528
O O1 0.161360 0.765284 0.166399
O O2 0.170576 0.428522 0.193397
O O3 0.387827 0.613136 0.459121
O O4 0.263683 0.616587 0.413829
O O5 0.332414 0.743996 0.259825
O O6 0.203760 0.025939 0.063009
O O7 0.238495 0.820365 0.008872
O O8 0.069545 0.732153 0.876075
O O9 0.814855 0.903816 0.825980
O O10 0.032773 0.094982 0.164046
O O11 0.000000 0.000000 0.000000
O O12 0.219288 0.337845 0.135929
O O13 0.972739 0.272577 0.859909
O O14 0.500000 0.500000 0.500000
O O15 0.568483 0.792481 0.642868
O O16 0.093186 0.076200 0.757279
O O17 0.199058 0.300722 0.982242
#
# Coordination Sequence:
#
# PCOD8128696 Si02
#       8
#     4   4   4   4   4   4   4   4
#     4  12  24  45  64  99 144 173 231 280 335 411
#     4  11  23  43  68 100 136 171 232 286 335 412
#     4  12  23  37  65 104 133 174 216 281 347 401
#     4  12  20  37  68  98 133 173 218 277 342 389
#     4  12  25  44  69  93 134 187 229 274 340 414
#     4  11  22  40  67 102 136 168 228 286 335 409
#     4  11  24  40  69 100 131 179 229 279 338 403
#     4  11  23  39  67  97 137 175 213 291 346 385
#
# _framework density 20.945471000000001
#
# number of rings (size 3 to 8) (size 9 to 14) (size 15 to 20)
#    0.000    0.500    7.500    1.500    0.000    1.000 
#    0.000    2.500    0.000    0.000    0.000    0.000 
#    0.000    0.000    0.000    0.000    0.000    0.000 
#
# Total GULP energy -396628.350167 kJ/mol
# GULP energy per Si atom -12394.635943 kJ/mol
# Density = 2.089780 g / cm^3
# Si number density = 20.945471 Si / 1000 Ang^3
#
#
#
# Elastic Constant Matrix: (Units=GPa)
#
#
# Indices 1 2 3 4 5 6 
#
# 1 184.4333 34.6325 51.2792 0.0000 -1.9109 0.0000
# 2 34.6325 91.9013 22.3560 0.0000 -7.0843 0.0000
# 3 51.2792 22.3560 109.0291 0.0000 -3.3943 0.0000
# 4 0.0000 0.0000 0.0000 19.5088 0.0000 -1.7580
# 5 -1.9109 -7.0843 -3.3943 0.0000 32.7515 0.0000
# 6 0.0000 0.0000 0.0000 -1.7580 0.0000 32.6269
#
#
#
# Elastic Compliance Matrix: (Units=1/GPa)
#
#
# Indices 1 2 3 4 5 6 
#
# 1 0.006511 -0.001820 -0.002698 0.000000 -0.000293 0.000000
# 2 -0.001820 0.012127 -0.001557 0.000000 0.002356 0.000000
# 3 -0.002698 -0.001557 0.010780 0.000000 0.000623 0.000000
# 4 0.000000 0.000000 0.000000 0.051509 0.000000 0.002775
# 5 -0.000293 0.002356 0.000623 0.000000 0.031090 0.000000
# 6 0.000000 0.000000 0.000000 0.002775 0.000000 0.030799
#
#
# Mechanical properties :
#
#
# Convention : Reuss Voigt Hill
#
# Bulk Modulus (GPa) = 57.91390 66.87768 62.39579
# Shear Modulus (GPa) = 31.10945 35.45050 33.27997
#
# Velocity S-wave (km/s) = 3.85809 4.11848 3.99041
# Velocity P-wave (km/s) = 6.89611 7.39017 7.14741
#
# Compressibility (1/GPa) = 0.01726701
#
# Stress axis : x y z
#
# Youngs Moduli (GPa) = 153.58840 82.45734 92.76736
#
# Poissons Ratio (x) = 0.15006 0.25031
# Poissons Ratio (y) = 0.27951 0.14448
# Poissons Ratio (z) = 0.41442 0.12842
#
# Static dielectric constant tensor:
#      x y z
#    x 5.390480 0.000000 1.074090 
#    y 0.000000 3.712490 0.000000 
#    z 1.074090 0.000000 4.746290 
# 
# 
# High freq. dielectric constant tensor:
#      x y z
#    x 1.834680 0.000000 -0.008800 
#    y 0.000000 1.832730 0.000000 
#    z -0.008800 0.000000 1.785130 
# 
# From -- ./inp_files/70721.got.cif
#   From: 2010.03.12/outbox.cif.g09.slc.cpg/sg14_36_cif.got.tgz:70721.got - 2010.03.31 13:35:05.
