data_PCOD8128830
_publ_section_title
;
Structure prediction by ZEFSAII (Michael W. Deem and Ramdas Pophale) SiO2 
 PCOD8128830
Probable space group: P 21/C
;
_chemical_formula_sum "Si O2"
_cell_formula_units_Z 16
_cell_length_a 16.344236
_cell_length_b 7.104677
_cell_length_c 13.392711
_cell_angle_alpha 90.000000
_cell_angle_beta 23.696514
_cell_angle_gamma 90.000000
_cell_volume 625.009893
_symmetry_space_group_name_H-M "P 21/C"
_symmetry_group_IT_number 14
_symmetry_cell_setting 'monoclinic'
loop_
_space_group_symop_operation_xyz
x,y,z
-x,1/2+y,1/2-z
-x,-y,-z
x,1/2-y,1/2+z
loop_
_atom_site_type_symbol
_atom_site_label
_atom_site_fract_x
_atom_site_fract_y
_atom_site_fract_z
Si Si1 0.420087 0.860124 0.370473
Si Si2 0.249536 0.245821 0.134836
Si Si3 0.920087 0.360123 0.370473
Si Si4 0.749536 0.754176 0.634836
O O1 0.250000 0.749999 0.500000
O O2 0.519697 0.733450 0.348453
O O3 0.337339 0.046186 0.515132
O O4 0.607604 0.903598 0.083720
O O5 0.250000 0.196860 0.250000
O O6 0.019697 0.233446 0.348452
O O7 0.837341 0.546184 0.515133
O O8 0.107605 0.403595 0.083719
#
# Coordination Sequence:
#
# PCOD8128830 Si02
#       4
#     4   4   4   4
#     4  11  23  40  68  98 125 165 221 258 309 388
#     4  11  24  44  68  92 129 173 208 261 321 373
#     4  11  23  40  68  98 125 165 221 258 309 388
#     4  11  24  44  68  92 129 173 208 261 321 373
#
# _framework density 25.599595999999998
#
# number of rings (size 3 to 8) (size 9 to 14) (size 15 to 20)
#    0.000    1.000    5.000    1.500    0.000    0.000 
#    0.000   12.500    0.000    0.000    0.000    0.000 
#    0.000    0.000    0.000    0.000    0.000    0.000 
#
# Total GULP energy -198251.993912 kJ/mol
# GULP energy per Si atom -12390.749619 kJ/mol
# Density = 2.554133 g / cm^3
# Si number density = 25.599596 Si / 1000 Ang^3
#
#
#
# Elastic Constant Matrix: (Units=GPa)
#
#
# Indices 1 2 3 4 5 6 
#
# 1 244.4284 -7.2873 51.5406 0.0000 -7.6270 0.0000
# 2 -7.2873 32.7762 -1.5951 0.0000 -8.6402 0.0000
# 3 51.5406 -1.5951 66.3812 0.0000 -28.5118 0.0000
# 4 0.0000 0.0000 0.0000 48.5280 0.0000 8.2440
# 5 -7.6270 -8.6402 -28.5118 0.0000 67.0654 0.0000
# 6 0.0000 0.0000 0.0000 8.2440 0.0000 26.5115
#
#
#
# Elastic Compliance Matrix: (Units=1/GPa)
#
#
# Indices 1 2 3 4 5 6 
#
# 1 0.004996 0.000574 -0.004391 0.000000 -0.001225 0.000000
# 2 0.000574 0.032167 0.002612 0.000000 0.005320 0.000000
# 3 -0.004391 0.002612 0.022592 0.000000 0.009442 0.000000
# 4 0.000000 0.000000 0.000000 0.021756 0.000000 -0.006765
# 5 -0.001225 0.005320 0.009442 0.000000 0.019471 0.000000
# 6 0.000000 0.000000 0.000000 -0.006765 0.000000 0.039823
#
#
# Mechanical properties :
#
#
# Convention : Reuss Voigt Hill
#
# Bulk Modulus (GPa) = 17.43816 47.65580 32.54698
# Shear Modulus (GPa) = 30.80131 48.48282 39.64207
#
# Velocity S-wave (km/s) = 3.47247 4.35661 3.93942
# Velocity P-wave (km/s) = 4.78582 6.63046 5.78217
#
# Compressibility (1/GPa) = 0.05734551
#
# Stress axis : x y z
#
# Youngs Moduli (GPa) = 200.15803 31.08764 44.26282
#
# Poissons Ratio (x) = -0.01785 0.19437
# Poissons Ratio (y) = -0.11493 -0.11562
# Poissons Ratio (z) = 0.87897 -0.08121
#
# Static dielectric constant tensor:
#      x y z
#    x 5.068420 0.000000 -0.575360 
#    y 0.000000 4.736070 0.000000 
#    z -0.575360 0.000000 5.070540 
# 
# 
# High freq. dielectric constant tensor:
#      x y z
#    x 2.045130 0.000000 -0.034240 
#    y 0.000000 2.015850 0.000000 
#    z -0.034240 0.000000 2.015020 
# 
# From -- ./inp_files/27655.got.cif
#   From: 2010.03.12/outbox.cif.g09.slc.cpg/sg14_14_cif.got.tgz:27655.got - 2010.03.31 13:35:05.
