data_PCOD8128671
_publ_section_title
;
Structure prediction by ZEFSAII (Michael W. Deem and Ramdas Pophale) SiO2 
 PCOD8128671
Probable space group: P 21/C
;
_chemical_formula_sum "Si O2"
_cell_formula_units_Z 32
_cell_length_a 6.567515
_cell_length_b 25.478019
_cell_length_c 12.851539
_cell_angle_alpha 90.000000
_cell_angle_beta 46.658349
_cell_angle_gamma 90.000000
_cell_volume 1563.939461
_symmetry_space_group_name_H-M "P 21/C"
_symmetry_group_IT_number 14
_symmetry_cell_setting 'monoclinic'
loop_
_space_group_symop_operation_xyz
x,y,z
-x,1/2+y,1/2-z
-x,-y,-z
x,1/2-y,1/2+z
loop_
_atom_site_type_symbol
_atom_site_label
_atom_site_fract_x
_atom_site_fract_y
_atom_site_fract_z
Si Si1 0.153236 0.383938 0.543672
Si Si2 0.875114 0.633282 0.862611
Si Si3 0.172323 0.006340 0.129118
Si Si4 0.149605 0.967415 0.360022
Si Si5 0.668444 0.725918 0.060716
Si Si6 0.356637 0.818047 0.062538
Si Si7 0.266038 0.074571 0.786101
Si Si8 0.207594 0.707102 0.383645
O O1 0.055620 0.439081 0.625002
O O2 0.436050 0.367500 0.503276
O O3 0.220920 0.385747 0.397012
O O4 0.915507 0.340151 0.643943
O O5 0.688562 0.606371 0.837355
O O6 0.019480 0.590025 0.886028
O O7 0.100073 0.671503 0.729931
O O8 0.676901 0.668562 0.005045
O O9 0.110756 0.003283 0.272454
O O10 0.013355 0.960340 0.123979
O O11 0.500000 0.000000 0.000000
O O12 0.470633 0.962195 0.282179
O O13 0.000000 0.000000 0.500000
O O14 0.507721 0.764224 0.039054
O O15 0.498497 0.724943 0.229072
O O16 0.984624 0.745483 0.970446
O O17 0.258717 0.814859 0.979545
#
# Coordination Sequence:
#
# PCOD8128671 Si02
#       8
#     4   4   4   4   4   4   4   4
#     4  11  22  38  66  98 127 171 222 273 332 393
#     4  11  23  44  68  95 133 180 225 277 341 408
#     4  11  23  39  67  98 128 172 227 273 329 403
#     4  11  26  43  64  98 137 181 225 279 340 406
#     4  11  26  44  66 101 134 173 224 278 338 399
#     4  11  23  42  67  95 130 173 226 270 335 404
#     4  11  22  41  69  92 132 181 214 279 340 389
#     4  11  26  41  69  98 133 172 222 279 332 401
#
# _framework density 20.46115
#
# number of rings (size 3 to 8) (size 9 to 14) (size 15 to 20)
#    0.000    1.000    5.000    1.125    1.750    6.000 
#    0.000    0.000    0.000    0.000    0.000    0.000 
#    0.000    0.000    0.000    0.000    0.000    0.000 
#
# Total GULP energy -396901.841344 kJ/mol
# GULP energy per Si atom -12403.182542 kJ/mol
# Density = 2.041458 g / cm^3
# Si number density = 20.461150 Si / 1000 Ang^3
#
#
#
# Elastic Constant Matrix: (Units=GPa)
#
#
# Indices 1 2 3 4 5 6 
#
# 1 105.7136 35.9487 32.7145 0.0000 6.5100 0.0000
# 2 35.9487 94.5041 45.5345 0.0000 5.6607 0.0000
# 3 32.7145 45.5345 115.0819 0.0000 1.5401 0.0000
# 4 0.0000 0.0000 0.0000 41.8843 0.0000 6.6746
# 5 6.5100 5.6607 1.5401 0.0000 25.3496 0.0000
# 6 0.0000 0.0000 0.0000 6.6746 0.0000 30.2312
#
#
#
# Elastic Compliance Matrix: (Units=1/GPa)
#
#
# Indices 1 2 3 4 5 6 
#
# 1 0.011278 -0.003256 -0.001890 0.000000 -0.002054 0.000000
# 2 -0.003256 0.014189 -0.004661 0.000000 -0.002049 0.000000
# 3 -0.001890 -0.004661 0.011060 0.000000 0.000854 0.000000
# 4 0.000000 0.000000 0.000000 0.024746 0.000000 -0.005464
# 5 -0.002054 -0.002049 0.000854 0.000000 0.040382 0.000000
# 6 0.000000 0.000000 0.000000 -0.005464 0.000000 0.034285
#
#
# Mechanical properties :
#
#
# Convention : Reuss Voigt Hill
#
# Bulk Modulus (GPa) = 59.13095 60.41054 59.77075
# Shear Modulus (GPa) = 31.01909 32.89983 31.95946
#
# Velocity S-wave (km/s) = 3.89781 4.01423 3.95645
# Velocity P-wave (km/s) = 7.01563 7.14661 7.08142
#
# Compressibility (1/GPa) = 0.01691162
#
# Stress axis : x y z
#
# Youngs Moduli (GPa) = 88.66554 70.47829 90.41972
#
# Poissons Ratio (x) = 0.22951 0.17091
# Poissons Ratio (y) = 0.28873 0.42144
# Poissons Ratio (z) = 0.16759 0.32849
#
# Static dielectric constant tensor:
#      x y z
#    x 4.547890 0.000000 -0.036140 
#    y 0.000000 8.604120 0.000000 
#    z -0.036140 0.000000 3.597570 
# 
# 
# High freq. dielectric constant tensor:
#      x y z
#    x 1.812080 0.000000 0.003250 
#    y 0.000000 1.807750 0.000000 
#    z 0.003250 0.000000 1.788540 
# 
# From -- ./inp_files/22361.got.cif
#   From: 2010.03.12/outbox.cif.g09.slc.cpg/sg14_12_cif.got.tgz:22361.got - 2010.03.31 13:35:05.
