data_PCOD8128542
_publ_section_title
;
Structure prediction by ZEFSAII (Michael W. Deem and Ramdas Pophale) SiO2 
 PCOD8128542
Probable space group: P 21/C
;
_chemical_formula_sum "Si O2"
_cell_formula_units_Z 16
_cell_length_a 13.570561
_cell_length_b 8.516673
_cell_length_c 12.522700
_cell_angle_alpha 90.000000
_cell_angle_beta 30.423652
_cell_angle_gamma 90.000000
_cell_volume 732.910047
_symmetry_space_group_name_H-M "P 21/C"
_symmetry_group_IT_number 14
_symmetry_cell_setting 'monoclinic'
loop_
_space_group_symop_operation_xyz
x,y,z
-x,1/2+y,1/2-z
-x,-y,-z
x,1/2-y,1/2+z
loop_
_atom_site_type_symbol
_atom_site_label
_atom_site_fract_x
_atom_site_fract_y
_atom_site_fract_z
Si Si1 0.760080 0.012973 0.135545
Si Si2 0.732224 0.332872 0.249327
Si Si3 0.622352 0.544310 0.535873
Si Si4 0.891789 0.784004 0.177699
O O1 0.768794 0.850281 0.192084
O O2 0.669474 0.148749 0.297010
O O3 0.625815 0.990157 0.157905
O O4 0.979413 0.070760 0.894055
O O5 0.706177 0.393872 0.394124
O O6 0.600970 0.434426 0.290578
O O7 0.958684 0.349936 0.004204
O O8 0.746738 0.702574 0.396463
#
# Coordination Sequence:
#
# PCOD8128542 Si02
#       4
#     4   4   4   4
#     4   9  22  40  57  90 117 150 200 240 285 353
#     4   9  22  40  55  91 118 142 209 239 274 369
#     4  11  21  38  64  83 116 166 180 242 311 321
#     4   9  21  41  56  87 119 146 202 243 279 358
#
# _framework density 21.830781000000002
#
# number of rings (size 3 to 8) (size 9 to 14) (size 15 to 20)
#    1.500    1.000    0.000    0.750    3.500    5.000 
#    4.500    0.000    0.000    0.000    0.000    0.000 
#    0.000    0.000    0.000    0.000    0.000    0.000 
#
# Total GULP energy -198235.380425 kJ/mol
# GULP energy per Si atom -12389.711277 kJ/mol
# Density = 2.178109 g / cm^3
# Si number density = 21.830781 Si / 1000 Ang^3
#
#
#
# Elastic Constant Matrix: (Units=GPa)
#
#
# Indices 1 2 3 4 5 6 
#
# 1 108.7886 25.7542 -1.3250 0.0000 9.0080 0.0000
# 2 25.7542 83.9284 16.0720 0.0000 11.6042 0.0000
# 3 -1.3250 16.0720 22.0430 0.0000 1.5183 0.0000
# 4 0.0000 0.0000 0.0000 17.0493 0.0000 -0.5431
# 5 9.0080 11.6042 1.5183 0.0000 13.4561 0.0000
# 6 0.0000 0.0000 0.0000 -0.5431 0.0000 32.9589
#
#
#
# Elastic Compliance Matrix: (Units=1/GPa)
#
#
# Indices 1 2 3 4 5 6 
#
# 1 0.010360 -0.003170 0.003248 0.000000 -0.004569 0.000000
# 2 -0.003170 0.016605 -0.011547 0.000000 -0.010895 0.000000
# 3 0.003248 -0.011547 0.053863 0.000000 0.001706 0.000000
# 4 0.000000 0.000000 0.000000 0.058684 0.000000 0.000967
# 5 -0.004569 -0.010895 0.001706 0.000000 0.086577 0.000000
# 6 0.000000 0.000000 0.000000 0.000967 0.000000 0.030357
#
#
# Mechanical properties :
#
#
# Convention : Reuss Voigt Hill
#
# Bulk Modulus (GPa) = 17.27363 32.86249 25.06806
# Shear Modulus (GPa) = 16.74028 24.31012 20.52520
#
# Velocity S-wave (km/s) = 2.77216 3.34064 3.06959
# Velocity P-wave (km/s) = 4.26335 5.47410 4.90622
#
# Compressibility (1/GPa) = 0.05789172
#
# Stress axis : x y z
#
# Youngs Moduli (GPa) = 96.52185 60.22220 18.56567
#
# Poissons Ratio (x) = 0.19088 -0.06031
# Poissons Ratio (y) = 0.30593 0.21438
# Poissons Ratio (z) = -0.31354 0.69540
#
# Static dielectric constant tensor:
#      x y z
#    x 3.715850 0.000000 -0.284730 
#    y 0.000000 3.831250 0.000000 
#    z -0.284730 0.000000 3.550540 
# 
# 
# High freq. dielectric constant tensor:
#      x y z
#    x 1.849580 0.000000 -0.025420 
#    y 0.000000 1.857690 0.000000 
#    z -0.025420 0.000000 1.826280 
# 
# From -- ./inp_files/22732.got.cif
#   From: 2010.03.12/outbox.cif.g09.slc.cpg/sg14_12_cif.got.tgz:22732.got - 2010.03.31 13:35:05.
