data_PCOD8128421
_publ_section_title
;
Structure prediction by ZEFSAII (Michael W. Deem and Ramdas Pophale) SiO2 
 PCOD8128421
Probable space group: P 21/C
;
_chemical_formula_sum "Si O2"
_cell_formula_units_Z 20
_cell_length_a 9.248162
_cell_length_b 10.967083
_cell_length_c 9.172190
_cell_angle_alpha 90.000000
_cell_angle_beta 50.061253
_cell_angle_gamma 90.000000
_cell_volume 713.284408
_symmetry_space_group_name_H-M "P 21/C"
_symmetry_group_IT_number 14
_symmetry_cell_setting 'monoclinic'
loop_
_space_group_symop_operation_xyz
x,y,z
-x,1/2+y,1/2-z
-x,-y,-z
x,1/2-y,1/2+z
loop_
_atom_site_type_symbol
_atom_site_label
_atom_site_fract_x
_atom_site_fract_y
_atom_site_fract_z
Si Si1 0.743417 0.241332 0.262373
Si Si2 0.382088 0.111044 0.504130
Si Si3 0.668586 0.511580 0.275930
Si Si4 0.217598 0.990291 0.883648
Si Si5 0.879462 0.677036 0.330142
O O1 0.532352 0.214996 0.458338
O O2 0.777161 0.381436 0.201275
O O3 0.900508 0.182386 0.270408
O O4 0.753387 0.155972 0.106072
O O5 0.423280 0.044409 0.321259
O O6 0.185352 0.183211 0.622023
O O7 0.649782 0.989694 0.347370
O O8 0.500000 0.500000 0.500000
O O9 0.832134 0.613370 0.205056
O O10 0.258189 0.090465 0.980060
O O11 0.000000 0.000000 0.000000
#
# Coordination Sequence:
#
# PCOD8128421 Si02
#       5
#     4   4   4   4   4
#     4  11  27  48  82 110 165 209 263 330 413 467
#     4  12  26  51  80 115 160 215 264 331 408 477
#     4  12  27  52  81 120 160 208 277 334 397 486
#     4  10  25  51  74 113 161 206 262 327 399 480
#     4  11  26  51  79 117 161 207 270 334 399 487
#
# _framework density 28.039304999999999
#
# number of rings (size 3 to 8) (size 9 to 14) (size 15 to 20)
#    0.000    0.800    2.000    3.000    5.600    4.000 
#   14.400    0.000    0.000    0.000    0.000    0.000 
#    0.000    0.000    0.000    0.000    0.000    0.000 
#
# Total GULP energy -247773.597150 kJ/mol
# GULP energy per Si atom -12388.679857 kJ/mol
# Density = 2.797549 g / cm^3
# Si number density = 28.039305 Si / 1000 Ang^3
#
#
#
# Elastic Constant Matrix: (Units=GPa)
#
#
# Indices 1 2 3 4 5 6 
#
# 1 186.2622 59.0429 43.8133 0.0000 -3.7248 0.0000
# 2 59.0429 166.2649 6.3301 0.0000 10.8435 0.0000
# 3 43.8133 6.3301 103.1097 0.0000 -0.9317 0.0000
# 4 0.0000 0.0000 0.0000 34.6752 0.0000 -4.6209
# 5 -3.7248 10.8435 -0.9317 0.0000 44.1110 0.0000
# 6 0.0000 0.0000 0.0000 -4.6209 0.0000 51.9984
#
#
#
# Elastic Compliance Matrix: (Units=1/GPa)
#
#
# Indices 1 2 3 4 5 6 
#
# 1 0.006786 -0.002378 -0.002728 0.000000 0.001100 0.000000
# 2 -0.002378 0.006961 0.000566 0.000000 -0.001900 0.000000
# 3 -0.002728 0.000566 0.010821 0.000000 -0.000141 0.000000
# 4 0.000000 0.000000 0.000000 0.029185 0.000000 0.002594
# 5 0.001100 -0.001900 -0.000141 0.000000 0.023227 0.000000
# 6 0.000000 0.000000 0.000000 0.002594 0.000000 0.019462
#
#
# Mechanical properties :
#
#
# Convention : Reuss Voigt Hill
#
# Bulk Modulus (GPa) = 64.55919 74.88994 69.72456
# Shear Modulus (GPa) = 45.17342 49.25363 47.21353
#
# Velocity S-wave (km/s) = 4.01817 4.19572 4.10791
# Velocity P-wave (km/s) = 6.67848 7.08795 6.88626
#
# Compressibility (1/GPa) = 0.01548966
#
# Stress axis : x y z
#
# Youngs Moduli (GPa) = 147.36043 143.65277 92.40927
#
# Poissons Ratio (x) = 0.34157 0.25206
# Poissons Ratio (y) = 0.35038 -0.05229
# Poissons Ratio (z) = 0.40194 -0.08128
#
# Static dielectric constant tensor:
#      x y z
#    x 5.643620 0.000000 -0.046620 
#    y 0.000000 5.636250 0.000000 
#    z -0.046620 0.000000 5.799280 
# 
# 
# High freq. dielectric constant tensor:
#      x y z
#    x 2.158810 0.000000 -0.035970 
#    y 0.000000 2.157960 0.000000 
#    z -0.035970 0.000000 2.115780 
# 
# From -- ./inp_files/28890.got.cif
#   From: 2010.03.12/outbox.cif.g09.slc.cpg/sg14_15_cif.got.tgz:28890.got - 2010.03.31 13:35:05.
