data_PCOD8128346
_publ_section_title
;
Structure prediction by ZEFSAII (Michael W. Deem and Ramdas Pophale) SiO2 
 PCOD8128346
Probable space group: P 21/C
;
_chemical_formula_sum "Si O2"
_cell_formula_units_Z 20
_cell_length_a 8.262856
_cell_length_b 10.696035
_cell_length_c 10.858636
_cell_angle_alpha 90.000000
_cell_angle_beta 56.940793
_cell_angle_gamma 90.000000
_cell_volume 804.318217
_symmetry_space_group_name_H-M "P 21/C"
_symmetry_group_IT_number 14
_symmetry_cell_setting 'monoclinic'
loop_
_space_group_symop_operation_xyz
x,y,z
-x,1/2+y,1/2-z
-x,-y,-z
x,1/2-y,1/2+z
loop_
_atom_site_type_symbol
_atom_site_label
_atom_site_fract_x
_atom_site_fract_y
_atom_site_fract_z
Si Si1 0.054879 0.184836 0.288679
Si Si2 0.593543 0.958989 0.147186
Si Si3 0.113181 0.043114 0.759217
Si Si4 0.294953 0.924819 0.472381
Si Si5 0.476125 0.313093 0.554140
O O1 0.990998 0.328972 0.286069
O O2 0.283106 0.190948 0.219473
O O3 0.017676 0.083959 0.191903
O O4 0.924180 0.132535 0.457509
O O5 0.392485 0.970606 0.307039
O O6 0.783025 0.950159 0.151852
O O7 0.615030 0.080558 0.052432
O O8 0.576509 0.838061 0.066758
O O9 0.276915 0.034836 0.582665
O O10 0.420248 0.817938 0.484767
#
# Coordination Sequence:
#
# PCOD8128346 Si02
#       5
#     4   4   4   4   4
#     4  10  25  46  73 111 143 188 258 293 371 437
#     4  11  25  46  75 103 155 192 243 307 375 436
#     4  10  24  48  75 108 144 198 243 309 360 447
#     4  10  25  46  77 103 147 196 247 299 373 437
#     4  11  26  45  71 114 144 191 249 309 366 440
#
# _framework density 24.865780000000001
#
# number of rings (size 3 to 8) (size 9 to 14) (size 15 to 20)
#    1.200    0.400    2.000    0.600    8.400    1.600 
#    3.600    0.000    0.000    0.000    0.000    0.000 
#    0.000    0.000    0.000    0.000    0.000    0.000 
#
# Total GULP energy -247773.064323 kJ/mol
# GULP energy per Si atom -12388.653216 kJ/mol
# Density = 2.480918 g / cm^3
# Si number density = 24.865780 Si / 1000 Ang^3
#
#
#
# Elastic Constant Matrix: (Units=GPa)
#
#
# Indices 1 2 3 4 5 6 
#
# 1 26.2834 14.8696 6.1498 0.0000 10.0909 0.0000
# 2 14.8696 125.4992 13.5858 0.0000 19.1498 0.0000
# 3 6.1498 13.5858 48.5476 0.0000 11.8117 0.0000
# 4 0.0000 0.0000 0.0000 34.8359 0.0000 -17.0073
# 5 10.0909 19.1498 11.8117 0.0000 30.3132 0.0000
# 6 0.0000 0.0000 0.0000 -17.0073 0.0000 32.6569
#
#
#
# Elastic Compliance Matrix: (Units=1/GPa)
#
#
# Indices 1 2 3 4 5 6 
#
# 1 0.045011 -0.003274 -0.001815 0.000000 -0.012208 0.000000
# 2 -0.003274 0.009123 -0.001106 0.000000 -0.004243 0.000000
# 3 -0.001815 -0.001106 0.023001 0.000000 -0.007660 0.000000
# 4 0.000000 0.000000 0.000000 0.038493 0.000000 0.020047
# 5 -0.012208 -0.004243 -0.007660 0.000000 0.042718 0.000000
# 6 0.000000 0.000000 0.000000 0.020047 0.000000 0.041062
#
#
# Mechanical properties :
#
#
# Convention : Reuss Voigt Hill
#
# Bulk Modulus (GPa) = 15.44523 29.94895 22.69709
# Shear Modulus (GPa) = 21.42433 30.60953 26.01693
#
# Velocity S-wave (km/s) = 2.93849 3.51235 3.23816
# Velocity P-wave (km/s) = 4.21163 5.34034 4.80921
#
# Compressibility (1/GPa) = 0.06474489
#
# Stress axis : x y z
#
# Youngs Moduli (GPa) = 22.21698 109.61097 43.47558
#
# Poissons Ratio (x) = 0.35883 0.07892
# Poissons Ratio (y) = 0.07273 0.04809
# Poissons Ratio (z) = 0.04033 0.12125
#
# Static dielectric constant tensor:
#      x y z
#    x 4.029380 0.000000 -0.366030 
#    y 0.000000 4.644940 0.000000 
#    z -0.366030 0.000000 4.511670 
# 
# 
# High freq. dielectric constant tensor:
#      x y z
#    x 1.966740 0.000000 -0.027170 
#    y 0.000000 2.004530 0.000000 
#    z -0.027170 0.000000 1.982900 
# 
# From -- ./inp_files/23734.got.cif
#   From: 2010.03.12/outbox.cif.g09.slc.cpg/sg14_12_cif.got.tgz:23734.got - 2010.03.31 13:35:05.
