data_PCOD8128597
_publ_section_title
;
Structure prediction by ZEFSAII (Michael W. Deem and Ramdas Pophale) SiO2 
 PCOD8128597
Probable space group: P 21/C
;
_chemical_formula_sum "Si O2"
_cell_formula_units_Z 24
_cell_length_a 8.270553
_cell_length_b 9.803839
_cell_length_c 14.561737
_cell_angle_alpha 90.000000
_cell_angle_beta 94.717647
_cell_angle_gamma 90.000000
_cell_volume 1176.711667
_symmetry_space_group_name_H-M "P 21/C"
_symmetry_group_IT_number 14
_symmetry_cell_setting 'monoclinic'
loop_
_space_group_symop_operation_xyz
x,y,z
-x,1/2+y,1/2-z
-x,-y,-z
x,1/2-y,1/2+z
loop_
_atom_site_type_symbol
_atom_site_label
_atom_site_fract_x
_atom_site_fract_y
_atom_site_fract_z
Si Si1 0.383295 0.229508 0.799782
Si Si2 0.803434 0.008563 0.286916
Si Si3 0.174872 0.478729 0.844864
Si Si4 0.336972 0.753313 0.822025
Si Si5 0.337763 0.426322 0.029082
Si Si6 0.493638 0.663913 0.502937
O O1 0.247723 0.344956 0.802188
O O2 0.483587 0.263927 0.713157
O O3 0.511178 0.212758 0.890852
O O4 0.275765 0.093336 0.790187
O O5 0.787131 0.157798 0.243013
O O6 0.702073 0.989854 0.374941
O O7 0.992249 0.984814 0.310700
O O8 0.284334 0.598846 0.810646
O O9 0.188587 0.463301 0.955404
O O10 0.340466 0.797547 0.930434
O O11 0.500000 0.500000 0.000000
O O12 0.360739 0.260004 0.032822
O O13 0.500000 0.500000 0.500000
#
# Coordination Sequence:
#
# PCOD8128597 Si02
#       6
#     4   4   4   4   4   4
#     4  11  23  41  66  91 126 168 219 262 310 391
#     4  12  23  41  63  94 131 167 207 273 329 368
#     4  11  25  40  62  95 129 165 212 272 326 370
#     4  12  23  41  67  90 125 172 216 261 310 389
#     4  11  21  42  65  91 121 169 223 260 307 390
#     4  11  22  38  64  96 119 159 222 265 299 368
#
# _framework density 20.395820000000001
#
# number of rings (size 3 to 8) (size 9 to 14) (size 15 to 20)
#    0.000    0.667    5.000    4.500    0.000    0.000 
#    0.000    0.000    0.000    3.000    0.000    0.000 
#    0.000    0.000    0.000    0.000    0.000    0.000 
#
# Total GULP energy -297347.496790 kJ/mol
# GULP energy per Si atom -12389.479033 kJ/mol
# Density = 2.034940 g / cm^3
# Si number density = 20.395820 Si / 1000 Ang^3
#
#
#
# Elastic Constant Matrix: (Units=GPa)
#
#
# Indices 1 2 3 4 5 6 
#
# 1 82.3318 14.6672 43.1679 0.0000 5.3607 0.0000
# 2 14.6672 107.7235 37.1750 0.0000 -7.2319 0.0000
# 3 43.1679 37.1750 121.1831 0.0000 9.5356 0.0000
# 4 0.0000 0.0000 0.0000 31.5032 0.0000 7.6170
# 5 5.3607 -7.2319 9.5356 0.0000 26.9020 0.0000
# 6 0.0000 0.0000 0.0000 7.6170 0.0000 26.2716
#
#
#
# Elastic Compliance Matrix: (Units=1/GPa)
#
#
# Indices 1 2 3 4 5 6 
#
# 1 0.014980 -0.000355 -0.005128 0.000000 -0.001263 0.000000
# 2 -0.000355 0.010834 -0.003530 0.000000 0.004234 0.000000
# 3 -0.005128 -0.003530 0.011476 0.000000 -0.003995 0.000000
# 4 0.000000 0.000000 0.000000 0.034136 0.000000 -0.009897
# 5 -0.001263 0.004234 -0.003995 0.000000 0.039978 0.000000
# 6 0.000000 0.000000 0.000000 -0.009897 0.000000 0.040933
#
#
# Mechanical properties :
#
#
# Convention : Reuss Voigt Hill
#
# Bulk Modulus (GPa) = 51.91070 55.69540 53.80305
# Shear Modulus (GPa) = 28.28299 31.35057 29.81678
#
# Velocity S-wave (km/s) = 3.72789 3.92485 3.82764
# Velocity P-wave (km/s) = 6.63600 6.92140 6.78020
#
# Compressibility (1/GPa) = 0.01926385
#
# Stress axis : x y z
#
# Youngs Moduli (GPa) = 66.75521 92.30283 87.13812
#
# Poissons Ratio (x) = 0.03274 0.44685
# Poissons Ratio (y) = 0.02368 0.30763
# Poissons Ratio (z) = 0.34232 0.32586
#
# Static dielectric constant tensor:
#      x y z
#    x 3.350950 0.000000 0.226740 
#    y 0.000000 4.004830 0.000000 
#    z 0.226740 0.000000 4.119070 
# 
# 
# High freq. dielectric constant tensor:
#      x y z
#    x 1.757100 0.000000 0.019490 
#    y 0.000000 1.818100 0.000000 
#    z 0.019490 0.000000 1.818230 
# 
# From -- ./inp_files/39065.got.cif
#   From: 2010.03.12/outbox.cif.g09.slc.cpg/sg14_20_cif.got.tgz:39065.got - 2010.03.31 13:35:05.
