data_PCOD8128460
_publ_section_title
;
Structure prediction by ZEFSAII (Michael W. Deem and Ramdas Pophale) SiO2 
 PCOD8128460
Probable space group: P 21/C
;
_chemical_formula_sum "Si O2"
_cell_formula_units_Z 32
_cell_length_a 16.300589
_cell_length_b 11.427218
_cell_length_c 14.764590
_cell_angle_alpha 90.000000
_cell_angle_beta 146.838469
_cell_angle_gamma 90.000000
_cell_volume 1504.366141
_symmetry_space_group_name_H-M "P 21/C"
_symmetry_group_IT_number 14
_symmetry_cell_setting 'monoclinic'
loop_
_space_group_symop_operation_xyz
x,y,z
-x,1/2+y,1/2-z
-x,-y,-z
x,1/2-y,1/2+z
loop_
_atom_site_type_symbol
_atom_site_label
_atom_site_fract_x
_atom_site_fract_y
_atom_site_fract_z
Si Si1 0.886283 0.684249 0.461554
Si Si2 0.836065 0.797806 0.715722
Si Si3 0.107908 0.949339 0.927984
Si Si4 0.072047 0.451438 0.209484
Si Si5 0.685993 0.849689 0.397751
Si Si6 0.254568 0.598545 0.118699
Si Si7 0.802375 0.318842 0.753048
Si Si8 0.652666 0.288899 0.429197
O O1 0.791533 0.685682 0.280051
O O2 0.882213 0.548821 0.487075
O O3 0.807830 0.765261 0.463964
O O4 0.056590 0.730575 0.606556
O O5 0.820059 0.660306 0.678707
O O6 0.732346 0.866177 0.546873
O O7 0.008676 0.840858 0.869756
O O8 0.024211 0.000780 0.763157
O O9 0.271747 0.902082 0.049256
O O10 0.149414 0.548349 0.220616
O O11 0.921364 0.411427 0.021812
O O12 0.524453 0.791680 0.244976
O O13 0.675249 0.970587 0.332134
O O14 0.303990 0.670051 0.255287
O O15 0.289829 0.670682 0.062345
O O16 0.696754 0.275522 0.574621
#
# Coordination Sequence:
#
# PCOD8128460 Si02
#       8
#     4   4   4   4   4   4   4   4
#     4  12  23  40  67  98 126 159 216 270 317 372
#     4  12  23  40  66  96 125 164 210 271 321 368
#     4  11  22  40  62  93 129 162 207 261 320 374
#     4  11  19  38  67  96 124 154 212 274 310 363
#     4  12  27  42  63  96 130 174 211 256 321 380
#     4  12  22  43  70  92 128 164 218 266 310 379
#     4  11  23  41  72  99 118 167 220 267 315 366
#     4  11  27  43  62  93 134 173 207 255 321 386
#
# _framework density 21.271419000000002
#
# number of rings (size 3 to 8) (size 9 to 14) (size 15 to 20)
#    0.000    0.500    6.250    3.000    1.750    1.500 
#    0.000    0.625    0.000    0.000    0.000    0.000 
#    0.000    0.000    0.000    0.000    0.000    0.000 
#
# Total GULP energy -396765.253150 kJ/mol
# GULP energy per Si atom -12398.914161 kJ/mol
# Density = 2.122300 g / cm^3
# Si number density = 21.271419 Si / 1000 Ang^3
#
#
#
# Elastic Constant Matrix: (Units=GPa)
#
#
# Indices 1 2 3 4 5 6 
#
# 1 52.3499 21.6366 34.8138 0.0000 -35.8496 0.0000
# 2 21.6366 41.2839 20.4035 0.0000 -0.0888 0.0000
# 3 34.8138 20.4035 93.6473 0.0000 -23.3832 0.0000
# 4 0.0000 0.0000 0.0000 19.6170 0.0000 -14.6881
# 5 -35.8496 -0.0888 -23.3832 0.0000 30.0055 0.0000
# 6 0.0000 0.0000 0.0000 -14.6881 0.0000 20.3318
#
#
#
# Elastic Compliance Matrix: (Units=1/GPa)
#
#
# Indices 1 2 3 4 5 6 
#
# 1 -0.519940 0.285761 -0.029638 0.000000 -0.643458 0.000000
# 2 0.285761 -0.129124 0.008759 0.000000 0.347862 0.000000
# 3 -0.029638 0.008759 0.013599 0.000000 -0.024787 0.000000
# 4 0.000000 0.000000 0.000000 0.111038 0.000000 0.080216
# 5 -0.643458 0.347862 -0.024787 0.000000 -0.753742 0.000000
# 6 0.000000 0.000000 0.000000 0.080216 0.000000 0.107134
#
#
# Mechanical properties :
#
#
# Convention : Reuss Voigt Hill
#
# Bulk Modulus (GPa) = -9.46062 37.88768 14.21353
# Shear Modulus (GPa) = -2.88013 21.35267 9.23627
#
# Velocity S-wave (km/s) = -1.16487 3.17175 2.08603
# Velocity P-wave (km/s) = 2.50329 5.59138 3.53533
#
# Compressibility (1/GPa) = -0.10570130
#
# Stress axis : x y z
#
# Youngs Moduli (GPa) = -1.92330 -7.74451 73.53530
#
# Poissons Ratio (x) = 2.21308 2.17946
# Poissons Ratio (y) = 0.54960 -0.64410
# Poissons Ratio (z) = -0.05700 0.06783
#
# Static dielectric constant tensor:
#      x y z
#    x 3.869610 0.000000 -0.345840 
#    y 0.000000 3.890360 0.000000 
#    z -0.345840 0.000000 3.714410 
# 
# 
# High freq. dielectric constant tensor:
#      x y z
#    x 1.834080 0.000000 -0.031720 
#    y 0.000000 1.843650 0.000000 
#    z -0.031720 0.000000 1.814610 
# 
# From -- ./inp_files/49018.got.cif
#   From: 2010.03.12/outbox.cif.g09.slc.cpg/sg14_25_cif.got.tgz:49018.got - 2010.03.31 13:35:05.
