data_PCOD8128927
_publ_section_title
;
Structure prediction by ZEFSAII (Michael W. Deem and Ramdas Pophale) SiO2 
 PCOD8128927
Probable space group: P 21/C
;
_chemical_formula_sum "Si O2"
_cell_formula_units_Z 32
_cell_length_a 8.896050
_cell_length_b 11.598287
_cell_length_c 15.497855
_cell_angle_alpha 90.000000
_cell_angle_beta 71.116003
_cell_angle_gamma 90.000000
_cell_volume 1512.984549
_symmetry_space_group_name_H-M "P 21/C"
_symmetry_group_IT_number 14
_symmetry_cell_setting 'monoclinic'
loop_
_space_group_symop_operation_xyz
x,y,z
-x,1/2+y,1/2-z
-x,-y,-z
x,1/2-y,1/2+z
loop_
_atom_site_type_symbol
_atom_site_label
_atom_site_fract_x
_atom_site_fract_y
_atom_site_fract_z
Si Si1 0.019851 0.515167 0.096534
Si Si2 0.811389 0.832194 0.749265
Si Si3 0.690551 0.194146 0.095312
Si Si4 0.628140 0.450940 0.912059
Si Si5 0.919197 0.220803 0.700660
Si Si6 0.568121 0.639817 0.789925
Si Si7 0.458882 0.507046 0.651035
Si Si8 0.307637 0.796530 0.097254
O O1 0.199315 0.551543 0.078279
O O2 0.903430 0.616328 0.150078
O O3 0.982171 0.397822 0.151920
O O4 0.000000 0.500000 0.000000
O O5 0.718703 0.717718 0.734842
O O6 0.932612 0.802596 0.804079
O O7 0.689941 0.924167 0.809556
O O8 0.816736 0.211462 0.148101
O O9 0.549000 0.287320 0.127292
O O10 0.621488 0.064336 0.114341
O O11 0.766297 0.210801 0.985957
O O12 0.630649 0.525145 0.825000
O O13 0.588537 0.317525 0.898517
O O14 0.500000 0.500000 0.000000
O O15 0.829362 0.191081 0.806135
O O16 0.467260 0.598749 0.727357
O O17 0.424289 0.591431 0.576158
#
# Coordination Sequence:
#
# PCOD8128927 Si02
#       8
#     4   4   4   4   4   4   4   4
#     4  12  26  45  71 105 145 188 236 296 360 432
#     4  11  25  45  72 100 146 183 237 291 360 418
#     4  11  24  44  69 100 138 183 235 285 359 420
#     4  12  25  40  68 104 137 177 243 292 347 425
#     4  12  24  46  70 105 143 186 235 298 359 420
#     4  11  23  44  67 101 136 187 230 291 352 417
#     4  11  25  44  71  99 143 186 234 291 349 426
#     4  12  23  43  71  99 142 185 234 296 351 419
#
# _framework density 21.15025
#
# number of rings (size 3 to 8) (size 9 to 14) (size 15 to 20)
#    0.000    0.500    6.250    1.875    3.500    0.000 
#    0.000    1.875    0.000    0.000    0.000    0.000 
#    0.000    0.000    0.000    0.000    0.000    0.000 
#
# Total GULP energy -396863.368040 kJ/mol
# GULP energy per Si atom -12401.980251 kJ/mol
# Density = 2.110211 g / cm^3
# Si number density = 21.150250 Si / 1000 Ang^3
#
#
#
# Elastic Constant Matrix: (Units=GPa)
#
#
# Indices 1 2 3 4 5 6 
#
# 1 113.9392 52.6297 38.3377 0.0000 6.7096 0.0000
# 2 52.6297 143.8631 48.3633 0.0000 -4.6592 0.0000
# 3 38.3377 48.3633 124.0524 0.0000 8.8373 0.0000
# 4 0.0000 0.0000 0.0000 31.1964 0.0000 1.8291
# 5 6.7096 -4.6592 8.8373 0.0000 34.4148 0.0000
# 6 0.0000 0.0000 0.0000 1.8291 0.0000 37.8359
#
#
#
# Elastic Compliance Matrix: (Units=1/GPa)
#
#
# Indices 1 2 3 4 5 6 
#
# 1 0.011174 -0.003508 -0.001932 0.000000 -0.002157 0.000000
# 2 -0.003508 0.009227 -0.002700 0.000000 0.002627 0.000000
# 3 -0.001932 -0.002700 0.009891 0.000000 -0.002529 0.000000
# 4 0.000000 0.000000 0.000000 0.032146 0.000000 -0.001554
# 5 -0.002157 0.002627 -0.002529 0.000000 0.030483 0.000000
# 6 0.000000 0.000000 0.000000 -0.001554 0.000000 0.026505
#
#
# Mechanical properties :
#
#
# Convention : Reuss Voigt Hill
#
# Bulk Modulus (GPa) = 71.36916 73.39066 72.37991
# Shear Modulus (GPa) = 35.61810 36.85769 36.23789
#
# Velocity S-wave (km/s) = 4.10817 4.17905 4.14376
# Velocity P-wave (km/s) = 7.50466 7.61977 7.56243
#
# Compressibility (1/GPa) = 0.01401166
#
# Stress axis : x y z
#
# Youngs Moduli (GPa) = 89.49178 108.37359 101.10166
#
# Poissons Ratio (x) = 0.38021 0.19532
# Poissons Ratio (y) = 0.31396 0.27300
# Poissons Ratio (z) = 0.17289 0.29264
#
# Static dielectric constant tensor:
#      x y z
#    x 3.924460 0.000000 0.069530 
#    y 0.000000 4.276080 0.000000 
#    z 0.069530 0.000000 3.813780 
# 
# 
# High freq. dielectric constant tensor:
#      x y z
#    x 1.824950 0.000000 0.005170 
#    y 0.000000 1.853320 0.000000 
#    z 0.005170 0.000000 1.825930 
# 
# From -- ./inp_files/40267.got.cif
#   From: 2010.03.12/outbox.cif.g09.slc.cpg/sg14_21_cif.got.tgz:40267.got - 2010.03.31 13:35:05.
