data_PCOD8128425
_publ_section_title
;
Structure prediction by ZEFSAII (Michael W. Deem and Ramdas Pophale) SiO2 
 PCOD8128425
Probable space group: P 21/C
;
_chemical_formula_sum "Si O2"
_cell_formula_units_Z 24
_cell_length_a 17.801798
_cell_length_b 11.744041
_cell_length_c 11.012509
_cell_angle_alpha 90.000000
_cell_angle_beta 149.497492
_cell_angle_gamma 90.000000
_cell_volume 1168.607986
_symmetry_space_group_name_H-M "P 21/C"
_symmetry_group_IT_number 14
_symmetry_cell_setting 'monoclinic'
loop_
_space_group_symop_operation_xyz
x,y,z
-x,1/2+y,1/2-z
-x,-y,-z
x,1/2-y,1/2+z
loop_
_atom_site_type_symbol
_atom_site_label
_atom_site_fract_x
_atom_site_fract_y
_atom_site_fract_z
Si Si1 0.132070 0.468884 0.780266
Si Si2 0.112905 0.596662 0.183862
Si Si3 0.828762 0.336735 0.989796
Si Si4 0.330098 0.897885 0.187167
Si Si5 0.092803 0.279390 0.926041
Si Si6 0.328207 0.114515 0.350951
O O1 0.206992 0.580128 0.946348
O O2 0.087786 0.391520 0.834511
O O3 0.257703 0.399052 0.885346
O O4 0.000000 0.500000 0.500000
O O5 0.246121 0.553362 0.453785
O O6 0.012889 0.698283 0.102675
O O7 0.206988 0.620065 0.193744
O O8 0.000000 0.500000 0.000000
O O9 0.007324 0.320590 0.236470
O O10 0.743570 0.219269 0.878521
O O11 0.498666 0.864435 0.394761
O O12 0.305832 0.993885 0.254049
O O13 0.253213 0.226252 0.182990
#
# Coordination Sequence:
#
# PCOD8128425 Si02
#       6
#     4   4   4   4   4   4
#     4  12  23  43  68 102 133 167 224 275 331 391
#     4  11  21  42  64  98 129 164 224 274 326 391
#     4  11  23  40  68  95 128 170 217 271 330 391
#     4  10  26  43  66  92 132 181 217 271 334 397
#     4  11  23  39  69  97 126 172 215 272 330 396
#     4  11  24  47  63  95 135 176 218 269 338 395
#
# _framework density 20.537255999999999
#
# number of rings (size 3 to 8) (size 9 to 14) (size 15 to 20)
#    0.000    1.000    3.333    4.000    7.000    1.333 
#    6.000    1.667    0.000    0.000    0.000    0.000 
#    0.000    0.000    0.000    0.000    0.000    0.000 
#
# Total GULP energy -297326.889461 kJ/mol
# GULP energy per Si atom -12388.620394 kJ/mol
# Density = 2.049051 g / cm^3
# Si number density = 20.537256 Si / 1000 Ang^3
#
#
#
# Elastic Constant Matrix: (Units=GPa)
#
#
# Indices 1 2 3 4 5 6 
#
# 1 97.4231 24.7463 42.6577 0.0000 -12.4823 0.0000
# 2 24.7463 87.2120 42.9369 0.0000 -5.9084 0.0000
# 3 42.6577 42.9369 137.1094 0.0000 3.4175 0.0000
# 4 0.0000 0.0000 0.0000 37.4176 0.0000 -3.5086
# 5 -12.4823 -5.9084 3.4175 0.0000 27.7009 0.0000
# 6 0.0000 0.0000 0.0000 -3.5086 0.0000 30.6985
#
#
#
# Elastic Compliance Matrix: (Units=1/GPa)
#
#
# Indices 1 2 3 4 5 6 
#
# 1 0.013050 -0.001444 -0.003759 0.000000 0.006036 0.000000
# 2 -0.001444 0.014048 -0.004021 0.000000 0.002842 0.000000
# 3 -0.003759 -0.004021 0.009816 0.000000 -0.003762 0.000000
# 4 0.000000 0.000000 0.000000 0.027015 0.000000 0.003088
# 5 0.006036 0.002842 -0.003762 0.000000 0.039890 0.000000
# 6 0.000000 0.000000 0.000000 0.003088 0.000000 0.032928
#
#
# Mechanical properties :
#
#
# Convention : Reuss Voigt Hill
#
# Bulk Modulus (GPa) = 54.14809 60.26960 57.20884
# Shear Modulus (GPa) = 30.98859 33.25696 32.12278
#
# Velocity S-wave (km/s) = 3.88867 4.02848 3.95919
# Velocity P-wave (km/s) = 6.82534 7.14481 6.98690
#
# Compressibility (1/GPa) = 0.01846787
#
# Stress axis : x y z
#
# Youngs Moduli (GPa) = 76.62620 71.18396 101.87633
#
# Poissons Ratio (x) = 0.10276 0.38292
# Poissons Ratio (y) = 0.11062 0.40964
# Poissons Ratio (z) = 0.28801 0.28623
#
# Static dielectric constant tensor:
#      x y z
#    x 3.724710 0.000000 -0.071910 
#    y 0.000000 3.835400 0.000000 
#    z -0.071910 0.000000 3.911670 
# 
# 
# High freq. dielectric constant tensor:
#      x y z
#    x 1.806850 0.000000 -0.014420 
#    y 0.000000 1.810120 0.000000 
#    z -0.014420 0.000000 1.798980 
# 
# From -- ./inp_files/24072.got.cif
#   From: 2010.03.12/outbox.cif.g09.slc.cpg/sg14_13_cif.got.tgz:24072.got - 2010.03.31 13:35:05.
