data_PCOD8128329
_publ_section_title
;
Structure prediction by ZEFSAII (Michael W. Deem and Ramdas Pophale) SiO2 
 PCOD8128329
Probable space group: P 21/C
;
_chemical_formula_sum "Si O2"
_cell_formula_units_Z 32
_cell_length_a 15.313971
_cell_length_b 22.336778
_cell_length_c 7.977320
_cell_angle_alpha 90.000000
_cell_angle_beta 30.483752
_cell_angle_gamma 90.000000
_cell_volume 1384.283646
_symmetry_space_group_name_H-M "P 21/C"
_symmetry_group_IT_number 14
_symmetry_cell_setting 'monoclinic'
loop_
_space_group_symop_operation_xyz
x,y,z
-x,1/2+y,1/2-z
-x,-y,-z
x,1/2-y,1/2+z
loop_
_atom_site_type_symbol
_atom_site_label
_atom_site_fract_x
_atom_site_fract_y
_atom_site_fract_z
Si Si1 0.976212 0.695827 0.696342
Si Si2 0.290026 0.447756 0.300721
Si Si3 0.409329 0.594221 0.656481
Si Si4 0.493742 0.172386 0.413198
Si Si5 0.877157 0.186898 0.681851
Si Si6 0.564239 0.502052 0.638784
Si Si7 0.972447 0.385187 0.696996
Si Si8 0.598952 0.786174 0.770778
O O1 0.041215 0.673113 0.770545
O O2 0.105903 0.743338 0.395326
O O3 0.955486 0.644189 0.591844
O O4 0.785548 0.721050 0.047206
O O5 0.276058 0.475589 0.510550
O O6 0.104091 0.438362 0.525501
O O7 0.409843 0.388353 0.118998
O O8 0.385858 0.498806 0.035691
O O9 0.541728 0.551931 0.534748
O O10 0.399213 0.565245 0.487412
O O11 0.483887 0.660999 0.541682
O O12 0.215572 0.591948 0.046345
O O13 0.501617 0.222745 0.546002
O O14 0.369905 0.200001 0.475744
O O15 0.680566 0.165285 0.017744
O O16 0.968004 0.154035 0.374866
#
# Coordination Sequence:
#
# PCOD8128329 Si02
#       8
#     4   4   4   4   4   4   4   4
#     4  12  24  41  64  98 141 184 224 276 340 410
#     4  11  24  46  69  99 133 176 230 282 339 411
#     4  11  24  46  69  99 133 176 230 282 339 411
#     4  12  24  43  67 100 138 177 223 276 344 409
#     4  12  24  41  64  98 141 184 224 276 340 410
#     4  10  24  46  72  92 130 182 224 284 344 400
#     4  12  24  44  66 102 136 172 234 286 336 406
#     4  12  24  43  67 100 138 177 223 276 344 409
#
# _framework density 23.116651000000001
#
# number of rings (size 3 to 8) (size 9 to 14) (size 15 to 20)
#    0.000    0.500    5.000    3.000    5.250    1.000 
#    0.000    0.000    0.000    0.000    0.000    0.000 
#    0.000    0.000    0.000    0.000    0.000    0.000 
#
# Total GULP energy -396653.401663 kJ/mol
# GULP energy per Si atom -12395.418802 kJ/mol
# Density = 2.306404 g / cm^3
# Si number density = 23.116651 Si / 1000 Ang^3
#
#
#
# Elastic Constant Matrix: (Units=GPa)
#
#
# Indices 1 2 3 4 5 6 
#
# 1 101.4327 13.8433 6.9679 0.0000 10.6950 0.0000
# 2 13.8433 55.8859 3.9777 0.0000 3.4614 0.0000
# 3 6.9679 3.9777 69.7012 0.0000 -11.2684 0.0000
# 4 0.0000 0.0000 0.0000 29.6797 0.0000 -1.2437
# 5 10.6950 3.4614 -11.2684 0.0000 35.7159 0.0000
# 6 0.0000 0.0000 0.0000 -1.2437 0.0000 31.0602
#
#
#
# Elastic Compliance Matrix: (Units=1/GPa)
#
#
# Indices 1 2 3 4 5 6 
#
# 1 0.010639 -0.002317 -0.001486 0.000000 -0.003430 0.000000
# 2 -0.002317 0.018633 -0.001066 0.000000 -0.001448 0.000000
# 3 -0.001486 -0.001066 0.015432 0.000000 0.005417 0.000000
# 4 0.000000 0.000000 0.000000 0.033750 0.000000 0.001351
# 5 -0.003430 -0.001448 0.005417 0.000000 0.030875 0.000000
# 6 0.000000 0.000000 0.000000 0.001351 0.000000 0.032250
#
#
# Mechanical properties :
#
#
# Convention : Reuss Voigt Hill
#
# Bulk Modulus (GPa) = 28.59888 30.73306 29.66597
# Shear Modulus (GPa) = 30.68023 32.77324 31.72673
#
# Velocity S-wave (km/s) = 3.64702 3.76936 3.70870
# Velocity P-wave (km/s) = 5.48933 5.68047 5.58572
#
# Compressibility (1/GPa) = 0.03496640
#
# Stress axis : x y z
#
# Youngs Moduli (GPa) = 93.99639 53.66793 64.80014
#
# Poissons Ratio (x) = 0.12435 0.09628
# Poissons Ratio (y) = 0.21780 0.06907
# Poissons Ratio (z) = 0.13966 0.05720
#
# Static dielectric constant tensor:
#      x y z
#    x 4.276800 0.000000 0.049130 
#    y 0.000000 4.084510 0.000000 
#    z 0.049130 0.000000 3.989410 
# 
# 
# High freq. dielectric constant tensor:
#      x y z
#    x 1.925300 0.000000 0.003400 
#    y 0.000000 1.905240 0.000000 
#    z 0.003400 0.000000 1.906580 
# 
# From -- ./inp_files/17005.got.cif
#   From: 2010.03.12/outbox.cif.g09.slc.cpg/sg14_9_cif.got.tgz:17005.got - 2010.03.31 13:35:05.
