data_PCOD8128321
_publ_section_title
;
Structure prediction by ZEFSAII (Michael W. Deem and Ramdas Pophale) SiO2 
 PCOD8128321
Probable space group: P 21/C
;
_chemical_formula_sum "Si O2"
_cell_formula_units_Z 28
_cell_length_a 6.513322
_cell_length_b 18.396136
_cell_length_c 10.252171
_cell_angle_alpha 90.000000
_cell_angle_beta 104.060616
_cell_angle_gamma 90.000000
_cell_volume 1191.610457
_symmetry_space_group_name_H-M "P 21/C"
_symmetry_group_IT_number 14
_symmetry_cell_setting 'monoclinic'
loop_
_space_group_symop_operation_xyz
x,y,z
-x,1/2+y,1/2-z
-x,-y,-z
x,1/2-y,1/2+z
loop_
_atom_site_type_symbol
_atom_site_label
_atom_site_fract_x
_atom_site_fract_y
_atom_site_fract_z
Si Si1 0.121302 0.651835 0.153392
Si Si2 0.721756 0.036688 0.850832
Si Si3 0.029906 0.103728 0.105744
Si Si4 0.606281 0.267605 0.181857
Si Si5 0.113628 0.887501 0.374612
Si Si6 0.670904 0.879235 0.211035
Si Si7 0.797941 0.724500 0.516093
O O1 0.051240 0.597782 0.258154
O O2 0.328831 0.694615 0.233406
O O3 0.182443 0.602228 0.036997
O O4 0.936994 0.709102 0.087929
O O5 0.469282 0.048258 0.836633
O O6 0.780626 0.055760 0.709045
O O7 0.776566 0.952634 0.883228
O O8 0.845532 0.086621 0.973600
O O9 0.103787 0.187903 0.099491
O O10 0.495499 0.319940 0.267541
O O11 0.441226 0.250916 0.041389
O O12 0.813752 0.305864 0.153740
O O13 0.858634 0.895725 0.341206
O O14 0.796105 0.847013 0.107345
#
# Coordination Sequence:
#
# PCOD8128321 Si02
#       7
#     4   4   4   4   4   4   4
#     4  12  23  40  67 102 133 168 218 278 341 394
#     4  10  24  46  67  90 134 185 226 268 322 389
#     4  11  24  44  66  99 134 174 230 272 319 409
#     4  11  22  38  65  98 134 169 209 277 346 395
#     4  11  22  42  65  92 133 173 216 275 332 389
#     4  11  20  39  65  92 125 176 215 267 326 392
#     4  12  21  39  68  98 133 168 216 274 340 394
#
# _framework density 23.497610999999999
#
# number of rings (size 3 to 8) (size 9 to 14) (size 15 to 20)
#    0.000    0.857    4.286    4.286    0.000    1.143 
#    2.571    0.714    0.000    0.000    0.000    0.000 
#    0.000    0.000    0.000    0.000    0.000    0.000 
#
# Total GULP energy -347141.075895 kJ/mol
# GULP energy per Si atom -12397.895568 kJ/mol
# Density = 2.344413 g / cm^3
# Si number density = 23.497611 Si / 1000 Ang^3
#
#
#
# Elastic Constant Matrix: (Units=GPa)
#
#
# Indices 1 2 3 4 5 6 
#
# 1 71.5925 7.3268 20.1142 0.0000 8.3436 0.0000
# 2 7.3268 47.0040 7.0972 0.0000 4.2662 0.0000
# 3 20.1142 7.0972 99.0760 0.0000 -12.5002 0.0000
# 4 0.0000 0.0000 0.0000 22.7386 0.0000 0.8212
# 5 8.3436 4.2662 -12.5002 0.0000 40.7490 0.0000
# 6 0.0000 0.0000 0.0000 0.8212 0.0000 29.2646
#
#
#
# Elastic Compliance Matrix: (Units=1/GPa)
#
#
# Indices 1 2 3 4 5 6 
#
# 1 0.015612 -0.001517 -0.003583 0.000000 -0.004137 0.000000
# 2 -0.001517 0.021974 -0.001578 0.000000 -0.002474 0.000000
# 3 -0.003583 -0.001578 0.011492 0.000000 0.004424 0.000000
# 4 0.000000 0.000000 0.000000 0.044023 0.000000 -0.001235
# 5 -0.004137 -0.002474 0.004424 0.000000 0.027004 0.000000
# 6 0.000000 0.000000 0.000000 -0.001235 0.000000 0.034206
#
#
# Mechanical properties :
#
#
# Convention : Reuss Voigt Hill
#
# Bulk Modulus (GPa) = 27.99421 31.86100 29.92761
# Shear Modulus (GPa) = 27.84380 30.75941 29.30160
#
# Velocity S-wave (km/s) = 3.44606 3.62200 3.53512
# Velocity P-wave (km/s) = 5.27004 5.57499 5.42466
#
# Compressibility (1/GPa) = 0.03572168
#
# Stress axis : x y z
#
# Youngs Moduli (GPa) = 64.05365 45.50811 87.01810
#
# Poissons Ratio (x) = 0.06904 0.31177
# Poissons Ratio (y) = 0.09718 0.13734
# Poissons Ratio (z) = 0.22949 0.07182
#
# Static dielectric constant tensor:
#      x y z
#    x 4.225170 0.000000 -0.046950 
#    y 0.000000 3.928390 0.000000 
#    z -0.046950 0.000000 4.380550 
# 
# 
# High freq. dielectric constant tensor:
#      x y z
#    x 1.930600 0.000000 -0.000860 
#    y 0.000000 1.906120 0.000000 
#    z -0.000860 0.000000 1.937260 
# 
# From -- ./inp_files/21823.got.cif
#   From: 2010.03.12/outbox.cif.g09.slc.cpg/sg14_11_cif.got.tgz:21823.got - 2010.03.31 13:35:05.
