data_PCOD8128719
_publ_section_title
;
Structure prediction by ZEFSAII (Michael W. Deem and Ramdas Pophale) SiO2 
 PCOD8128719
Probable space group: P 21/C
;
_chemical_formula_sum "Si O2"
_cell_formula_units_Z 32
_cell_length_a 11.323955
_cell_length_b 8.428671
_cell_length_c 28.426404
_cell_angle_alpha 90.000000
_cell_angle_beta 148.600768
_cell_angle_gamma 90.000000
_cell_volume 1413.563674
_symmetry_space_group_name_H-M "P 21/C"
_symmetry_group_IT_number 14
_symmetry_cell_setting 'monoclinic'
loop_
_space_group_symop_operation_xyz
x,y,z
-x,1/2+y,1/2-z
-x,-y,-z
x,1/2-y,1/2+z
loop_
_atom_site_type_symbol
_atom_site_label
_atom_site_fract_x
_atom_site_fract_y
_atom_site_fract_z
Si Si1 0.819193 0.373790 0.201193
Si Si2 0.302321 0.313678 0.224925
Si Si3 0.703010 0.341301 0.907205
Si Si4 0.783955 0.807765 0.413334
Si Si5 0.593611 0.397244 0.673879
Si Si6 0.503571 0.353522 0.935597
Si Si7 0.702015 0.540256 0.614218
Si Si8 0.857156 0.271812 0.616881
O O1 0.747844 0.260634 0.220584
O O2 0.608728 0.477678 0.110880
O O3 0.903313 0.269045 0.186380
O O4 0.026099 0.484790 0.286020
O O5 0.542736 0.222675 0.310833
O O6 0.260470 0.345135 0.156260
O O7 0.294799 0.478790 0.251638
O O8 0.100536 0.199648 0.175311
O O9 0.711301 0.531298 0.914820
O O10 0.585912 0.276060 0.914626
O O11 0.953408 0.269013 0.986910
O O12 0.648048 0.657056 0.387057
O O13 0.561600 0.470954 0.610842
O O14 0.336633 0.227941 0.904444
O O15 0.725591 0.368807 0.044413
O O16 0.685732 0.430004 0.560501
#
# Coordination Sequence:
#
# PCOD8128719 Si02
#       8
#     4   4   4   4   4   4   4   4
#     4  11  22  42  67  96 132 177 221 272 335 409
#     4  12  23  45  67 100 138 174 227 282 339 399
#     4  11  23  44  68  93 131 182 220 284 341 396
#     4  11  25  44  69  95 132 177 236 277 332 407
#     4  11  23  40  67  97 129 174 228 274 334 404
#     4  12  21  43  67  95 139 174 218 280 337 402
#     4  11  23  41  67  97 135 174 221 275 336 403
#     4  11  24  39  66 103 132 173 223 272 338 410
#
# _framework density 22.637820000000001
#
# number of rings (size 3 to 8) (size 9 to 14) (size 15 to 20)
#    0.000    0.750    5.000    3.750    0.000    0.500 
#    0.000    0.000    8.250    0.000    0.000    0.000 
#    0.000    0.000    0.000    0.000    0.000    0.000 
#
# Total GULP energy -396698.963327 kJ/mol
# GULP energy per Si atom -12396.842604 kJ/mol
# Density = 2.258630 g / cm^3
# Si number density = 22.637820 Si / 1000 Ang^3
#
#
#
# Elastic Constant Matrix: (Units=GPa)
#
#
# Indices 1 2 3 4 5 6 
#
# 1 97.3748 27.8913 28.2179 0.0000 10.9477 0.0000
# 2 27.8913 89.2655 16.8610 0.0000 14.6348 0.0000
# 3 28.2179 16.8610 75.0290 0.0000 13.0109 0.0000
# 4 0.0000 0.0000 0.0000 21.9614 0.0000 1.5445
# 5 10.9477 14.6348 13.0109 0.0000 31.5385 0.0000
# 6 0.0000 0.0000 0.0000 1.5445 0.0000 43.0886
#
#
#
# Elastic Compliance Matrix: (Units=1/GPa)
#
#
# Indices 1 2 3 4 5 6 
#
# 1 0.012349 -0.002924 -0.003747 0.000000 -0.001384 0.000000
# 2 -0.002924 0.013070 -0.001036 0.000000 -0.004622 0.000000
# 3 -0.003747 -0.001036 0.015791 0.000000 -0.004733 0.000000
# 4 0.000000 0.000000 0.000000 0.045649 0.000000 -0.001636
# 5 -0.001384 -0.004622 -0.004733 0.000000 0.036285 0.000000
# 6 0.000000 0.000000 0.000000 -0.001636 0.000000 0.023267
#
#
# Mechanical properties :
#
#
# Convention : Reuss Voigt Hill
#
# Bulk Modulus (GPa) = 38.76633 45.28997 42.02815
# Shear Modulus (GPa) = 29.33887 31.89765 30.61826
#
# Velocity S-wave (km/s) = 3.60392 3.75779 3.68166
# Velocity P-wave (km/s) = 5.87192 6.23520 6.05629
#
# Compressibility (1/GPa) = 0.02579558
#
# Stress axis : x y z
#
# Youngs Moduli (GPa) = 80.98149 76.51372 63.32710
#
# Poissons Ratio (x) = 0.22370 0.23730
# Poissons Ratio (y) = 0.23676 0.06560
# Poissons Ratio (z) = 0.30345 0.07926
#
# Static dielectric constant tensor:
#      x y z
#    x 4.095670 0.000000 0.114570 
#    y 0.000000 4.057390 0.000000 
#    z 0.114570 0.000000 4.119860 
# 
# 
# High freq. dielectric constant tensor:
#      x y z
#    x 1.891560 0.000000 0.009380 
#    y 0.000000 1.893480 0.000000 
#    z 0.009380 0.000000 1.897020 
# 
# From -- ./inp_files/80032.got.cif
#   From: 2010.03.12/outbox.cif.g09.slc.cpg/sg14_41_cif.got.tgz:80032.got - 2010.03.31 13:35:05.
