data_PCOD8128782
_publ_section_title
;
Structure prediction by ZEFSAII (Michael W. Deem and Ramdas Pophale) SiO2 
 PCOD8128782
Probable space group: P 21/C
;
_chemical_formula_sum "Si O2"
_cell_formula_units_Z 32
_cell_length_a 13.756116
_cell_length_b 8.593422
_cell_length_c 22.106959
_cell_angle_alpha 90.000000
_cell_angle_beta 149.327872
_cell_angle_gamma 90.000000
_cell_volume 1333.113790
_symmetry_space_group_name_H-M "P 21/C"
_symmetry_group_IT_number 14
_symmetry_cell_setting 'monoclinic'
loop_
_space_group_symop_operation_xyz
x,y,z
-x,1/2+y,1/2-z
-x,-y,-z
x,1/2-y,1/2+z
loop_
_atom_site_type_symbol
_atom_site_label
_atom_site_fract_x
_atom_site_fract_y
_atom_site_fract_z
Si Si1 0.882056 0.970031 0.211441
Si Si2 0.722430 0.961087 0.999874
Si Si3 0.364316 0.456830 0.143051
Si Si4 0.366598 0.747906 0.790739
Si Si5 0.510623 0.223409 0.824973
Si Si6 0.984573 0.677238 0.108720
Si Si7 0.256328 0.614738 0.857494
Si Si8 0.614551 0.789650 0.613406
O O1 0.731473 0.867171 0.167390
O O2 0.057205 0.861130 0.285117
O O3 0.778727 0.029844 0.095198
O O4 0.948886 0.113823 0.289225
O O5 0.522386 0.869218 0.897815
O O6 0.685327 0.109494 0.936952
O O7 0.886463 0.847930 0.061827
O O8 0.544494 0.377833 0.206048
O O9 0.406479 0.639963 0.173710
O O10 0.354701 0.376086 0.203698
O O11 0.170962 0.439869 0.001896
O O12 0.263712 0.662899 0.792063
O O13 0.167575 0.825337 0.660161
O O14 0.406822 0.307655 0.825672
O O15 0.290348 0.428845 0.873597
O O16 0.402535 0.719025 0.973512
#
# Coordination Sequence:
#
# PCOD8128782 Si02
#       8
#     4   4   4   4   4   4   4   4
#     4  12  24  40  72 110 152 185 239 298 366 445
#     4  11  25  44  69 106 144 187 240 295 366 438
#     4  11  26  51  73 102 143 190 254 301 355 423
#     4  11  22  46  72 102 144 195 233 301 360 423
#     4  12  26  50  79 103 142 200 244 306 364 426
#     4  11  25  45  69 105 145 193 238 301 359 429
#     4  11  23  41  71 107 155 187 235 291 367 437
#     4  11  25  45  71 111 146 195 236 298 366 436
#
# _framework density 24.003952000000002
#
# number of rings (size 3 to 8) (size 9 to 14) (size 15 to 20)
#    0.000    0.750    3.750    3.750    5.250    3.000 
#    0.000   10.625    0.000    0.000    0.000    0.000 
#    0.000    0.000    0.000    0.000    0.000    0.000 
#
# Total GULP energy -396632.046450 kJ/mol
# GULP energy per Si atom -12394.751452 kJ/mol
# Density = 2.394932 g / cm^3
# Si number density = 24.003952 Si / 1000 Ang^3
#
#
#
# Elastic Constant Matrix: (Units=GPa)
#
#
# Indices 1 2 3 4 5 6 
#
# 1 54.3243 15.8234 29.0861 0.0000 16.2761 0.0000
# 2 15.8234 114.3075 55.3169 0.0000 6.8595 0.0000
# 3 29.0861 55.3169 124.6287 0.0000 10.9939 0.0000
# 4 0.0000 0.0000 0.0000 37.2394 0.0000 -10.2956
# 5 16.2761 6.8595 10.9939 0.0000 45.7297 0.0000
# 6 0.0000 0.0000 0.0000 -10.2956 0.0000 36.3630
#
#
#
# Elastic Compliance Matrix: (Units=1/GPa)
#
#
# Indices 1 2 3 4 5 6 
#
# 1 0.023107 -0.000595 -0.004507 0.000000 -0.007052 0.000000
# 2 -0.000595 0.011168 -0.004791 0.000000 -0.000312 0.000000
# 3 -0.004507 -0.004791 0.011235 0.000000 -0.000378 0.000000
# 4 0.000000 0.000000 0.000000 0.029134 0.000000 0.008249
# 5 -0.007052 -0.000312 -0.000378 0.000000 0.024515 0.000000
# 6 0.000000 0.000000 0.000000 0.008249 0.000000 0.029836
#
#
# Mechanical properties :
#
#
# Convention : Reuss Voigt Hill
#
# Bulk Modulus (GPa) = 38.87103 54.85703 46.86403
# Shear Modulus (GPa) = 31.77551 36.73535 34.25543
#
# Velocity S-wave (km/s) = 3.64230 3.91626 3.78176
# Velocity P-wave (km/s) = 5.82385 6.58425 6.21569
#
# Compressibility (1/GPa) = 0.02572610
#
# Stress axis : x y z
#
# Youngs Moduli (GPa) = 43.27719 89.54452 89.00500
#
# Poissons Ratio (x) = 0.05324 0.40113
# Poissons Ratio (y) = 0.02573 0.42638
# Poissons Ratio (z) = 0.19504 0.42897
#
# Static dielectric constant tensor:
#      x y z
#    x 4.396120 0.000000 0.158020 
#    y 0.000000 4.403980 0.000000 
#    z 0.158020 0.000000 4.578170 
# 
# 
# High freq. dielectric constant tensor:
#      x y z
#    x 1.943170 0.000000 0.005680 
#    y 0.000000 1.965390 0.000000 
#    z 0.005680 0.000000 1.958750 
# 
# From -- ./inp_files/73878.got.cif
#   From: 2010.03.12/outbox.cif.g09.slc.cpg/sg14_37_cif.got.tgz:73878.got - 2010.03.31 13:35:05.
