data_PCOD8128534
_publ_section_title
;
Structure prediction by ZEFSAII (Michael W. Deem and Ramdas Pophale) SiO2 
 PCOD8128534
Probable space group: P 21/C
;
_chemical_formula_sum "Si O2"
_cell_formula_units_Z 32
_cell_length_a 16.261267
_cell_length_b 20.015093
_cell_length_c 16.596164
_cell_angle_alpha 90.000000
_cell_angle_beta 163.104910
_cell_angle_gamma 90.000000
_cell_volume 1569.804266
_symmetry_space_group_name_H-M "P 21/C"
_symmetry_group_IT_number 14
_symmetry_cell_setting 'monoclinic'
loop_
_space_group_symop_operation_xyz
x,y,z
-x,1/2+y,1/2-z
-x,-y,-z
x,1/2-y,1/2+z
loop_
_atom_site_type_symbol
_atom_site_label
_atom_site_fract_x
_atom_site_fract_y
_atom_site_fract_z
Si Si1 0.464429 0.319814 0.702158
Si Si2 0.010136 0.362151 0.782118
Si Si3 0.908761 0.877748 0.385628
Si Si4 0.431295 0.422658 0.281873
Si Si5 0.459056 0.572400 0.345850
Si Si6 0.939872 0.272804 0.461037
Si Si7 0.370625 0.201850 0.492094
Si Si8 0.928875 0.280938 0.266043
O O1 0.603762 0.386613 0.795610
O O2 0.370469 0.269408 0.543407
O O3 0.168606 0.335533 0.469119
O O4 0.665761 0.288105 0.959072
O O5 0.678629 0.380699 0.468638
O O6 0.047954 0.294450 0.869244
O O7 0.172854 0.353672 0.849500
O O8 0.166712 0.423352 0.973343
O O9 0.683162 0.886044 0.245550
O O10 0.176975 0.928857 0.637899
O O11 0.072692 0.807205 0.539938
O O12 0.729295 0.891030 0.137280
O O13 0.539881 0.496429 0.402658
O O14 0.869782 0.293684 0.304355
O O15 0.245397 0.291238 0.783962
O O16 0.704060 0.312457 0.293091
#
# Coordination Sequence:
#
# PCOD8128534 Si02
#       8
#     4   4   4   4   4   4   4   4
#     4  11  21  38  56  86 116 157 197 251 290 350
#     4  11  23  39  57  85 118 156 203 250 293 348
#     4  12  22  38  56  90 126 163 203 234 280 370
#     4  12  24  39  58  85 123 169 203 240 286 353
#     4  12  24  39  59  85 124 169 207 236 289 352
#     4  12  21  37  60  89 119 159 189 242 312 361
#     4  11  22  38  60  87 118 154 199 249 304 355
#     4  11  23  36  60  85 120 153 198 248 307 353
#
# _framework density 20.384706000000001
#
# number of rings (size 3 to 8) (size 9 to 14) (size 15 to 20)
#    0.000    0.500    3.750    7.500    1.750    0.000 
#    0.000    0.000    0.000    0.000    0.000   17.500 
#    0.000    0.000    0.000    0.000    0.000    0.000 
#
# Total GULP energy -396493.180577 kJ/mol
# GULP energy per Si atom -12390.411893 kJ/mol
# Density = 2.033831 g / cm^3
# Si number density = 20.384706 Si / 1000 Ang^3
#
#
#
# Elastic Constant Matrix: (Units=GPa)
#
#
# Indices 1 2 3 4 5 6 
#
# 1 80.0125 22.5425 37.6484 0.0000 9.6873 0.0000
# 2 22.5425 42.8371 21.6935 0.0000 7.7158 0.0000
# 3 37.6484 21.6935 113.8545 0.0000 3.0064 0.0000
# 4 0.0000 0.0000 0.0000 21.1130 0.0000 7.2907
# 5 9.6873 7.7158 3.0064 0.0000 44.0084 0.0000
# 6 0.0000 0.0000 0.0000 7.2907 0.0000 20.1664
#
#
#
# Elastic Compliance Matrix: (Units=1/GPa)
#
#
# Indices 1 2 3 4 5 6 
#
# 1 0.016487 -0.006129 -0.004224 0.000000 -0.002266 0.000000
# 2 -0.006129 0.028915 -0.003391 0.000000 -0.003489 0.000000
# 3 -0.004224 -0.003391 0.010805 0.000000 0.000786 0.000000
# 4 0.000000 0.000000 0.000000 0.054121 0.000000 -0.019566
# 5 -0.002266 -0.003489 0.000786 0.000000 0.023780 0.000000
# 6 0.000000 0.000000 0.000000 -0.019566 0.000000 0.056661
#
#
# Mechanical properties :
#
#
# Convention : Reuss Voigt Hill
#
# Bulk Modulus (GPa) = 34.81897 44.49700 39.65798
# Shear Modulus (GPa) = 21.94637 27.37890 24.66263
#
# Velocity S-wave (km/s) = 3.28473 3.66882 3.48208
# Velocity P-wave (km/s) = 5.61284 6.31055 5.97189
#
# Compressibility (1/GPa) = 0.02871998
#
# Stress axis : x y z
#
# Youngs Moduli (GPa) = 60.65525 34.58434 92.54793
#
# Poissons Ratio (x) = 0.21195 0.39093
# Poissons Ratio (y) = 0.37173 0.31380
# Poissons Ratio (z) = 0.25621 0.11726
#
# Static dielectric constant tensor:
#      x y z
#    x 3.928350 0.000000 0.098480 
#    y 0.000000 3.315300 0.000000 
#    z 0.098480 0.000000 3.783900 
# 
# 
# High freq. dielectric constant tensor:
#      x y z
#    x 1.797310 0.000000 0.008480 
#    y 0.000000 1.741460 0.000000 
#    z 0.008480 0.000000 1.822020 
# 
# From -- ./inp_files/47645.got.cif
#   From: 2010.03.12/outbox.cif.g09.slc.cpg/sg14_24_cif.got.tgz:47645.got - 2010.03.31 13:35:05.
