data_PCOD8128845
_publ_section_title
;
Structure prediction by ZEFSAII (Michael W. Deem and Ramdas Pophale) SiO2 
 PCOD8128845
Probable space group: P 21/C
;
_chemical_formula_sum "Si O2"
_cell_formula_units_Z 24
_cell_length_a 8.769299
_cell_length_b 9.496551
_cell_length_c 28.257022
_cell_angle_alpha 90.000000
_cell_angle_beta 29.378982
_cell_angle_gamma 90.000000
_cell_volume 1154.438145
_symmetry_space_group_name_H-M "P 21/C"
_symmetry_group_IT_number 14
_symmetry_cell_setting 'monoclinic'
loop_
_space_group_symop_operation_xyz
x,y,z
-x,1/2+y,1/2-z
-x,-y,-z
x,1/2-y,1/2+z
loop_
_atom_site_type_symbol
_atom_site_label
_atom_site_fract_x
_atom_site_fract_y
_atom_site_fract_z
Si Si1 0.866608 0.565361 0.655874
Si Si2 0.783400 0.395116 0.529993
Si Si3 0.874306 0.024573 0.816130
Si Si4 0.288888 0.770182 0.701031
Si Si5 0.032876 0.345973 0.013056
Si Si6 0.275782 0.755659 0.313974
O O1 0.726080 0.413377 0.677703
O O2 0.596131 0.672937 0.744299
O O3 0.057411 0.637659 0.562835
O O4 0.116399 0.550553 0.630334
O O5 0.443170 0.454052 0.614227
O O6 0.000000 0.500000 0.500000
O O7 0.755936 0.248238 0.565755
O O8 0.912517 0.169183 0.777721
O O9 0.167319 0.926908 0.724844
O O10 0.648507 0.771522 0.589156
O O11 0.231851 0.715360 0.770001
O O12 0.991854 0.332899 0.081482
O O13 0.000000 0.500000 0.000000
#
# Coordination Sequence:
#
# PCOD8128845 Si02
#       6
#     4   4   4   4   4   4
#     4  11  23  41  68 102 133 178 231 277 341 408
#     4  12  22  44  71  91 131 184 225 274 343 406
#     4  11  25  41  67  97 139 173 227 283 339 403
#     4  11  25  46  65 102 136 177 224 284 346 402
#     4  12  25  44  70 100 134 178 233 282 334 407
#     4  11  23  42  71  97 134 182 226 279 337 412
#
# _framework density 20.789335000000001
#
# number of rings (size 3 to 8) (size 9 to 14) (size 15 to 20)
#    0.000    0.667    5.000    2.500    4.667    1.333 
#    0.000    0.833    0.000    0.000    0.000    0.000 
#    0.000    0.000    0.000    0.000    0.000    0.000 
#
# Total GULP energy -297566.464215 kJ/mol
# GULP energy per Si atom -12398.602676 kJ/mol
# Density = 2.074202 g / cm^3
# Si number density = 20.789335 Si / 1000 Ang^3
#
#
#
# Elastic Constant Matrix: (Units=GPa)
#
#
# Indices 1 2 3 4 5 6 
#
# 1 97.6105 30.2383 29.0757 0.0000 5.0331 0.0000
# 2 30.2383 73.4328 -7.3747 0.0000 11.4324 0.0000
# 3 29.0757 -7.3747 76.8531 0.0000 27.1021 0.0000
# 4 0.0000 0.0000 0.0000 32.2553 0.0000 -6.4052
# 5 5.0331 11.4324 27.1021 0.0000 38.7387 0.0000
# 6 0.0000 0.0000 0.0000 -6.4052 0.0000 38.0749
#
#
#
# Elastic Compliance Matrix: (Units=1/GPa)
#
#
# Indices 1 2 3 4 5 6 
#
# 1 0.015030 -0.008096 -0.008784 0.000000 0.006582 0.000000
# 2 -0.008096 0.019518 0.008757 0.000000 -0.010834 0.000000
# 3 -0.008784 0.008757 0.023476 0.000000 -0.017867 0.000000
# 4 0.000000 0.000000 0.000000 0.032074 0.000000 0.005396
# 5 0.006582 -0.010834 -0.017867 0.000000 0.040656 0.000000
# 6 0.000000 0.000000 0.000000 0.005396 0.000000 0.027172
#
#
# Mechanical properties :
#
#
# Convention : Reuss Voigt Hill
#
# Bulk Modulus (GPa) = 23.93683 39.08610 31.51147
# Shear Modulus (GPa) = 26.58162 34.87756 30.72959
#
# Velocity S-wave (km/s) = 3.57966 4.10038 3.84883
# Velocity P-wave (km/s) = 5.35016 6.42334 5.91116
#
# Compressibility (1/GPa) = 0.04177662
#
# Stress axis : x y z
#
# Youngs Moduli (GPa) = 66.53325 51.23510 42.59608
#
# Poissons Ratio (x) = 0.41480 0.37418
# Poissons Ratio (y) = 0.53866 -0.37300
# Poissons Ratio (z) = 0.58445 -0.44865
#
# Static dielectric constant tensor:
#      x y z
#    x 4.134890 0.000000 0.048730 
#    y 0.000000 4.078720 0.000000 
#    z 0.048730 0.000000 3.861070 
# 
# 
# High freq. dielectric constant tensor:
#      x y z
#    x 1.817580 0.000000 0.013930 
#    y 0.000000 1.819660 0.000000 
#    z 0.013930 0.000000 1.815390 
# 
# From -- ./inp_files/54495.got.cif
#   From: 2010.03.12/outbox.cif.g09.slc.cpg/sg14_28_cif.got.tgz:54495.got - 2010.03.31 13:35:05.
