data_PCOD8128358
_publ_section_title
;
Structure prediction by ZEFSAII (Michael W. Deem and Ramdas Pophale) SiO2 
 PCOD8128358
Probable space group: P 21/C
;
_chemical_formula_sum "Si O2"
_cell_formula_units_Z 24
_cell_length_a 28.802552
_cell_length_b 5.063189
_cell_length_c 23.431163
_cell_angle_alpha 90.000000
_cell_angle_beta 160.796007
_cell_angle_gamma 90.000000
_cell_volume 1123.972505
_symmetry_space_group_name_H-M "P 21/C"
_symmetry_group_IT_number 14
_symmetry_cell_setting 'monoclinic'
loop_
_space_group_symop_operation_xyz
x,y,z
-x,1/2+y,1/2-z
-x,-y,-z
x,1/2-y,1/2+z
loop_
_atom_site_type_symbol
_atom_site_label
_atom_site_fract_x
_atom_site_fract_y
_atom_site_fract_z
Si Si1 0.913846 0.360038 0.950273
Si Si2 0.582767 0.923267 0.827552
Si Si3 0.356272 0.966195 0.799334
Si Si4 0.739956 0.050413 0.671193
Si Si5 0.579706 0.548904 0.192200
Si Si6 0.193032 0.439269 0.321787
O O1 0.775093 0.513933 0.810338
O O2 0.854782 0.080867 0.856006
O O3 0.000000 0.500000 0.000000
O O4 0.027908 0.346253 0.134267
O O5 0.508796 0.638631 0.744605
O O6 0.598278 0.011848 0.780466
O O7 0.737616 0.905113 0.035699
O O8 0.348806 0.682338 0.761019
O O9 0.340404 0.183254 0.731322
O O10 0.500000 0.000000 0.000000
O O11 0.583903 0.093881 0.514851
O O12 0.779550 0.263438 0.668145
O O13 0.735806 0.757330 0.641243
#
# Coordination Sequence:
#
# PCOD8128358 Si02
#       6
#     4   4   4   4   4   4
#     4  10  25  42  67  95 132 173 218 267 331 394
#     4  12  22  40  67  96 131 171 223 271 319 391
#     4  12  26  43  65  96 135 172 212 271 333 390
#     4  11  21  38  66  97 129 163 214 273 319 385
#     4  12  24  40  66  98 131 168 222 268 327 385
#     4  11  22  40  62  98 128 167 219 270 321 377
#
# _framework density 21.352836
#
# number of rings (size 3 to 8) (size 9 to 14) (size 15 to 20)
#    0.000    0.667    5.000    3.000    2.333    2.667 
#    0.000    1.667    0.000    0.000    0.000    0.000 
#    0.000    0.000    0.000    0.000    0.000    0.000 
#
# Total GULP energy -297523.369612 kJ/mol
# GULP energy per Si atom -12396.807067 kJ/mol
# Density = 2.130424 g / cm^3
# Si number density = 21.352836 Si / 1000 Ang^3
#
#
#
# Elastic Constant Matrix: (Units=GPa)
#
#
# Indices 1 2 3 4 5 6 
#
# 1 95.5508 18.2082 56.0846 0.0000 7.2991 0.0000
# 2 18.2082 82.8553 21.6393 0.0000 4.6326 0.0000
# 3 56.0846 21.6393 164.4240 0.0000 -7.6710 0.0000
# 4 0.0000 0.0000 0.0000 24.7029 0.0000 1.3323
# 5 7.2991 4.6326 -7.6710 0.0000 41.4595 0.0000
# 6 0.0000 0.0000 0.0000 1.3323 0.0000 32.9048
#
#
#
# Elastic Compliance Matrix: (Units=1/GPa)
#
#
# Indices 1 2 3 4 5 6 
#
# 1 0.013718 -0.001639 -0.004607 0.000000 -0.003084 0.000000
# 2 -0.001639 0.012817 -0.001191 0.000000 -0.001364 0.000000
# 3 -0.004607 -0.001191 0.007923 0.000000 0.002410 0.000000
# 4 0.000000 0.000000 0.000000 0.040570 0.000000 -0.001643
# 5 -0.003084 -0.001364 0.002410 0.000000 0.025261 0.000000
# 6 0.000000 0.000000 0.000000 -0.001643 0.000000 0.030457
#
#
# Mechanical properties :
#
#
# Convention : Reuss Voigt Hill
#
# Bulk Modulus (GPa) = 51.06704 59.41047 55.23876
# Shear Modulus (GPa) = 32.86269 36.27330 34.56800
#
# Velocity S-wave (km/s) = 3.92731 4.12607 4.02791
# Velocity P-wave (km/s) = 6.67328 7.11217 6.89622
#
# Compressibility (1/GPa) = 0.01958210
#
# Stress axis : x y z
#
# Youngs Moduli (GPa) = 72.89747 78.02249 126.22070
#
# Poissons Ratio (x) = 0.12787 0.58154
# Poissons Ratio (y) = 0.11947 0.15038
# Poissons Ratio (z) = 0.33586 0.09296
#
# Static dielectric constant tensor:
#      x y z
#    x 3.688950 0.000000 -0.144360 
#    y 0.000000 3.915700 0.000000 
#    z -0.144360 0.000000 4.623290 
# 
# 
# High freq. dielectric constant tensor:
#      x y z
#    x 1.816570 0.000000 -0.006630 
#    y 0.000000 1.848330 0.000000 
#    z -0.006630 0.000000 1.838510 
# 
# From -- ./inp_files/75110.got.cif
#   From: 2010.03.12/outbox.cif.g09.slc.cpg/sg14_38_cif.got.tgz:75110.got - 2010.03.31 13:35:05.
