data_PCOD8128743
_publ_section_title
;
Structure prediction by ZEFSAII (Michael W. Deem and Ramdas Pophale) SiO2 
 PCOD8128743
Probable space group: P 21/C
;
_chemical_formula_sum "Si O2"
_cell_formula_units_Z 20
_cell_length_a 7.721488
_cell_length_b 18.074537
_cell_length_c 8.007616
_cell_angle_alpha 90.000000
_cell_angle_beta 124.685587
_cell_angle_gamma 90.000000
_cell_volume 918.956515
_symmetry_space_group_name_H-M "P 21/C"
_symmetry_group_IT_number 14
_symmetry_cell_setting 'monoclinic'
loop_
_space_group_symop_operation_xyz
x,y,z
-x,1/2+y,1/2-z
-x,-y,-z
x,1/2-y,1/2+z
loop_
_atom_site_type_symbol
_atom_site_label
_atom_site_fract_x
_atom_site_fract_y
_atom_site_fract_z
Si Si1 0.694456 0.177782 0.266695
Si Si2 0.958731 0.436996 0.108340
Si Si3 0.322030 0.980411 0.270362
Si Si4 0.242889 0.380835 0.515789
Si Si5 0.820109 0.163023 0.962542
O O1 0.779256 0.119144 0.448679
O O2 0.441880 0.173417 0.116140
O O3 0.812878 0.161390 0.158635
O O4 0.740977 0.259624 0.351020
O O5 0.894106 0.479445 0.243209
O O6 0.164428 0.390906 0.279829
O O7 0.000000 0.500000 0.000000
O O8 0.500000 0.000000 0.500000
O O9 0.321386 0.040242 0.125052
O O10 0.340441 0.899440 0.195663
O O11 0.061614 0.347969 0.536378
#
# Coordination Sequence:
#
# PCOD8128743 Si02
#       5
#     4   4   4   4   4
#     4  12  26  46  69 101 140 182 227 285 350 406
#     4  11  23  42  69 104 135 178 232 277 336 413
#     4  11  22  43  70  98 136 177 227 285 332 404
#     4  11  25  46  70 100 138 180 227 283 341 401
#     4  11  26  46  67 101 138 177 234 281 342 413
#
# _framework density 21.763815999999998
#
# number of rings (size 3 to 8) (size 9 to 14) (size 15 to 20)
#    0.000    0.800    2.000    7.200    2.800    4.800 
#    0.000    0.000    0.000    0.000    0.000    0.000 
#    0.000    0.000    0.000    0.000    0.000    0.000 
#
# Total GULP energy -247989.180489 kJ/mol
# GULP energy per Si atom -12399.459024 kJ/mol
# Density = 2.171428 g / cm^3
# Si number density = 21.763816 Si / 1000 Ang^3
#
#
#
# Elastic Constant Matrix: (Units=GPa)
#
#
# Indices 1 2 3 4 5 6 
#
# 1 92.7214 38.4386 37.3824 0.0000 3.2805 0.0000
# 2 38.4386 117.6448 28.8022 0.0000 9.5359 0.0000
# 3 37.3824 28.8022 119.8703 0.0000 12.2214 0.0000
# 4 0.0000 0.0000 0.0000 35.5085 0.0000 -4.7950
# 5 3.2805 9.5359 12.2214 0.0000 46.5161 0.0000
# 6 0.0000 0.0000 0.0000 -4.7950 0.0000 24.1636
#
#
#
# Elastic Compliance Matrix: (Units=1/GPa)
#
#
# Indices 1 2 3 4 5 6 
#
# 1 0.013678 -0.003680 -0.003452 0.000000 0.000697 0.000000
# 2 -0.003680 0.010101 -0.001125 0.000000 -0.001516 0.000000
# 3 -0.003452 -0.001125 0.009906 0.000000 -0.002129 0.000000
# 4 0.000000 0.000000 0.000000 0.028938 0.000000 0.005742
# 5 0.000697 -0.001516 -0.002129 0.000000 0.022319 0.000000
# 6 0.000000 0.000000 0.000000 0.005742 0.000000 0.042524
#
#
# Mechanical properties :
#
#
# Convention : Reuss Voigt Hill
#
# Bulk Modulus (GPa) = 58.24018 59.94254 59.09136
# Shear Modulus (GPa) = 33.39927 36.27851 34.83889
#
# Velocity S-wave (km/s) = 3.92168 4.08722 4.00530
# Velocity P-wave (km/s) = 6.87926 7.06229 6.97138
#
# Compressibility (1/GPa) = 0.01717028
#
# Stress axis : x y z
#
# Youngs Moduli (GPa) = 73.11052 99.00135 100.94625
#
# Poissons Ratio (x) = 0.36436 0.34850
# Poissons Ratio (y) = 0.26907 0.11354
# Poissons Ratio (z) = 0.25240 0.11135
#
# Static dielectric constant tensor:
#      x y z
#    x 4.236200 0.000000 -0.113130 
#    y 0.000000 3.903170 0.000000 
#    z -0.113130 0.000000 4.611440 
# 
# 
# High freq. dielectric constant tensor:
#      x y z
#    x 1.849540 0.000000 -0.004640 
#    y 0.000000 1.862230 0.000000 
#    z -0.004640 0.000000 1.875630 
# 
# From -- ./inp_files/9271.got.cif
#   From: 2010.03.12/outbox.cif.g09.slc.cpg/sg14_5_cif.got.tgz:9271.got - 2010.03.31 13:35:05.
