data_PCOD8128935
_publ_section_title
;
Structure prediction by ZEFSAII (Michael W. Deem and Ramdas Pophale) SiO2 
 PCOD8128935
Probable space group: P 21/C
;
_chemical_formula_sum "Si O2"
_cell_formula_units_Z 28
_cell_length_a 21.631944
_cell_length_b 8.441904
_cell_length_c 9.528896
_cell_angle_alpha 90.000000
_cell_angle_beta 44.608213
_cell_angle_gamma 90.000000
_cell_volume 1222.006327
_symmetry_space_group_name_H-M "P 21/C"
_symmetry_group_IT_number 14
_symmetry_cell_setting 'monoclinic'
loop_
_space_group_symop_operation_xyz
x,y,z
-x,1/2+y,1/2-z
-x,-y,-z
x,1/2-y,1/2+z
loop_
_atom_site_type_symbol
_atom_site_label
_atom_site_fract_x
_atom_site_fract_y
_atom_site_fract_z
Si Si1 0.209276 0.721628 0.187882
Si Si2 0.895567 0.347558 0.381160
Si Si3 0.384225 0.655853 0.515743
Si Si4 0.323945 0.308893 0.679843
Si Si5 0.219579 0.359150 0.117216
Si Si6 0.491046 0.826483 0.573005
Si Si7 0.954140 0.622114 0.468661
O O1 0.180716 0.848335 0.114894
O O2 0.142312 0.747001 0.424330
O O3 0.203058 0.546235 0.135515
O O4 0.309292 0.733600 0.074189
O O5 0.918786 0.526844 0.388796
O O6 0.981114 0.258756 0.185779
O O7 0.338924 0.485829 0.601624
O O8 0.417545 0.723254 0.610447
O O9 0.466115 0.659381 0.276682
O O10 0.296901 0.191923 0.598474
O O11 0.415522 0.255497 0.598585
O O12 0.246243 0.299613 0.920260
O O13 0.126139 0.288324 0.321048
O O14 0.500000 0.000000 0.500000
O O15 0.000000 0.500000 0.500000
#
# Coordination Sequence:
#
# PCOD8128935 Si02
#       7
#     4   4   4   4   4   4   4
#     4  11  24  44  66  98 135 178 224 285 338 419
#     4  11  23  44  69  97 139 176 228 284 351 409
#     4  12  25  43  71  99 138 180 234 282 347 409
#     4  12  26  44  70 102 136 183 232 289 350 408
#     4  11  25  44  67  96 141 173 232 285 348 412
#     4  12  25  45  68  99 139 183 232 284 348 417
#     4  11  25  45  69 101 141 179 231 291 350 418
#
# _framework density 22.913136999999999
#
# number of rings (size 3 to 8) (size 9 to 14) (size 15 to 20)
#    0.000    0.571    2.857    6.429    2.000    4.000 
#    0.000    0.000    0.000    0.000    0.000    0.000 
#    0.000    0.000    0.000    0.000    0.000    0.000 
#
# Total GULP energy -347296.720376 kJ/mol
# GULP energy per Si atom -12403.454299 kJ/mol
# Density = 2.286099 g / cm^3
# Si number density = 22.913137 Si / 1000 Ang^3
#
#
#
# Elastic Constant Matrix: (Units=GPa)
#
#
# Indices 1 2 3 4 5 6 
#
# 1 94.8249 6.0240 13.2274 0.0000 1.4237 0.0000
# 2 6.0240 46.5375 26.8928 0.0000 -0.4782 0.0000
# 3 13.2274 26.8928 147.8765 0.0000 -0.9628 0.0000
# 4 0.0000 0.0000 0.0000 37.8623 0.0000 -4.6967
# 5 1.4237 -0.4782 -0.9628 0.0000 38.2802 0.0000
# 6 0.0000 0.0000 0.0000 -4.6967 0.0000 38.9068
#
#
#
# Elastic Compliance Matrix: (Units=1/GPa)
#
#
# Indices 1 2 3 4 5 6 
#
# 1 0.010722 -0.000935 -0.000792 0.000000 -0.000430 0.000000
# 2 -0.000935 0.024094 -0.004297 0.000000 0.000228 0.000000
# 3 -0.000792 -0.004297 0.007616 0.000000 0.000167 0.000000
# 4 0.000000 0.000000 0.000000 0.026813 0.000000 0.003237
# 5 -0.000430 0.000228 0.000167 0.000000 0.026146 0.000000
# 6 0.000000 0.000000 0.000000 0.003237 0.000000 0.026093
#
#
# Mechanical properties :
#
#
# Convention : Reuss Voigt Hill
#
# Bulk Modulus (GPa) = 32.91045 42.39192 37.65118
# Shear Modulus (GPa) = 34.80451 39.21619 37.01035
#
# Velocity S-wave (km/s) = 3.90163 4.14153 4.02337
# Velocity P-wave (km/s) = 5.88993 6.43514 6.16856
#
# Compressibility (1/GPa) = 0.03038549
#
# Stress axis : x y z
#
# Youngs Moduli (GPa) = 93.26569 41.50358 131.30735
#
# Poissons Ratio (x) = 0.03879 0.10398
# Poissons Ratio (y) = 0.08718 0.56419
# Poissons Ratio (z) = 0.07386 0.17833
#
# Static dielectric constant tensor:
#      x y z
#    x 4.066910 0.000000 0.210270 
#    y 0.000000 3.941160 0.000000 
#    z 0.210270 0.000000 4.563890 
# 
# 
# High freq. dielectric constant tensor:
#      x y z
#    x 1.914330 0.000000 -0.004680 
#    y 0.000000 1.890980 0.000000 
#    z -0.004680 0.000000 1.925530 
# 
# From -- ./inp_files/18728.got.cif
#   From: 2010.03.12/outbox.cif.g09.slc.cpg/sg14_10_cif.got.tgz:18728.got - 2010.03.31 13:35:05.
