data_PCOD8128023
_publ_section_title
;
Structure prediction by ZEFSAII (Michael W. Deem and Ramdas Pophale) SiO2 
 PCOD8128023
Probable space group: P 21/C
;
_chemical_formula_sum "Si O2"
_cell_formula_units_Z 16
_cell_length_a 6.582252
_cell_length_b 9.152778
_cell_length_c 13.718621
_cell_angle_alpha 90.000000
_cell_angle_beta 122.828341
_cell_angle_gamma 90.000000
_cell_volume 694.498809
_symmetry_space_group_name_H-M "P 21/C"
_symmetry_group_IT_number 14
_symmetry_cell_setting 'monoclinic'
loop_
_space_group_symop_operation_xyz
x,y,z
-x,1/2+y,1/2-z
-x,-y,-z
x,1/2-y,1/2+z
loop_
_atom_site_type_symbol
_atom_site_label
_atom_site_fract_x
_atom_site_fract_y
_atom_site_fract_z
Si Si1 0.356122 0.386255 0.322602
Si Si2 0.343100 0.363484 0.685159
Si Si3 0.644686 0.786763 0.495513
Si Si4 0.177915 0.531056 0.820348
O O1 0.450095 0.542963 0.314317
O O2 0.471615 0.257375 0.286782
O O3 0.423668 0.348279 0.451448
O O4 0.067360 0.379994 0.230225
O O5 0.208959 0.278948 0.560293
O O6 0.173110 0.463374 0.709161
O O7 0.400972 0.859869 0.391136
O O8 0.809692 0.903160 0.595310
#
# Coordination Sequence:
#
# PCOD8128023 Si02
#       4
#     4   4   4   4
#     4  11  25  44  71  97 141 176 224 280 331 402
#     4  11  23  45  67 102 135 174 227 277 326 408
#     4  10  23  45  67 101 136 176 225 279 328 406
#     4  10  24  46  66 102 142 172 220 281 339 394
#
# _framework density 23.038195999999999
#
# number of rings (size 3 to 8) (size 9 to 14) (size 15 to 20)
#    0.000    1.500    2.500    0.750    7.000    2.000 
#    4.500    0.000    0.000    0.000    0.000    0.000 
#    0.000    0.000    0.000    0.000    0.000    0.000 
#
# Total GULP energy -198316.130467 kJ/mol
# GULP energy per Si atom -12394.758154 kJ/mol
# Density = 2.298576 g / cm^3
# Si number density = 23.038196 Si / 1000 Ang^3
#
#
#
# Elastic Constant Matrix: (Units=GPa)
#
#
# Indices 1 2 3 4 5 6 
#
# 1 50.2472 42.5777 45.2179 0.0000 -16.2277 0.0000
# 2 42.5777 106.2805 56.3102 0.0000 -9.9671 0.0000
# 3 45.2179 56.3102 119.0822 0.0000 -44.0833 0.0000
# 4 0.0000 0.0000 0.0000 43.3905 0.0000 -16.4023
# 5 -16.2277 -9.9671 -44.0833 0.0000 35.1162 0.0000
# 6 0.0000 0.0000 0.0000 -16.4023 0.0000 32.3793
#
#
#
# Elastic Compliance Matrix: (Units=1/GPa)
#
#
# Indices 1 2 3 4 5 6 
#
# 1 0.036888 -0.010509 -0.007158 0.000000 0.005078 0.000000
# 2 -0.010509 0.016626 -0.007327 0.000000 -0.009336 0.000000
# 3 -0.007158 -0.007327 0.023513 0.000000 0.024130 0.000000
# 4 0.000000 0.000000 0.000000 0.028505 0.000000 0.014440
# 5 0.005078 -0.009336 0.024130 0.000000 0.058465 0.000000
# 6 0.000000 0.000000 0.000000 0.014440 0.000000 0.038199
#
#
# Mechanical properties :
#
#
# Convention : Reuss Voigt Hill
#
# Bulk Modulus (GPa) = 36.98475 62.64684 49.81580
# Shear Modulus (GPa) = 19.14258 30.94414 25.04336
#
# Velocity S-wave (km/s) = 2.88567 3.66890 3.30060
# Velocity P-wave (km/s) = 5.21453 6.72305 6.01626
#
# Compressibility (1/GPa) = 0.02703817
#
# Stress axis : x y z
#
# Youngs Moduli (GPa) = 27.10888 60.14665 42.52971
#
# Poissons Ratio (x) = 0.63211 0.30441
# Poissons Ratio (y) = 0.28490 0.31163
# Poissons Ratio (z) = 0.19404 0.44072
#
# Static dielectric constant tensor:
#      x y z
#    x 3.701150 0.000000 -0.521810 
#    y 0.000000 4.377130 0.000000 
#    z -0.521810 0.000000 4.257770 
# 
# 
# High freq. dielectric constant tensor:
#      x y z
#    x 1.872480 0.000000 -0.041640 
#    y 0.000000 1.935920 0.000000 
#    z -0.041640 0.000000 1.914220 
# 
# From -- ./inp_files/36657.got.cif
#   From: 2010.03.12/outbox.cif.g09.slc.cpg/sg14_19_cif.got.tgz:36657.got - 2010.03.31 13:35:05.
