data_PCOD8128983
_publ_section_title
;
Structure prediction by ZEFSAII (Michael W. Deem and Ramdas Pophale) SiO2 
 PCOD8128983
Probable space group: P 21/C
;
_chemical_formula_sum "Si O2"
_cell_formula_units_Z 32
_cell_length_a 7.814719
_cell_length_b 30.056132
_cell_length_c 11.491793
_cell_angle_alpha 90.000000
_cell_angle_beta 145.743059
_cell_angle_gamma 90.000000
_cell_volume 1519.390485
_symmetry_space_group_name_H-M "P 21/C"
_symmetry_group_IT_number 14
_symmetry_cell_setting 'monoclinic'
loop_
_space_group_symop_operation_xyz
x,y,z
-x,1/2+y,1/2-z
-x,-y,-z
x,1/2-y,1/2+z
loop_
_atom_site_type_symbol
_atom_site_label
_atom_site_fract_x
_atom_site_fract_y
_atom_site_fract_z
Si Si1 0.173718 0.545937 0.603947
Si Si2 0.875736 0.416860 0.176594
Si Si3 0.841566 0.954018 0.383256
Si Si4 0.670352 0.657781 0.553255
Si Si5 0.749557 0.883909 0.739792
Si Si6 0.381999 0.204733 0.208498
Si Si7 0.925619 0.702361 0.916114
Si Si8 0.021521 0.626051 0.146069
O O1 0.232549 0.554845 0.773415
O O2 0.000000 0.500000 0.500000
O O3 0.982448 0.584927 0.437793
O O4 0.486384 0.542112 0.709991
O O5 0.043748 0.372997 0.317768
O O6 0.588375 0.403626 0.934910
O O7 0.107750 0.444270 0.225093
O O8 0.992811 0.914621 0.541682
O O9 0.000000 0.000000 0.500000
O O10 0.645941 0.696470 0.444651
O O11 0.367765 0.627978 0.383729
O O12 0.707839 0.679308 0.700256
O O13 0.774306 0.834862 0.807548
O O14 0.806305 0.881712 0.634476
O O15 0.734773 0.208179 0.443373
O O16 0.205275 0.249591 0.132048
O O17 0.921892 0.672085 0.029207
#
# Coordination Sequence:
#
# PCOD8128983 Si02
#       8
#     4   4   4   4   4   4   4   4
#     4  12  29  46  72 109 139 188 236 286 355 418
#     4  12  24  48  75  95 145 185 232 290 344 416
#     4  12  27  47  73 106 143 184 235 292 348 419
#     4  11  23  46  69  95 139 183 225 288 347 408
#     4  12  25  46  71 102 140 181 233 292 347 417
#     4  11  26  42  67 101 133 181 231 285 347 416
#     4  11  26  44  67 100 137 180 232 283 353 414
#     4  11  26  45  69 105 137 183 233 284 351 417
#
# _framework density 21.061077999999998
#
# number of rings (size 3 to 8) (size 9 to 14) (size 15 to 20)
#    0.000    0.500    5.000    2.250    7.000    3.500 
#    0.000    0.000    0.000    0.000    0.000    0.000 
#    0.000    0.000    0.000    0.000    0.000    0.000 
#
# Total GULP energy -397005.521614 kJ/mol
# GULP energy per Si atom -12406.422550 kJ/mol
# Density = 2.101314 g / cm^3
# Si number density = 21.061078 Si / 1000 Ang^3
#
#
#
# Elastic Constant Matrix: (Units=GPa)
#
#
# Indices 1 2 3 4 5 6 
#
# 1 119.7868 43.4076 38.7241 0.0000 3.6252 0.0000
# 2 43.4076 150.2749 52.0187 0.0000 10.5042 0.0000
# 3 38.7241 52.0187 120.6907 0.0000 15.0127 0.0000
# 4 0.0000 0.0000 0.0000 34.4328 0.0000 9.3300
# 5 3.6252 10.5042 15.0127 0.0000 40.7091 0.0000
# 6 0.0000 0.0000 0.0000 9.3300 0.0000 32.3719
#
#
#
# Elastic Compliance Matrix: (Units=1/GPa)
#
#
# Indices 1 2 3 4 5 6 
#
# 1 0.009836 -0.002072 -0.002327 0.000000 0.000517 0.000000
# 2 -0.002072 0.008283 -0.002791 0.000000 -0.000924 0.000000
# 3 -0.002327 -0.002791 0.010606 0.000000 -0.002984 0.000000
# 4 0.000000 0.000000 0.000000 0.031502 0.000000 -0.009079
# 5 0.000517 -0.000924 -0.002984 0.000000 0.025857 0.000000
# 6 0.000000 0.000000 0.000000 -0.009079 0.000000 0.033508
#
#
# Mechanical properties :
#
#
# Convention : Reuss Voigt Hill
#
# Bulk Modulus (GPa) = 69.70380 73.22813 71.46596
# Shear Modulus (GPa) = 36.03510 38.60958 37.32234
#
# Velocity S-wave (km/s) = 4.14089 4.28626 4.21420
# Velocity P-wave (km/s) = 7.48535 7.70330 7.59511
#
# Compressibility (1/GPa) = 0.01434642
#
# Stress axis : x y z
#
# Youngs Moduli (GPa) = 101.67217 120.72295 94.28356
#
# Poissons Ratio (x) = 0.25009 0.21942
# Poissons Ratio (y) = 0.21062 0.26311
# Poissons Ratio (z) = 0.23661 0.33689
#
# Static dielectric constant tensor:
#      x y z
#    x 4.755100 0.000000 0.341460 
#    y 0.000000 3.893920 0.000000 
#    z 0.341460 0.000000 4.101950 
# 
# 
# High freq. dielectric constant tensor:
#      x y z
#    x 1.835120 0.000000 0.000840 
#    y 0.000000 1.832380 0.000000 
#    z 0.000840 0.000000 1.838930 
# 
# From -- ./inp_files/27182.got.cif
#   From: 2010.03.12/outbox.cif.g09.slc.cpg/sg14_14_cif.got.tgz:27182.got - 2010.03.31 13:35:05.
