data_PCOD8128183
_publ_section_title
;
Structure prediction by ZEFSAII (Michael W. Deem and Ramdas Pophale) SiO2 
 PCOD8128183
Probable space group: P 21/C
;
_chemical_formula_sum "Si O2"
_cell_formula_units_Z 28
_cell_length_a 8.367450
_cell_length_b 29.883719
_cell_length_c 5.361416
_cell_angle_alpha 90.000000
_cell_angle_beta 124.043157
_cell_angle_gamma 90.000000
_cell_volume 1110.863410
_symmetry_space_group_name_H-M "P 21/C"
_symmetry_group_IT_number 14
_symmetry_cell_setting 'monoclinic'
loop_
_space_group_symop_operation_xyz
x,y,z
-x,1/2+y,1/2-z
-x,-y,-z
x,1/2-y,1/2+z
loop_
_atom_site_type_symbol
_atom_site_label
_atom_site_fract_x
_atom_site_fract_y
_atom_site_fract_z
Si Si1 0.722821 0.398410 0.638359
Si Si2 0.371214 0.069776 0.119256
Si Si3 0.107460 0.359470 0.154976
Si Si4 0.882834 0.010783 0.143809
Si Si5 0.978870 0.725238 0.661338
Si Si6 0.407128 0.141320 0.530188
Si Si7 0.434826 0.725022 0.056416
O O1 0.591327 0.424113 0.725271
O O2 0.828096 0.437110 0.572363
O O3 0.594623 0.364005 0.369015
O O4 0.882889 0.367302 0.904313
O O5 0.355788 0.092026 0.378681
O O6 0.214801 0.094634 0.810366
O O7 0.314827 0.017845 0.055083
O O8 0.113937 0.324195 0.389264
O O9 0.220751 0.339740 0.014310
O O10 0.000000 0.000000 0.500000
O O11 0.000000 0.000000 0.000000
O O12 0.907426 0.746024 0.339356
O O13 0.207156 0.721128 0.860787
O O14 0.468315 0.175821 0.365658
O O15 0.507927 0.748392 0.373601
#
# Coordination Sequence:
#
# PCOD8128183 Si02
#       7
#     4   4   4   4   4   4   4
#     4  11  26  47  75 105 147 193 237 303 362 434
#     4  11  26  47  73 108 145 192 244 294 367 436
#     4  11  25  45  72 104 146 186 244 300 358 432
#     4  12  27  49  78 110 147 191 242 299 366 434
#     4  10  24  42  68 104 139 191 240 295 361 425
#     4  11  27  43  74 109 140 196 244 298 363 429
#     4  10  24  44  70 103 147 191 241 299 361 430
#
# _framework density 25.205618999999999
#
# number of rings (size 3 to 8) (size 9 to 14) (size 15 to 20)
#    0.000    1.143    1.429    2.143   16.000    4.000 
#    0.000    0.000    0.000    0.000    0.000    0.000 
#    0.000    0.000    0.000    0.000    0.000    0.000 
#
# Total GULP energy -347245.775518 kJ/mol
# GULP energy per Si atom -12401.634840 kJ/mol
# Density = 2.514825 g / cm^3
# Si number density = 25.205619 Si / 1000 Ang^3
#
#
#
# Elastic Constant Matrix: (Units=GPa)
#
#
# Indices 1 2 3 4 5 6 
#
# 1 128.3844 30.1228 60.2935 0.0000 -10.8221 0.0000
# 2 30.1228 89.6910 -3.1943 0.0000 -4.1032 0.0000
# 3 60.2935 -3.1943 79.7226 0.0000 0.6021 0.0000
# 4 0.0000 0.0000 0.0000 3.7156 0.0000 -23.8022
# 5 -10.8221 -4.1032 0.6021 0.0000 50.0036 0.0000
# 6 0.0000 0.0000 0.0000 -23.8022 0.0000 31.6938
#
#
#
# Elastic Compliance Matrix: (Units=1/GPa)
#
#
# Indices 1 2 3 4 5 6 
#
# 1 0.014485 -0.005133 -0.011182 0.000000 0.002848 0.000000
# 2 -0.005133 0.013026 0.004404 0.000000 -0.000095 0.000000
# 3 -0.011182 0.004404 0.021194 0.000000 -0.002314 0.000000
# 4 0.000000 0.000000 0.000000 -0.070621 0.000000 -0.053037
# 5 0.002848 -0.000095 -0.002314 0.000000 0.020635 0.000000
# 6 0.000000 0.000000 0.000000 -0.053037 0.000000 -0.008279
#
#
# Mechanical properties :
#
#
# Convention : Reuss Voigt Hill
#
# Bulk Modulus (GPa) = 40.18574 52.47133 46.32854
# Shear Modulus (GPa) = 221.68296 31.12100 126.40198
#
# Velocity S-wave (km/s) = 9.38833 3.51762 7.08923
# Velocity P-wave (km/s) = 11.55417 6.11234 9.24282
#
# Compressibility (1/GPa) = 0.02488445
#
# Stress axis : x y z
#
# Youngs Moduli (GPa) = 69.03725 76.77111 47.18250
#
# Poissons Ratio (x) = 0.39404 0.52759
# Poissons Ratio (y) = 0.35435 -0.20781
# Poissons Ratio (z) = 0.77197 -0.33813
#
# Static dielectric constant tensor:
#      x y z
#    x 4.771000 0.000000 -0.091190 
#    y 0.000000 4.533550 0.000000 
#    z -0.091190 0.000000 4.471140 
# 
# 
# High freq. dielectric constant tensor:
#      x y z
#    x 2.023320 0.000000 0.005930 
#    y 0.000000 2.004280 0.000000 
#    z 0.005930 0.000000 2.005440 
# 
# From -- ./inp_files/2165.got.cif
#   From: 2010.03.12/outbox.cif.g09.slc.cpg/sg14_2_cif.got.tgz:2165.got - 2010.03.31 13:35:05.
