data_PCOD8128259
_publ_section_title
;
Structure prediction by ZEFSAII (Michael W. Deem and Ramdas Pophale) SiO2 
 PCOD8128259
Probable space group: P 21/C
;
_chemical_formula_sum "Si O2"
_cell_formula_units_Z 28
_cell_length_a 6.976857
_cell_length_b 27.390927
_cell_length_c 8.800798
_cell_angle_alpha 90.000000
_cell_angle_beta 126.724503
_cell_angle_gamma 90.000000
_cell_volume 1348.040575
_symmetry_space_group_name_H-M "P 21/C"
_symmetry_group_IT_number 14
_symmetry_cell_setting 'monoclinic'
loop_
_space_group_symop_operation_xyz
x,y,z
-x,1/2+y,1/2-z
-x,-y,-z
x,1/2-y,1/2+z
loop_
_atom_site_type_symbol
_atom_site_label
_atom_site_fract_x
_atom_site_fract_y
_atom_site_fract_z
Si Si1 0.320186 0.812249 0.096534
Si Si2 0.230493 0.315790 0.698229
Si Si3 0.547228 0.749827 0.446277
Si Si4 0.049854 0.961633 0.895486
Si Si5 0.259571 0.995310 0.692038
Si Si6 0.435121 0.911958 0.243607
Si Si7 0.445263 0.082057 0.362201
O O1 0.342009 0.776095 0.250141
O O2 0.500703 0.857508 0.219280
O O3 0.409971 0.787329 0.987592
O O4 0.048340 0.828727 0.940012
O O5 0.279815 0.280783 0.580164
O O6 0.390046 0.365229 0.762440
O O7 0.293474 0.288551 0.885258
O O8 0.230343 0.983433 0.855827
O O9 0.802330 0.943761 0.704655
O O10 0.176071 0.918113 0.045074
O O11 0.000000 0.000000 0.000000
O O12 0.408567 0.951451 0.685554
O O13 0.384919 0.047430 0.733424
O O14 0.000000 0.000000 0.500000
O O15 0.405736 0.913429 0.411884
#
# Coordination Sequence:
#
# PCOD8128259 Si02
#       7
#     4   4   4   4   4   4   4
#     4  11  23  43  69  96 132 170 221 273 331 393
#     4  11  23  43  69  96 130 173 218 270 337 384
#     4  10  24  44  66  97 131 169 218 276 329 400
#     4  12  25  44  70  93 135 179 218 276 329 396
#     4  12  26  45  68  99 138 179 222 272 329 398
#     4  12  24  44  66  98 136 174 221 271 332 390
#     4  12  25  44  67  99 137 174 222 275 330 394
#
# _framework density 20.770886000000001
#
# number of rings (size 3 to 8) (size 9 to 14) (size 15 to 20)
#    0.000    0.571    5.714    2.571    2.000    0.000 
#    2.571    1.429    0.000    0.000    0.000    0.000 
#    0.000    0.000    0.000    0.000    0.000    0.000 
#
# Total GULP energy -347167.720449 kJ/mol
# GULP energy per Si atom -12398.847159 kJ/mol
# Density = 2.072361 g / cm^3
# Si number density = 20.770886 Si / 1000 Ang^3
#
#
#
# Elastic Constant Matrix: (Units=GPa)
#
#
# Indices 1 2 3 4 5 6 
#
# 1 98.1900 55.1869 53.2096 0.0000 -6.2221 0.0000
# 2 55.1869 134.7506 40.3610 0.0000 -7.0022 0.0000
# 3 53.2096 40.3610 111.3628 0.0000 -10.7038 0.0000
# 4 0.0000 0.0000 0.0000 23.8041 0.0000 18.9189
# 5 -6.2221 -7.0022 -10.7038 0.0000 38.4241 0.0000
# 6 0.0000 0.0000 0.0000 18.9189 0.0000 1.9391
#
#
#
# Elastic Compliance Matrix: (Units=1/GPa)
#
#
# Indices 1 2 3 4 5 6 
#
# 1 0.016120 -0.004816 -0.005950 0.000000 0.000075 0.000000
# 2 -0.004816 0.009782 -0.001179 0.000000 0.000674 0.000000
# 3 -0.005950 -0.001179 0.012470 0.000000 0.002296 0.000000
# 4 0.000000 0.000000 0.000000 -0.006220 0.000000 0.060683
# 5 0.000075 0.000674 0.002296 0.000000 0.026800 0.000000
# 6 0.000000 0.000000 0.000000 0.060683 0.000000 -0.076353
#
#
# Mechanical properties :
#
#
# Convention : Reuss Voigt Hill
#
# Bulk Modulus (GPa) = 69.04843 71.31318 70.18080
# Shear Modulus (GPa) = 441.84979 25.86986 233.85983
#
# Velocity S-wave (km/s) = 14.60094 3.53297 10.62236
# Velocity P-wave (km/s) = 17.82035 7.14495 13.57599
#
# Compressibility (1/GPa) = 0.01448259
#
# Stress axis : x y z
#
# Youngs Moduli (GPa) = 62.03492 102.23121 80.18984
#
# Poissons Ratio (x) = 0.49234 0.47709
# Poissons Ratio (y) = 0.29876 0.09457
# Poissons Ratio (z) = 0.36908 0.12056
#
# Static dielectric constant tensor:
#      x y z
#    x 3.583850 0.000000 -0.077790 
#    y 0.000000 4.009620 0.000000 
#    z -0.077790 0.000000 3.949210 
# 
# 
# High freq. dielectric constant tensor:
#      x y z
#    x 1.796830 0.000000 -0.002740 
#    y 0.000000 1.830200 0.000000 
#    z -0.002740 0.000000 1.837120 
# 
# From -- ./inp_files/7021.got.cif
#   From: 2010.03.12/outbox.cif.g09.slc.cpg/sg14_4_cif.got.tgz:7021.got - 2010.03.31 13:35:05.
