data_PCOD8128058
_publ_section_title
;
Structure prediction by ZEFSAII (Michael W. Deem and Ramdas Pophale) SiO2 
 PCOD8128058
Probable space group: P 21/C
;
_chemical_formula_sum "Si O2"
_cell_formula_units_Z 20
_cell_length_a 7.166296
_cell_length_b 17.426352
_cell_length_c 12.373699
_cell_angle_alpha 90.000000
_cell_angle_beta 34.077981
_cell_angle_gamma 90.000000
_cell_volume 865.839629
_symmetry_space_group_name_H-M "P 21/C"
_symmetry_group_IT_number 14
_symmetry_cell_setting 'monoclinic'
loop_
_space_group_symop_operation_xyz
x,y,z
-x,1/2+y,1/2-z
-x,-y,-z
x,1/2-y,1/2+z
loop_
_atom_site_type_symbol
_atom_site_label
_atom_site_fract_x
_atom_site_fract_y
_atom_site_fract_z
Si Si1 0.566640 0.658104 0.890933
Si Si2 0.603667 0.889681 0.132293
Si Si3 0.173493 0.175159 0.183739
Si Si4 0.624525 0.550413 0.270509
Si Si5 0.103959 0.423047 0.076917
O O1 0.686005 0.637829 0.713257
O O2 0.715425 0.738434 0.856451
O O3 0.712079 0.592834 0.899436
O O4 0.170581 0.661642 0.089502
O O5 0.220434 0.868447 0.285039
O O6 0.653658 0.982632 0.095197
O O7 0.848506 0.844941 0.933111
O O8 0.446484 0.116864 0.107189
O O9 0.985990 0.512357 0.127973
O O10 0.638895 0.589753 0.145524
#
# Coordination Sequence:
#
# PCOD8128058 Si02
#       5
#     4   4   4   4   4
#     4  12  26  43  69  99 138 181 222 276 340 401
#     4  10  23  46  68 100 130 179 224 277 336 397
#     4  12  25  43  69 100 138 178 225 279 335 397
#     4   9  20  45  74  94 138 173 222 286 327 393
#     4   9  20  45  71  96 136 172 219 282 332 392
#
# _framework density 23.098966999999998
#
# number of rings (size 3 to 8) (size 9 to 14) (size 15 to 20)
#    1.200    0.400    2.000    1.800    2.800    4.800 
#    3.600    2.000    0.000    0.000    0.000    0.000 
#    0.000    0.000    0.000    0.000    0.000    0.000 
#
# Total GULP energy -247916.295386 kJ/mol
# GULP energy per Si atom -12395.814769 kJ/mol
# Density = 2.304639 g / cm^3
# Si number density = 23.098967 Si / 1000 Ang^3
#
#
#
# Elastic Constant Matrix: (Units=GPa)
#
#
# Indices 1 2 3 4 5 6 
#
# 1 115.3600 30.7392 27.5152 0.0000 39.9054 0.0000
# 2 30.7392 78.5678 17.8492 0.0000 18.1949 0.0000
# 3 27.5152 17.8492 38.5137 0.0000 31.7187 0.0000
# 4 0.0000 0.0000 0.0000 19.0017 0.0000 11.3686
# 5 39.9054 18.1949 31.7187 0.0000 47.6699 0.0000
# 6 0.0000 0.0000 0.0000 11.3686 0.0000 18.5098
#
#
#
# Elastic Compliance Matrix: (Units=1/GPa)
#
#
# Indices 1 2 3 4 5 6 
#
# 1 0.012724 -0.002772 0.000211 0.000000 -0.009734 0.000000
# 2 -0.002772 0.014945 -0.004777 0.000000 -0.000206 0.000000
# 3 0.000211 -0.004777 0.059007 0.000000 -0.037615 0.000000
# 4 0.000000 0.000000 0.000000 0.083200 0.000000 -0.051101
# 5 -0.009734 -0.000206 -0.037615 0.000000 0.054233 0.000000
# 6 0.000000 0.000000 0.000000 -0.051101 0.000000 0.085411
#
#
# Mechanical properties :
#
#
# Convention : Reuss Voigt Hill
#
# Bulk Modulus (GPa) = 13.88893 42.73875 28.31384
# Shear Modulus (GPa) = 14.35974 27.45880 20.90927
#
# Velocity S-wave (km/s) = 2.49602 3.45156 3.01192
# Velocity P-wave (km/s) = 3.78585 5.86745 4.93759
#
# Compressibility (1/GPa) = 0.07199980
#
# Stress axis : x y z
#
# Youngs Moduli (GPa) = 78.59197 66.91135 16.94723
#
# Poissons Ratio (x) = 0.18547 -0.00357
# Poissons Ratio (y) = 0.21785 0.08095
# Poissons Ratio (z) = -0.01655 0.31962
#
# Static dielectric constant tensor:
#      x y z
#    x 3.919200 0.000000 0.185600 
#    y 0.000000 4.002490 0.000000 
#    z 0.185600 0.000000 3.862010 
# 
# 
# High freq. dielectric constant tensor:
#      x y z
#    x 1.905950 0.000000 0.024710 
#    y 0.000000 1.903630 0.000000 
#    z 0.024710 0.000000 1.896380 
# 
# From -- ./inp_files/21446.got.cif
#   From: 2010.03.12/outbox.cif.g09.slc.cpg/sg14_11_cif.got.tgz:21446.got - 2010.03.31 13:35:05.
