data_PCOD8128844
_publ_section_title
;
Structure prediction by ZEFSAII (Michael W. Deem and Ramdas Pophale) SiO2 
 PCOD8128844
Probable space group: P 21/C
;
_chemical_formula_sum "Si O2"
_cell_formula_units_Z 32
_cell_length_a 17.600007
_cell_length_b 11.055098
_cell_length_c 15.342350
_cell_angle_alpha 90.000000
_cell_angle_beta 150.660423
_cell_angle_gamma 90.000000
_cell_volume 1462.681797
_symmetry_space_group_name_H-M "P 21/C"
_symmetry_group_IT_number 14
_symmetry_cell_setting 'monoclinic'
loop_
_space_group_symop_operation_xyz
x,y,z
-x,1/2+y,1/2-z
-x,-y,-z
x,1/2-y,1/2+z
loop_
_atom_site_type_symbol
_atom_site_label
_atom_site_fract_x
_atom_site_fract_y
_atom_site_fract_z
Si Si1 0.543155 0.755392 0.140394
Si Si2 0.543127 0.744670 0.445895
Si Si3 0.237285 0.420781 0.439989
Si Si4 0.016691 0.750065 0.766724
Si Si5 0.762713 0.579130 0.965408
Si Si6 0.206827 0.852131 0.607833
Si Si7 0.206884 0.647799 0.305927
Si Si8 0.499994 0.499963 0.823413
O O1 0.671512 0.805369 0.335002
O O2 0.498376 0.617858 0.115283
O O3 0.611265 0.763316 0.111263
O O4 0.390910 0.836215 0.997093
O O5 0.671420 0.694685 0.507906
O O6 0.390848 0.663889 0.284689
O O7 0.498416 0.882219 0.381521
O O8 0.089629 0.370059 0.345187
O O9 0.175041 0.509003 0.301757
O O10 0.344867 0.500984 0.610204
O O11 0.910365 0.870189 0.665943
O O12 0.120379 0.757243 0.782969
O O13 0.120308 0.742870 0.957807
O O14 0.824986 0.490913 0.951697
O O15 0.655066 0.498946 0.920363
O O16 0.148728 0.831086 0.648761
#
# Coordination Sequence:
#
# PCOD8128844 Si02
#       8
#     4   4   4   4   4   4   4   4
#     4  11  23  41  67  99 130 174 230 283 335 397
#     4  11  23  41  67  99 130 174 230 283 335 397
#     4  12  23  42  71  98 129 179 233 278 333 400
#     4  12  26  42  64 104 138 180 214 274 350 412
#     4  12  23  42  71  98 129 179 233 278 333 400
#     4  11  25  45  70 100 139 181 225 281 340 405
#     4  11  25  45  70 100 139 181 225 281 340 405
#     4  12  21  40  67  96 132 172 222 286 336 392
#
# _framework density 21.877624000000001
#
# number of rings (size 3 to 8) (size 9 to 14) (size 15 to 20)
#    0.000    0.500    5.000    3.375    0.000    5.000 
#    0.000    0.000    0.000    6.000    0.000    0.000 
#    0.000    0.000    0.000    0.000    0.000    0.000 
#
# Total GULP energy -396925.468182 kJ/mol
# GULP energy per Si atom -12403.920881 kJ/mol
# Density = 2.182783 g / cm^3
# Si number density = 21.877624 Si / 1000 Ang^3
#
#
#
# Elastic Constant Matrix: (Units=GPa)
#
#
# Indices 1 2 3 4 5 6 
#
# 1 116.2248 30.6813 43.9266 0.0000 -13.8508 0.0000
# 2 30.6813 113.3548 18.4453 0.0000 -12.4851 0.0000
# 3 43.9266 18.4453 85.6211 0.0000 -17.4397 0.0000
# 4 0.0000 0.0000 0.0000 40.3410 0.0000 3.2635
# 5 -13.8508 -12.4851 -17.4397 0.0000 25.7384 0.0000
# 6 0.0000 0.0000 0.0000 3.2635 0.0000 37.1146
#
#
#
# Elastic Compliance Matrix: (Units=1/GPa)
#
#
# Indices 1 2 3 4 5 6 
#
# 1 0.011224 -0.002044 -0.004977 0.000000 0.001677 0.000000
# 2 -0.002044 0.009811 -0.000371 0.000000 0.003408 0.000000
# 3 -0.004977 -0.000371 0.015929 0.000000 0.007935 0.000000
# 4 0.000000 0.000000 0.000000 0.024966 0.000000 -0.002195
# 5 0.001677 0.003408 0.007935 0.000000 0.046784 0.000000
# 6 0.000000 0.000000 0.000000 -0.002195 0.000000 0.027137
#
#
# Mechanical properties :
#
#
# Convention : Reuss Voigt Hill
#
# Bulk Modulus (GPa) = 45.08298 55.70077 50.39187
# Shear Modulus (GPa) = 31.64021 35.44864 33.54442
#
# Velocity S-wave (km/s) = 3.80707 4.02968 3.91995
# Velocity P-wave (km/s) = 6.32271 6.86779 6.60088
#
# Compressibility (1/GPa) = 0.02218132
#
# Stress axis : x y z
#
# Youngs Moduli (GPa) = 89.09325 101.92965 62.77988
#
# Poissons Ratio (x) = 0.20830 0.31243
# Poissons Ratio (y) = 0.18206 0.02329
# Poissons Ratio (z) = 0.44338 0.03781
#
# Static dielectric constant tensor:
#      x y z
#    x 3.997010 0.000000 0.000030 
#    y 0.000000 3.888680 0.000000 
#    z 0.000030 0.000000 3.996830 
# 
# 
# High freq. dielectric constant tensor:
#      x y z
#    x 1.858660 0.000000 0.002270 
#    y 0.000000 1.865180 0.000000 
#    z 0.002270 0.000000 1.860870 
# 
# From -- ./inp_files/49036.got.cif
#   From: 2010.03.12/outbox.cif.g09.slc.cpg/sg14_25_cif.got.tgz:49036.got - 2010.03.31 13:35:05.
