data_PCOD8128496
_publ_section_title
;
Structure prediction by ZEFSAII (Michael W. Deem and Ramdas Pophale) SiO2 
 PCOD8128496
Probable space group: P 21/C
;
_chemical_formula_sum "Si O2"
_cell_formula_units_Z 32
_cell_length_a 8.349272
_cell_length_b 14.249398
_cell_length_c 23.772959
_cell_angle_alpha 90.000000
_cell_angle_beta 149.974884
_cell_angle_gamma 90.000000
_cell_volume 1415.232998
_symmetry_space_group_name_H-M "P 21/C"
_symmetry_group_IT_number 14
_symmetry_cell_setting 'monoclinic'
loop_
_space_group_symop_operation_xyz
x,y,z
-x,1/2+y,1/2-z
-x,-y,-z
x,1/2-y,1/2+z
loop_
_atom_site_type_symbol
_atom_site_label
_atom_site_fract_x
_atom_site_fract_y
_atom_site_fract_z
Si Si1 0.120052 0.749740 0.541704
Si Si2 0.754732 0.852868 0.090826
Si Si3 0.072118 0.874675 0.933385
Si Si4 0.176066 0.179648 0.255258
Si Si5 0.838073 0.433128 0.749870
Si Si6 0.142701 0.070659 0.993569
Si Si7 0.798572 0.843316 0.542857
Si Si8 0.892701 0.372860 0.193615
O O1 0.963404 0.719551 0.434028
O O2 0.458110 0.792986 0.628961
O O3 0.127870 0.650745 0.578982
O O4 0.922198 0.824768 0.517059
O O5 0.728963 0.751443 0.055122
O O6 0.062886 0.859058 0.225525
O O7 0.450381 0.872371 0.037597
O O8 0.770523 0.930265 0.046793
O O9 0.874525 0.882625 0.816023
O O10 0.003733 0.963057 0.956543
O O11 0.073239 0.118486 0.277409
O O12 0.970110 0.274318 0.186949
O O13 0.470146 0.405956 0.626961
O O14 0.939028 0.403477 0.843609
O O15 0.876808 0.544815 0.757631
O O16 0.469966 0.900108 0.433225
#
# Coordination Sequence:
#
# PCOD8128496 Si02
#       8
#     4   4   4   4   4   4   4   4
#     4  11  26  41  61  95 140 176 205 270 350 396
#     4  11  20  39  69  96 129 164 229 284 323 383
#     4  12  21  41  68  99 133 164 233 277 335 387
#     4  12  24  42  66 100 132 175 216 288 334 394
#     4  12  23  43  74  96 130 173 234 276 332 398
#     4  11  23  41  70 105 124 172 228 292 326 384
#     4  11  25  42  62  96 137 181 217 264 339 414
#     4  12  23  42  71  96 129 177 231 279 331 392
#
# _framework density 22.611118999999999
#
# number of rings (size 3 to 8) (size 9 to 14) (size 15 to 20)
#    0.000    0.500    6.250    2.625    1.750    1.000 
#    0.000    0.625    0.000    0.000    0.000    0.000 
#    0.000    0.000    0.000    0.000    0.000    0.000 
#
# Total GULP energy -396768.864681 kJ/mol
# GULP energy per Si atom -12399.027021 kJ/mol
# Density = 2.255966 g / cm^3
# Si number density = 22.611119 Si / 1000 Ang^3
#
#
#
# Elastic Constant Matrix: (Units=GPa)
#
#
# Indices 1 2 3 4 5 6 
#
# 1 59.1469 -0.5620 8.3192 0.0000 -1.7669 0.0000
# 2 -0.5620 63.5170 9.2405 0.0000 3.8765 0.0000
# 3 8.3192 9.2405 102.2252 0.0000 -9.5706 0.0000
# 4 0.0000 0.0000 0.0000 34.1258 0.0000 -4.2575
# 5 -1.7669 3.8765 -9.5706 0.0000 27.5324 0.0000
# 6 0.0000 0.0000 0.0000 -4.2575 0.0000 39.8499
#
#
#
# Elastic Compliance Matrix: (Units=1/GPa)
#
#
# Indices 1 2 3 4 5 6 
#
# 1 0.017120 0.000315 -0.001368 0.000000 0.000579 0.000000
# 2 0.000315 0.016177 -0.001756 0.000000 -0.002868 0.000000
# 3 -0.001368 -0.001756 0.010406 0.000000 0.003777 0.000000
# 4 0.000000 0.000000 0.000000 0.029699 0.000000 0.003173
# 5 0.000579 -0.002868 0.003777 0.000000 0.038075 0.000000
# 6 0.000000 0.000000 0.000000 0.003173 0.000000 0.025433
#
#
# Mechanical properties :
#
#
# Convention : Reuss Voigt Hill
#
# Bulk Modulus (GPa) = 26.25701 28.76496 27.51099
# Shear Modulus (GPa) = 32.21179 34.16104 33.18641
#
# Velocity S-wave (km/s) = 3.77848 3.89113 3.83522
# Velocity P-wave (km/s) = 5.53837 5.73908 5.63962
#
# Compressibility (1/GPa) = 0.03808507
#
# Stress axis : x y z
#
# Youngs Moduli (GPa) = 58.41223 61.81551 96.09866
#
# Poissons Ratio (x) = -0.01948 0.13142
# Poissons Ratio (y) = -0.01841 0.16879
# Poissons Ratio (z) = 0.07988 0.10858
#
# Static dielectric constant tensor:
#      x y z
#    x 4.523570 0.000000 -0.297680 
#    y 0.000000 4.086310 0.000000 
#    z -0.297680 0.000000 4.018110 
# 
# 
# High freq. dielectric constant tensor:
#      x y z
#    x 1.907210 0.000000 -0.014060 
#    y 0.000000 1.887200 0.000000 
#    z -0.014060 0.000000 1.881040 
# 
# From -- ./inp_files/72493.got.cif
#   From: 2010.03.12/outbox.cif.g09.slc.cpg/sg14_37_cif.got.tgz:72493.got - 2010.03.31 13:35:05.
