data_PCOD8128964
_publ_section_title
;
Structure prediction by ZEFSAII (Michael W. Deem and Ramdas Pophale) SiO2 
 PCOD8128964
Probable space group: P 21/C
;
_chemical_formula_sum "Si O2"
_cell_formula_units_Z 28
_cell_length_a 9.334674
_cell_length_b 18.679067
_cell_length_c 12.531524
_cell_angle_alpha 90.000000
_cell_angle_beta 144.895401
_cell_angle_gamma 90.000000
_cell_volume 1256.549591
_symmetry_space_group_name_H-M "P 21/C"
_symmetry_group_IT_number 14
_symmetry_cell_setting 'monoclinic'
loop_
_space_group_symop_operation_xyz
x,y,z
-x,1/2+y,1/2-z
-x,-y,-z
x,1/2-y,1/2+z
loop_
_atom_site_type_symbol
_atom_site_label
_atom_site_fract_x
_atom_site_fract_y
_atom_site_fract_z
Si Si1 0.247199 0.685560 0.687530
Si Si2 0.978418 0.325387 0.878877
Si Si3 0.456050 0.919484 0.935732
Si Si4 0.741309 0.974045 0.709688
Si Si5 0.840148 0.573025 0.492644
Si Si6 0.412787 0.188782 0.803007
Si Si7 0.314668 0.320754 0.894958
O O1 0.221926 0.767546 0.707095
O O2 0.346199 0.688397 0.626531
O O3 0.990844 0.641121 0.536860
O O4 0.441507 0.653249 0.890877
O O5 0.832929 0.400015 0.766375
O O6 0.113364 0.291264 0.856965
O O7 0.173779 0.337375 0.092038
O O8 0.615716 0.900027 0.928553
O O9 0.552128 0.869458 0.086724
O O10 0.500000 0.000000 0.000000
O O11 0.805411 0.892362 0.724404
O O12 0.500000 0.000000 0.500000
O O13 0.716950 0.976475 0.824328
O O14 0.975982 0.024113 0.822894
O O15 0.370512 0.266014 0.832805
#
# Coordination Sequence:
#
# PCOD8128964 Si02
#       7
#     4   4   4   4   4   4   4
#     4  11  24  44  71 102 136 176 237 283 341 420
#     4  11  26  44  69 101 136 179 236 280 343 425
#     4  12  28  47  70 101 144 184 229 287 357 417
#     4  11  24  42  71 102 135 181 228 283 348 414
#     4  11  26  43  70 103 141 180 232 286 347 417
#     4  11  27  44  71 102 136 183 227 294 346 408
#     4  11  23  45  70  99 137 179 228 285 349 406
#
# _framework density 22.283244
#
# number of rings (size 3 to 8) (size 9 to 14) (size 15 to 20)
#    0.000    0.857    2.857    2.571   12.000    2.857 
#    0.000    0.000    0.000    0.000    0.000    0.000 
#    0.000    0.000    0.000    0.000    0.000    0.000 
#
# Total GULP energy -347171.734300 kJ/mol
# GULP energy per Si atom -12398.990511 kJ/mol
# Density = 2.223253 g / cm^3
# Si number density = 22.283244 Si / 1000 Ang^3
#
#
#
# Elastic Constant Matrix: (Units=GPa)
#
#
# Indices 1 2 3 4 5 6 
#
# 1 140.9685 31.5054 43.8915 0.0000 1.5736 0.0000
# 2 31.5054 106.9135 25.3791 0.0000 -2.7504 0.0000
# 3 43.8915 25.3791 129.7529 0.0000 -9.2496 0.0000
# 4 0.0000 0.0000 0.0000 27.7114 0.0000 0.2445
# 5 1.5736 -2.7504 -9.2496 0.0000 27.7339 0.0000
# 6 0.0000 0.0000 0.0000 0.2445 0.0000 36.9182
#
#
#
# Elastic Compliance Matrix: (Units=1/GPa)
#
#
# Indices 1 2 3 4 5 6 
#
# 1 0.008328 -0.001886 -0.002556 0.000000 -0.001512 0.000000
# 2 -0.001886 0.010239 -0.001316 0.000000 0.000684 0.000000
# 3 -0.002556 -0.001316 0.009045 0.000000 0.003031 0.000000
# 4 0.000000 0.000000 0.000000 0.036088 0.000000 -0.000239
# 5 -0.001512 0.000684 0.003031 0.000000 0.037221 0.000000
# 6 0.000000 0.000000 0.000000 -0.000239 0.000000 0.027089
#
#
# Mechanical properties :
#
#
# Convention : Reuss Voigt Hill
#
# Bulk Modulus (GPa) = 62.12771 64.35412 63.24091
# Shear Modulus (GPa) = 34.50841 36.92995 35.71918
#
# Velocity S-wave (km/s) = 3.93953 4.07541 4.00804
# Velocity P-wave (km/s) = 6.97385 7.14759 7.06125
#
# Compressibility (1/GPa) = 0.01609588
#
# Stress axis : x y z
#
# Youngs Moduli (GPa) = 120.07614 97.66415 110.55788
#
# Poissons Ratio (x) = 0.18422 0.28258
# Poissons Ratio (y) = 0.22650 0.14549
# Poissons Ratio (z) = 0.30691 0.12852
#
# Static dielectric constant tensor:
#      x y z
#    x 4.054470 0.000000 -0.085170 
#    y 0.000000 4.766720 0.000000 
#    z -0.085170 0.000000 4.189170 
# 
# 
# High freq. dielectric constant tensor:
#      x y z
#    x 1.878220 0.000000 -0.007580 
#    y 0.000000 1.878240 0.000000 
#    z -0.007580 0.000000 1.894210 
# 
# From -- ./inp_files/26838.got.cif
#   From: 2010.03.12/outbox.cif.g09.slc.cpg/sg14_14_cif.got.tgz:26838.got - 2010.03.31 13:35:05.
