data_PCOD8128755
_publ_section_title
;
Structure prediction by ZEFSAII (Michael W. Deem and Ramdas Pophale) SiO2 
 PCOD8128755
Probable space group: P 21/C
;
_chemical_formula_sum "Si O2"
_cell_formula_units_Z 20
_cell_length_a 10.295914
_cell_length_b 10.316933
_cell_length_c 8.822315
_cell_angle_alpha 90.000000
_cell_angle_beta 44.763631
_cell_angle_gamma 90.000000
_cell_volume 659.908954
_symmetry_space_group_name_H-M "P 21/C"
_symmetry_group_IT_number 14
_symmetry_cell_setting 'monoclinic'
loop_
_space_group_symop_operation_xyz
x,y,z
-x,1/2+y,1/2-z
-x,-y,-z
x,1/2-y,1/2+z
loop_
_atom_site_type_symbol
_atom_site_label
_atom_site_fract_x
_atom_site_fract_y
_atom_site_fract_z
Si Si1 0.095065 0.750147 0.840294
Si Si2 0.515959 0.253027 0.858403
Si Si3 0.633011 0.495316 0.129113
Si Si4 0.007596 0.069630 0.826410
Si Si5 0.185241 0.396301 0.738024
O O1 0.021706 0.891712 0.968714
O O2 0.005563 0.638734 0.019632
O O3 0.315425 0.745225 0.662832
O O4 0.018113 0.715037 0.734976
O O5 0.518701 0.396413 0.786030
O O6 0.542218 0.147340 0.700935
O O7 0.314043 0.229614 0.099803
O O8 0.696837 0.513403 0.248550
O O9 0.797011 0.501803 0.869866
O O10 0.849797 0.978090 0.885577
#
# Coordination Sequence:
#
# PCOD8128755 Si02
#       5
#     4   4   4   4   4
#     4  11  23  40  70  98 136 180 230 285 337 410
#     4  12  23  40  70 103 132 179 234 287 337 408
#     4  11  23  41  70 100 135 184 231 281 343 413
#     4  11  22  46  70  99 138 186 231 280 347 416
#     4  11  22  44  69  94 135 190 231 274 349 423
#
# _framework density 30.307209
#
# number of rings (size 3 to 8) (size 9 to 14) (size 15 to 20)
#    0.000    0.800    6.000    3.000    2.800    0.000 
#    0.000    2.000    8.800    0.000    0.000    0.000 
#    0.000    0.000    0.000    0.000    0.000    0.000 
#
# Total GULP energy -248033.530824 kJ/mol
# GULP energy per Si atom -12401.676541 kJ/mol
# Density = 3.023823 g / cm^3
# Si number density = 30.307209 Si / 1000 Ang^3
#
#
#
# Elastic Constant Matrix: (Units=GPa)
#
#
# Indices 1 2 3 4 5 6 
#
# 1 131.2476 -3.3059 63.3877 0.0000 2.0180 0.0000
# 2 -3.3059 77.6164 13.1935 0.0000 2.0704 0.0000
# 3 63.3877 13.1935 98.4520 0.0000 -5.9302 0.0000
# 4 0.0000 0.0000 0.0000 48.8849 0.0000 -5.4106
# 5 2.0180 2.0704 -5.9302 0.0000 49.7531 0.0000
# 6 0.0000 0.0000 0.0000 -5.4106 0.0000 42.9176
#
#
#
# Elastic Compliance Matrix: (Units=1/GPa)
#
#
# Indices 1 2 3 4 5 6 
#
# 1 0.011390 0.001827 -0.007665 0.000000 -0.001452 0.000000
# 2 0.001827 0.013506 -0.003046 0.000000 -0.000999 0.000000
# 3 -0.007665 -0.003046 0.015639 0.000000 0.002302 0.000000
# 4 0.000000 0.000000 0.000000 0.020746 0.000000 0.002615
# 5 -0.001452 -0.000999 0.002302 0.000000 0.020474 0.000000
# 6 0.000000 0.000000 0.000000 0.002615 0.000000 0.023630
#
#
# Mechanical properties :
#
#
# Convention : Reuss Voigt Hill
#
# Bulk Modulus (GPa) = 43.92626 50.42963 47.17795
# Shear Modulus (GPa) = 38.24283 43.91382 41.07833
#
# Velocity S-wave (km/s) = 3.55609 3.81065 3.68557
# Velocity P-wave (km/s) = 5.60234 6.00308 5.80617
#
# Compressibility (1/GPa) = 0.02276542
#
# Stress axis : x y z
#
# Youngs Moduli (GPa) = 87.79919 74.04030 63.94090
#
# Poissons Ratio (x) = -0.13526 0.49013
# Poissons Ratio (y) = -0.16039 0.19479
# Poissons Ratio (z) = 0.67302 0.22555
#
# Static dielectric constant tensor:
#      x y z
#    x 5.597410 0.000000 0.182490 
#    y 0.000000 6.354650 0.000000 
#    z 0.182490 0.000000 5.398530 
# 
# 
# High freq. dielectric constant tensor:
#      x y z
#    x 2.235210 0.000000 0.001050 
#    y 0.000000 2.284560 0.000000 
#    z 0.001050 0.000000 2.236780 
# 
# From -- ./inp_files/23880.got.cif
#   From: 2010.03.12/outbox.cif.g09.slc.cpg/sg14_12_cif.got.tgz:23880.got - 2010.03.31 13:35:05.
