data_PCOD8128278
_publ_section_title
;
Structure prediction by ZEFSAII (Michael W. Deem and Ramdas Pophale) SiO2 
 PCOD8128278
Probable space group: P 21/C
;
_chemical_formula_sum "Si O2"
_cell_formula_units_Z 20
_cell_length_a 5.053274
_cell_length_b 9.272028
_cell_length_c 18.767407
_cell_angle_alpha 90.000000
_cell_angle_beta 76.399754
_cell_angle_gamma 90.000000
_cell_volume 854.673508
_symmetry_space_group_name_H-M "P 21/C"
_symmetry_group_IT_number 14
_symmetry_cell_setting 'monoclinic'
loop_
_space_group_symop_operation_xyz
x,y,z
-x,1/2+y,1/2-z
-x,-y,-z
x,1/2-y,1/2+z
loop_
_atom_site_type_symbol
_atom_site_label
_atom_site_fract_x
_atom_site_fract_y
_atom_site_fract_z
Si Si1 0.538508 0.422298 0.844609
Si Si2 0.827286 0.826519 0.116078
Si Si3 0.600463 0.268396 0.462758
Si Si4 0.914089 0.102895 0.192749
Si Si5 0.477810 0.251466 0.631260
O O1 0.769550 0.362384 0.776599
O O2 0.508048 0.591775 0.836856
O O3 0.258028 0.331740 0.846403
O O4 0.624323 0.386282 0.920632
O O5 0.415971 0.125612 0.923555
O O6 0.095048 0.827141 0.049613
O O7 0.884824 0.932335 0.178519
O O8 0.459530 0.248145 0.547329
O O9 0.760659 0.179654 0.137340
O O10 0.223678 0.157803 0.177794
#
# Coordination Sequence:
#
# PCOD8128278 Si02
#       5
#     4   4   4   4   4
#     4  10  27  44  72  95 144 176 235 272 346 400
#     4  10  24  44  69  96 140 176 220 286 342 395
#     4  10  24  45  72  96 137 178 233 275 338 401
#     4  12  27  42  70 104 138 177 227 284 345 402
#     4  12  27  44  73 101 133 183 232 277 336 413
#
# _framework density 23.400749000000001
#
# number of rings (size 3 to 8) (size 9 to 14) (size 15 to 20)
#    1.200    0.000    0.000    4.200    8.400    5.600 
#    0.000    0.000    0.000    0.000    0.000    0.000 
#    0.000    0.000    0.000    0.000    0.000    0.000 
#
# Total GULP energy -247852.405317 kJ/mol
# GULP energy per Si atom -12392.620266 kJ/mol
# Density = 2.334749 g / cm^3
# Si number density = 23.400749 Si / 1000 Ang^3
#
#
#
# Elastic Constant Matrix: (Units=GPa)
#
#
# Indices 1 2 3 4 5 6 
#
# 1 98.5849 22.5085 -1.6869 0.0000 -28.2152 0.0000
# 2 22.5085 102.7796 21.2207 0.0000 -8.8983 0.0000
# 3 -1.6869 21.2207 94.4441 0.0000 -25.7949 0.0000
# 4 0.0000 0.0000 0.0000 24.5820 0.0000 6.9821
# 5 -28.2152 -8.8983 -25.7949 0.0000 35.9606 0.0000
# 6 0.0000 0.0000 0.0000 6.9821 0.0000 29.9730
#
#
#
# Elastic Compliance Matrix: (Units=1/GPa)
#
#
# Indices 1 2 3 4 5 6 
#
# 1 0.015129 -0.003068 0.004968 0.000000 0.014674 0.000000
# 2 -0.003068 0.010860 -0.003008 0.000000 -0.001878 0.000000
# 3 0.004968 -0.003008 0.015190 0.000000 0.014049 0.000000
# 4 0.000000 0.000000 0.000000 0.043562 0.000000 -0.010148
# 5 0.014674 -0.001878 0.014049 0.000000 0.048935 0.000000
# 6 0.000000 0.000000 0.000000 -0.010148 0.000000 0.035727
#
#
# Mechanical properties :
#
#
# Convention : Reuss Voigt Hill
#
# Bulk Modulus (GPa) = 25.66623 42.21035 33.93829
# Shear Modulus (GPa) = 27.08443 35.02089 31.05266
#
# Velocity S-wave (km/s) = 3.40577 3.87275 3.64675
# Velocity P-wave (km/s) = 5.14370 6.17048 5.68034
#
# Compressibility (1/GPa) = 0.03896171
#
# Stress axis : x y z
#
# Youngs Moduli (GPa) = 66.09845 92.08124 65.83276
#
# Poissons Ratio (x) = 0.28254 -0.32703
# Poissons Ratio (y) = 0.20282 0.19801
# Poissons Ratio (z) = -0.32835 0.27696
#
# Static dielectric constant tensor:
#      x y z
#    x 4.047730 0.000000 -0.096070 
#    y 0.000000 4.049930 0.000000 
#    z -0.096070 0.000000 4.012370 
# 
# 
# High freq. dielectric constant tensor:
#      x y z
#    x 1.924680 0.000000 -0.007350 
#    y 0.000000 1.911160 0.000000 
#    z -0.007350 0.000000 1.932800 
# 
# From -- ./inp_files/62995.got.cif
#   From: 2010.03.12/outbox.cif.g09.slc.cpg/sg14_32_cif.got.tgz:62995.got - 2010.03.31 13:35:05.
