data_PCOD8128397
_publ_section_title
;
Structure prediction by ZEFSAII (Michael W. Deem and Ramdas Pophale) SiO2 
 PCOD8128397
Probable space group: P 21/C
;
_chemical_formula_sum "Si O2"
_cell_formula_units_Z 32
_cell_length_a 15.796872
_cell_length_b 8.642418
_cell_length_c 11.165493
_cell_angle_alpha 90.000000
_cell_angle_beta 100.787065
_cell_angle_gamma 90.000000
_cell_volume 1497.412552
_symmetry_space_group_name_H-M "P 21/C"
_symmetry_group_IT_number 14
_symmetry_cell_setting 'monoclinic'
loop_
_space_group_symop_operation_xyz
x,y,z
-x,1/2+y,1/2-z
-x,-y,-z
x,1/2-y,1/2+z
loop_
_atom_site_type_symbol
_atom_site_label
_atom_site_fract_x
_atom_site_fract_y
_atom_site_fract_z
Si Si1 0.320642 0.436745 0.182027
Si Si2 0.029674 0.912514 0.385819
Si Si3 0.358313 0.836993 0.906912
Si Si4 0.226193 0.578190 0.943735
Si Si5 0.390116 0.969767 0.156223
Si Si6 0.041951 0.424665 0.631715
Si Si7 0.234764 0.385272 0.728857
Si Si8 0.511301 0.771938 0.325183
O O1 0.345689 0.554094 0.291005
O O2 0.267414 0.288628 0.215442
O O3 0.408011 0.387171 0.134725
O O4 0.259995 0.536964 0.082490
O O5 0.128713 0.864971 0.427830
O O6 0.978066 0.754981 0.364622
O O7 0.013707 0.999473 0.252851
O O8 0.000000 0.000000 0.500000
O O9 0.280533 0.718074 0.901666
O O10 0.450665 0.745869 0.926533
O O11 0.364542 0.963364 0.012051
O O12 0.228031 0.417846 0.868869
O O13 0.301281 0.984346 0.203116
O O14 0.451356 0.110182 0.207219
O O15 0.443193 0.817494 0.204214
O O16 0.145017 0.428122 0.641132
O O17 0.000000 0.500000 0.500000
#
# Coordination Sequence:
#
# PCOD8128397 Si02
#       8
#     4   4   4   4   4   4   4   4
#     4  11  26  43  68 101 137 186 225 284 339 403
#     4  11  25  47  71 107 143 181 233 292 358 433
#     4  12  25  42  66  99 138 176 234 282 340 400
#     4  11  26  44  70  99 137 180 226 282 342 411
#     4  11  24  43  63  97 132 177 227 281 334 404
#     4  11  25  46  75 105 137 187 231 293 358 428
#     4  10  25  46  68  98 137 175 230 277 348 410
#     4  11  23  41  65  93 132 179 227 272 339 390
#
# _framework density 21.370194000000001
#
# number of rings (size 3 to 8) (size 9 to 14) (size 15 to 20)
#    0.000    1.000    2.500    2.625    5.250    5.500 
#    0.000    0.000    0.000    0.000    0.000    0.000 
#    0.000    0.000    0.000    0.000    0.000    0.000 
#
# Total GULP energy -396558.868980 kJ/mol
# GULP energy per Si atom -12392.464656 kJ/mol
# Density = 2.132155 g / cm^3
# Si number density = 21.370194 Si / 1000 Ang^3
#
#
#
# Elastic Constant Matrix: (Units=GPa)
#
#
# Indices 1 2 3 4 5 6 
#
# 1 139.7354 45.6020 29.4647 0.0000 8.8202 0.0000
# 2 45.6020 109.6597 43.2750 0.0000 3.8503 0.0000
# 3 29.4647 43.2750 91.8222 0.0000 0.8550 0.0000
# 4 0.0000 0.0000 0.0000 35.0149 0.0000 -2.9391
# 5 8.8202 3.8503 0.8550 0.0000 29.5978 0.0000
# 6 0.0000 0.0000 0.0000 -2.9391 0.0000 29.1384
#
#
#
# Elastic Compliance Matrix: (Units=1/GPa)
#
#
# Indices 1 2 3 4 5 6 
#
# 1 0.008533 -0.002950 -0.001328 0.000000 -0.002121 0.000000
# 2 -0.002950 0.012273 -0.004832 0.000000 -0.000578 0.000000
# 3 -0.001328 -0.004832 0.013588 0.000000 0.000632 0.000000
# 4 0.000000 0.000000 0.000000 0.028803 0.000000 0.002905
# 5 -0.002121 -0.000578 0.000632 0.000000 0.034475 0.000000
# 6 0.000000 0.000000 0.000000 0.002905 0.000000 0.034612
#
#
# Mechanical properties :
#
#
# Convention : Reuss Voigt Hill
#
# Bulk Modulus (GPa) = 61.82810 64.21120 63.01965
# Shear Modulus (GPa) = 32.07257 33.60858 32.84057
#
# Velocity S-wave (km/s) = 3.87823 3.97001 3.92439
# Velocity P-wave (km/s) = 7.00350 7.15031 7.07729
#
# Compressibility (1/GPa) = 0.01617387
#
# Stress axis : x y z
#
# Youngs Moduli (GPa) = 117.19253 81.47936 73.59268
#
# Poissons Ratio (x) = 0.24035 0.09774
# Poissons Ratio (y) = 0.34570 0.35562
# Poissons Ratio (z) = 0.15565 0.39373
#
# Static dielectric constant tensor:
#      x y z
#    x 4.261510 0.000000 0.023760 
#    y 0.000000 3.910800 0.000000 
#    z 0.023760 0.000000 3.950700 
# 
# 
# High freq. dielectric constant tensor:
#      x y z
#    x 1.857290 0.000000 0.004360 
#    y 0.000000 1.846130 0.000000 
#    z 0.004360 0.000000 1.839110 
# 
# From -- ./inp_files/31876.got.cif
#   From: 2010.03.12/outbox.cif.g09.slc.cpg/sg14_16_cif.got.tgz:31876.got - 2010.03.31 13:35:05.
