data_PCOD8128672
_publ_section_title
;
Structure prediction by ZEFSAII (Michael W. Deem and Ramdas Pophale) SiO2 
 PCOD8128672
Probable space group: P 21/C
;
_chemical_formula_sum "Si O2"
_cell_formula_units_Z 24
_cell_length_a 6.528730
_cell_length_b 18.727153
_cell_length_c 10.127234
_cell_angle_alpha 90.000000
_cell_angle_beta 72.942343
_cell_angle_gamma 90.000000
_cell_volume 1183.733049
_symmetry_space_group_name_H-M "P 21/C"
_symmetry_group_IT_number 14
_symmetry_cell_setting 'monoclinic'
loop_
_space_group_symop_operation_xyz
x,y,z
-x,1/2+y,1/2-z
-x,-y,-z
x,1/2-y,1/2+z
loop_
_atom_site_type_symbol
_atom_site_label
_atom_site_fract_x
_atom_site_fract_y
_atom_site_fract_z
Si Si1 0.449154 0.983803 0.206010
Si Si2 0.844474 0.806366 0.558029
Si Si3 0.600710 0.377137 0.815979
Si Si4 0.022071 0.188658 0.172712
Si Si5 0.154918 0.567536 0.981586
Si Si6 0.183401 0.457606 0.534903
O O1 0.353039 0.940154 0.345317
O O2 0.517863 0.065185 0.226598
O O3 0.275809 0.987001 0.123267
O O4 0.646942 0.937991 0.112129
O O5 0.601317 0.834353 0.585659
O O6 0.886453 0.738520 0.458736
O O7 0.890679 0.785498 0.701477
O O8 0.010773 0.864859 0.473522
O O9 0.761809 0.318234 0.721160
O O10 0.736294 0.422593 0.896945
O O11 0.110190 0.110485 0.128911
O O12 0.000000 0.500000 0.000000
O O13 0.000000 0.500000 0.500000
#
# Coordination Sequence:
#
# PCOD8128672 Si02
#       6
#     4   4   4   4   4   4
#     4  11  22  38  66  99 126 168 217 269 338 387
#     4  11  26  44  65  95 135 179 222 275 342 399
#     4  11  22  43  68  92 135 170 217 279 334 389
#     4  11  25  45  63  96 134 176 226 277 328 410
#     4  11  23  40  68 101 130 168 224 279 332 397
#     4  11  23  40  66  95 131 174 218 278 330 397
#
# _framework density 20.274840999999999
#
# number of rings (size 3 to 8) (size 9 to 14) (size 15 to 20)
#    0.000    1.000    5.000    1.500    0.000    6.667 
#    0.000    0.000    0.000    0.000    0.000    0.000 
#    0.000    0.000    0.000    0.000    0.000    0.000 
#
# Total GULP energy -297583.373406 kJ/mol
# GULP energy per Si atom -12399.307225 kJ/mol
# Density = 2.022869 g / cm^3
# Si number density = 20.274841 Si / 1000 Ang^3
#
#
#
# Elastic Constant Matrix: (Units=GPa)
#
#
# Indices 1 2 3 4 5 6 
#
# 1 130.6941 33.4743 46.3396 0.0000 -2.8438 0.0000
# 2 33.4743 53.3145 40.1804 0.0000 0.1500 0.0000
# 3 46.3396 40.1804 121.0015 0.0000 -4.6499 0.0000
# 4 0.0000 0.0000 0.0000 50.9776 0.0000 -10.1389
# 5 -2.8438 0.1500 -4.6499 0.0000 31.2459 0.0000
# 6 0.0000 0.0000 0.0000 -10.1389 0.0000 27.5134
#
#
#
# Elastic Compliance Matrix: (Units=1/GPa)
#
#
# Indices 1 2 3 4 5 6 
#
# 1 0.009555 -0.004347 -0.002194 0.000000 0.000564 0.000000
# 2 -0.004347 0.027053 -0.007381 0.000000 -0.001624 0.000000
# 3 -0.002194 -0.007381 0.011616 0.000000 0.001564 0.000000
# 4 0.000000 0.000000 0.000000 0.021168 0.000000 0.007801
# 5 0.000564 -0.001624 0.001564 0.000000 0.032296 0.000000
# 6 0.000000 0.000000 0.000000 0.007801 0.000000 0.039220
#
#
# Mechanical properties :
#
#
# Convention : Reuss Voigt Hill
#
# Bulk Modulus (GPa) = 49.06905 60.55541 54.81223
# Shear Modulus (GPa) = 28.48244 34.28177 31.38210
#
# Velocity S-wave (km/s) = 3.75215 4.11646 3.93852
# Velocity P-wave (km/s) = 6.55942 7.24747 6.91201
#
# Compressibility (1/GPa) = 0.02037944
#
# Stress axis : x y z
#
# Youngs Moduli (GPa) = 104.65574 36.96383 86.09048
#
# Poissons Ratio (x) = 0.16070 0.18888
# Poissons Ratio (y) = 0.45498 0.63543
# Poissons Ratio (z) = 0.22962 0.27283
#
# Static dielectric constant tensor:
#      x y z
#    x 4.011660 0.000000 -0.281730 
#    y 0.000000 3.326560 0.000000 
#    z -0.281730 0.000000 4.055220 
# 
# 
# High freq. dielectric constant tensor:
#      x y z
#    x 1.812710 0.000000 -0.009750 
#    y 0.000000 1.768500 0.000000 
#    z -0.009750 0.000000 1.806620 
# 
# From -- ./inp_files/21179.got.cif
#   From: 2010.03.12/outbox.cif.g09.slc.cpg/sg14_11_cif.got.tgz:21179.got - 2010.03.31 13:35:05.
