data_PCOD8128645
_publ_section_title
;
Structure prediction by ZEFSAII (Michael W. Deem and Ramdas Pophale) SiO2 
 PCOD8128645
Probable space group: P 21/C
;
_chemical_formula_sum "Si O2"
_cell_formula_units_Z 20
_cell_length_a 9.119156
_cell_length_b 9.287419
_cell_length_c 12.335654
_cell_angle_alpha 90.000000
_cell_angle_beta 91.829197
_cell_angle_gamma 90.000000
_cell_volume 1044.216380
_symmetry_space_group_name_H-M "P 21/C"
_symmetry_group_IT_number 14
_symmetry_cell_setting 'monoclinic'
loop_
_space_group_symop_operation_xyz
x,y,z
-x,1/2+y,1/2-z
-x,-y,-z
x,1/2-y,1/2+z
loop_
_atom_site_type_symbol
_atom_site_label
_atom_site_fract_x
_atom_site_fract_y
_atom_site_fract_z
Si Si1 0.304874 0.775424 0.521067
Si Si2 0.458512 0.250118 0.646682
Si Si3 0.878113 0.050370 0.628460
Si Si4 0.802171 0.558890 0.908829
Si Si5 0.649057 0.443547 0.303792
O O1 0.462625 0.778573 0.466171
O O2 0.178853 0.796956 0.425289
O O3 0.285467 0.626438 0.584838
O O4 0.291916 0.910299 0.605220
O O5 0.293462 0.192096 0.632666
O O6 0.449499 0.418968 0.670874
O O7 0.543152 0.172868 0.746097
O O8 0.786781 0.011609 0.733064
O O9 0.050409 0.057424 0.661250
O O10 0.850374 0.925365 0.537038
#
# Coordination Sequence:
#
# PCOD8128645 Si02
#       5
#     4   4   4   4   4
#     4   9  19  37  56  78 114 139 178 229 263 318
#     4  11  22  34  57  83 110 143 181 225 269 319
#     4   8  20  37  60  75 110 149 177 213 279 322
#     4   9  18  39  57  76 108 149 175 220 271 320
#     4  11  22  35  55  87 107 144 183 223 268 323
#
# _framework density 19.153117999999999
#
# number of rings (size 3 to 8) (size 9 to 14) (size 15 to 20)
#    1.200    1.200    0.000    2.400    2.800    1.600 
#    0.000    1.000    0.000    0.000    0.000    0.000 
#    0.000    0.000    0.000    0.000    0.000    0.000 
#
# Total GULP energy -247859.004977 kJ/mol
# GULP energy per Si atom -12392.950249 kJ/mol
# Density = 1.910952 g / cm^3
# Si number density = 19.153118 Si / 1000 Ang^3
#
#
#
# Elastic Constant Matrix: (Units=GPa)
#
#
# Indices 1 2 3 4 5 6 
#
# 1 103.4824 35.2863 40.8712 0.0000 -21.6624 0.0000
# 2 35.2863 104.6594 26.2454 0.0000 -4.7178 0.0000
# 3 40.8712 26.2454 49.3511 0.0000 -10.5787 0.0000
# 4 0.0000 0.0000 0.0000 25.1652 0.0000 5.0999
# 5 -21.6624 -4.7178 -10.5787 0.0000 18.1605 0.0000
# 6 0.0000 0.0000 0.0000 5.0999 0.0000 18.6669
#
#
#
# Elastic Compliance Matrix: (Units=1/GPa)
#
#
# Indices 1 2 3 4 5 6 
#
# 1 0.017572 -0.002770 -0.009988 0.000000 0.014423 0.000000
# 2 -0.002770 0.011468 -0.004427 0.000000 -0.002904 0.000000
# 3 -0.009988 -0.004427 0.032097 0.000000 0.005632 0.000000
# 4 0.000000 0.000000 0.000000 0.042066 0.000000 -0.011493
# 5 0.014423 -0.002904 0.005632 0.000000 0.074795 0.000000
# 6 0.000000 0.000000 0.000000 -0.011493 0.000000 0.056711
#
#
# Mechanical properties :
#
#
# Convention : Reuss Voigt Hill
#
# Bulk Modulus (GPa) = 37.36039 51.36653 44.36346
# Shear Modulus (GPa) = 17.98555 22.73787 20.36171
#
# Velocity S-wave (km/s) = 3.06770 3.44926 3.26406
# Velocity P-wave (km/s) = 5.66535 6.53761 6.11705
#
# Compressibility (1/GPa) = 0.02676631
#
# Stress axis : x y z
#
# Youngs Moduli (GPa) = 56.90899 87.19943 31.15578
#
# Poissons Ratio (x) = 0.24151 0.31119
# Poissons Ratio (y) = 0.15761 0.13794
# Poissons Ratio (z) = 0.56841 0.38607
#
# Static dielectric constant tensor:
#      x y z
#    x 3.375620 0.000000 -0.150860 
#    y 0.000000 3.212460 0.000000 
#    z -0.150860 0.000000 3.306090 
# 
# 
# High freq. dielectric constant tensor:
#      x y z
#    x 1.742890 0.000000 -0.016910 
#    y 0.000000 1.718620 0.000000 
#    z -0.016910 0.000000 1.730980 
# 
# From -- ./inp_files/23132.got.cif
#   From: 2010.03.12/outbox.cif.g09.slc.cpg/sg14_12_cif.got.tgz:23132.got - 2010.03.31 13:35:05.
