data_PCOD8128866
_publ_section_title
;
Structure prediction by ZEFSAII (Michael W. Deem and Ramdas Pophale) SiO2 
 PCOD8128866
Probable space group: P 21/C
;
_chemical_formula_sum "Si O2"
_cell_formula_units_Z 24
_cell_length_a 20.699144
_cell_length_b 4.883897
_cell_length_c 20.300793
_cell_angle_alpha 90.000000
_cell_angle_beta 150.319600
_cell_angle_gamma 90.000000
_cell_volume 1016.198968
_symmetry_space_group_name_H-M "P 21/C"
_symmetry_group_IT_number 14
_symmetry_cell_setting 'monoclinic'
loop_
_space_group_symop_operation_xyz
x,y,z
-x,1/2+y,1/2-z
-x,-y,-z
x,1/2-y,1/2+z
loop_
_atom_site_type_symbol
_atom_site_label
_atom_site_fract_x
_atom_site_fract_y
_atom_site_fract_z
Si Si1 0.765226 0.677296 0.724626
Si Si2 0.217276 0.548321 0.945241
Si Si3 0.908227 0.170894 0.803788
Si Si4 0.383913 0.303002 0.278779
Si Si5 0.556472 0.690272 0.932811
Si Si6 0.818303 0.926835 0.000088
O O1 0.882543 0.476607 0.806572
O O2 0.713483 0.593971 0.750454
O O3 0.647073 0.669371 0.568020
O O4 0.825780 0.979146 0.779540
O O5 0.362579 0.446205 0.055242
O O6 0.142545 0.282732 0.906944
O O7 0.218057 0.778384 0.002631
O O8 0.141075 0.652371 0.814518
O O9 0.058514 0.074114 0.940386
O O10 0.467258 0.561902 0.327151
O O11 0.307931 0.186327 0.148916
O O12 0.470898 0.057866 0.386879
#
# Coordination Sequence:
#
# PCOD8128866 Si02
#       6
#     4   4   4   4   4   4
#     4  11  23  42  68  94 124 166 216 264 310 369
#     4  11  23  43  65  91 125 168 216 259 307 373
#     4  11  23  42  68  94 123 166 216 264 310 369
#     4  12  25  41  65  96 132 168 205 260 322 378
#     4  11  23  43  66  92 126 169 216 259 308 373
#     4  12  25  41  65  95 131 167 205 260 322 378
#
# _framework density 23.617422999999999
#
# number of rings (size 3 to 8) (size 9 to 14) (size 15 to 20)
#    0.000    0.667    0.000   10.000    0.000    4.000 
#    0.000    1.667    0.000    0.000    0.000    0.000 
#    0.000    0.000    0.000    0.000    0.000    0.000 
#
# Total GULP energy -297689.075333 kJ/mol
# GULP energy per Si atom -12403.711472 kJ/mol
# Density = 2.356367 g / cm^3
# Si number density = 23.617423 Si / 1000 Ang^3
#
#
#
# Elastic Constant Matrix: (Units=GPa)
#
#
# Indices 1 2 3 4 5 6 
#
# 1 83.7257 28.3734 30.9024 0.0000 16.3735 0.0000
# 2 28.3734 121.8756 29.3914 0.0000 11.9395 0.0000
# 3 30.9024 29.3914 62.7131 0.0000 19.9386 0.0000
# 4 0.0000 0.0000 0.0000 24.8394 0.0000 11.7117
# 5 16.3735 11.9395 19.9386 0.0000 23.2654 0.0000
# 6 0.0000 0.0000 0.0000 11.7117 0.0000 50.0416
#
#
#
# Elastic Compliance Matrix: (Units=1/GPa)
#
#
# Indices 1 2 3 4 5 6 
#
# 1 0.015522 -0.001857 -0.004960 0.000000 -0.005721 0.000000
# 2 -0.001857 0.009507 -0.003305 0.000000 -0.000739 0.000000
# 3 -0.004960 -0.003305 0.025139 0.000000 -0.016358 0.000000
# 4 0.000000 0.000000 0.000000 0.045252 0.000000 -0.010591
# 5 -0.005721 -0.000739 -0.016358 0.000000 0.061406 0.000000
# 6 0.000000 0.000000 0.000000 -0.010591 0.000000 0.022462
#
#
# Mechanical properties :
#
#
# Convention : Reuss Voigt Hill
#
# Bulk Modulus (GPa) = 33.41775 49.51653 41.46714
# Shear Modulus (GPa) = 23.86539 31.60577 27.73558
#
# Velocity S-wave (km/s) = 3.18228 3.66216 3.43063
# Velocity P-wave (km/s) = 5.26145 6.23647 5.76960
#
# Compressibility (1/GPa) = 0.02992422
#
# Stress axis : x y z
#
# Youngs Moduli (GPa) = 64.42283 105.18557 39.77830
#
# Poissons Ratio (x) = 0.19536 0.19728
# Poissons Ratio (y) = 0.11965 0.13149
# Poissons Ratio (z) = 0.31951 0.34769
#
# Static dielectric constant tensor:
#      x y z
#    x 4.174990 0.000000 0.275900 
#    y 0.000000 4.354090 0.000000 
#    z 0.275900 0.000000 4.094850 
# 
# 
# High freq. dielectric constant tensor:
#      x y z
#    x 1.936920 0.000000 0.017050 
#    y 0.000000 1.952540 0.000000 
#    z 0.017050 0.000000 1.921990 
# 
# From -- ./inp_files/69552.got.cif
#   From: 2010.03.12/outbox.cif.g09.slc.cpg/sg14_35_cif.got.tgz:69552.got - 2010.03.31 13:35:05.
