data_PCOD8128709
_publ_section_title
;
Structure prediction by ZEFSAII (Michael W. Deem and Ramdas Pophale) SiO2 
 PCOD8128709
Probable space group: P 21/C
;
_chemical_formula_sum "Si O2"
_cell_formula_units_Z 28
_cell_length_a 10.222825
_cell_length_b 6.622931
_cell_length_c 20.937825
_cell_angle_alpha 90.000000
_cell_angle_beta 109.929923
_cell_angle_gamma 90.000000
_cell_volume 1332.697254
_symmetry_space_group_name_H-M "P 21/C"
_symmetry_group_IT_number 14
_symmetry_cell_setting 'monoclinic'
loop_
_space_group_symop_operation_xyz
x,y,z
-x,1/2+y,1/2-z
-x,-y,-z
x,1/2-y,1/2+z
loop_
_atom_site_type_symbol
_atom_site_label
_atom_site_fract_x
_atom_site_fract_y
_atom_site_fract_z
Si Si1 0.076107 0.139648 0.459684
Si Si2 0.327103 0.469576 0.913564
Si Si3 0.771999 0.959016 0.940503
Si Si4 0.321472 0.501781 0.771088
Si Si5 0.367401 0.163446 0.674554
Si Si6 0.425739 0.803075 0.007371
Si Si7 0.824405 0.275441 0.844213
O O1 0.224854 0.075060 0.455966
O O2 0.103976 0.353912 0.498845
O O3 0.980847 0.142688 0.379675
O O4 0.000000 0.000000 0.500000
O O5 0.265826 0.444449 0.832340
O O6 0.466119 0.336012 0.936841
O O7 0.371385 0.699832 0.933440
O O8 0.666750 0.786820 0.895917
O O9 0.701122 0.134708 0.969446
O O10 0.830155 0.085724 0.892330
O O11 0.327071 0.298770 0.729562
O O12 0.470851 0.610075 0.797132
O O13 0.211754 0.671780 0.729144
O O14 0.282711 0.954813 0.659125
O O15 0.500000 0.000000 0.000000
#
# Coordination Sequence:
#
# PCOD8128709 Si02
#       7
#     4   4   4   4   4   4   4
#     4  12  24  46  68  97 137 179 225 279 338 410
#     4  11  26  42  65 102 138 173 221 283 337 402
#     4  11  23  41  72  99 128 173 226 282 345 400
#     4  11  24  42  66  96 132 176 223 273 338 397
#     4  11  22  41  70  98 129 173 226 280 333 400
#     4  11  22  41  68 102 131 165 218 283 343 392
#     4  11  24  43  65  96 131 179 223 274 329 409
#
# _framework density 21.010020999999998
#
# number of rings (size 3 to 8) (size 9 to 14) (size 15 to 20)
#    0.000    0.857    4.286    3.000    4.000    1.143 
#    2.571    0.000    0.000    0.000    0.000    0.000 
#    0.000    0.000    0.000    0.000    0.000    0.000 
#
# Total GULP energy -346927.309406 kJ/mol
# GULP energy per Si atom -12390.261050 kJ/mol
# Density = 2.096220 g / cm^3
# Si number density = 21.010021 Si / 1000 Ang^3
#
#
#
# Elastic Constant Matrix: (Units=GPa)
#
#
# Indices 1 2 3 4 5 6 
#
# 1 67.8799 25.2904 28.4449 0.0000 0.9070 0.0000
# 2 25.2904 109.8519 41.8392 0.0000 0.3474 0.0000
# 3 28.4449 41.8392 120.5335 0.0000 6.1435 0.0000
# 4 0.0000 0.0000 0.0000 30.9885 0.0000 3.5926
# 5 0.9070 0.3474 6.1435 0.0000 36.8471 0.0000
# 6 0.0000 0.0000 0.0000 3.5926 0.0000 25.3835
#
#
#
# Elastic Compliance Matrix: (Units=1/GPa)
#
#
# Indices 1 2 3 4 5 6 
#
# 1 0.017044 -0.002754 -0.003072 0.000000 0.000119 0.000000
# 2 -0.002754 0.010945 -0.003174 0.000000 0.000494 0.000000
# 3 -0.003072 -0.003174 0.010205 0.000000 -0.001596 0.000000
# 4 0.000000 0.000000 0.000000 0.032808 0.000000 -0.004643
# 5 0.000119 0.000494 -0.001596 0.000000 0.027398 0.000000
# 6 0.000000 0.000000 0.000000 -0.004643 0.000000 0.040053
#
#
# Mechanical properties :
#
#
# Convention : Reuss Voigt Hill
#
# Bulk Modulus (GPa) = 49.52499 54.37937 51.95218
# Shear Modulus (GPa) = 30.64026 32.15655 31.39841
#
# Velocity S-wave (km/s) = 3.82300 3.91645 3.87000
# Velocity P-wave (km/s) = 6.56584 6.81104 6.68956
#
# Compressibility (1/GPa) = 0.02019183
#
# Stress axis : x y z
#
# Youngs Moduli (GPa) = 58.67216 91.36878 97.99443
#
# Poissons Ratio (x) = 0.25164 0.30106
# Poissons Ratio (y) = 0.16159 0.31106
# Poissons Ratio (z) = 0.18026 0.29003
#
# Static dielectric constant tensor:
#      x y z
#    x 2.599460 0.000000 1.925860 
#    y 0.000000 3.972860 0.000000 
#    z 1.925860 0.000000 1.917870 
# 
# 
# High freq. dielectric constant tensor:
#      x y z
#    x 1.807330 0.000000 0.013530 
#    y 0.000000 1.841610 0.000000 
#    z 0.013530 0.000000 1.828620 
# 
# From -- ./inp_files/66522.got.cif
#   From: 2010.03.12/outbox.cif.g09.slc.cpg/sg14_34_cif.got.tgz:66522.got - 2010.03.31 13:35:05.
