data_PCOD8128957
_publ_section_title
;
Structure prediction by ZEFSAII (Michael W. Deem and Ramdas Pophale) SiO2 
 PCOD8128957
Probable space group: P 21/C
;
_chemical_formula_sum "Si O2"
_cell_formula_units_Z 32
_cell_length_a 15.641303
_cell_length_b 13.079435
_cell_length_c 21.611142
_cell_angle_alpha 90.000000
_cell_angle_beta 19.637783
_cell_angle_gamma 90.000000
_cell_volume 1485.842914
_symmetry_space_group_name_H-M "P 21/C"
_symmetry_group_IT_number 14
_symmetry_cell_setting 'monoclinic'
loop_
_space_group_symop_operation_xyz
x,y,z
-x,1/2+y,1/2-z
-x,-y,-z
x,1/2-y,1/2+z
loop_
_atom_site_type_symbol
_atom_site_label
_atom_site_fract_x
_atom_site_fract_y
_atom_site_fract_z
Si Si1 0.156346 0.377531 0.623378
Si Si2 0.116309 0.708940 0.758735
Si Si3 0.597840 0.032570 0.747864
Si Si4 0.045024 0.152071 0.497541
Si Si5 0.681328 0.722405 0.885018
Si Si6 0.915838 0.850506 0.100514
Si Si7 0.389499 0.512545 0.263290
Si Si8 0.832424 0.561739 0.876446
O O1 0.397955 0.445673 0.438941
O O2 0.210965 0.318216 0.649926
O O3 0.088556 0.298999 0.614420
O O4 0.913098 0.449266 0.800457
O O5 0.394023 0.755535 0.561961
O O6 0.082243 0.623760 0.728417
O O7 0.072577 0.654393 0.853936
O O8 0.836462 0.108310 0.591891
O O9 0.698975 0.915683 0.681491
O O10 0.458864 0.051903 0.777213
O O11 0.106661 0.267684 0.438126
O O12 0.849662 0.704613 0.709642
O O13 0.689628 0.617633 0.917786
O O14 0.723789 0.941196 0.213478
O O15 0.198943 0.896205 0.911700
O O16 0.644330 0.562163 0.063063
#
# Coordination Sequence:
#
# PCOD8128957 Si02
#       8
#     4   4   4   4   4   4   4   4
#     4  11  25  42  70 100 136 181 226 277 342 403
#     4  11  23  45  68  98 134 182 221 278 342 399
#     4  11  24  42  67  98 133 179 223 275 332 401
#     4  11  24  43  67  97 134 179 224 275 340 393
#     4  11  25  45  67 100 138 175 226 278 338 406
#     4  11  26  42  70  99 132 175 222 278 336 403
#     4  11  24  45  68 101 132 175 225 278 337 399
#     4  11  25  44  69  98 136 175 225 280 339 408
#
# _framework density 21.536595999999999
#
# number of rings (size 3 to 8) (size 9 to 14) (size 15 to 20)
#    0.000    1.000    2.500    3.000    5.250    5.500 
#    0.000    0.000    0.000    0.000    0.000    0.000 
#    0.000    0.000    0.000    0.000    0.000    0.000 
#
# Total GULP energy -396964.460176 kJ/mol
# GULP energy per Si atom -12405.139380 kJ/mol
# Density = 2.148758 g / cm^3
# Si number density = 21.536596 Si / 1000 Ang^3
#
#
#
# Elastic Constant Matrix: (Units=GPa)
#
#
# Indices 1 2 3 4 5 6 
#
# 1 98.9123 33.1235 33.4742 0.0000 0.2621 0.0000
# 2 33.1235 93.0142 37.7539 0.0000 -4.3601 0.0000
# 3 33.4742 37.7539 109.0230 0.0000 2.4419 0.0000
# 4 0.0000 0.0000 0.0000 34.3168 0.0000 7.9049
# 5 0.2621 -4.3601 2.4419 0.0000 29.4797 0.0000
# 6 0.0000 0.0000 0.0000 7.9049 0.0000 35.3536
#
#
#
# Elastic Compliance Matrix: (Units=1/GPa)
#
#
# Indices 1 2 3 4 5 6 
#
# 1 0.012076 -0.003277 -0.002564 0.000000 -0.000380 0.000000
# 2 -0.003277 0.013545 -0.003737 0.000000 0.002342 0.000000
# 3 -0.002564 -0.003737 0.011287 0.000000 -0.001465 0.000000
# 4 0.000000 0.000000 0.000000 0.030723 0.000000 -0.006869
# 5 -0.000380 0.002342 -0.001465 0.000000 0.034393 0.000000
# 6 0.000000 0.000000 0.000000 -0.006869 0.000000 0.029822
#
#
# Mechanical properties :
#
#
# Convention : Reuss Voigt Hill
#
# Bulk Modulus (GPa) = 56.33615 56.62810 56.48212
# Shear Modulus (GPa) = 31.86372 32.93654 32.40013
#
# Velocity S-wave (km/s) = 3.85062 3.91491 3.88290
# Velocity P-wave (km/s) = 6.78121 6.84005 6.81069
#
# Compressibility (1/GPa) = 0.01775059
#
# Stress axis : x y z
#
# Youngs Moduli (GPa) = 82.80627 73.83010 88.60129
#
# Poissons Ratio (x) = 0.24197 0.22721
# Poissons Ratio (y) = 0.27139 0.33106
# Poissons Ratio (z) = 0.21235 0.27587
#
# Static dielectric constant tensor:
#      x y z
#    x 3.914650 0.000000 -0.124140 
#    y 0.000000 3.878910 0.000000 
#    z -0.124140 0.000000 3.775940 
# 
# 
# High freq. dielectric constant tensor:
#      x y z
#    x 1.854470 0.000000 -0.007550 
#    y 0.000000 1.852130 0.000000 
#    z -0.007550 0.000000 1.844060 
# 
# From -- ./inp_files/68713.got.cif
#   From: 2010.03.12/outbox.cif.g09.slc.cpg/sg14_35_cif.got.tgz:68713.got - 2010.03.31 13:35:05.
