data_PCOD8128119
_publ_section_title
;
Structure prediction by ZEFSAII (Michael W. Deem and Ramdas Pophale) SiO2 
 PCOD8128119
Probable space group: P 21/C
;
_chemical_formula_sum "Si O2"
_cell_formula_units_Z 20
_cell_length_a 6.767126
_cell_length_b 20.997375
_cell_length_c 8.899660
_cell_angle_alpha 90.000000
_cell_angle_beta 51.095199
_cell_angle_gamma 90.000000
_cell_volume 984.075960
_symmetry_space_group_name_H-M "P 21/C"
_symmetry_group_IT_number 14
_symmetry_cell_setting 'monoclinic'
loop_
_space_group_symop_operation_xyz
x,y,z
-x,1/2+y,1/2-z
-x,-y,-z
x,1/2-y,1/2+z
loop_
_atom_site_type_symbol
_atom_site_label
_atom_site_fract_x
_atom_site_fract_y
_atom_site_fract_z
Si Si1 0.237248 0.535091 0.956974
Si Si2 0.753534 0.470164 0.693423
Si Si3 0.238817 0.744330 0.628827
Si Si4 0.975995 0.334352 0.007114
Si Si5 0.453834 0.663382 0.267883
O O1 0.501921 0.508786 0.763840
O O2 0.226955 0.609518 0.919866
O O3 0.217520 0.525048 0.143158
O O4 0.000000 0.500000 0.000000
O O5 0.734154 0.396790 0.650820
O O6 0.000000 0.500000 0.500000
O O7 0.418047 0.701022 0.439838
O O8 0.412786 0.790221 0.646156
O O9 0.047164 0.784027 0.616605
O O10 0.069513 0.698968 0.812419
O O11 0.259324 0.362717 0.874068
#
# Coordination Sequence:
#
# PCOD8128119 Si02
#       5
#     4   4   4   4   4
#     4  11  24  44  66  91 128 171 208 264 318 373
#     4  11  26  43  65  95 130 167 216 264 317 377
#     4  10  24  40  63  96 124 167 206 261 319 372
#     4  11  22  43  66  92 128 165 213 259 318 377
#     4  11  22  43  64  93 127 162 212 262 311 381
#
# _framework density 20.323633999999998
#
# number of rings (size 3 to 8) (size 9 to 14) (size 15 to 20)
#    0.000    1.200    4.000    1.200    2.800    2.400 
#   14.400    0.000    0.000    0.000    0.000    0.000 
#    0.000    0.000    0.000    0.000    0.000    0.000 
#
# Total GULP energy -248097.397187 kJ/mol
# GULP energy per Si atom -12404.869859 kJ/mol
# Density = 2.027738 g / cm^3
# Si number density = 20.323634 Si / 1000 Ang^3
#
#
#
# Elastic Constant Matrix: (Units=GPa)
#
#
# Indices 1 2 3 4 5 6 
#
# 1 107.3680 51.2312 64.7008 0.0000 -11.7967 0.0000
# 2 51.2312 133.0830 68.2502 0.0000 -7.8893 0.0000
# 3 64.7008 68.2502 120.0759 0.0000 -4.3066 0.0000
# 4 0.0000 0.0000 0.0000 20.3643 0.0000 -15.3179
# 5 -11.7967 -7.8893 -4.3066 0.0000 38.7685 0.0000
# 6 0.0000 0.0000 0.0000 -15.3179 0.0000 26.0855
#
#
#
# Elastic Compliance Matrix: (Units=1/GPa)
#
#
# Indices 1 2 3 4 5 6 
#
# 1 0.014633 -0.002053 -0.006599 0.000000 0.003302 0.000000
# 2 -0.002053 0.010981 -0.005098 0.000000 0.001044 0.000000
# 3 -0.006599 -0.005098 0.014731 0.000000 -0.001409 0.000000
# 4 0.000000 0.000000 0.000000 0.087956 0.000000 0.051649
# 5 0.003302 0.001044 -0.001409 0.000000 0.026855 0.000000
# 6 0.000000 0.000000 0.000000 0.051649 0.000000 0.068665
#
#
# Mechanical properties :
#
#
# Convention : Reuss Voigt Hill
#
# Bulk Modulus (GPa) = 77.85432 80.98792 79.42112
# Shear Modulus (GPa) = 19.56169 28.79997 24.18083
#
# Velocity S-wave (km/s) = 3.10580 3.76848 3.45307
# Velocity P-wave (km/s) = 7.15903 7.67274 7.42033
#
# Compressibility (1/GPa) = 0.01284450
#
# Stress axis : x y z
#
# Youngs Moduli (GPa) = 68.33896 91.07037 67.88396
#
# Poissons Ratio (x) = 0.18695 0.44800
# Poissons Ratio (y) = 0.14029 0.34605
# Poissons Ratio (z) = 0.45100 0.46425
#
# Static dielectric constant tensor:
#      x y z
#    x 3.757760 0.000000 0.116120 
#    y 0.000000 3.909550 0.000000 
#    z 0.116120 0.000000 3.622190 
# 
# 
# High freq. dielectric constant tensor:
#      x y z
#    x 1.804360 0.000000 0.007700 
#    y 0.000000 1.809180 0.000000 
#    z 0.007700 0.000000 1.789220 
# 
# From -- ./inp_files/5667.got.cif
#   From: 2010.03.12/outbox.cif.g09.slc.cpg/sg14_3_cif.got.tgz:5667.got - 2010.03.31 13:35:05.
