data_PCOD8128230
_publ_section_title
;
Structure prediction by ZEFSAII (Michael W. Deem and Ramdas Pophale) SiO2 
 PCOD8128230
Probable space group: P 21/C
;
_chemical_formula_sum "Si O2"
_cell_formula_units_Z 20
_cell_length_a 5.880071
_cell_length_b 11.701653
_cell_length_c 14.506217
_cell_angle_alpha 90.000000
_cell_angle_beta 122.104644
_cell_angle_gamma 90.000000
_cell_volume 845.488670
_symmetry_space_group_name_H-M "P 21/C"
_symmetry_group_IT_number 14
_symmetry_cell_setting 'monoclinic'
loop_
_space_group_symop_operation_xyz
x,y,z
-x,1/2+y,1/2-z
-x,-y,-z
x,1/2-y,1/2+z
loop_
_atom_site_type_symbol
_atom_site_label
_atom_site_fract_x
_atom_site_fract_y
_atom_site_fract_z
Si Si1 0.238858 0.473977 0.890607
Si Si2 0.044003 0.748213 0.123890
Si Si3 0.559125 0.887394 0.951963
Si Si4 0.585671 0.855856 0.752179
Si Si5 0.913189 0.218581 0.654249
O O1 0.097050 0.373394 0.914384
O O2 0.302072 0.447493 0.796641
O O3 0.064431 0.586946 0.868125
O O4 0.500000 0.500000 0.000000
O O5 0.349416 0.722740 0.154593
O O6 0.065777 0.784913 0.232614
O O7 0.868858 0.844484 0.032694
O O8 0.500708 0.916747 0.830830
O O9 0.354649 0.785729 0.937663
O O10 0.500000 0.000000 0.000000
O O11 0.827644 0.774436 0.835999
#
# Coordination Sequence:
#
# PCOD8128230 Si02
#       5
#     4   4   4   4   4
#     4  11  23  46  71 101 143 182 240 298 344 416
#     4  10  24  43  69 101 140 187 235 289 346 417
#     4  11  25  47  69 104 147 187 234 285 355 426
#     4  10  26  45  72 108 138 192 233 292 359 411
#     4  10  24  46  66 102 142 182 238 293 340 423
#
# _framework density 23.654959000000002
#
# number of rings (size 3 to 8) (size 9 to 14) (size 15 to 20)
#    0.000    1.600    2.000    0.000   11.200    4.800 
#    7.200    0.000    0.000    0.000    0.000    0.000 
#    0.000    0.000    0.000    0.000    0.000    0.000 
#
# Total GULP energy -247822.095631 kJ/mol
# GULP energy per Si atom -12391.104782 kJ/mol
# Density = 2.360112 g / cm^3
# Si number density = 23.654959 Si / 1000 Ang^3
#
#
#
# Elastic Constant Matrix: (Units=GPa)
#
#
# Indices 1 2 3 4 5 6 
#
# 1 84.4864 24.1816 23.8152 0.0000 11.1253 0.0000
# 2 24.1816 136.2805 38.7174 0.0000 1.9036 0.0000
# 3 23.8152 38.7174 99.9732 0.0000 14.8595 0.0000
# 4 0.0000 0.0000 0.0000 38.5065 0.0000 11.2253
# 5 11.1253 1.9036 14.8595 0.0000 47.6227 0.0000
# 6 0.0000 0.0000 0.0000 11.2253 0.0000 7.2667
#
#
#
# Elastic Compliance Matrix: (Units=1/GPa)
#
#
# Indices 1 2 3 4 5 6 
#
# 1 0.013239 -0.001708 -0.002142 0.000000 -0.002356 0.000000
# 2 -0.001708 0.008487 -0.003030 0.000000 0.001005 0.000000
# 3 -0.002142 -0.003030 0.012158 0.000000 -0.003172 0.000000
# 4 0.000000 0.000000 0.000000 0.047245 0.000000 -0.072982
# 5 -0.002356 0.001005 -0.003172 0.000000 0.022498 0.000000
# 6 0.000000 0.000000 0.000000 -0.072982 0.000000 0.250352
#
#
# Mechanical properties :
#
#
# Convention : Reuss Voigt Hill
#
# Bulk Modulus (GPa) = 49.68841 54.90761 52.29801
# Shear Modulus (GPa) = 13.35303 34.28092 23.81697
#
# Velocity S-wave (km/s) = 2.37848 3.81097 3.17653
# Velocity P-wave (km/s) = 5.34734 6.52893 5.96745
#
# Compressibility (1/GPa) = 0.02012542
#
# Stress axis : x y z
#
# Youngs Moduli (GPa) = 75.53392 117.82057 82.25195
#
# Poissons Ratio (x) = 0.20119 0.17620
# Poissons Ratio (y) = 0.12898 0.24919
# Poissons Ratio (z) = 0.16181 0.35695
#
# Static dielectric constant tensor:
#      x y z
#    x 4.321430 0.000000 0.348850 
#    y 0.000000 4.001320 0.000000 
#    z 0.348850 0.000000 4.475220 
# 
# 
# High freq. dielectric constant tensor:
#      x y z
#    x 1.929280 0.000000 0.010570 
#    y 0.000000 1.930310 0.000000 
#    z 0.010570 0.000000 1.954980 
# 
# From -- ./inp_files/36925.got.cif
#   From: 2010.03.12/outbox.cif.g09.slc.cpg/sg14_19_cif.got.tgz:36925.got - 2010.03.31 13:35:05.
