data_PCOD8128405
_publ_section_title
;
Structure prediction by ZEFSAII (Michael W. Deem and Ramdas Pophale) SiO2 
 PCOD8128405
Probable space group: P 21/C
;
_chemical_formula_sum "Si O2"
_cell_formula_units_Z 20
_cell_length_a 17.557042
_cell_length_b 5.161971
_cell_length_c 8.934448
_cell_angle_alpha 90.000000
_cell_angle_beta 90.045471
_cell_angle_gamma 90.000000
_cell_volume 809.719311
_symmetry_space_group_name_H-M "P 21/C"
_symmetry_group_IT_number 14
_symmetry_cell_setting 'monoclinic'
loop_
_space_group_symop_operation_xyz
x,y,z
-x,1/2+y,1/2-z
-x,-y,-z
x,1/2-y,1/2+z
loop_
_atom_site_type_symbol
_atom_site_label
_atom_site_fract_x
_atom_site_fract_y
_atom_site_fract_z
Si Si1 0.204973 0.551707 0.662015
Si Si2 0.526609 0.069791 0.835324
Si Si3 0.667282 0.408358 0.836242
Si Si4 0.289971 0.247651 0.915919
Si Si5 0.972062 0.011971 0.831287
O O1 0.243369 0.835458 0.651212
O O2 0.240025 0.425133 0.809201
O O3 0.226771 0.398510 0.513077
O O4 0.115761 0.591411 0.674936
O O5 0.481525 0.319703 0.770827
O O6 0.615940 0.149583 0.840630
O O7 0.500000 0.000000 0.000000
O O8 0.654895 0.555536 0.678514
O O9 0.650854 0.592902 0.978797
O O10 0.018567 0.231600 0.743659
O O11 0.000000 0.000000 0.000000
#
# Coordination Sequence:
#
# PCOD8128405 Si02
#       5
#     4   4   4   4   4
#     4  11  25  44  79 106 154 203 268 321 398 472
#     4  12  32  56  85 120 167 213 265 330 409 477
#     4  11  27  47  80 113 156 206 270 327 396 478
#     4  10  25  46  76 112 152 200 272 328 388 463
#     4  12  29  49  77 115 165 210 263 329 406 474
#
# _framework density 24.699916000000002
#
# number of rings (size 3 to 8) (size 9 to 14) (size 15 to 20)
#    0.000    0.800    0.000    3.600   22.400    0.000 
#    0.000    0.000    0.000    0.000    0.000    0.000 
#    0.000    0.000    0.000    0.000    0.000    0.000 
#
# Total GULP energy -248094.767707 kJ/mol
# GULP energy per Si atom -12404.738385 kJ/mol
# Density = 2.464370 g / cm^3
# Si number density = 24.699916 Si / 1000 Ang^3
#
#
#
# Elastic Constant Matrix: (Units=GPa)
#
#
# Indices 1 2 3 4 5 6 
#
# 1 129.4739 34.0884 49.5210 0.0000 -5.2756 0.0000
# 2 34.0884 125.6660 73.8165 0.0000 -10.7267 0.0000
# 3 49.5210 73.8165 189.4359 0.0000 5.9582 0.0000
# 4 0.0000 0.0000 0.0000 28.4310 0.0000 -5.4885
# 5 -5.2756 -10.7267 5.9582 0.0000 19.4086 0.0000
# 6 0.0000 0.0000 0.0000 -5.4885 0.0000 40.4435
#
#
#
# Elastic Compliance Matrix: (Units=1/GPa)
#
#
# Indices 1 2 3 4 5 6 
#
# 1 0.008855 -0.001021 -0.001994 0.000000 0.002455 0.000000
# 2 -0.001021 0.011476 -0.004438 0.000000 0.007427 0.000000
# 3 -0.001994 -0.004438 0.007698 0.000000 -0.005358 0.000000
# 4 0.000000 0.000000 0.000000 0.036119 0.000000 0.004902
# 5 0.002455 0.007427 -0.005358 0.000000 0.057941 0.000000
# 6 0.000000 0.000000 0.000000 0.004902 0.000000 0.025391
#
#
# Mechanical properties :
#
#
# Convention : Reuss Voigt Hill
#
# Bulk Modulus (GPa) = 76.20979 84.38085 80.29532
# Shear Modulus (GPa) = 29.98305 36.79995 33.39150
#
# Velocity S-wave (km/s) = 3.48788 3.86409 3.68079
# Velocity P-wave (km/s) = 6.86598 7.35831 7.11640
#
# Compressibility (1/GPa) = 0.01312167
#
# Stress axis : x y z
#
# Youngs Moduli (GPa) = 112.92851 87.14083 129.90185
#
# Poissons Ratio (x) = 0.08898 0.25904
# Poissons Ratio (y) = 0.11532 0.57655
# Poissons Ratio (z) = 0.22520 0.38676
#
# Static dielectric constant tensor:
#      x y z
#    x 4.363400 0.000000 0.005820 
#    y 0.000000 4.730970 0.000000 
#    z 0.005820 0.000000 4.758510 
# 
# 
# High freq. dielectric constant tensor:
#      x y z
#    x 1.978840 0.000000 0.003750 
#    y 0.000000 2.000370 0.000000 
#    z 0.003750 0.000000 2.009930 
# 
# From -- ./inp_files/17234.got.cif
#   From: 2010.03.12/outbox.cif.g09.slc.cpg/sg14_9_cif.got.tgz:17234.got - 2010.03.31 13:35:05.
