data_PCOD8128370
_publ_section_title
;
Structure prediction by ZEFSAII (Michael W. Deem and Ramdas Pophale) SiO2 
 PCOD8128370
Probable space group: P 21/C
;
_chemical_formula_sum "Si O2"
_cell_formula_units_Z 28
_cell_length_a 14.398033
_cell_length_b 8.880263
_cell_length_c 14.793779
_cell_angle_alpha 90.000000
_cell_angle_beta 139.070183
_cell_angle_gamma 90.000000
_cell_volume 1239.191164
_symmetry_space_group_name_H-M "P 21/C"
_symmetry_group_IT_number 14
_symmetry_cell_setting 'monoclinic'
loop_
_space_group_symop_operation_xyz
x,y,z
-x,1/2+y,1/2-z
-x,-y,-z
x,1/2-y,1/2+z
loop_
_atom_site_type_symbol
_atom_site_label
_atom_site_fract_x
_atom_site_fract_y
_atom_site_fract_z
Si Si1 0.806627 0.260876 0.724461
Si Si2 0.566865 0.852250 0.697902
Si Si3 0.893200 0.225487 0.098694
Si Si4 0.609115 0.653021 0.892554
Si Si5 0.065563 0.432309 0.865850
Si Si6 0.508817 0.170159 0.033258
Si Si7 0.838214 0.035516 0.888986
O O1 0.776412 0.254459 0.593680
O O2 0.674848 0.331441 0.680244
O O3 0.806603 0.094722 0.765423
O O4 0.956043 0.346837 0.853703
O O5 0.540810 0.721698 0.751740
O O6 0.531024 0.787134 0.574143
O O7 0.471895 0.999798 0.643883
O O8 0.733595 0.896378 0.829000
O O9 0.957008 0.391572 0.129561
O O10 0.016532 0.112252 0.227029
O O11 0.819005 0.159546 0.955030
O O12 0.775093 0.621592 0.000436
O O13 0.587011 0.781438 0.952435
O O14 0.500000 0.000000 0.000000
O O15 0.000000 0.000000 0.000000
#
# Coordination Sequence:
#
# PCOD8128370 Si02
#       7
#     4   4   4   4   4   4   4
#     4  10  25  44  69 107 139 184 237 297 360 423
#     4  12  29  46  74 107 144 191 244 296 365 430
#     4  10  25  44  74 101 145 183 240 301 355 425
#     4  12  27  47  73 106 145 192 241 300 364 432
#     4  10  25  43  74 100 143 184 241 291 364 420
#     4  12  28  45  74 104 151 188 239 296 367 436
#     4  12  26  45  74 104 143 188 243 297 359 432
#
# _framework density 22.595383999999999
#
# number of rings (size 3 to 8) (size 9 to 14) (size 15 to 20)
#    0.857    0.000    1.429    3.857   14.000    1.714 
#    0.000    0.000    0.000    0.000    0.000    0.000 
#    0.000    0.000    0.000    0.000    0.000    0.000 
#
# Total GULP energy -346902.640329 kJ/mol
# GULP energy per Si atom -12389.380012 kJ/mol
# Density = 2.254396 g / cm^3
# Si number density = 22.595384 Si / 1000 Ang^3
#
#
#
# Elastic Constant Matrix: (Units=GPa)
#
#
# Indices 1 2 3 4 5 6 
#
# 1 84.9445 25.5881 40.3414 0.0000 10.0434 0.0000
# 2 25.5881 102.5749 18.7265 0.0000 9.7092 0.0000
# 3 40.3414 18.7265 72.9087 0.0000 18.1408 0.0000
# 4 0.0000 0.0000 0.0000 47.7347 0.0000 -7.0035
# 5 10.0434 9.7092 18.1408 0.0000 41.1439 0.0000
# 6 0.0000 0.0000 0.0000 -7.0035 0.0000 34.2887
#
#
#
# Elastic Compliance Matrix: (Units=1/GPa)
#
#
# Indices 1 2 3 4 5 6 
#
# 1 0.016602 -0.002604 -0.008606 0.000000 0.000356 0.000000
# 2 -0.002604 0.010710 -0.000943 0.000000 -0.001476 0.000000
# 3 -0.008606 -0.000943 0.020377 0.000000 -0.006661 0.000000
# 4 0.000000 0.000000 0.000000 0.021596 0.000000 0.004411
# 5 0.000356 -0.001476 -0.006661 0.000000 0.027503 0.000000
# 6 0.000000 0.000000 0.000000 0.004411 0.000000 0.030065
#
#
# Mechanical properties :
#
#
# Convention : Reuss Voigt Hill
#
# Bulk Modulus (GPa) = 42.76443 47.74889 45.25666
# Shear Modulus (GPa) = 31.45568 36.35159 33.90364
#
# Velocity S-wave (km/s) = 3.73517 4.01534 3.87779
# Velocity P-wave (km/s) = 6.12938 6.53264 6.33422
#
# Compressibility (1/GPa) = 0.02338392
#
# Stress axis : x y z
#
# Youngs Moduli (GPa) = 60.23488 93.36708 49.07479
#
# Poissons Ratio (x) = 0.24313 0.42233
# Poissons Ratio (y) = 0.15685 0.04627
# Poissons Ratio (z) = 0.51837 0.08803
#
# Static dielectric constant tensor:
#      x y z
#    x 4.270970 0.000000 0.011120 
#    y 0.000000 4.045010 0.000000 
#    z 0.011120 0.000000 3.773340 
# 
# 
# High freq. dielectric constant tensor:
#      x y z
#    x 1.897690 0.000000 0.006430 
#    y 0.000000 1.896370 0.000000 
#    z 0.006430 0.000000 1.890570 
# 
# From -- ./inp_files/46768.got.cif
#   From: 2010.03.12/outbox.cif.g09.slc.cpg/sg14_24_cif.got.tgz:46768.got - 2010.03.31 13:35:05.
