data_PCOD8128181
_publ_section_title
;
Structure prediction by ZEFSAII (Michael W. Deem and Ramdas Pophale) SiO2 
 PCOD8128181
Probable space group: P 21/C
;
_chemical_formula_sum "Si O2"
_cell_formula_units_Z 24
_cell_length_a 23.824836
_cell_length_b 5.190438
_cell_length_c 8.864974
_cell_angle_alpha 90.000000
_cell_angle_beta 109.439593
_cell_angle_gamma 90.000000
_cell_volume 1033.760221
_symmetry_space_group_name_H-M "P 21/C"
_symmetry_group_IT_number 14
_symmetry_cell_setting 'monoclinic'
loop_
_space_group_symop_operation_xyz
x,y,z
-x,1/2+y,1/2-z
-x,-y,-z
x,1/2-y,1/2+z
loop_
_atom_site_type_symbol
_atom_site_label
_atom_site_fract_x
_atom_site_fract_y
_atom_site_fract_z
Si Si1 0.612754 0.005049 0.469275
Si Si2 0.980762 0.592358 0.816776
Si Si3 0.806487 0.262633 0.388789
Si Si4 0.251525 0.045539 0.402276
Si Si5 0.430838 0.491198 0.405142
Si Si6 0.150337 0.071318 0.813894
O O1 0.680214 0.916432 0.493420
O O2 0.588784 0.790481 0.560497
O O3 0.577610 0.013720 0.281328
O O4 0.605745 0.283807 0.541978
O O5 0.913312 0.710569 0.755398
O O6 0.981451 0.337466 0.709328
O O7 0.000000 0.500000 0.000000
O O8 0.748850 0.361337 0.244348
O O9 0.841308 0.487784 0.505840
O O10 0.783747 0.055094 0.485487
O O11 0.854267 0.160960 0.310482
O O12 0.211661 0.288918 0.317595
O O13 0.500000 0.500000 0.500000
#
# Coordination Sequence:
#
# PCOD8128181 Si02
#       6
#     4   4   4   4   4   4
#     4  12  27  44  76 106 147 187 247 296 356 429
#     4  12  29  49  76 106 143 188 248 299 360 433
#     4  10  24  42  67  98 140 178 229 279 364 419
#     4  11  25  41  69 101 141 180 232 287 361 418
#     4  12  26  49  74 106 147 195 242 296 355 420
#     4  11  25  43  72  97 142 181 232 290 365 421
#
# _framework density 23.216213
#
# number of rings (size 3 to 8) (size 9 to 14) (size 15 to 20)
#    0.000    0.667    0.000    6.000   18.667    0.000 
#    0.000    0.000    0.000    0.000    0.000    0.000 
#    0.000    0.000    0.000    0.000    0.000    0.000 
#
# Total GULP energy -297452.194431 kJ/mol
# GULP energy per Si atom -12393.841435 kJ/mol
# Density = 2.316337 g / cm^3
# Si number density = 23.216213 Si / 1000 Ang^3
#
#
#
# Elastic Constant Matrix: (Units=GPa)
#
#
# Indices 1 2 3 4 5 6 
#
# 1 101.8259 12.8043 10.9138 0.0000 30.3639 0.0000
# 2 12.8043 93.2340 21.3777 0.0000 -3.8194 0.0000
# 3 10.9138 21.3777 116.0917 0.0000 -11.5780 0.0000
# 4 0.0000 0.0000 0.0000 32.7367 0.0000 0.9210
# 5 30.3639 -3.8194 -11.5780 0.0000 40.2732 0.0000
# 6 0.0000 0.0000 0.0000 0.9210 0.0000 29.9570
#
#
#
# Elastic Compliance Matrix: (Units=1/GPa)
#
#
# Indices 1 2 3 4 5 6 
#
# 1 0.013540 -0.001844 -0.002027 0.000000 -0.010966 0.000000
# 2 -0.001844 0.011459 -0.001740 0.000000 0.001977 0.000000
# 3 -0.002027 -0.001740 0.009534 0.000000 0.004104 0.000000
# 4 0.000000 0.000000 0.000000 0.030573 0.000000 -0.000940
# 5 -0.010966 0.001977 0.004104 0.000000 0.034466 0.000000
# 6 0.000000 0.000000 0.000000 -0.000940 0.000000 0.033410
#
#
# Mechanical properties :
#
#
# Convention : Reuss Voigt Hill
#
# Bulk Modulus (GPa) = 42.89696 44.59367 43.74531
# Shear Modulus (GPa) = 32.90060 38.33043 35.61551
#
# Velocity S-wave (km/s) = 3.76857 4.06768 3.92098
# Velocity P-wave (km/s) = 6.11992 6.42737 6.27553
#
# Compressibility (1/GPa) = 0.02331168
#
# Stress axis : x y z
#
# Youngs Moduli (GPa) = 73.85649 87.26921 104.88685
#
# Poissons Ratio (x) = 0.16092 0.21260
# Poissons Ratio (y) = 0.13619 0.18246
# Poissons Ratio (z) = 0.14970 0.15181
#
# Static dielectric constant tensor:
#      x y z
#    x 10.814090 0.000000 0.352450 
#    y 0.000000 4.259310 0.000000 
#    z 0.352450 0.000000 4.477080 
# 
# 
# High freq. dielectric constant tensor:
#      x y z
#    x 1.915290 0.000000 -0.001640 
#    y 0.000000 1.918450 0.000000 
#    z -0.001640 0.000000 1.946730 
# 
# From -- ./inp_files/19276.got.cif
#   From: 2010.03.12/outbox.cif.g09.slc.cpg/sg14_10_cif.got.tgz:19276.got - 2010.03.31 13:35:05.
