data_PCOD8128296
_publ_section_title
;
Structure prediction by ZEFSAII (Michael W. Deem and Ramdas Pophale) SiO2 
 PCOD8128296
Probable space group: P 21/C
;
_chemical_formula_sum "Si O2"
_cell_formula_units_Z 32
_cell_length_a 16.616356
_cell_length_b 12.293594
_cell_length_c 21.542817
_cell_angle_alpha 90.000000
_cell_angle_beta 160.550605
_cell_angle_gamma 90.000000
_cell_volume 1465.303835
_symmetry_space_group_name_H-M "P 21/C"
_symmetry_group_IT_number 14
_symmetry_cell_setting 'monoclinic'
loop_
_space_group_symop_operation_xyz
x,y,z
-x,1/2+y,1/2-z
-x,-y,-z
x,1/2-y,1/2+z
loop_
_atom_site_type_symbol
_atom_site_label
_atom_site_fract_x
_atom_site_fract_y
_atom_site_fract_z
Si Si1 0.922142 0.521538 0.651308
Si Si2 0.639154 0.386011 0.346401
Si Si3 0.546944 0.718400 0.673781
Si Si4 0.009828 0.368970 0.517013
Si Si5 0.642798 0.235633 0.178887
Si Si6 0.271947 0.117933 0.476670
Si Si7 0.148208 0.742440 0.794525
Si Si8 0.484591 0.996840 0.915214
O O1 0.750488 0.474097 0.473030
O O2 0.761154 0.524636 0.595877
O O3 0.175523 0.462778 0.853009
O O4 0.995716 0.634626 0.675938
O O5 0.485549 0.299299 0.275547
O O6 0.868262 0.334369 0.476895
O O7 0.459859 0.436023 0.162742
O O8 0.279719 0.751714 0.456651
O O9 0.627907 0.605915 0.697808
O O10 0.721291 0.819914 0.785398
O O11 0.879019 0.305978 0.366351
O O12 0.000000 0.500000 0.500000
O O13 0.638487 0.242724 0.100874
O O14 0.670281 0.109026 0.218957
O O15 0.402160 0.283928 0.034614
O O16 0.043673 0.160153 0.349668
O O17 0.500000 0.000000 0.000000
#
# Coordination Sequence:
#
# PCOD8128296 Si02
#       8
#     4   4   4   4   4   4   4   4
#     4  11  24  42  66 101 138 177 229 288 348 411
#     4  10  24  45  67 100 141 181 234 283 346 418
#     4  11  25  42  71 102 141 188 233 287 356 415
#     4  11  26  47  68 104 142 180 240 293 350 422
#     4  11  24  42  70  97 135 183 228 287 349 407
#     4  11  23  44  67  98 136 180 231 280 353 411
#     4  12  23  41  71 100 136 181 230 287 347 420
#     4  11  21  42  68  98 137 178 233 282 340 421
#
# _framework density 21.838473
#
# number of rings (size 3 to 8) (size 9 to 14) (size 15 to 20)
#    0.000    1.000    5.000    1.500    5.250    2.000 
#    2.250    1.250    0.000    0.000    0.000    0.000 
#    0.000    0.000    0.000    0.000    0.000    0.000 
#
# Total GULP energy -396552.179406 kJ/mol
# GULP energy per Si atom -12392.255606 kJ/mol
# Density = 2.178877 g / cm^3
# Si number density = 21.838473 Si / 1000 Ang^3
#
#
#
# Elastic Constant Matrix: (Units=GPa)
#
#
# Indices 1 2 3 4 5 6 
#
# 1 108.8726 22.4654 23.4172 0.0000 12.6477 0.0000
# 2 22.4654 130.3132 42.7972 0.0000 1.1614 0.0000
# 3 23.4172 42.7972 111.6445 0.0000 -5.0985 0.0000
# 4 0.0000 0.0000 0.0000 35.8575 0.0000 8.9112
# 5 12.6477 1.1614 -5.0985 0.0000 32.0100 0.0000
# 6 0.0000 0.0000 0.0000 8.9112 0.0000 17.2177
#
#
#
# Elastic Compliance Matrix: (Units=1/GPa)
#
#
# Indices 1 2 3 4 5 6 
#
# 1 0.010337 -0.001105 -0.001943 0.000000 -0.004354 0.000000
# 2 -0.001105 0.008921 -0.003206 0.000000 -0.000398 0.000000
# 3 -0.001943 -0.003206 0.010712 0.000000 0.002590 0.000000
# 4 0.000000 0.000000 0.000000 0.032005 0.000000 -0.016565
# 5 -0.004354 -0.000398 0.002590 0.000000 0.033388 0.000000
# 6 0.000000 0.000000 0.000000 -0.016565 0.000000 0.066653
#
#
# Mechanical properties :
#
#
# Convention : Reuss Voigt Hill
#
# Bulk Modulus (GPa) = 57.27140 58.68776 57.97958
# Shear Modulus (GPa) = 27.72480 34.49372 31.10926
#
# Velocity S-wave (km/s) = 3.56692 3.97860 3.77837
# Velocity P-wave (km/s) = 6.57616 6.93091 6.75586
#
# Compressibility (1/GPa) = 0.01746072
#
# Stress axis : x y z
#
# Youngs Moduli (GPa) = 96.74150 112.09781 93.35409
#
# Poissons Ratio (x) = 0.12387 0.18142
# Poissons Ratio (y) = 0.10690 0.29930
# Poissons Ratio (z) = 0.18801 0.35939
#
# Static dielectric constant tensor:
#      x y z
#    x 4.218050 0.000000 0.079240 
#    y 0.000000 4.020650 0.000000 
#    z 0.079240 0.000000 3.852890 
# 
# 
# High freq. dielectric constant tensor:
#      x y z
#    x 1.871210 0.000000 0.005730 
#    y 0.000000 1.852890 0.000000 
#    z 0.005730 0.000000 1.851560 
# 
# From -- ./inp_files/74416.got.cif
#   From: 2010.03.12/outbox.cif.g09.slc.cpg/sg14_38_cif.got.tgz:74416.got - 2010.03.31 13:35:05.
