data_PCOD8128882
_publ_section_title
;
Structure prediction by ZEFSAII (Michael W. Deem and Ramdas Pophale) SiO2 
 PCOD8128882
Probable space group: P 21/C
;
_chemical_formula_sum "Si O2"
_cell_formula_units_Z 32
_cell_length_a 6.589095
_cell_length_b 10.041573
_cell_length_c 21.585411
_cell_angle_alpha 90.000000
_cell_angle_beta 89.674175
_cell_angle_gamma 90.000000
_cell_volume 1428.173002
_symmetry_space_group_name_H-M "P 21/C"
_symmetry_group_IT_number 14
_symmetry_cell_setting 'monoclinic'
loop_
_space_group_symop_operation_xyz
x,y,z
-x,1/2+y,1/2-z
-x,-y,-z
x,1/2-y,1/2+z
loop_
_atom_site_type_symbol
_atom_site_label
_atom_site_fract_x
_atom_site_fract_y
_atom_site_fract_z
Si Si1 0.586460 0.109443 0.044631
Si Si2 0.137742 0.397429 0.406615
Si Si3 0.838189 0.655202 0.256262
Si Si4 0.133780 0.868289 0.199556
Si Si5 0.530009 0.766673 0.661624
Si Si6 0.239244 0.269964 0.108801
Si Si7 0.359072 0.539234 0.058522
Si Si8 0.073033 0.718568 0.996768
O O1 0.399176 0.159943 0.085181
O O2 0.777255 0.044455 0.080344
O O3 0.694938 0.227030 0.006815
O O4 0.500000 0.000000 0.000000
O O5 0.302098 0.331570 0.363258
O O6 0.929043 0.411404 0.369730
O O7 0.089425 0.309990 0.467044
O O8 0.903551 0.500206 0.259362
O O9 0.631818 0.648209 0.216456
O O10 0.808863 0.728107 0.321681
O O11 0.012944 0.738707 0.222373
O O12 0.365530 0.825776 0.195271
O O13 0.451246 0.849237 0.603228
O O14 0.344152 0.413516 0.104386
O O15 0.030684 0.290875 0.070124
O O16 0.132010 0.581494 0.033295
O O17 0.500000 0.500000 0.000000
#
# Coordination Sequence:
#
# PCOD8128882 Si02
#       8
#     4   4   4   4   4   4   4   4
#     4  12  24  40  69 103 145 179 232 292 364 437
#     4  11  23  42  72 102 136 188 235 293 366 428
#     4  11  29  46  75 106 140 197 249 303 368 443
#     4  11  26  49  73 102 145 187 250 306 371 433
#     4  11  26  47  75  99 146 190 245 307 365 433
#     4  12  27  44  70 107 144 187 241 296 364 447
#     4  12  25  47  72 106 148 193 241 303 376 437
#     4  12  24  43  70 103 143 187 229 298 360 440
#
# _framework density 22.406248999999999
#
# number of rings (size 3 to 8) (size 9 to 14) (size 15 to 20)
#    0.000    0.500    3.750    3.750    5.250    4.000 
#    0.000    0.000    0.000    0.000    0.000    0.000 
#    0.000    0.000    0.000    0.000    0.000    0.000 
#
# Total GULP energy -396627.001391 kJ/mol
# GULP energy per Si atom -12394.593793 kJ/mol
# Density = 2.235525 g / cm^3
# Si number density = 22.406249 Si / 1000 Ang^3
#
#
#
# Elastic Constant Matrix: (Units=GPa)
#
#
# Indices 1 2 3 4 5 6 
#
# 1 87.0348 13.6568 27.5204 0.0000 10.6703 0.0000
# 2 13.6568 87.7413 16.5181 0.0000 10.8929 0.0000
# 3 27.5204 16.5181 98.0758 0.0000 15.0372 0.0000
# 4 0.0000 0.0000 0.0000 31.5534 0.0000 -4.3734
# 5 10.6703 10.8929 15.0372 0.0000 31.1629 0.0000
# 6 0.0000 0.0000 0.0000 -4.3734 0.0000 35.6512
#
#
#
# Elastic Compliance Matrix: (Units=1/GPa)
#
#
# Indices 1 2 3 4 5 6 
#
# 1 0.012945 -0.001122 -0.003050 0.000000 -0.002569 0.000000
# 2 -0.001122 0.012213 -0.001238 0.000000 -0.003287 0.000000
# 3 -0.003050 -0.001238 0.011916 0.000000 -0.004273 0.000000
# 4 0.000000 0.000000 0.000000 0.032240 0.000000 0.003955
# 5 -0.002569 -0.003287 -0.004273 0.000000 0.036180 0.000000
# 6 0.000000 0.000000 0.000000 0.003955 0.000000 0.028535
#
#
# Mechanical properties :
#
#
# Convention : Reuss Voigt Hill
#
# Bulk Modulus (GPa) = 38.08895 43.13805 40.61350
# Shear Modulus (GPa) = 32.55232 34.01729 33.28481
#
# Velocity S-wave (km/s) = 3.81573 3.90064 3.85842
# Velocity P-wave (km/s) = 6.03732 6.29136 6.16564
#
# Compressibility (1/GPa) = 0.02625434
#
# Stress axis : x y z
#
# Youngs Moduli (GPa) = 77.25052 81.88022 83.92393
#
# Poissons Ratio (x) = 0.09186 0.25593
# Poissons Ratio (y) = 0.08666 0.10391
# Poissons Ratio (z) = 0.23558 0.10138
#
# Static dielectric constant tensor:
#      x y z
#    x 3.639380 0.000000 -0.187010 
#    y 0.000000 2.647330 0.000000 
#    z -0.187010 0.000000 3.844980 
# 
# 
# High freq. dielectric constant tensor:
#      x y z
#    x 1.894050 0.000000 0.008500 
#    y 0.000000 1.897500 0.000000 
#    z 0.008500 0.000000 1.882320 
# 
# From -- ./inp_files/63519.got.cif
#   From: 2010.03.12/outbox.cif.g09.slc.cpg/sg14_32_cif.got.tgz:63519.got - 2010.03.31 13:35:05.
