data_PCOD8128839
_publ_section_title
;
Structure prediction by ZEFSAII (Michael W. Deem and Ramdas Pophale) SiO2 
 PCOD8128839
Probable space group: P 21/C
;
_chemical_formula_sum "Si O2"
_cell_formula_units_Z 28
_cell_length_a 6.584055
_cell_length_b 12.566072
_cell_length_c 18.385268
_cell_angle_alpha 90.000000
_cell_angle_beta 64.127078
_cell_angle_gamma 90.000000
_cell_volume 1368.647553
_symmetry_space_group_name_H-M "P 21/C"
_symmetry_group_IT_number 14
_symmetry_cell_setting 'monoclinic'
loop_
_space_group_symop_operation_xyz
x,y,z
-x,1/2+y,1/2-z
-x,-y,-z
x,1/2-y,1/2+z
loop_
_atom_site_type_symbol
_atom_site_label
_atom_site_fract_x
_atom_site_fract_y
_atom_site_fract_z
Si Si1 0.737592 0.290731 0.298371
Si Si2 0.220021 0.213360 0.222885
Si Si3 0.621655 0.614155 0.155862
Si Si4 0.766158 0.886944 0.928024
Si Si5 0.989142 0.775252 0.503348
Si Si6 0.631308 0.131250 0.656761
Si Si7 0.725283 0.120176 0.949008
O O1 0.610924 0.177691 0.318254
O O2 0.706175 0.352288 0.228021
O O3 0.639319 0.360820 0.379811
O O4 0.999715 0.280120 0.277542
O O5 0.284564 0.136092 0.278465
O O6 0.148524 0.142326 0.165367
O O7 0.418650 0.295081 0.171151
O O8 0.561615 0.490775 0.156236
O O9 0.804615 0.646409 0.066528
O O10 0.869385 0.807829 0.969869
O O11 0.849549 0.005926 0.934341
O O12 0.495379 0.881535 0.966245
O O13 0.165550 0.843889 0.429746
O O14 0.108605 0.712286 0.550031
#
# Coordination Sequence:
#
# PCOD8128839 Si02
#       7
#     4   4   4   4   4   4   4
#     4  11  23  45  64  91 131 163 213 261 307 383
#     4  11  23  45  64  91 131 163 213 261 307 383
#     4  11  25  42  66  96 128 168 209 260 319 373
#     4  11  23  41  65  91 124 168 210 260 314 365
#     4  12  22  44  64  94 132 158 214 264 306 384
#     4  11  25  42  66  96 128 168 209 260 319 373
#     4  11  23  41  65  91 124 168 210 260 314 365
#
# _framework density 20.458151000000001
#
# number of rings (size 3 to 8) (size 9 to 14) (size 15 to 20)
#    0.000    0.857    5.714    1.714    0.000    2.286 
#    0.000    1.429    0.000    0.000    0.000    0.000 
#    0.000    0.000    0.000    0.000    0.000    0.000 
#
# Total GULP energy -347327.442112 kJ/mol
# GULP energy per Si atom -12404.551504 kJ/mol
# Density = 2.041159 g / cm^3
# Si number density = 20.458151 Si / 1000 Ang^3
#
#
#
# Elastic Constant Matrix: (Units=GPa)
#
#
# Indices 1 2 3 4 5 6 
#
# 1 62.5809 18.3803 20.5007 0.0000 4.3519 0.0000
# 2 18.3803 111.8515 37.3310 0.0000 7.5171 0.0000
# 3 20.5007 37.3310 111.2700 0.0000 11.5709 0.0000
# 4 0.0000 0.0000 0.0000 25.9551 0.0000 -1.2038
# 5 4.3519 7.5171 11.5709 0.0000 32.8007 0.0000
# 6 0.0000 0.0000 0.0000 -1.2038 0.0000 11.1675
#
#
#
# Elastic Compliance Matrix: (Units=1/GPa)
#
#
# Indices 1 2 3 4 5 6 
#
# 1 0.017431 -0.001982 -0.002443 0.000000 -0.000997 0.000000
# 2 -0.001982 0.010336 -0.002993 0.000000 -0.001050 0.000000
# 3 -0.002443 -0.002993 0.010730 0.000000 -0.002775 0.000000
# 4 0.000000 0.000000 0.000000 0.038722 0.000000 0.004174
# 5 -0.000997 -0.001050 -0.002775 0.000000 0.031839 0.000000
# 6 0.000000 0.000000 0.000000 0.004174 0.000000 0.089995
#
#
# Mechanical properties :
#
#
# Convention : Reuss Voigt Hill
#
# Bulk Modulus (GPa) = 42.26495 48.68070 45.47283
# Shear Modulus (GPa) = 22.54527 27.95070 25.24799
#
# Velocity S-wave (km/s) = 3.32327 3.70028 3.51683
# Velocity P-wave (km/s) = 5.95227 6.48868 6.22626
#
# Compressibility (1/GPa) = 0.02366027
#
# Stress axis : x y z
#
# Youngs Moduli (GPa) = 57.36889 96.75195 93.19615
#
# Poissons Ratio (x) = 0.19177 0.22767
# Poissons Ratio (y) = 0.11371 0.27896
# Poissons Ratio (z) = 0.14015 0.28960
#
# Static dielectric constant tensor:
#      x y z
#    x 3.595610 0.000000 -0.004240 
#    y 0.000000 3.607220 0.000000 
#    z -0.004240 0.000000 3.937430 
# 
# 
# High freq. dielectric constant tensor:
#      x y z
#    x 1.796670 0.000000 0.002100 
#    y 0.000000 1.798120 0.000000 
#    z 0.002100 0.000000 1.820710 
# 
# From -- ./inp_files/61307.got.cif
#   From: 2010.03.12/outbox.cif.g09.slc.cpg/sg14_31_cif.got.tgz:61307.got - 2010.03.31 13:35:05.
