data_PCOD8128838
_publ_section_title
;
Structure prediction by ZEFSAII (Michael W. Deem and Ramdas Pophale) SiO2 
 PCOD8128838
Probable space group: P 21/C
;
_chemical_formula_sum "Si O2"
_cell_formula_units_Z 20
_cell_length_a 12.366350
_cell_length_b 14.956036
_cell_length_c 4.935315
_cell_angle_alpha 90.000000
_cell_angle_beta 91.826112
_cell_angle_gamma 90.000000
_cell_volume 912.330716
_symmetry_space_group_name_H-M "P 21/C"
_symmetry_group_IT_number 14
_symmetry_cell_setting 'monoclinic'
loop_
_space_group_symop_operation_xyz
x,y,z
-x,1/2+y,1/2-z
-x,-y,-z
x,1/2-y,1/2+z
loop_
_atom_site_type_symbol
_atom_site_label
_atom_site_fract_x
_atom_site_fract_y
_atom_site_fract_z
Si Si1 0.383665 0.309129 0.842281
Si Si2 0.252039 0.811298 0.999767
Si Si3 0.248686 0.039878 0.535386
Si Si4 0.434813 0.932513 0.802184
Si Si5 0.125482 0.520179 0.515705
O O1 0.386385 0.278385 0.530262
O O2 0.486767 0.373837 0.882246
O O3 0.275395 0.362833 0.914974
O O4 0.247170 0.773218 0.301534
O O5 0.150380 0.877258 0.931881
O O6 0.362629 0.867366 0.982341
O O7 0.359842 0.985749 0.585169
O O8 0.170958 0.989526 0.321082
O O9 0.186140 0.048116 0.816362
O O10 0.500000 0.000000 0.000000
O O11 0.000000 0.500000 0.500000
#
# Coordination Sequence:
#
# PCOD8128838 Si02
#       5
#     4   4   4   4   4
#     4  12  24  39  60  94 132 171 208 254 313 381
#     4  11  23  41  64  98 130 162 213 278 322 369
#     4  11  24  43  64  92 126 166 214 260 313 387
#     4  11  23  41  65  95 133 178 215 252 315 396
#     4  11  24  46  71  91 121 169 218 268 329 389
#
# _framework density 21.921873000000001
#
# number of rings (size 3 to 8) (size 9 to 14) (size 15 to 20)
#    0.000    0.800    0.000    9.600    0.000    4.800 
#    0.000    6.000    0.000    0.000    0.000    0.000 
#    0.000    0.000    0.000    0.000    0.000    0.000 
#
# Total GULP energy -248076.057357 kJ/mol
# GULP energy per Si atom -12403.802868 kJ/mol
# Density = 2.187198 g / cm^3
# Si number density = 21.921873 Si / 1000 Ang^3
#
#
#
# Elastic Constant Matrix: (Units=GPa)
#
#
# Indices 1 2 3 4 5 6 
#
# 1 125.9878 65.7829 27.2839 0.0000 9.6171 0.0000
# 2 65.7829 102.5737 23.2686 0.0000 1.3613 0.0000
# 3 27.2839 23.2686 90.2925 0.0000 12.1206 0.0000
# 4 0.0000 0.0000 0.0000 48.7430 0.0000 -15.1238
# 5 9.6171 1.3613 12.1206 0.0000 37.2327 0.0000
# 6 0.0000 0.0000 0.0000 -15.1238 0.0000 33.6341
#
#
#
# Elastic Compliance Matrix: (Units=1/GPa)
#
#
# Indices 1 2 3 4 5 6 
#
# 1 0.012405 -0.007591 -0.001463 0.000000 -0.002450 0.000000
# 2 -0.007591 0.015009 -0.001844 0.000000 0.002012 0.000000
# 3 -0.001463 -0.001844 0.012478 0.000000 -0.003617 0.000000
# 4 0.000000 0.000000 0.000000 0.023842 0.000000 0.010721
# 5 -0.002450 0.002012 -0.003617 0.000000 0.028595 0.000000
# 6 0.000000 0.000000 0.000000 0.010721 0.000000 0.034552
#
#
# Mechanical properties :
#
#
# Convention : Reuss Voigt Hill
#
# Bulk Modulus (GPa) = 55.26423 61.28054 58.27238
# Shear Modulus (GPa) = 32.31863 37.42320 34.87092
#
# Velocity S-wave (km/s) = 3.84378 4.13621 3.99267
# Velocity P-wave (km/s) = 6.70551 7.12922 6.92061
#
# Compressibility (1/GPa) = 0.01809489
#
# Stress axis : x y z
#
# Youngs Moduli (GPa) = 80.61447 66.62662 80.14099
#
# Poissons Ratio (x) = 0.50576 0.11726
# Poissons Ratio (y) = 0.61194 0.14780
# Poissons Ratio (z) = 0.11796 0.12287
#
# Static dielectric constant tensor:
#      x y z
#    x 3.929870 0.000000 -0.158810 
#    y 0.000000 4.119400 0.000000 
#    z -0.158810 0.000000 3.913180 
# 
# 
# High freq. dielectric constant tensor:
#      x y z
#    x 1.844000 0.000000 -0.014280 
#    y 0.000000 1.867590 0.000000 
#    z -0.014280 0.000000 1.875410 
# 
# From -- ./inp_files/2466.got.cif
#   From: 2010.03.12/outbox.cif.g09.slc.cpg/sg14_2_cif.got.tgz:2466.got - 2010.03.31 13:35:05.
