data_PCOD8128919
_publ_section_title
;
Structure prediction by ZEFSAII (Michael W. Deem and Ramdas Pophale) SiO2 
 PCOD8128919
Probable space group: P 21/C
;
_chemical_formula_sum "Si O2"
_cell_formula_units_Z 32
_cell_length_a 17.316441
_cell_length_b 11.458370
_cell_length_c 15.464353
_cell_angle_alpha 90.000000
_cell_angle_beta 151.668498
_cell_angle_gamma 90.000000
_cell_volume 1456.181673
_symmetry_space_group_name_H-M "P 21/C"
_symmetry_group_IT_number 14
_symmetry_cell_setting 'monoclinic'
loop_
_space_group_symop_operation_xyz
x,y,z
-x,1/2+y,1/2-z
-x,-y,-z
x,1/2-y,1/2+z
loop_
_atom_site_type_symbol
_atom_site_label
_atom_site_fract_x
_atom_site_fract_y
_atom_site_fract_z
Si Si1 0.829349 0.737232 0.233090
Si Si2 0.472549 0.432215 0.061581
Si Si3 0.577144 0.498219 0.669352
Si Si4 0.251505 0.027039 0.939048
Si Si5 0.650058 0.238098 0.325296
Si Si6 0.960577 0.181819 0.217822
Si Si7 0.566110 0.859492 0.747117
Si Si8 0.805241 0.788584 0.396962
O O1 0.794428 0.869852 0.171618
O O2 0.897346 0.752997 0.398462
O O3 0.945178 0.667762 0.280937
O O4 0.668613 0.661014 0.080476
O O5 0.630380 0.358263 0.250962
O O6 0.437377 0.540151 0.092553
O O7 0.500000 0.500000 0.000000
O O8 0.500000 0.500000 0.500000
O O9 0.426598 0.530715 0.584915
O O10 0.650289 0.370491 0.760535
O O11 0.735730 0.580103 0.831949
O O12 0.104487 0.936083 0.801649
O O13 0.273892 0.078061 0.056388
O O14 0.810428 0.236065 0.543354
O O15 0.502280 0.226803 0.247375
O O16 0.075802 0.237436 0.404831
O O17 0.638497 0.787568 0.738114
#
# Coordination Sequence:
#
# PCOD8128919 Si02
#       8
#     4   4   4   4   4   4   4   4
#     4  12  26  47  69 107 147 185 244 302 362 437
#     4  12  23  46  74 104 136 185 242 310 357 421
#     4  11  23  43  77 103 136 182 256 306 353 411
#     4  11  23  45  70  99 143 188 242 304 353 434
#     4  11  25  45  68 106 139 187 240 297 358 440
#     4  12  28  44  69 101 157 195 232 287 385 441
#     4  11  23  43  76  96 141 184 248 294 357 419
#     4  12  25  45  70 108 142 195 235 302 363 435
#
# _framework density 21.975280999999999
#
# number of rings (size 3 to 8) (size 9 to 14) (size 15 to 20)
#    0.000    0.500    7.500    0.750    7.000    1.500 
#    2.250    1.250    0.000    0.000    0.000    0.000 
#    0.000    0.000    0.000    0.000    0.000    0.000 
#
# Total GULP energy -396450.637745 kJ/mol
# GULP energy per Si atom -12389.082430 kJ/mol
# Density = 2.192526 g / cm^3
# Si number density = 21.975281 Si / 1000 Ang^3
#
#
#
# Elastic Constant Matrix: (Units=GPa)
#
#
# Indices 1 2 3 4 5 6 
#
# 1 122.2679 55.2111 46.0418 0.0000 -19.6833 0.0000
# 2 55.2111 121.0713 54.4585 0.0000 -10.7952 0.0000
# 3 46.0418 54.4585 115.0976 0.0000 -12.6475 0.0000
# 4 0.0000 0.0000 0.0000 36.0858 0.0000 0.4607
# 5 -19.6833 -10.7952 -12.6475 0.0000 33.6879 0.0000
# 6 0.0000 0.0000 0.0000 0.4607 0.0000 40.9139
#
#
#
# Elastic Compliance Matrix: (Units=1/GPa)
#
#
# Indices 1 2 3 4 5 6 
#
# 1 0.011507 -0.003801 -0.002294 0.000000 0.004644 0.000000
# 2 -0.003801 0.011828 -0.004071 0.000000 0.000041 0.000000
# 3 -0.002294 -0.004071 0.011725 0.000000 0.001757 0.000000
# 4 0.000000 0.000000 0.000000 0.027716 0.000000 -0.000312
# 5 0.004644 0.000041 0.001757 0.000000 0.033070 0.000000
# 6 0.000000 0.000000 0.000000 -0.000312 0.000000 0.024445
#
#
# Mechanical properties :
#
#
# Convention : Reuss Voigt Hill
#
# Bulk Modulus (GPa) = 67.90423 74.42884 71.16653
# Shear Modulus (GPa) = 34.35631 35.65254 35.00442
#
# Velocity S-wave (km/s) = 3.95828 4.03226 3.99544
# Velocity P-wave (km/s) = 7.20125 7.45800 7.33075
#
# Compressibility (1/GPa) = 0.01472662
#
# Stress axis : x y z
#
# Youngs Moduli (GPa) = 86.90551 84.54482 85.28501
#
# Poissons Ratio (x) = 0.32139 0.19565
# Poissons Ratio (y) = 0.33036 0.34722
# Poissons Ratio (z) = 0.19937 0.34421
#
# Static dielectric constant tensor:
#      x y z
#    x 4.111440 0.000000 -0.153930 
#    y 0.000000 4.373390 0.000000 
#    z -0.153930 0.000000 4.037330 
# 
# 
# High freq. dielectric constant tensor:
#      x y z
#    x 1.860480 0.000000 -0.021130 
#    y 0.000000 1.870480 0.000000 
#    z -0.021130 0.000000 1.860330 
# 
# From -- ./inp_files/49046.got.cif
#   From: 2010.03.12/outbox.cif.g09.slc.cpg/sg14_25_cif.got.tgz:49046.got - 2010.03.31 13:35:05.
