data_PCOD8128878
_publ_section_title
;
Structure prediction by ZEFSAII (Michael W. Deem and Ramdas Pophale) SiO2 
 PCOD8128878
Probable space group: P 21/C
;
_chemical_formula_sum "Si O2"
_cell_formula_units_Z 32
_cell_length_a 17.815399
_cell_length_b 14.662850
_cell_length_c 11.695660
_cell_angle_alpha 90.000000
_cell_angle_beta 150.851071
_cell_angle_gamma 90.000000
_cell_volume 1488.127724
_symmetry_space_group_name_H-M "P 21/C"
_symmetry_group_IT_number 14
_symmetry_cell_setting 'monoclinic'
loop_
_space_group_symop_operation_xyz
x,y,z
-x,1/2+y,1/2-z
-x,-y,-z
x,1/2-y,1/2+z
loop_
_atom_site_type_symbol
_atom_site_label
_atom_site_fract_x
_atom_site_fract_y
_atom_site_fract_z
Si Si1 0.600942 0.808545 0.679048
Si Si2 0.163102 0.330999 0.306324
Si Si3 0.714675 0.533179 0.177013
Si Si4 0.338053 0.389915 0.333439
Si Si5 0.343829 0.532943 0.150672
Si Si6 0.102527 0.685423 0.889685
Si Si7 0.740784 0.340468 0.272552
Si Si8 0.034341 0.166619 0.016991
O O1 0.613570 0.886558 0.598624
O O2 0.649807 0.714026 0.688851
O O3 0.423970 0.800206 0.484947
O O4 0.702002 0.836429 0.921773
O O5 0.206643 0.396094 0.257420
O O6 0.148056 0.226366 0.245630
O O7 0.993779 0.356231 0.131182
O O8 0.721760 0.448165 0.276027
O O9 0.889459 0.566671 0.386839
O O10 0.639109 0.501043 0.956924
O O11 0.291430 0.449678 0.162122
O O12 0.495502 0.425683 0.596556
O O13 0.215645 0.609876 0.991720
O O14 0.975046 0.708929 0.623390
O O15 0.192459 0.779546 0.035531
O O16 0.858618 0.336388 0.324263
#
# Coordination Sequence:
#
# PCOD8128878 Si02
#       8
#     4   4   4   4   4   4   4   4
#     4  12  24  45  69 102 138 178 226 291 336 403
#     4  11  23  42  70  99 137 177 230 274 339 407
#     4  12  23  45  70 102 135 182 231 276 343 406
#     4  11  24  45  68 103 136 182 226 283 345 404
#     4  11  25  45  71  99 139 183 227 276 351 409
#     4  11  23  46  66 100 143 176 228 283 340 408
#     4  11  25  40  71 100 135 176 229 283 335 400
#     4  11  23  44  66 101 135 186 221 276 347 404
#
# _framework density 21.503530000000001
#
# number of rings (size 3 to 8) (size 9 to 14) (size 15 to 20)
#    0.000    0.750    5.000    2.250    0.000    1.500 
#    0.000    2.500    0.000    0.000    0.000    0.000 
#    0.000    0.000    0.000    0.000    0.000    0.000 
#
# Total GULP energy -396702.287360 kJ/mol
# GULP energy per Si atom -12396.946480 kJ/mol
# Density = 2.145459 g / cm^3
# Si number density = 21.503530 Si / 1000 Ang^3
#
#
#
# Elastic Constant Matrix: (Units=GPa)
#
#
# Indices 1 2 3 4 5 6 
#
# 1 78.9021 28.8384 17.6979 0.0000 -0.6771 0.0000
# 2 28.8384 93.6036 19.2930 0.0000 -24.9071 0.0000
# 3 17.6979 19.2930 73.4540 0.0000 -9.3644 0.0000
# 4 0.0000 0.0000 0.0000 20.1795 0.0000 3.6294
# 5 -0.6771 -24.9071 -9.3644 0.0000 34.4841 0.0000
# 6 0.0000 0.0000 0.0000 3.6294 0.0000 29.7948
#
#
#
# Elastic Compliance Matrix: (Units=1/GPa)
#
#
# Indices 1 2 3 4 5 6 
#
# 1 0.015181 -0.005223 -0.002826 0.000000 -0.004242 0.000000
# 2 -0.005223 0.015421 -0.001435 0.000000 0.010646 0.000000
# 3 -0.002826 -0.001435 0.015054 0.000000 0.002996 0.000000
# 4 0.000000 0.000000 0.000000 0.050665 0.000000 -0.006172
# 5 -0.004242 0.010646 0.002996 0.000000 0.037419 0.000000
# 6 0.000000 0.000000 0.000000 -0.006172 0.000000 0.034315
#
#
# Mechanical properties :
#
#
# Convention : Reuss Voigt Hill
#
# Bulk Modulus (GPa) = 37.47187 41.95760 39.71473
# Shear Modulus (GPa) = 25.52079 28.90037 27.21058
#
# Velocity S-wave (km/s) = 3.44876 3.67001 3.56111
# Velocity P-wave (km/s) = 5.77255 6.12478 5.95127
#
# Compressibility (1/GPa) = 0.02668669
#
# Stress axis : x y z
#
# Youngs Moduli (GPa) = 65.87365 64.84606 66.42842
#
# Poissons Ratio (x) = 0.33870 0.18776
# Poissons Ratio (y) = 0.34407 0.09531
# Poissons Ratio (z) = 0.18619 0.09304
#
# Static dielectric constant tensor:
#      x y z
#    x 4.143010 0.000000 0.075930 
#    y 0.000000 3.968260 0.000000 
#    z 0.075930 0.000000 3.895440 
# 
# 
# High freq. dielectric constant tensor:
#      x y z
#    x 1.856140 0.000000 0.008960 
#    y 0.000000 1.840190 0.000000 
#    z 0.008960 0.000000 1.846660 
# 
# From -- ./inp_files/34248.got.cif
#   From: 2010.03.12/outbox.cif.g09.slc.cpg/sg14_18_cif.got.tgz:34248.got - 2010.03.31 13:35:05.
