data_PCOD8128096
_publ_section_title
;
Structure prediction by ZEFSAII (Michael W. Deem and Ramdas Pophale) SiO2 
 PCOD8128096
Probable space group: P 21/C
;
_chemical_formula_sum "Si O2"
_cell_formula_units_Z 20
_cell_length_a 5.181683
_cell_length_b 16.498344
_cell_length_c 10.053329
_cell_angle_alpha 90.000000
_cell_angle_beta 102.045291
_cell_angle_gamma 90.000000
_cell_volume 840.528361
_symmetry_space_group_name_H-M "P 21/C"
_symmetry_group_IT_number 14
_symmetry_cell_setting 'monoclinic'
loop_
_space_group_symop_operation_xyz
x,y,z
-x,1/2+y,1/2-z
-x,-y,-z
x,1/2-y,1/2+z
loop_
_atom_site_type_symbol
_atom_site_label
_atom_site_fract_x
_atom_site_fract_y
_atom_site_fract_z
Si Si1 0.401993 0.609637 0.058574
Si Si2 0.778948 0.022527 0.700022
Si Si3 0.245211 0.254094 0.870566
Si Si4 0.746914 0.346424 0.412669
Si Si5 0.887624 0.371011 0.717902
O O1 0.518189 0.528281 0.137240
O O2 0.618420 0.674107 0.023537
O O3 0.265203 0.657691 0.165556
O O4 0.192518 0.586658 0.919586
O O5 0.753527 0.069487 0.835090
O O6 0.025483 0.963230 0.743281
O O7 0.475140 0.196148 0.840457
O O8 0.125529 0.305317 0.732535
O O9 0.016360 0.203833 0.919795
O O10 0.717920 0.367244 0.565969
#
# Coordination Sequence:
#
# PCOD8128096 Si02
#       5
#     4   4   4   4   4
#     4  10  23  48  73 102 149 190 240 289 355 429
#     4  10  25  45  74 106 143 195 234 294 355 431
#     4  11  27  45  69 108 145 187 236 295 359 419
#     4  12  28  44  77 105 148 186 241 299 359 416
#     4  11  25  48  73 107 144 189 244 296 350 432
#
# _framework density 23.794554999999999
#
# number of rings (size 3 to 8) (size 9 to 14) (size 15 to 20)
#    0.000    1.200    2.000    1.200   14.000    0.800 
#    0.000    0.000    0.000    0.000    0.000    0.000 
#    0.000    0.000    0.000    0.000    0.000    0.000 
#
# Total GULP energy -247810.880663 kJ/mol
# GULP energy per Si atom -12390.544033 kJ/mol
# Density = 2.374040 g / cm^3
# Si number density = 23.794555 Si / 1000 Ang^3
#
#
#
# Elastic Constant Matrix: (Units=GPa)
#
#
# Indices 1 2 3 4 5 6 
#
# 1 100.1389 28.4124 20.6050 0.0000 -8.2320 0.0000
# 2 28.4124 75.5431 7.4686 0.0000 1.3021 0.0000
# 3 20.6050 7.4686 86.0981 0.0000 3.3101 0.0000
# 4 0.0000 0.0000 0.0000 19.4118 0.0000 -13.6664
# 5 -8.2320 1.3021 3.3101 0.0000 26.3884 0.0000
# 6 0.0000 0.0000 0.0000 -13.6664 0.0000 20.4623
#
#
#
# Elastic Compliance Matrix: (Units=1/GPa)
#
#
# Indices 1 2 3 4 5 6 
#
# 1 0.012138 -0.004374 -0.002692 0.000000 0.004340 0.000000
# 2 -0.004374 0.014935 -0.000169 0.000000 -0.002080 0.000000
# 3 -0.002692 -0.000169 0.012365 0.000000 -0.002383 0.000000
# 4 0.000000 0.000000 0.000000 0.097236 0.000000 0.064942
# 5 0.004340 -0.002080 -0.002383 0.000000 0.039651 0.000000
# 6 0.000000 0.000000 0.000000 0.064942 0.000000 0.092244
#
#
# Mechanical properties :
#
#
# Convention : Reuss Voigt Hill
#
# Bulk Modulus (GPa) = 40.05077 41.63913 40.84495
# Shear Modulus (GPa) = 17.16081 26.93879 22.04980
#
# Velocity S-wave (km/s) = 2.68844 3.36838 3.04743
# Velocity P-wave (km/s) = 5.14834 5.71537 5.43925
#
# Compressibility (1/GPa) = 0.02496831
#
# Stress axis : x y z
#
# Youngs Moduli (GPa) = 82.38692 66.95665 80.87198
#
# Poissons Ratio (x) = 0.29285 0.21773
# Poissons Ratio (y) = 0.36034 0.01365
# Poissons Ratio (z) = 0.22181 0.01130
#
# Static dielectric constant tensor:
#      x y z
#    x 4.216020 0.000000 0.141710 
#    y 0.000000 4.471190 0.000000 
#    z 0.141710 0.000000 3.999740 
# 
# 
# High freq. dielectric constant tensor:
#      x y z
#    x 1.937240 0.000000 0.013310 
#    y 0.000000 1.963210 0.000000 
#    z 0.013310 0.000000 1.919730 
# 
# From -- ./inp_files/5511.got.cif
#   From: 2010.03.12/outbox.cif.g09.slc.cpg/sg14_3_cif.got.tgz:5511.got - 2010.03.31 13:35:05.
