data_PCOD8128524
_publ_section_title
;
Structure prediction by ZEFSAII (Michael W. Deem and Ramdas Pophale) SiO2 
 PCOD8128524
Probable space group: P 21/C
;
_chemical_formula_sum "Si O2"
_cell_formula_units_Z 28
_cell_length_a 18.945587
_cell_length_b 11.918929
_cell_length_c 9.146848
_cell_angle_alpha 90.000000
_cell_angle_beta 146.192925
_cell_angle_gamma 90.000000
_cell_volume 1149.218199
_symmetry_space_group_name_H-M "P 21/C"
_symmetry_group_IT_number 14
_symmetry_cell_setting 'monoclinic'
loop_
_space_group_symop_operation_xyz
x,y,z
-x,1/2+y,1/2-z
-x,-y,-z
x,1/2-y,1/2+z
loop_
_atom_site_type_symbol
_atom_site_label
_atom_site_fract_x
_atom_site_fract_y
_atom_site_fract_z
Si Si1 0.779100 0.183943 0.610183
Si Si2 0.995116 0.503984 0.161517
Si Si3 0.681715 0.713246 0.609175
Si Si4 0.230503 0.618006 0.594176
Si Si5 0.930747 0.663802 0.474884
Si Si6 0.386199 0.090193 0.304097
Si Si7 0.770592 0.538896 0.959878
O O1 0.721073 0.169899 0.671129
O O2 0.721049 0.299629 0.449616
O O3 0.715452 0.081465 0.410362
O O4 0.932834 0.193681 0.861808
O O5 0.850096 0.521130 0.950205
O O6 0.077921 0.612928 0.350708
O O7 0.045699 0.391130 0.326754
O O8 0.000000 0.500000 0.000000
O O9 0.831476 0.733974 0.828407
O O10 0.614988 0.661096 0.349896
O O11 0.613525 0.827233 0.552426
O O12 0.668306 0.630051 0.728175
O O13 0.264759 0.489634 0.614597
O O14 0.861063 0.575531 0.248579
O O15 0.500000 0.000000 0.500000
#
# Coordination Sequence:
#
# PCOD8128524 Si02
#       7
#     4   4   4   4   4   4   4
#     4  11  25  39  66 109 160 198 232 284 352 434
#     4  11  21  35  63 102 150 194 241 285 344 436
#     4  12  25  48  81 106 142 194 243 310 377 438
#     4  12  25  44  66 102 149 194 239 299 359 431
#     4  11  21  42  66 106 154 200 237 289 349 452
#     4  12  30  54  79 107 138 183 259 317 375 436
#     4  11  21  41  65 103 147 195 238 283 358 438
#
# _framework density 24.364391000000001
#
# number of rings (size 3 to 8) (size 9 to 14) (size 15 to 20)
#    0.000    0.571    5.714    2.571    6.000    1.143 
#    0.000    0.714    0.000    0.000    0.000    0.000 
#    0.000    0.000    0.000    0.000    0.000    0.000 
#
# Total GULP energy -346879.738943 kJ/mol
# GULP energy per Si atom -12388.562105 kJ/mol
# Density = 2.430894 g / cm^3
# Si number density = 24.364391 Si / 1000 Ang^3
#
#
#
# Elastic Constant Matrix: (Units=GPa)
#
#
# Indices 1 2 3 4 5 6 
#
# 1 81.0929 36.8574 49.2283 0.0000 -30.8653 0.0000
# 2 36.8574 149.7262 47.8115 0.0000 -22.1171 0.0000
# 3 49.2283 47.8115 75.3550 0.0000 -33.3097 0.0000
# 4 0.0000 0.0000 0.0000 43.2923 0.0000 -11.3032
# 5 -30.8653 -22.1171 -33.3097 0.0000 43.8989 0.0000
# 6 0.0000 0.0000 0.0000 -11.3032 0.0000 43.4815
#
#
#
# Elastic Compliance Matrix: (Units=1/GPa)
#
#
# Indices 1 2 3 4 5 6 
#
# 1 0.021808 -0.000971 -0.010637 0.000000 0.006773 0.000000
# 2 -0.000971 0.008421 -0.004717 0.000000 -0.000019 0.000000
# 3 -0.010637 -0.004717 0.028372 0.000000 0.011673 0.000000
# 4 0.000000 0.000000 0.000000 0.024781 0.000000 0.006442
# 5 0.006773 -0.000019 0.011673 0.000000 0.036389 0.000000
# 6 0.000000 0.000000 0.000000 0.006442 0.000000 0.024673
#
#
# Mechanical properties :
#
#
# Convention : Reuss Voigt Hill
#
# Bulk Modulus (GPa) = 38.53407 63.77427 51.15417
# Shear Modulus (GPa) = 26.91858 37.61969 32.26913
#
# Velocity S-wave (km/s) = 3.32751 3.93370 3.64323
# Velocity P-wave (km/s) = 5.53292 6.84573 6.22403
#
# Compressibility (1/GPa) = 0.02595106
#
# Stress axis : x y z
#
# Youngs Moduli (GPa) = 45.85472 118.74434 35.24570
#
# Poissons Ratio (x) = 0.11534 0.37490
# Poissons Ratio (y) = 0.04454 0.16627
# Poissons Ratio (z) = 0.48774 0.56016
#
# Static dielectric constant tensor:
#      x y z
#    x 4.361220 0.000000 -0.070900 
#    y 0.000000 4.707460 0.000000 
#    z -0.070900 0.000000 3.224080 
# 
# 
# High freq. dielectric constant tensor:
#      x y z
#    x 1.958990 0.000000 -0.031520 
#    y 0.000000 1.984830 0.000000 
#    z -0.031520 0.000000 1.938270 
# 
# From -- ./inp_files/18984.got.cif
#   From: 2010.03.12/outbox.cif.g09.slc.cpg/sg14_10_cif.got.tgz:18984.got - 2010.03.31 13:35:05.
