data_PCOD8128337
_publ_section_title
;
Structure prediction by ZEFSAII (Michael W. Deem and Ramdas Pophale) SiO2 
 PCOD8128337
Probable space group: P 21/C
;
_chemical_formula_sum "Si O2"
_cell_formula_units_Z 32
_cell_length_a 11.632091
_cell_length_b 8.586274
_cell_length_c 28.794099
_cell_angle_alpha 90.000000
_cell_angle_beta 30.295277
_cell_angle_gamma 90.000000
_cell_volume 1450.740408
_symmetry_space_group_name_H-M "P 21/C"
_symmetry_group_IT_number 14
_symmetry_cell_setting 'monoclinic'
loop_
_space_group_symop_operation_xyz
x,y,z
-x,1/2+y,1/2-z
-x,-y,-z
x,1/2-y,1/2+z
loop_
_atom_site_type_symbol
_atom_site_label
_atom_site_fract_x
_atom_site_fract_y
_atom_site_fract_z
Si Si1 0.134545 0.703174 0.798210
Si Si2 0.558948 0.118612 0.372821
Si Si3 0.132724 0.161311 0.456670
Si Si4 0.822502 0.376520 0.624000
Si Si5 0.565012 0.275204 0.060401
Si Si6 0.081288 0.212484 0.879758
Si Si7 0.400657 0.390251 0.706664
Si Si8 0.598062 0.669810 0.976543
O O1 0.206465 0.828230 0.733501
O O2 0.210120 0.754729 0.823147
O O3 0.262334 0.543908 0.743666
O O4 0.867750 0.671678 0.888774
O O5 0.358547 0.149242 0.406972
O O6 0.515700 0.220409 0.434750
O O7 0.562297 0.936043 0.382939
O O8 0.209396 0.209484 0.378555
O O9 0.977729 0.300079 0.530346
O O10 0.000000 0.000000 0.500000
O O11 0.940825 0.527484 0.605710
O O12 0.585951 0.421527 0.682115
O O13 0.515548 0.152644 0.117863
O O14 0.471757 0.218505 0.042327
O O15 0.835810 0.294743 0.961137
O O16 0.230724 0.252224 0.782255
O O17 0.500000 0.500000 0.000000
#
# Coordination Sequence:
#
# PCOD8128337 Si02
#       8
#     4   4   4   4   4   4   4   4
#     4  12  26  43  72 100 136 181 228 285 348 406
#     4  11  22  44  69  97 136 177 224 285 340 415
#     4  12  21  39  71  99 137 178 218 274 354 413
#     4  12  24  41  67 101 140 174 226 274 350 425
#     4  11  25  44  67  97 132 179 231 280 343 402
#     4  12  25  42  67  98 141 178 220 286 345 415
#     4  12  24  43  66 101 138 175 225 285 346 416
#     4  10  24  47  70  96 132 182 235 281 339 403
#
# _framework density 22.057704000000001
#
# number of rings (size 3 to 8) (size 9 to 14) (size 15 to 20)
#    0.000    0.500    3.750    5.625    1.750    3.000 
#    0.000    2.500    0.000    0.000    0.000    0.000 
#    0.000    0.000    0.000    0.000    0.000    0.000 
#
# Total GULP energy -396847.309420 kJ/mol
# GULP energy per Si atom -12401.478419 kJ/mol
# Density = 2.200750 g / cm^3
# Si number density = 22.057704 Si / 1000 Ang^3
#
#
#
# Elastic Constant Matrix: (Units=GPa)
#
#
# Indices 1 2 3 4 5 6 
#
# 1 136.3207 3.6661 30.8006 0.0000 16.9442 0.0000
# 2 3.6661 67.8148 0.0439 0.0000 -4.5981 0.0000
# 3 30.8006 0.0439 87.7803 0.0000 8.3536 0.0000
# 4 0.0000 0.0000 0.0000 30.4008 0.0000 0.8762
# 5 16.9442 -4.5981 8.3536 0.0000 19.6551 0.0000
# 6 0.0000 0.0000 0.0000 0.8762 0.0000 13.5992
#
#
#
# Elastic Compliance Matrix: (Units=1/GPa)
#
#
# Indices 1 2 3 4 5 6 
#
# 1 0.008745 -0.000927 -0.002428 0.000000 -0.006724 0.000000
# 2 -0.000927 0.015093 -0.000098 0.000000 0.004372 0.000000
# 3 -0.002428 -0.000098 0.012555 0.000000 -0.003266 0.000000
# 4 0.000000 0.000000 0.000000 0.032955 0.000000 -0.002123
# 5 -0.006724 0.004372 -0.003266 0.000000 0.059084 0.000000
# 6 0.000000 0.000000 0.000000 -0.002123 0.000000 0.073671
#
#
# Mechanical properties :
#
#
# Convention : Reuss Voigt Hill
#
# Bulk Modulus (GPa) = 33.91501 40.10413 37.00957
# Shear Modulus (GPa) = 22.84795 29.89136 26.36966
#
# Velocity S-wave (km/s) = 3.22192 3.68522 3.46133
# Velocity P-wave (km/s) = 5.40832 6.02733 5.72620
#
# Compressibility (1/GPa) = 0.02948547
#
# Stress axis : x y z
#
# Youngs Moduli (GPa) = 114.35217 66.25747 79.65029
#
# Poissons Ratio (x) = 0.06143 0.19340
# Poissons Ratio (y) = 0.10601 0.00783
# Poissons Ratio (z) = 0.27766 0.00651
#
# Static dielectric constant tensor:
#      x y z
#    x 4.469070 0.000000 0.320140 
#    y 0.000000 3.838740 0.000000 
#    z 0.320140 0.000000 4.116250 
# 
# 
# High freq. dielectric constant tensor:
#      x y z
#    x 1.877200 0.000000 0.012690 
#    y 0.000000 1.856380 0.000000 
#    z 0.012690 0.000000 1.877250 
# 
# From -- ./inp_files/79999.got.cif
#   From: 2010.03.12/outbox.cif.g09.slc.cpg/sg14_40_cif.got.tgz:79999.got - 2010.03.31 13:35:05.
