data_PCOD8128248
_publ_section_title
;
Structure prediction by ZEFSAII (Michael W. Deem and Ramdas Pophale) SiO2 
 PCOD8128248
Probable space group: P 21/C
;
_chemical_formula_sum "Si O2"
_cell_formula_units_Z 20
_cell_length_a 5.278066
_cell_length_b 20.819710
_cell_length_c 7.844975
_cell_angle_alpha 90.000000
_cell_angle_beta 104.514591
_cell_angle_gamma 90.000000
_cell_volume 834.553207
_symmetry_space_group_name_H-M "P 21/C"
_symmetry_group_IT_number 14
_symmetry_cell_setting 'monoclinic'
loop_
_space_group_symop_operation_xyz
x,y,z
-x,1/2+y,1/2-z
-x,-y,-z
x,1/2-y,1/2+z
loop_
_atom_site_type_symbol
_atom_site_label
_atom_site_fract_x
_atom_site_fract_y
_atom_site_fract_z
Si Si1 0.083182 0.069670 0.795024
Si Si2 0.241524 0.945230 0.935461
Si Si3 0.008450 0.885752 0.578244
Si Si4 0.621604 0.673593 0.504186
Si Si5 0.456056 0.191186 0.375598
O O1 0.999743 0.065404 0.584108
O O2 0.856749 0.047669 0.886832
O O3 0.322271 0.017831 0.878932
O O4 0.139475 0.145136 0.844912
O O5 0.016991 0.925881 0.755954
O O6 0.440625 0.888050 0.956374
O O7 0.261173 0.840717 0.594171
O O8 0.738580 0.844196 0.525278
O O9 0.706367 0.692521 0.328429
O O10 0.487634 0.734883 0.567191
#
# Coordination Sequence:
#
# PCOD8128248 Si02
#       5
#     4   4   4   4   4
#     4  11  23  42  71  93 136 178 220 276 333 390
#     4  10  24  44  64 101 132 178 224 273 328 400
#     4  11  25  46  68 103 131 177 220 279 328 400
#     4  11  24  43  66  97 136 173 223 277 327 402
#     4  11  26  43  70  98 137 172 224 273 336 391
#
# _framework density 23.964915999999999
#
# number of rings (size 3 to 8) (size 9 to 14) (size 15 to 20)
#    0.000    1.200    2.000    2.400    8.400    1.600 
#    0.000    3.000    0.000    0.000    0.000    0.000 
#    0.000    0.000    0.000    0.000    0.000    0.000 
#
# Total GULP energy -247774.677108 kJ/mol
# GULP energy per Si atom -12388.733855 kJ/mol
# Density = 2.391037 g / cm^3
# Si number density = 23.964916 Si / 1000 Ang^3
#
#
#
# Elastic Constant Matrix: (Units=GPa)
#
#
# Indices 1 2 3 4 5 6 
#
# 1 65.6196 12.4025 10.0786 0.0000 -25.1509 0.0000
# 2 12.4025 126.9414 47.2570 0.0000 -22.5923 0.0000
# 3 10.0786 47.2570 126.2880 0.0000 -19.8309 0.0000
# 4 0.0000 0.0000 0.0000 21.8401 0.0000 -6.4469
# 5 -25.1509 -22.5923 -19.8309 0.0000 19.5402 0.0000
# 6 0.0000 0.0000 0.0000 -6.4469 0.0000 36.1434
#
#
#
# Elastic Compliance Matrix: (Units=1/GPa)
#
#
# Indices 1 2 3 4 5 6 
#
# 1 0.034261 0.004726 0.003902 0.000000 0.053523 0.000000
# 2 0.004726 0.011151 -0.001868 0.000000 0.017080 0.000000
# 3 0.003902 -0.001868 0.010415 0.000000 0.013433 0.000000
# 4 0.000000 0.000000 0.000000 0.048332 0.000000 0.008621
# 5 0.053523 0.017080 0.013433 0.000000 0.153449 0.000000
# 6 0.000000 0.000000 0.000000 0.008621 0.000000 0.029205
#
#
# Mechanical properties :
#
#
# Convention : Reuss Voigt Hill
#
# Bulk Modulus (GPa) = 14.42013 50.92504 32.67258
# Shear Modulus (GPa) = 16.86852 32.11213 24.49033
#
# Velocity S-wave (km/s) = 2.65596 3.66452 3.20022
# Velocity P-wave (km/s) = 3.92883 6.26107 5.22669
#
# Compressibility (1/GPa) = 0.06934753
#
# Stress axis : x y z
#
# Youngs Moduli (GPa) = 29.18743 89.67759 96.01204
#
# Poissons Ratio (x) = -0.42379 -0.37465
# Poissons Ratio (y) = -0.13793 0.17933
# Poissons Ratio (z) = -0.11389 0.16750
#
# Static dielectric constant tensor:
#      x y z
#    x 3.925810 0.000000 0.194380 
#    y 0.000000 5.090140 0.000000 
#    z 0.194380 0.000000 4.839720 
# 
# 
# High freq. dielectric constant tensor:
#      x y z
#    x 1.920310 0.000000 -0.000950 
#    y 0.000000 1.974990 0.000000 
#    z -0.000950 0.000000 1.967080 
# 
# From -- ./inp_files/5530.got.cif
#   From: 2010.03.12/outbox.cif.g09.slc.cpg/sg14_3_cif.got.tgz:5530.got - 2010.03.31 13:35:05.
