data_PCOD8128978
_publ_section_title
;
Structure prediction by ZEFSAII (Michael W. Deem and Ramdas Pophale) SiO2 
 PCOD8128978
Probable space group: P 21/C
;
_chemical_formula_sum "Si O2"
_cell_formula_units_Z 24
_cell_length_a 18.458713
_cell_length_b 10.227112
_cell_length_c 12.566683
_cell_angle_alpha 90.000000
_cell_angle_beta 152.586517
_cell_angle_gamma 90.000000
_cell_volume 1092.241331
_symmetry_space_group_name_H-M "P 21/C"
_symmetry_group_IT_number 14
_symmetry_cell_setting 'monoclinic'
loop_
_space_group_symop_operation_xyz
x,y,z
-x,1/2+y,1/2-z
-x,-y,-z
x,1/2-y,1/2+z
loop_
_atom_site_type_symbol
_atom_site_label
_atom_site_fract_x
_atom_site_fract_y
_atom_site_fract_z
Si Si1 0.055068 0.628944 0.627554
Si Si2 0.710157 0.229003 0.211253
Si Si3 0.768142 0.686763 0.778057
Si Si4 0.508572 0.112711 0.593944
Si Si5 0.786257 0.029114 0.462145
Si Si6 0.547343 0.015447 0.881978
O O1 0.212729 0.676591 0.774647
O O2 0.000000 0.500000 0.500000
O O3 0.935177 0.750645 0.462643
O O4 0.085951 0.575223 0.786189
O O5 0.655772 0.301229 0.248117
O O6 0.824074 0.117771 0.407772
O O7 0.565466 0.154541 0.965348
O O8 0.652666 0.809183 0.626998
O O9 0.796043 0.620547 0.931331
O O10 0.695550 0.580828 0.599726
O O11 0.500000 0.000000 0.500000
O O12 0.537652 0.047349 0.745515
O O13 0.611169 0.052169 0.281740
#
# Coordination Sequence:
#
# PCOD8128978 Si02
#       6
#     4   4   4   4   4   4
#     4  12  28  46  67 108 151 185 229 300 360 425
#     4  11  23  46  69 102 142 185 241 286 354 420
#     4  11  25  48  72 104 143 187 237 290 359 419
#     4  12  24  40  73 108 134 185 241 287 348 421
#     4  11  23  47  75  99 143 191 234 301 352 411
#     4  11  23  45  78 103 139 188 240 302 342 413
#
# _framework density 21.973168000000001
#
# number of rings (size 3 to 8) (size 9 to 14) (size 15 to 20)
#    0.000    0.667    3.333    5.000    4.667    4.000 
#    6.000    0.000    0.000    0.000    0.000    0.000 
#    0.000    0.000    0.000    0.000    0.000    0.000 
#
# Total GULP energy -297385.181259 kJ/mol
# GULP energy per Si atom -12391.049219 kJ/mol
# Density = 2.192316 g / cm^3
# Si number density = 21.973168 Si / 1000 Ang^3
#
#
#
# Elastic Constant Matrix: (Units=GPa)
#
#
# Indices 1 2 3 4 5 6 
#
# 1 100.8983 50.9984 37.9901 0.0000 -22.3661 0.0000
# 2 50.9984 120.4965 51.3751 0.0000 -15.6930 0.0000
# 3 37.9901 51.3751 93.8009 0.0000 -18.7074 0.0000
# 4 0.0000 0.0000 0.0000 39.8350 0.0000 -2.6828
# 5 -22.3661 -15.6930 -18.7074 0.0000 45.2218 0.0000
# 6 0.0000 0.0000 0.0000 -2.6828 0.0000 47.8537
#
#
#
# Elastic Compliance Matrix: (Units=1/GPa)
#
#
# Indices 1 2 3 4 5 6 
#
# 1 0.013980 -0.004309 -0.002421 0.000000 0.004417 0.000000
# 2 -0.004309 0.012240 -0.004945 0.000000 0.000071 0.000000
# 3 -0.002421 -0.004945 0.015007 0.000000 0.003295 0.000000
# 4 0.000000 0.000000 0.000000 0.025199 0.000000 0.001413
# 5 0.004417 0.000071 0.003295 0.000000 0.025686 0.000000
# 6 0.000000 0.000000 0.000000 0.001413 0.000000 0.020976
#
#
# Mechanical properties :
#
#
# Convention : Reuss Voigt Hill
#
# Bulk Modulus (GPa) = 55.93679 66.21368 61.07524
# Shear Modulus (GPa) = 35.11351 38.23758 36.67554
#
# Velocity S-wave (km/s) = 4.00186 4.17609 4.08990
# Velocity P-wave (km/s) = 6.84582 7.31111 7.08229
#
# Compressibility (1/GPa) = 0.01787732
#
# Stress axis : x y z
#
# Youngs Moduli (GPa) = 71.53225 81.69751 66.63753
#
# Poissons Ratio (x) = 0.35206 0.16131
# Poissons Ratio (y) = 0.30826 0.32950
# Poissons Ratio (z) = 0.17316 0.40396
#
# Static dielectric constant tensor:
#      x y z
#    x 3.834230 0.000000 -0.190470 
#    y 0.000000 6.013630 0.000000 
#    z -0.190470 0.000000 4.100390 
# 
# 
# High freq. dielectric constant tensor:
#      x y z
#    x 1.857060 0.000000 -0.016080 
#    y 0.000000 1.889590 0.000000 
#    z -0.016080 0.000000 1.855800 
# 
# From -- ./inp_files/33968.got.cif
#   From: 2010.03.12/outbox.cif.g09.slc.cpg/sg14_17_cif.got.tgz:33968.got - 2010.03.31 13:35:05.
