data_PCOD8128910
_publ_section_title
;
Structure prediction by ZEFSAII (Michael W. Deem and Ramdas Pophale) SiO2 
 PCOD8128910
Probable space group: P 21/C
;
_chemical_formula_sum "Si O2"
_cell_formula_units_Z 20
_cell_length_a 11.105865
_cell_length_b 8.772129
_cell_length_c 9.706785
_cell_angle_alpha 90.000000
_cell_angle_beta 97.959609
_cell_angle_gamma 90.000000
_cell_volume 936.544684
_symmetry_space_group_name_H-M "P 21/C"
_symmetry_group_IT_number 14
_symmetry_cell_setting 'monoclinic'
loop_
_space_group_symop_operation_xyz
x,y,z
-x,1/2+y,1/2-z
-x,-y,-z
x,1/2-y,1/2+z
loop_
_atom_site_type_symbol
_atom_site_label
_atom_site_fract_x
_atom_site_fract_y
_atom_site_fract_z
Si Si1 0.454665 0.935445 0.348123
Si Si2 0.663355 0.725103 0.300875
Si Si3 0.183251 0.191399 0.426349
Si Si4 0.061485 0.844278 0.056592
Si Si5 0.203192 0.650437 0.863153
O O1 0.563007 0.857697 0.281158
O O2 0.345859 0.813576 0.359118
O O3 0.500000 0.000000 0.500000
O O4 0.401792 0.066801 0.242450
O O5 0.773961 0.756815 0.213710
O O6 0.727541 0.718093 0.457969
O O7 0.042331 0.221961 0.428706
O O8 0.198783 0.009907 0.443945
O O9 0.137155 0.869288 0.206727
O O10 0.146450 0.783641 0.946730
O O11 0.000000 0.000000 0.000000
#
# Coordination Sequence:
#
# PCOD8128910 Si02
#       5
#     4   4   4   4   4
#     4  11  24  45  66 103 136 178 230 282 340 406
#     4  11  23  43  71  94 139 176 229 283 340 403
#     4  11  24  45  65  97 134 180 221 281 339 405
#     4  12  25  43  68 102 133 177 230 280 341 405
#     4  11  25  43  67  95 139 176 226 278 341 405
#
# _framework density 21.355096
#
# number of rings (size 3 to 8) (size 9 to 14) (size 15 to 20)
#    0.000    0.800    4.000    5.400    2.800    4.000 
#    0.000    0.000    0.000    0.000    0.000    0.000 
#    0.000    0.000    0.000    0.000    0.000    0.000 
#
# Total GULP energy -248029.433005 kJ/mol
# GULP energy per Si atom -12401.471650 kJ/mol
# Density = 2.130649 g / cm^3
# Si number density = 21.355096 Si / 1000 Ang^3
#
#
#
# Elastic Constant Matrix: (Units=GPa)
#
#
# Indices 1 2 3 4 5 6 
#
# 1 98.5895 30.5324 37.9220 0.0000 14.1620 0.0000
# 2 30.5324 76.0915 42.7681 0.0000 -7.6001 0.0000
# 3 37.9220 42.7681 94.4419 0.0000 0.5756 0.0000
# 4 0.0000 0.0000 0.0000 34.2141 0.0000 -3.0343
# 5 14.1620 -7.6001 0.5756 0.0000 32.2946 0.0000
# 6 0.0000 0.0000 0.0000 -3.0343 0.0000 49.7732
#
#
#
# Elastic Compliance Matrix: (Units=1/GPa)
#
#
# Indices 1 2 3 4 5 6 
#
# 1 0.013844 -0.004231 -0.003600 0.000000 -0.007002 0.000000
# 2 -0.004231 0.019538 -0.007189 0.000000 0.006581 0.000000
# 3 -0.003600 -0.007189 0.015292 0.000000 -0.000386 0.000000
# 4 0.000000 0.000000 0.000000 0.029387 0.000000 0.001791
# 5 -0.007002 0.006581 -0.000386 0.000000 0.035591 0.000000
# 6 0.000000 0.000000 0.000000 0.001791 0.000000 0.020200
#
#
# Mechanical properties :
#
#
# Convention : Reuss Voigt Hill
#
# Bulk Modulus (GPa) = 53.66640 54.61865 54.14253
# Shear Modulus (GPa) = 29.39386 33.78308 31.58847
#
# Velocity S-wave (km/s) = 3.71406 3.98171 3.85021
# Velocity P-wave (km/s) = 6.60131 6.83890 6.72116
#
# Compressibility (1/GPa) = 0.01863363
#
# Stress axis : x y z
#
# Youngs Moduli (GPa) = 72.23320 51.18303 65.39354
#
# Poissons Ratio (x) = 0.21655 0.23543
# Poissons Ratio (y) = 0.30561 0.47011
# Poissons Ratio (z) = 0.26006 0.36795
#
# Static dielectric constant tensor:
#      x y z
#    x 4.465970 0.000000 -0.015900 
#    y 0.000000 3.765340 0.000000 
#    z -0.015900 0.000000 3.913570 
# 
# 
# High freq. dielectric constant tensor:
#      x y z
#    x 1.863940 0.000000 0.006460 
#    y 0.000000 1.824970 0.000000 
#    z 0.006460 0.000000 1.845990 
# 
# From -- ./inp_files/11786.got.cif
#   From: 2010.03.12/outbox.cif.g09.slc.cpg/sg14_6_cif.got.tgz:11786.got - 2010.03.31 13:35:05.
