data_PCOD8128206
_publ_section_title
;
Structure prediction by ZEFSAII (Michael W. Deem and Ramdas Pophale) SiO2 
 PCOD8128206
Probable space group: P 21/C
;
_chemical_formula_sum "Si O2"
_cell_formula_units_Z 32
_cell_length_a 12.235543
_cell_length_b 9.602228
_cell_length_c 28.959731
_cell_angle_alpha 90.000000
_cell_angle_beta 150.554484
_cell_angle_gamma 90.000000
_cell_volume 1672.622195
_symmetry_space_group_name_H-M "P 21/C"
_symmetry_group_IT_number 14
_symmetry_cell_setting 'monoclinic'
loop_
_space_group_symop_operation_xyz
x,y,z
-x,1/2+y,1/2-z
-x,-y,-z
x,1/2-y,1/2+z
loop_
_atom_site_type_symbol
_atom_site_label
_atom_site_fract_x
_atom_site_fract_y
_atom_site_fract_z
Si Si1 0.788731 0.116116 0.151125
Si Si2 0.396354 0.194556 0.252203
Si Si3 0.713180 0.810556 0.022683
Si Si4 0.095506 0.896991 0.909256
Si Si5 0.809509 0.941396 0.491207
Si Si6 0.169074 0.207067 0.831591
Si Si7 0.281954 0.451084 0.148188
Si Si8 0.431128 0.718170 0.086437
O O1 0.807934 0.154234 0.104286
O O2 0.935733 0.218598 0.236082
O O3 0.865520 0.957705 0.187122
O O4 0.536503 0.133219 0.074593
O O5 0.375109 0.315902 0.207505
O O6 0.525173 0.253615 0.344075
O O7 0.161921 0.135989 0.182548
O O8 0.534281 0.070517 0.279804
O O9 0.751822 0.750973 0.088166
O O10 0.879064 0.938205 0.074625
O O11 0.766248 0.695444 0.004647
O O12 0.230113 0.817937 0.998349
O O13 0.770489 0.906084 0.423360
O O14 0.637791 0.057832 0.445238
O O15 0.059644 0.994804 0.591494
O O16 0.348310 0.261547 0.861616
#
# Coordination Sequence:
#
# PCOD8128206 Si02
#       8
#     4   4   4   4   4   4   4   4
#     4  11  23  40  60  92 134 162 202 254 300 375
#     4  11  24  41  69  89 123 162 208 263 312 368
#     4  11  24  40  63  93 130 164 202 258 304 369
#     4  11  21  42  64  89 127 168 198 249 317 371
#     4  10  24  43  64  86 128 163 208 265 311 355
#     4  11  23  39  61  94 129 163 206 244 308 381
#     4  10  24  45  61  92 122 161 214 267 307 359
#     4  11  21  41  65  90 121 169 200 248 318 370
#
# _framework density 19.131634999999999
#
# number of rings (size 3 to 8) (size 9 to 14) (size 15 to 20)
#    0.000    1.250    5.000    0.750    3.500    4.500 
#    0.000    1.250    0.000    0.000    0.000    0.000 
#    0.000    0.000    0.000    0.000    0.000    0.000 
#
# Total GULP energy -397001.234474 kJ/mol
# GULP energy per Si atom -12406.288577 kJ/mol
# Density = 1.908809 g / cm^3
# Si number density = 19.131635 Si / 1000 Ang^3
#
#
#
# Elastic Constant Matrix: (Units=GPa)
#
#
# Indices 1 2 3 4 5 6 
#
# 1 185.6581 44.0847 287.6122 0.0000 9.0081 0.0000
# 2 44.0847 114.5869 16.3879 0.0000 -12.8243 0.0000
# 3 287.6122 16.3879 692.8173 0.0000 28.5720 0.0000
# 4 0.0000 0.0000 0.0000 41.2399 0.0000 -3.3371
# 5 9.0081 -12.8243 28.5720 0.0000 24.5490 0.0000
# 6 0.0000 0.0000 0.0000 -3.3371 0.0000 34.1343
#
#
#
# Elastic Compliance Matrix: (Units=1/GPa)
#
#
# Indices 1 2 3 4 5 6 
#
# 1 0.018526 -0.006204 -0.007489 0.000000 -0.001322 0.000000
# 2 -0.006204 0.011476 0.002062 0.000000 0.005872 0.000000
# 3 -0.007489 0.002062 0.004565 0.000000 -0.001488 0.000000
# 4 0.000000 0.000000 0.000000 0.024442 0.000000 0.002390
# 5 -0.001322 0.005872 -0.001488 0.000000 0.046019 0.000000
# 6 0.000000 0.000000 0.000000 0.002390 0.000000 0.029530
#
#
# Mechanical properties :
#
#
# Convention : Reuss Voigt Hill
#
# Bulk Modulus (GPa) = 88.46628 187.69243 138.07935
# Shear Modulus (GPa) = 30.94269 62.98313 46.96291
#
# Velocity S-wave (km/s) = 4.02600 5.74390 4.95989
# Velocity P-wave (km/s) = 8.24335 11.92932 10.25333
#
# Compressibility (1/GPa) = 0.01130374
#
# Stress axis : x y z
#
# Youngs Moduli (GPa) = 53.97859 87.13674 219.05377
#
# Poissons Ratio (x) = 0.54062 1.64059
# Poissons Ratio (y) = 0.33490 -0.45169
# Poissons Ratio (z) = 0.40427 -0.17967
#
# Static dielectric constant tensor:
#      x y z
#    x 3.539540 0.000000 0.014090 
#    y 0.000000 3.474410 0.000000 
#    z 0.014090 0.000000 3.693860 
# 
# 
# High freq. dielectric constant tensor:
#      x y z
#    x 1.743850 0.000000 0.003290 
#    y 0.000000 1.746740 0.000000 
#    z 0.003290 0.000000 1.760220 
# 
# From -- ./inp_files/80017.got.cif
#   From: 2010.03.12/outbox.cif.g09.slc.cpg/sg14_41_cif.got.tgz:80017.got - 2010.03.31 13:35:05.
