data_PCOD8128718
_publ_section_title
;
Structure prediction by ZEFSAII (Michael W. Deem and Ramdas Pophale) SiO2 
 PCOD8128718
Probable space group: P 21/C
;
_chemical_formula_sum "Si O2"
_cell_formula_units_Z 20
_cell_length_a 11.980061
_cell_length_b 11.028052
_cell_length_c 15.238454
_cell_angle_alpha 90.000000
_cell_angle_beta 150.691941
_cell_angle_gamma 90.000000
_cell_volume 985.498509
_symmetry_space_group_name_H-M "P 21/C"
_symmetry_group_IT_number 14
_symmetry_cell_setting 'monoclinic'
loop_
_space_group_symop_operation_xyz
x,y,z
-x,1/2+y,1/2-z
-x,-y,-z
x,1/2-y,1/2+z
loop_
_atom_site_type_symbol
_atom_site_label
_atom_site_fract_x
_atom_site_fract_y
_atom_site_fract_z
Si Si1 0.251338 0.771453 0.855874
Si Si2 0.143417 0.611987 0.941680
Si Si3 0.216085 0.354879 0.020630
Si Si4 0.316839 0.082391 0.779565
Si Si5 0.392907 0.692261 0.273464
O O1 0.184751 0.661616 0.873228
O O2 0.309590 0.722812 0.797456
O O3 0.030153 0.854164 0.693064
O O4 0.459021 0.848193 0.036768
O O5 0.875661 0.586307 0.776713
O O6 0.300632 0.490530 0.054131
O O7 0.234138 0.705023 0.078694
O O8 0.205767 0.350575 0.119382
O O9 0.359980 0.242694 0.083011
O O10 0.394349 0.945243 0.811290
#
# Coordination Sequence:
#
# PCOD8128718 Si02
#       5
#     4   4   4   4   4
#     4  12  23  38  69  93 126 171 212 256 316 374
#     4  11  23  43  66  96 128 165 216 258 312 379
#     4  11  23  40  65  96 129 164 211 264 309 375
#     4  11  22  44  67  92 124 170 215 259 315 375
#     4  11  22  42  66  92 129 167 208 265 313 371
#
# _framework density 20.294298000000001
#
# number of rings (size 3 to 8) (size 9 to 14) (size 15 to 20)
#    0.000    0.800    6.000    3.000    2.800    0.800 
#    0.000    0.000    0.000    6.000    0.000    0.000 
#    0.000    0.000    0.000    0.000    0.000    0.000 
#
# Total GULP energy -247814.488195 kJ/mol
# GULP energy per Si atom -12390.724410 kJ/mol
# Density = 2.024811 g / cm^3
# Si number density = 20.294298 Si / 1000 Ang^3
#
#
#
# Elastic Constant Matrix: (Units=GPa)
#
#
# Indices 1 2 3 4 5 6 
#
# 1 54.9728 35.3530 6.0265 0.0000 12.4533 0.0000
# 2 35.3530 56.4280 31.9458 0.0000 14.1664 0.0000
# 3 6.0265 31.9458 111.6997 0.0000 5.4990 0.0000
# 4 0.0000 0.0000 0.0000 25.6361 0.0000 2.1063
# 5 12.4533 14.1664 5.4990 0.0000 37.0605 0.0000
# 6 0.0000 0.0000 0.0000 2.1063 0.0000 38.4057
#
#
#
# Elastic Compliance Matrix: (Units=1/GPa)
#
#
# Indices 1 2 3 4 5 6 
#
# 1 0.032865 -0.022533 0.004826 0.000000 -0.003146 0.000000
# 2 -0.022533 0.038715 -0.009571 0.000000 -0.005807 0.000000
# 3 0.004826 -0.009571 0.011413 0.000000 0.000343 0.000000
# 4 0.000000 0.000000 0.000000 0.039184 0.000000 -0.002149
# 5 -0.003146 -0.005807 0.000343 0.000000 0.030209 0.000000
# 6 0.000000 0.000000 0.000000 -0.002149 0.000000 0.026156
#
#
# Mechanical properties :
#
#
# Convention : Reuss Voigt Hill
#
# Bulk Modulus (GPa) = 35.16452 41.08345 38.12399
# Shear Modulus (GPa) = 20.61205 30.20548 25.40877
#
# Velocity S-wave (km/s) = 3.19040 3.86213 3.54222
# Velocity P-wave (km/s) = 5.56205 6.33844 5.96290
#
# Compressibility (1/GPa) = 0.02843775
#
# Stress axis : x y z
#
# Youngs Moduli (GPa) = 30.42710 25.82965 87.62304
#
# Poissons Ratio (x) = 0.58202 -0.42288
# Poissons Ratio (y) = 0.68561 0.83863
# Poissons Ratio (z) = -0.14684 0.24721
#
# Static dielectric constant tensor:
#      x y z
#    x 4.012860 0.000000 -0.256640 
#    y 0.000000 3.464110 0.000000 
#    z -0.256640 0.000000 3.882590 
# 
# 
# High freq. dielectric constant tensor:
#      x y z
#    x 1.796660 0.000000 -0.012130 
#    y 0.000000 1.765860 0.000000 
#    z -0.012130 0.000000 1.809360 
# 
# From -- ./inp_files/23747.got.cif
#   From: 2010.03.12/outbox.cif.g09.slc.cpg/sg14_12_cif.got.tgz:23747.got - 2010.03.31 13:35:05.
