data_PCOD8128383
_publ_section_title
;
Structure prediction by ZEFSAII (Michael W. Deem and Ramdas Pophale) SiO2 
 PCOD8128383
Probable space group: P 21/C
;
_chemical_formula_sum "Si O2"
_cell_formula_units_Z 32
_cell_length_a 15.927694
_cell_length_b 8.069979
_cell_length_c 9.523594
_cell_angle_alpha 90.000000
_cell_angle_beta 88.108594
_cell_angle_gamma 90.000000
_cell_volume 1223.459234
_symmetry_space_group_name_H-M "P 21/C"
_symmetry_group_IT_number 14
_symmetry_cell_setting 'monoclinic'
loop_
_space_group_symop_operation_xyz
x,y,z
-x,1/2+y,1/2-z
-x,-y,-z
x,1/2-y,1/2+z
loop_
_atom_site_type_symbol
_atom_site_label
_atom_site_fract_x
_atom_site_fract_y
_atom_site_fract_z
Si Si1 0.130204 0.624186 0.160205
Si Si2 0.535511 0.233387 0.544376
Si Si3 0.736911 0.882697 0.681142
Si Si4 0.728275 0.226182 0.527245
Si Si5 0.456136 0.096966 0.290272
Si Si6 0.898336 0.871700 0.846605
Si Si7 0.959776 0.132508 0.630714
Si Si8 0.193090 0.448540 0.391377
O O1 0.213366 0.726956 0.112919
O O2 0.067126 0.595939 0.030971
O O3 0.155124 0.449529 0.233920
O O4 0.098142 0.730372 0.294826
O O5 0.631494 0.231135 0.488348
O O6 0.480293 0.233524 0.406446
O O7 0.508226 0.388331 0.642285
O O8 0.517787 0.077666 0.646027
O O9 0.641852 0.883912 0.742330
O O10 0.801543 0.860920 0.804295
O O11 0.755656 0.722299 0.581647
O O12 0.755165 0.055474 0.602365
O O13 0.744561 0.394367 0.610754
O O14 0.944450 0.697593 0.875482
O O15 0.886503 0.965186 0.996907
O O16 0.955425 0.968351 0.728531
#
# Coordination Sequence:
#
# PCOD8128383 Si02
#       8
#     4   4   4   4   4   4   4   4
#     4  12  25  49  75 109 152 204 252 324 393 458
#     4  10  25  44  76 113 153 202 249 315 380 447
#     4  11  28  50  78 115 157 201 260 321 387 463
#     4  11  25  50  80 112 159 203 255 317 384 460
#     4  10  25  47  71 112 158 196 253 313 377 459
#     4  12  29  52  77 120 148 207 268 318 396 470
#     4  12  28  49  79 109 160 195 262 336 384 463
#     4  12  29  49  82 113 148 212 258 307 398 470
#
# _framework density 26.155345000000001
#
# number of rings (size 3 to 8) (size 9 to 14) (size 15 to 20)
#    0.000    0.750    3.750    0.000   10.500    4.000 
#    0.000    1.250    0.000    0.000    0.000    0.000 
#    0.000    0.000    0.000    0.000    0.000    0.000 
#
# Total GULP energy -396659.061087 kJ/mol
# GULP energy per Si atom -12395.595659 kJ/mol
# Density = 2.609581 g / cm^3
# Si number density = 26.155345 Si / 1000 Ang^3
#
#
#
# Elastic Constant Matrix: (Units=GPa)
#
#
# Indices 1 2 3 4 5 6 
#
# 1 125.5286 29.3681 43.9945 0.0000 14.8143 0.0000
# 2 29.3681 112.5656 28.9078 0.0000 8.6919 0.0000
# 3 43.9945 28.9078 104.2196 0.0000 5.2417 0.0000
# 4 0.0000 0.0000 0.0000 38.3372 0.0000 0.0009
# 5 14.8143 8.6919 5.2417 0.0000 27.0308 0.0000
# 6 0.0000 0.0000 0.0000 0.0009 0.0000 30.1926
#
#
#
# Elastic Compliance Matrix: (Units=1/GPa)
#
#
# Indices 1 2 3 4 5 6 
#
# 1 0.010083 -0.001352 -0.003661 0.000000 -0.004381 0.000000
# 2 -0.001352 0.009929 -0.002080 0.000000 -0.002048 0.000000
# 3 -0.003661 -0.002080 0.011697 0.000000 0.000407 0.000000
# 4 0.000000 0.000000 0.000000 0.026084 0.000000 -0.000001
# 5 -0.004381 -0.002048 0.000407 0.000000 0.039976 0.000000
# 6 0.000000 0.000000 0.000000 -0.000001 0.000000 0.033121
#
#
# Mechanical properties :
#
#
# Convention : Reuss Voigt Hill
#
# Bulk Modulus (GPa) = 57.07042 60.76162 58.91602
# Shear Modulus (GPa) = 33.13091 35.11501 34.12296
#
# Velocity S-wave (km/s) = 3.56293 3.66807 3.61588
# Velocity P-wave (km/s) = 6.22841 6.42037 6.32512
#
# Compressibility (1/GPa) = 0.01752221
#
# Stress axis : x y z
#
# Youngs Moduli (GPa) = 99.17937 100.71666 85.49192
#
# Poissons Ratio (x) = 0.13618 0.31297
# Poissons Ratio (y) = 0.13410 0.17784
# Poissons Ratio (z) = 0.36308 0.20951
#
# Static dielectric constant tensor:
#      x y z
#    x 4.728650 0.000000 -0.084490 
#    y 0.000000 4.892240 0.000000 
#    z -0.084490 0.000000 4.768610 
# 
# 
# High freq. dielectric constant tensor:
#      x y z
#    x 2.050540 0.000000 -0.000330 
#    y 0.000000 2.063420 0.000000 
#    z -0.000330 0.000000 2.053170 
# 
# From -- ./inp_files/31579.got.cif
#   From: 2010.03.12/outbox.cif.g09.slc.cpg/sg14_16_cif.got.tgz:31579.got - 2010.03.31 13:35:05.
