data_PCOD8128165
_publ_section_title
;
Structure prediction by ZEFSAII (Michael W. Deem and Ramdas Pophale) SiO2 
 PCOD8128165
Probable space group: P 21/C
;
_chemical_formula_sum "Si O2"
_cell_formula_units_Z 24
_cell_length_a 17.827309
_cell_length_b 6.670121
_cell_length_c 13.619029
_cell_angle_alpha 90.000000
_cell_angle_beta 40.586559
_cell_angle_gamma 90.000000
_cell_volume 1053.603229
_symmetry_space_group_name_H-M "P 21/C"
_symmetry_group_IT_number 14
_symmetry_cell_setting 'monoclinic'
loop_
_space_group_symop_operation_xyz
x,y,z
-x,1/2+y,1/2-z
-x,-y,-z
x,1/2-y,1/2+z
loop_
_atom_site_type_symbol
_atom_site_label
_atom_site_fract_x
_atom_site_fract_y
_atom_site_fract_z
Si Si1 0.855341 0.733618 0.466682
Si Si2 0.103754 0.607210 0.189053
Si Si3 0.297437 0.913457 0.968391
Si Si4 0.379107 0.130608 0.067874
Si Si5 0.365774 0.718984 0.709436
Si Si6 0.202192 0.446134 0.279173
O O1 0.740903 0.621329 0.543261
O O2 0.864856 0.684481 0.572669
O O3 0.971832 0.659462 0.296485
O O4 0.846162 0.969187 0.449401
O O5 0.108094 0.506006 0.292121
O O6 0.180828 0.805444 0.118595
O O7 0.366217 0.767435 0.825210
O O8 0.379809 0.967289 0.978250
O O9 0.290195 0.305035 0.132980
O O10 0.337187 0.013069 0.209136
O O11 0.502562 0.237843 0.960656
O O12 0.273486 0.865106 0.749991
#
# Coordination Sequence:
#
# PCOD8128165 Si02
#       6
#     4   4   4   4   4   4
#     4  11  24  41  63  94 128 168 215 258 324 373
#     4  12  22  42  65  92 130 168 211 266 317 380
#     4  11  23  42  64  95 129 170 212 260 317 379
#     4  11  22  44  65  93 127 168 214 260 319 375
#     4  10  24  42  64  93 130 164 212 263 316 377
#     4  11  23  41  66  94 125 170 210 265 315 382
#
# _framework density 22.778970999999999
#
# number of rings (size 3 to 8) (size 9 to 14) (size 15 to 20)
#    0.000    1.000    5.000    2.000    0.000    1.333 
#   12.000    1.667    0.000    0.000    0.000    0.000 
#    0.000    0.000    0.000    0.000    0.000    0.000 
#
# Total GULP energy -297506.145911 kJ/mol
# GULP energy per Si atom -12396.089413 kJ/mol
# Density = 2.272713 g / cm^3
# Si number density = 22.778971 Si / 1000 Ang^3
#
#
#
# Elastic Constant Matrix: (Units=GPa)
#
#
# Indices 1 2 3 4 5 6 
#
# 1 53.5870 -1.1802 -4.0527 0.0000 -1.4776 0.0000
# 2 -1.1802 43.9755 -7.9738 0.0000 -7.0599 0.0000
# 3 -4.0527 -7.9738 43.3279 0.0000 -1.0569 0.0000
# 4 0.0000 0.0000 0.0000 32.6272 0.0000 -0.2563
# 5 -1.4776 -7.0599 -1.0569 0.0000 34.7136 0.0000
# 6 0.0000 0.0000 0.0000 -0.2563 0.0000 29.1713
#
#
#
# Elastic Compliance Matrix: (Units=1/GPa)
#
#
# Indices 1 2 3 4 5 6 
#
# 1 0.018864 0.001038 0.001982 0.000000 0.001074 0.000000
# 2 0.001038 0.024453 0.004723 0.000000 0.005161 0.000000
# 3 0.001982 0.004723 0.024178 0.000000 0.001781 0.000000
# 4 0.000000 0.000000 0.000000 0.030651 0.000000 0.000269
# 5 0.001074 0.005161 0.001781 0.000000 0.029957 0.000000
# 6 0.000000 0.000000 0.000000 0.000269 0.000000 0.034283
#
#
# Mechanical properties :
#
#
# Convention : Reuss Voigt Hill
#
# Bulk Modulus (GPa) = 12.05110 12.71966 12.38538
# Shear Modulus (GPa) = 28.64358 29.57557 29.10957
#
# Velocity S-wave (km/s) = 3.54991 3.60720 3.57867
# Velocity P-wave (km/s) = 4.70153 4.79012 4.74604
#
# Compressibility (1/GPa) = 0.08298000
#
# Stress axis : x y z
#
# Youngs Moduli (GPa) = 53.01217 40.89511 41.36017
#
# Poissons Ratio (x) = -0.04245 -0.08196
# Poissons Ratio (y) = -0.05503 -0.19535
# Poissons Ratio (z) = -0.10505 -0.19315
#
# Static dielectric constant tensor:
#      x y z
#    x 3.974060 0.000000 0.149940 
#    y 0.000000 4.099070 0.000000 
#    z 0.149940 0.000000 3.932600 
# 
# 
# High freq. dielectric constant tensor:
#      x y z
#    x 1.896410 0.000000 0.002540 
#    y 0.000000 1.900710 0.000000 
#    z 0.002540 0.000000 1.890490 
# 
# From -- ./inp_files/49600.got.cif
#   From: 2010.03.12/outbox.cif.g09.slc.cpg/sg14_25_cif.got.tgz:49600.got - 2010.03.31 13:35:05.
