data_PCOD8128450
_publ_section_title
;
Structure prediction by ZEFSAII (Michael W. Deem and Ramdas Pophale) SiO2 
 PCOD8128450
Probable space group: P 21/C
;
_chemical_formula_sum "Si O2"
_cell_formula_units_Z 32
_cell_length_a 9.079336
_cell_length_b 14.512737
_cell_length_c 27.255756
_cell_angle_alpha 90.000000
_cell_angle_beta 28.089569
_cell_angle_gamma 90.000000
_cell_volume 1691.006976
_symmetry_space_group_name_H-M "P 21/C"
_symmetry_group_IT_number 14
_symmetry_cell_setting 'monoclinic'
loop_
_space_group_symop_operation_xyz
x,y,z
-x,1/2+y,1/2-z
-x,-y,-z
x,1/2-y,1/2+z
loop_
_atom_site_type_symbol
_atom_site_label
_atom_site_fract_x
_atom_site_fract_y
_atom_site_fract_z
Si Si1 0.929199 0.072064 0.326140
Si Si2 0.277886 0.252136 0.705265
Si Si3 0.165657 0.009080 0.154801
Si Si4 0.605562 0.178984 0.018457
Si Si5 0.770989 0.099170 0.711825
Si Si6 0.657802 0.328351 0.348433
Si Si7 0.230526 0.104230 0.797599
Si Si8 0.632885 0.806966 0.496886
O O1 0.567196 0.098739 0.440359
O O2 0.154415 0.158931 0.271274
O O3 0.960240 0.042458 0.260700
O O4 0.028515 0.989745 0.332480
O O5 0.561988 0.281244 0.586225
O O6 0.380604 0.173268 0.713078
O O7 0.002512 0.214923 0.751121
O O8 0.406777 0.086631 0.066760
O O9 0.365038 0.918502 0.110471
O O10 0.923492 0.985236 0.182482
O O11 0.504237 0.254014 0.009168
O O12 0.971024 0.158342 0.905261
O O13 0.601071 0.146408 0.808420
O O14 0.503217 0.068926 0.752845
O O15 0.003103 0.171097 0.617303
O O16 0.403674 0.254962 0.443035
#
# Coordination Sequence:
#
# PCOD8128450 Si02
#       8
#     4   4   4   4   4   4   4   4
#     4   9  19  39  59  82 111 153 197 227 272 348
#     4   9  18  37  60  85 111 154 196 233 272 341
#     4   9  19  36  61  83 109 150 194 235 274 346
#     4  11  19  35  66  85 106 155 201 228 281 343
#     4  11  23  37  56  89 120 150 183 246 292 328
#     4   9  18  36  58  84 114 147 202 234 270 341
#     4  11  22  38  56  89 124 143 187 243 296 326
#     4  11  20  36  64  84 108 157 202 224 276 353
#
# _framework density 18.923635999999998
#
# number of rings (size 3 to 8) (size 9 to 14) (size 15 to 20)
#    0.000    2.000    5.000    0.750    0.000    1.000 
#    2.250    6.250    0.000    0.000    0.000    0.000 
#    0.000    0.000    0.000    0.000    0.000    0.000 
#
# Total GULP energy -396810.631196 kJ/mol
# GULP energy per Si atom -12400.332225 kJ/mol
# Density = 1.888056 g / cm^3
# Si number density = 18.923636 Si / 1000 Ang^3
#
#
#
# Elastic Constant Matrix: (Units=GPa)
#
#
# Indices 1 2 3 4 5 6 
#
# 1 93.6803 29.5368 39.4236 0.0000 0.8366 0.0000
# 2 29.5368 84.0716 31.7708 0.0000 6.7433 0.0000
# 3 39.4236 31.7708 85.9777 0.0000 3.1530 0.0000
# 4 0.0000 0.0000 0.0000 27.4401 0.0000 7.2506
# 5 0.8366 6.7433 3.1530 0.0000 17.1280 0.0000
# 6 0.0000 0.0000 0.0000 7.2506 0.0000 17.4393
#
#
#
# Elastic Compliance Matrix: (Units=1/GPa)
#
#
# Indices 1 2 3 4 5 6 
#
# 1 0.013828 -0.002975 -0.005295 0.000000 0.001471 0.000000
# 2 -0.002975 0.014824 -0.003931 0.000000 -0.004967 0.000000
# 3 -0.005295 -0.003931 0.015550 0.000000 -0.001056 0.000000
# 4 0.000000 0.000000 0.000000 0.040941 0.000000 -0.017022
# 5 0.001471 -0.004967 -0.001056 0.000000 0.060462 0.000000
# 6 0.000000 0.000000 0.000000 -0.017022 0.000000 0.064419
#
#
# Mechanical properties :
#
#
# Convention : Reuss Voigt Hill
#
# Bulk Modulus (GPa) = 50.50778 51.68800 51.09789
# Shear Modulus (GPa) = 20.74463 23.26805 22.00634
#
# Velocity S-wave (km/s) = 3.31453 3.51034 3.41383
# Velocity P-wave (km/s) = 6.43400 6.61840 6.52685
#
# Compressibility (1/GPa) = 0.01979893
#
# Stress axis : x y z
#
# Youngs Moduli (GPa) = 72.31795 67.45837 64.30697
#
# Poissons Ratio (x) = 0.20069 0.34051
# Poissons Ratio (y) = 0.21515 0.25282
# Poissons Ratio (z) = 0.38293 0.26521
#
# Static dielectric constant tensor:
#      x y z
#    x 3.123530 0.000000 0.252470 
#    y 0.000000 3.768860 0.000000 
#    z 0.252470 0.000000 3.583350 
# 
# 
# High freq. dielectric constant tensor:
#      x y z
#    x 1.701210 0.000000 0.027510 
#    y 0.000000 1.744940 0.000000 
#    z 0.027510 0.000000 1.736990 
# 
# From -- ./inp_files/50646.got.cif
#   From: 2010.03.12/outbox.cif.g09.slc.cpg/sg14_26_cif.got.tgz:50646.got - 2010.03.31 13:35:05.
