data_PCOD8128623
_publ_section_title
;
Structure prediction by ZEFSAII (Michael W. Deem and Ramdas Pophale) SiO2 
 PCOD8128623
Probable space group: P 21/C
;
_chemical_formula_sum "Si O2"
_cell_formula_units_Z 16
_cell_length_a 6.660152
_cell_length_b 8.141301
_cell_length_c 19.363341
_cell_angle_alpha 90.000000
_cell_angle_beta 48.438991
_cell_angle_gamma 90.000000
_cell_volume 785.606046
_symmetry_space_group_name_H-M "P 21/C"
_symmetry_group_IT_number 14
_symmetry_cell_setting 'monoclinic'
loop_
_space_group_symop_operation_xyz
x,y,z
-x,1/2+y,1/2-z
-x,-y,-z
x,1/2-y,1/2+z
loop_
_atom_site_type_symbol
_atom_site_label
_atom_site_fract_x
_atom_site_fract_y
_atom_site_fract_z
Si Si1 0.052154 0.308207 0.992580
Si Si2 0.517404 0.686780 0.344791
Si Si3 0.239575 0.391598 0.574151
Si Si4 0.711632 0.896827 0.177729
O O1 0.771700 0.212375 0.054226
O O2 0.214410 0.256448 0.024601
O O3 0.000000 0.500000 0.000000
O O4 0.224277 0.255461 0.886919
O O5 0.738550 0.686631 0.354654
O O6 0.584866 0.832937 0.277369
O O7 0.511848 0.512008 0.306957
O O8 0.500000 0.500000 0.500000
O O9 0.976905 0.501969 0.633757
#
# Coordination Sequence:
#
# PCOD8128623 Si02
#       4
#     4   4   4   4
#     4  11  23  41  64  93 128 169 212 267 325 387
#     4  11  23  42  64  93 128 169 215 267 324 385
#     4  11  21  44  67  88 131 174 210 267 329 385
#     4  11  23  40  65  91 128 167 213 270 323 383
#
# _framework density 20.366441999999999
#
# number of rings (size 3 to 8) (size 9 to 14) (size 15 to 20)
#    0.000    1.000    5.000    3.000    0.000    7.000 
#    4.500    0.000    0.000    0.000    0.000    0.000 
#    0.000    0.000    0.000    0.000    0.000    0.000 
#
# Total GULP energy -198465.945927 kJ/mol
# GULP energy per Si atom -12404.121620 kJ/mol
# Density = 2.032009 g / cm^3
# Si number density = 20.366442 Si / 1000 Ang^3
#
#
#
# Elastic Constant Matrix: (Units=GPa)
#
#
# Indices 1 2 3 4 5 6 
#
# 1 139.0936 43.8634 25.4724 0.0000 27.7669 0.0000
# 2 43.8634 108.7460 11.3711 0.0000 15.7671 0.0000
# 3 25.4724 11.3711 65.5256 0.0000 15.5951 0.0000
# 4 0.0000 0.0000 0.0000 44.3630 0.0000 10.4671
# 5 27.7669 15.7671 15.5951 0.0000 33.2199 0.0000
# 6 0.0000 0.0000 0.0000 10.4671 0.0000 32.9016
#
#
#
# Elastic Compliance Matrix: (Units=1/GPa)
#
#
# Indices 1 2 3 4 5 6 
#
# 1 0.009577 -0.002829 -0.001854 0.000000 -0.005792 0.000000
# 2 -0.002829 0.010738 -0.000128 0.000000 -0.002671 0.000000
# 3 -0.001854 -0.000128 0.017586 0.000000 -0.006646 0.000000
# 4 0.000000 0.000000 0.000000 0.024371 0.000000 -0.007753
# 5 -0.005792 -0.002671 -0.006646 0.000000 0.039332 0.000000
# 6 0.000000 0.000000 0.000000 -0.007753 0.000000 0.032860
#
#
# Mechanical properties :
#
#
# Convention : Reuss Voigt Hill
#
# Bulk Modulus (GPa) = 35.36150 52.75322 44.05736
# Shear Modulus (GPa) = 32.57097 37.60745 35.08921
#
# Velocity S-wave (km/s) = 4.00340 4.30180 4.15528
# Velocity P-wave (km/s) = 6.22655 7.11563 6.68589
#
# Compressibility (1/GPa) = 0.02827935
#
# Stress axis : x y z
#
# Youngs Moduli (GPa) = 104.41234 93.12967 56.86475
#
# Poissons Ratio (x) = 0.26351 0.10540
# Poissons Ratio (y) = 0.29543 0.00726
# Poissons Ratio (z) = 0.19353 0.01189
#
# Static dielectric constant tensor:
#      x y z
#    x 4.018590 0.000000 0.205740 
#    y 0.000000 3.689540 0.000000 
#    z 0.205740 0.000000 3.804570 
# 
# 
# High freq. dielectric constant tensor:
#      x y z
#    x 1.802360 0.000000 0.010940 
#    y 0.000000 1.795460 0.000000 
#    z 0.010940 0.000000 1.799800 
# 
# From -- ./inp_files/36607.got.cif
#   From: 2010.03.12/outbox.cif.g09.slc.cpg/sg14_19_cif.got.tgz:36607.got - 2010.03.31 13:35:05.
