data_PCOD8128106
_publ_section_title
;
Structure prediction by ZEFSAII (Michael W. Deem and Ramdas Pophale) SiO2 
 PCOD8128106
Probable space group: P 21/C
;
_chemical_formula_sum "Si O2"
_cell_formula_units_Z 28
_cell_length_a 11.383230
_cell_length_b 14.391079
_cell_length_c 8.873116
_cell_angle_alpha 90.000000
_cell_angle_beta 67.061229
_cell_angle_gamma 90.000000
_cell_volume 1338.621572
_symmetry_space_group_name_H-M "P 21/C"
_symmetry_group_IT_number 14
_symmetry_cell_setting 'monoclinic'
loop_
_space_group_symop_operation_xyz
x,y,z
-x,1/2+y,1/2-z
-x,-y,-z
x,1/2-y,1/2+z
loop_
_atom_site_type_symbol
_atom_site_label
_atom_site_fract_x
_atom_site_fract_y
_atom_site_fract_z
Si Si1 0.824853 0.315196 0.971421
Si Si2 0.645255 0.641552 0.336839
Si Si3 0.175148 0.315197 0.296272
Si Si4 0.644617 0.051789 0.697110
Si Si5 0.000000 0.250000 0.633831
Si Si6 0.644617 0.551789 0.658273
Si Si7 0.354745 0.641552 0.482095
O O1 0.736126 0.406877 0.021168
O O2 0.738489 0.223464 0.016693
O O3 0.913536 0.316532 0.074841
O O4 0.913203 0.317867 0.779688
O O5 0.738489 0.723465 0.244817
O O6 0.685271 0.552737 0.216863
O O7 0.657329 0.617676 0.506311
O O8 0.500000 0.670807 0.372382
O O9 0.086461 0.316533 0.488374
O O10 0.086802 0.317866 0.192884
O O11 0.263874 0.406877 0.257295
O O12 0.500000 0.053282 0.709200
O O13 0.657328 0.117676 0.836361
O O14 0.685271 0.447264 0.597866
#
# Coordination Sequence:
#
# PCOD8128106 Si02
#       7
#     4   4   4   4   4   4   4
#     4  11  19  40  54  80 111 153 180 232 270 317
#     4   9  18  34  59  87 111 140 180 227 283 336
#     4  11  19  40  54  80 111 153 180 232 270 317
#     4   9  18  34  59  87 111 140 180 227 283 336
#     4  10  24  34  56  78 112 148 200 220 258 326
#     4   9  18  34  59  87 111 140 180 227 283 336
#     4   9  18  34  59  87 111 140 180 227 283 336
#
# _framework density 20.91704
#
# number of rings (size 3 to 8) (size 9 to 14) (size 15 to 20)
#    0.000    2.286    2.857    2.571    0.000    0.000 
#    0.000   10.000    0.000    3.429    0.000    0.000 
#    0.000    0.000    0.000    0.000    0.000    0.000 
#
# Total GULP energy -347206.732051 kJ/mol
# GULP energy per Si atom -12400.240430 kJ/mol
# Density = 2.086943 g / cm^3
# Si number density = 20.917040 Si / 1000 Ang^3
#
#
#
# Elastic Constant Matrix: (Units=GPa)
#
#
# Indices 1 2 3 4 5 6 
#
# 1 93.2615 29.8262 24.3297 0.0000 -6.7880 0.0000
# 2 29.8262 63.3148 8.8131 0.0000 -13.3688 0.0000
# 3 24.3297 8.8131 68.9439 0.0000 -8.6774 0.0000
# 4 0.0000 0.0000 0.0000 23.5437 0.0000 1.0932
# 5 -6.7880 -13.3688 -8.6774 0.0000 27.9267 0.0000
# 6 0.0000 0.0000 0.0000 1.0932 0.0000 21.8261
#
#
#
# Elastic Compliance Matrix: (Units=1/GPa)
#
#
# Indices 1 2 3 4 5 6 
#
# 1 0.013680 -0.006047 -0.004163 0.000000 -0.000863 0.000000
# 2 -0.006047 0.020345 0.000597 0.000000 0.008455 0.000000
# 3 -0.004163 0.000597 0.016449 0.000000 0.004385 0.000000
# 4 0.000000 0.000000 0.000000 0.042573 0.000000 -0.002132
# 5 -0.000863 0.008455 0.004385 0.000000 0.041008 0.000000
# 6 0.000000 0.000000 0.000000 -0.002132 0.000000 0.045923
#
#
# Mechanical properties :
#
#
# Convention : Reuss Voigt Hill
#
# Bulk Modulus (GPa) = 32.00166 39.05091 35.52628
# Shear Modulus (GPa) = 23.85266 25.49604 24.67435
#
# Velocity S-wave (km/s) = 3.38056 3.49508 3.43830
# Velocity P-wave (km/s) = 5.52903 5.91586 5.72571
#
# Compressibility (1/GPa) = 0.03124838
#
# Stress axis : x y z
#
# Youngs Moduli (GPa) = 73.10125 49.15257 60.79312
#
# Poissons Ratio (x) = 0.29722 0.25309
# Poissons Ratio (y) = 0.44204 -0.03632
# Poissons Ratio (z) = 0.30433 -0.02936
#
# Static dielectric constant tensor:
#      x y z
#    x 4.026270 0.000000 -0.184650 
#    y 0.000000 3.453180 0.000000 
#    z -0.184650 0.000000 3.736040 
# 
# 
# High freq. dielectric constant tensor:
#      x y z
#    x 1.829090 0.000000 -0.010810 
#    y 0.000000 1.793460 0.000000 
#    z -0.010810 0.000000 1.812100 
# 
# From -- ./inp_files/13058.got.cif
#   From: 2010.03.12/outbox.cif.g09.slc.cpg/sg14_7_cif.got.tgz:13058.got - 2010.03.31 13:35:05.
