data_PCOD8128832
_publ_section_title
;
Structure prediction by ZEFSAII (Michael W. Deem and Ramdas Pophale) SiO2 
 PCOD8128832
Probable space group: P 21/C
;
_chemical_formula_sum "Si O2"
_cell_formula_units_Z 28
_cell_length_a 11.100509
_cell_length_b 7.285674
_cell_length_c 25.578878
_cell_angle_alpha 90.000000
_cell_angle_beta 145.410617
_cell_angle_gamma 90.000000
_cell_volume 1174.373616
_symmetry_space_group_name_H-M "P 21/C"
_symmetry_group_IT_number 14
_symmetry_cell_setting 'monoclinic'
loop_
_space_group_symop_operation_xyz
x,y,z
-x,1/2+y,1/2-z
-x,-y,-z
x,1/2-y,1/2+z
loop_
_atom_site_type_symbol
_atom_site_label
_atom_site_fract_x
_atom_site_fract_y
_atom_site_fract_z
Si Si1 0.532074 0.112800 0.331017
Si Si2 0.699940 0.234103 0.787741
Si Si3 0.167260 0.392400 0.213061
Si Si4 0.933900 0.914684 0.140527
Si Si5 0.288127 0.905650 0.490867
Si Si6 0.511906 0.731587 0.476108
Si Si7 0.092372 0.628086 0.275733
O O1 0.677424 0.216170 0.340326
O O2 0.308393 0.214301 0.255188
O O3 0.655897 0.127892 0.429167
O O4 0.489550 0.900337 0.299449
O O5 0.701797 0.421704 0.755312
O O6 0.921720 0.121087 0.858469
O O7 0.102777 0.425499 0.251131
O O8 0.961352 0.364226 0.103189
O O9 0.679797 0.940560 0.038876
O O10 0.949511 0.744637 0.186120
O O11 0.007052 0.093739 0.201186
O O12 0.423923 0.773017 0.502225
O O13 0.332710 0.112377 0.490115
O O14 0.329353 0.707861 0.367621
#
# Coordination Sequence:
#
# PCOD8128832 Si02
#       7
#     4   4   4   4   4   4   4
#     4  12  26  48  75  99 140 191 240 296 344 412
#     4  11  25  47  71  99 141 190 240 288 349 411
#     4  11  24  49  69 106 139 184 237 288 355 422
#     4  11  24  41  65 104 139 180 233 284 353 424
#     4  11  24  43  73 105 141 186 233 287 360 415
#     4  11  23  42  67 107 143 179 229 286 360 431
#     4  11  23  40  69  98 145 180 224 290 352 420
#
# _framework density 23.842499
#
# number of rings (size 3 to 8) (size 9 to 14) (size 15 to 20)
#    0.000    0.857    4.286    3.857    8.000    0.571 
#    0.000    0.714    0.000    0.000    0.000    0.000 
#    0.000    0.000    0.000    0.000    0.000    0.000 
#
# Total GULP energy -347120.823915 kJ/mol
# GULP energy per Si atom -12397.172283 kJ/mol
# Density = 2.378823 g / cm^3
# Si number density = 23.842499 Si / 1000 Ang^3
#
#
#
# Elastic Constant Matrix: (Units=GPa)
#
#
# Indices 1 2 3 4 5 6 
#
# 1 142.6853 13.9044 66.7403 0.0000 -11.2442 0.0000
# 2 13.9044 32.5323 27.2982 0.0000 -6.5694 0.0000
# 3 66.7403 27.2982 148.1299 0.0000 -10.3253 0.0000
# 4 0.0000 0.0000 0.0000 35.9326 0.0000 0.3747
# 5 -11.2442 -6.5694 -10.3253 0.0000 33.7329 0.0000
# 6 0.0000 0.0000 0.0000 0.3747 0.0000 30.1526
#
#
#
# Elastic Compliance Matrix: (Units=1/GPa)
#
#
# Indices 1 2 3 4 5 6 
#
# 1 0.008986 -0.000225 -0.003884 0.000000 0.001763 0.000000
# 2 -0.000225 0.037261 -0.006401 0.000000 0.005222 0.000000
# 3 -0.003884 -0.006401 0.009711 0.000000 0.000431 0.000000
# 4 0.000000 0.000000 0.000000 0.027833 0.000000 -0.000346
# 5 0.001763 0.005222 0.000431 0.000000 0.031381 0.000000
# 6 0.000000 0.000000 0.000000 -0.000346 0.000000 0.033169
#
#
# Mechanical properties :
#
#
# Convention : Reuss Voigt Hill
#
# Bulk Modulus (GPa) = 28.62390 59.91482 44.26936
# Shear Modulus (GPa) = 27.62312 34.32393 30.97353
#
# Velocity S-wave (km/s) = 3.40746 3.79834 3.60820
# Velocity P-wave (km/s) = 5.24524 6.66487 5.99721
#
# Compressibility (1/GPa) = 0.03493583
#
# Stress axis : x y z
#
# Youngs Moduli (GPa) = 111.28211 26.83793 102.98031
#
# Poissons Ratio (x) = 0.00605 0.40001
# Poissons Ratio (y) = 0.02509 0.65918
# Poissons Ratio (z) = 0.43226 0.17179
#
# Static dielectric constant tensor:
#      x y z
#    x 4.507160 0.000000 0.001720 
#    y 0.000000 4.719940 0.000000 
#    z 0.001720 0.000000 4.047660 
# 
# 
# High freq. dielectric constant tensor:
#      x y z
#    x 1.941130 0.000000 0.004330 
#    y 0.000000 1.974370 0.000000 
#    z 0.004330 0.000000 1.932520 
# 
# From -- ./inp_files/48533.got.cif
#   From: 2010.03.12/outbox.cif.g09.slc.cpg/sg14_25_cif.got.tgz:48533.got - 2010.03.31 13:35:05.
