data_PCOD8128893
_publ_section_title
;
Structure prediction by ZEFSAII (Michael W. Deem and Ramdas Pophale) SiO2 
 PCOD8128893
Probable space group: P 21/C
;
_chemical_formula_sum "Si O2"
_cell_formula_units_Z 32
_cell_length_a 14.962706
_cell_length_b 18.280997
_cell_length_c 13.481768
_cell_angle_alpha 90.000000
_cell_angle_beta 154.279458
_cell_angle_gamma 90.000000
_cell_volume 1600.400588
_symmetry_space_group_name_H-M "P 21/C"
_symmetry_group_IT_number 14
_symmetry_cell_setting 'monoclinic'
loop_
_space_group_symop_operation_xyz
x,y,z
-x,1/2+y,1/2-z
-x,-y,-z
x,1/2-y,1/2+z
loop_
_atom_site_type_symbol
_atom_site_label
_atom_site_fract_x
_atom_site_fract_y
_atom_site_fract_z
Si Si1 0.871941 0.969634 0.125920
Si Si2 0.828316 0.718678 0.034111
Si Si3 0.251297 0.434945 0.998773
Si Si4 0.170151 0.681950 0.222984
Si Si5 0.572502 0.195058 0.418480
Si Si6 0.427406 0.962323 0.025168
Si Si7 0.889214 0.174430 0.571511
Si Si8 0.517717 0.534163 0.124357
O O1 0.014796 0.901031 0.293601
O O2 0.750654 0.961830 0.900324
O O3 0.013695 0.041116 0.260778
O O4 0.705203 0.979082 0.045898
O O5 0.654985 0.772802 0.819828
O O6 0.736044 0.652161 0.006837
O O7 0.954434 0.685810 0.066318
O O8 0.967359 0.759746 0.252216
O O9 0.353591 0.446686 0.207267
O O10 0.378574 0.479200 0.046667
O O11 0.295714 0.754722 0.375982
O O12 0.298748 0.611461 0.383817
O O13 0.133130 0.676686 0.068712
O O14 0.669152 0.186254 0.404955
O O15 0.570941 0.115826 0.467679
O O16 0.500000 0.000000 0.000000
O O17 0.500000 0.500000 0.000000
#
# Coordination Sequence:
#
# PCOD8128893 Si02
#       8
#     4   4   4   4   4   4   4   4
#     4  11  23  43  66  98 139 170 225 278 338 400
#     4  11  24  44  67  97 141 176 224 281 339 405
#     4  11  23  43  65  96 135 176 220 280 335 395
#     4  11  25  41  68 100 131 177 227 270 348 408
#     4  11  24  47  64  96 141 172 229 285 329 405
#     4  11  24  38  66 103 135 173 216 275 338 415
#     4  11  25  42  70  99 130 180 222 282 338 403
#     4  11  26  44  69  99 131 184 232 276 341 403
#
# _framework density 19.994993000000001
#
# number of rings (size 3 to 8) (size 9 to 14) (size 15 to 20)
#    0.000    1.000    5.000    0.750    3.500    5.500 
#    0.000    0.000    0.000    0.000    0.000    0.000 
#    0.000    0.000    0.000    0.000    0.000    0.000 
#
# Total GULP energy -396789.953129 kJ/mol
# GULP energy per Si atom -12399.686035 kJ/mol
# Density = 1.994948 g / cm^3
# Si number density = 19.994993 Si / 1000 Ang^3
#
#
#
# Elastic Constant Matrix: (Units=GPa)
#
#
# Indices 1 2 3 4 5 6 
#
# 1 80.1728 52.5991 63.7747 0.0000 -8.4247 0.0000
# 2 52.5991 133.7709 40.9251 0.0000 -10.0393 0.0000
# 3 63.7747 40.9251 119.4130 0.0000 -11.3646 0.0000
# 4 0.0000 0.0000 0.0000 38.7376 0.0000 8.3121
# 5 -8.4247 -10.0393 -11.3646 0.0000 34.1086 0.0000
# 6 0.0000 0.0000 0.0000 8.3121 0.0000 33.5407
#
#
#
# Elastic Compliance Matrix: (Units=1/GPa)
#
#
# Indices 1 2 3 4 5 6 
#
# 1 0.026177 -0.006688 -0.011629 0.000000 0.000622 0.000000
# 2 -0.006688 0.010141 0.000231 0.000000 0.001410 0.000000
# 3 -0.011629 0.000231 0.014705 0.000000 0.002095 0.000000
# 4 0.000000 0.000000 0.000000 0.027265 0.000000 -0.006757
# 5 0.000622 0.001410 0.002095 0.000000 0.030585 0.000000
# 6 0.000000 0.000000 0.000000 -0.006757 0.000000 0.031489
#
#
# Mechanical properties :
#
#
# Convention : Reuss Voigt Hill
#
# Bulk Modulus (GPa) = 67.34057 71.99495 69.66776
# Shear Modulus (GPa) = 27.55075 33.01459 30.28267
#
# Velocity S-wave (km/s) = 3.71601 4.06783 3.89590
# Velocity P-wave (km/s) = 7.22243 7.62546 7.42668
#
# Compressibility (1/GPa) = 0.01484989
#
# Stress axis : x y z
#
# Youngs Moduli (GPa) = 38.20174 98.61415 68.00359
#
# Poissons Ratio (x) = 0.65958 0.79079
# Poissons Ratio (y) = 0.25551 -0.01570
# Poissons Ratio (z) = 0.44424 -0.02277
#
# Static dielectric constant tensor:
#      x y z
#    x 3.565090 0.000000 0.374520 
#    y 0.000000 3.509620 0.000000 
#    z 0.374520 0.000000 3.815390 
# 
# 
# High freq. dielectric constant tensor:
#      x y z
#    x 1.774330 0.000000 0.010270 
#    y 0.000000 1.802540 0.000000 
#    z 0.010270 0.000000 1.790650 
# 
# From -- ./inp_files/33064.got.cif
#   From: 2010.03.12/outbox.cif.g09.slc.cpg/sg14_17_cif.got.tgz:33064.got - 2010.03.31 13:35:05.
