data_PCOD8128609
_publ_section_title
;
Structure prediction by ZEFSAII (Michael W. Deem and Ramdas Pophale) SiO2 
 PCOD8128609
Probable space group: P 21/C
;
_chemical_formula_sum "Si O2"
_cell_formula_units_Z 28
_cell_length_a 8.323427
_cell_length_b 6.469717
_cell_length_c 28.345474
_cell_angle_alpha 90.000000
_cell_angle_beta 121.328543
_cell_angle_gamma 90.000000
_cell_volume 1303.859234
_symmetry_space_group_name_H-M "P 21/C"
_symmetry_group_IT_number 14
_symmetry_cell_setting 'monoclinic'
loop_
_space_group_symop_operation_xyz
x,y,z
-x,1/2+y,1/2-z
-x,-y,-z
x,1/2-y,1/2+z
loop_
_atom_site_type_symbol
_atom_site_label
_atom_site_fract_x
_atom_site_fract_y
_atom_site_fract_z
Si Si1 0.241518 0.924208 0.303187
Si Si2 0.631192 0.486118 0.902938
Si Si3 0.191556 0.882913 0.878949
Si Si4 0.024115 0.765556 0.689869
Si Si5 0.673261 0.778748 0.503242
Si Si6 0.565998 0.377219 0.455196
Si Si7 0.004051 0.470043 0.099406
O O1 0.460649 0.982237 0.340401
O O2 0.182490 0.747644 0.330111
O O3 0.200334 0.832519 0.244863
O O4 0.121820 0.132122 0.295284
O O5 0.639413 0.243770 0.920138
O O6 0.821011 0.565614 0.908234
O O7 0.594479 0.617539 0.944017
O O8 0.104573 0.744815 0.908042
O O9 0.402657 0.955639 0.920085
O O10 0.070529 0.087624 0.854990
O O11 0.086011 0.935223 0.660700
O O12 0.722466 0.533377 0.500865
O O13 0.509318 0.791902 0.518365
O O14 0.862909 0.879148 0.550861
#
# Coordination Sequence:
#
# PCOD8128609 Si02
#       7
#     4   4   4   4   4   4   4
#     4  11  22  41  69  92 120 162 228 269 320 378
#     4  12  25  43  61  99 134 173 209 271 327 402
#     4  11  21  43  66  91 125 166 216 274 316 379
#     4  11  22  42  67  92 120 168 218 277 317 383
#     4  11  24  41  66  97 130 172 216 272 320 393
#     4  11  23  39  72  93 120 169 229 265 316 380
#     4  11  27  42  60  96 142 169 209 262 347 389
#
# _framework density 21.474710000000002
#
# number of rings (size 3 to 8) (size 9 to 14) (size 15 to 20)
#    0.000    0.857    5.714    1.714    4.000    1.714 
#    2.571    0.000    0.000    0.000    0.000    0.000 
#    0.000    0.000    0.000    0.000    0.000    0.000 
#
# Total GULP energy -347122.730042 kJ/mol
# GULP energy per Si atom -12397.240359 kJ/mol
# Density = 2.142583 g / cm^3
# Si number density = 21.474710 Si / 1000 Ang^3
#
#
#
# Elastic Constant Matrix: (Units=GPa)
#
#
# Indices 1 2 3 4 5 6 
#
# 1 76.0579 34.5436 20.3638 0.0000 1.6020 0.0000
# 2 34.5436 102.7735 27.9688 0.0000 -2.7785 0.0000
# 3 20.3638 27.9688 94.5721 0.0000 7.0515 0.0000
# 4 0.0000 0.0000 0.0000 45.8256 0.0000 3.2803
# 5 1.6020 -2.7785 7.0515 0.0000 20.1406 0.0000
# 6 0.0000 0.0000 0.0000 3.2803 0.0000 25.2036
#
#
#
# Elastic Compliance Matrix: (Units=1/GPa)
#
#
# Indices 1 2 3 4 5 6 
#
# 1 0.015888 -0.004861 -0.001889 0.000000 -0.001273 0.000000
# 2 -0.004861 0.012206 -0.002790 0.000000 0.003047 0.000000
# 3 -0.001889 -0.002790 0.012140 0.000000 -0.004485 0.000000
# 4 0.000000 0.000000 0.000000 0.022027 0.000000 -0.002867
# 5 -0.001273 0.003047 -0.004485 0.000000 0.051743 0.000000
# 6 0.000000 0.000000 0.000000 -0.002867 0.000000 0.040050
#
#
# Mechanical properties :
#
#
# Convention : Reuss Voigt Hill
#
# Bulk Modulus (GPa) = 47.27096 48.79510 48.03303
# Shear Modulus (GPa) = 27.74932 30.93578 29.34255
#
# Velocity S-wave (km/s) = 3.59860 3.79960 3.70046
# Velocity P-wave (km/s) = 6.27110 6.48234 6.37760
#
# Compressibility (1/GPa) = 0.02115464
#
# Stress axis : x y z
#
# Youngs Moduli (GPa) = 62.94093 81.92975 82.37053
#
# Poissons Ratio (x) = 0.39823 0.15557
# Poissons Ratio (y) = 0.30593 0.22984
# Poissons Ratio (z) = 0.11888 0.22861
#
# Static dielectric constant tensor:
#      x y z
#    x 3.433290 0.000000 0.015780 
#    y 0.000000 4.207810 0.000000 
#    z 0.015780 0.000000 4.094470 
# 
# 
# High freq. dielectric constant tensor:
#      x y z
#    x 1.797740 0.000000 0.002780 
#    y 0.000000 1.867270 0.000000 
#    z 0.002780 0.000000 1.854440 
# 
# From -- ./inp_files/79300.got.cif
#   From: 2010.03.12/outbox.cif.g09.slc.cpg/sg14_40_cif.got.tgz:79300.got - 2010.03.31 13:35:05.
