data_PCOD8128517
_publ_section_title
;
Structure prediction by ZEFSAII (Michael W. Deem and Ramdas Pophale) SiO2 
 PCOD8128517
Probable space group: P 21/C
;
_chemical_formula_sum "Si O2"
_cell_formula_units_Z 32
_cell_length_a 11.511589
_cell_length_b 9.272109
_cell_length_c 26.660011
_cell_angle_alpha 90.000000
_cell_angle_beta 148.447577
_cell_angle_gamma 90.000000
_cell_volume 1489.042167
_symmetry_space_group_name_H-M "P 21/C"
_symmetry_group_IT_number 14
_symmetry_cell_setting 'monoclinic'
loop_
_space_group_symop_operation_xyz
x,y,z
-x,1/2+y,1/2-z
-x,-y,-z
x,1/2-y,1/2+z
loop_
_atom_site_type_symbol
_atom_site_label
_atom_site_fract_x
_atom_site_fract_y
_atom_site_fract_z
Si Si1 0.003881 0.836062 0.798522
Si Si2 0.241729 0.466340 0.308042
Si Si3 0.673610 0.311978 0.488408
Si Si4 0.433865 0.240240 0.243279
Si Si5 0.968284 0.853309 0.961107
Si Si6 0.462321 0.084348 0.354545
Si Si7 0.744993 0.047904 0.300398
Si Si8 0.871061 0.904972 0.491976
O O1 0.130013 0.907136 0.798708
O O2 0.908333 0.678234 0.749426
O O3 0.801281 0.945201 0.738022
O O4 0.171569 0.820992 0.906426
O O5 0.484954 0.435806 0.420974
O O6 0.277547 0.533771 0.266792
O O7 0.547367 0.158067 0.437787
O O8 0.809594 0.313784 0.486453
O O9 0.224716 0.142016 0.151140
O O10 0.497948 0.202579 0.323606
O O11 0.633336 0.195743 0.279426
O O12 0.370306 0.409353 0.214622
O O13 0.897292 0.755566 0.982130
O O14 0.000000 0.000000 0.000000
O O15 0.608064 0.941307 0.398666
O O16 0.006562 0.062210 0.410100
O O17 0.000000 0.000000 0.500000
#
# Coordination Sequence:
#
# PCOD8128517 Si02
#       8
#     4   4   4   4   4   4   4   4
#     4  11  24  46  70  94 132 184 233 279 335 396
#     4  11  25  47  68  98 135 180 231 287 334 397
#     4  11  20  43  73  93 130 183 223 277 347 394
#     4  12  21  39  67  99 138 174 212 274 346 406
#     4  12  24  38  62 104 141 173 220 278 341 414
#     4  11  21  40  72  96 131 181 222 272 342 406
#     4  12  24  43  69  99 139 180 219 280 344 409
#     4  12  22  41  65  98 137 179 223 265 345 424
#
# _framework density 21.490324000000001
#
# number of rings (size 3 to 8) (size 9 to 14) (size 15 to 20)
#    0.000    0.500    7.500    1.875    1.750    0.000 
#    9.000    5.625    0.000    0.000    0.000    0.000 
#    0.000    0.000    0.000    0.000    0.000    0.000 
#
# Total GULP energy -396613.900640 kJ/mol
# GULP energy per Si atom -12394.184395 kJ/mol
# Density = 2.144141 g / cm^3
# Si number density = 21.490324 Si / 1000 Ang^3
#
#
#
# Elastic Constant Matrix: (Units=GPa)
#
#
# Indices 1 2 3 4 5 6 
#
# 1 93.8098 31.7529 48.6578 0.0000 -1.2958 0.0000
# 2 31.7529 71.6156 37.7836 0.0000 -12.0058 0.0000
# 3 48.6578 37.7836 166.6853 0.0000 -6.7228 0.0000
# 4 0.0000 0.0000 0.0000 22.1185 0.0000 1.2464
# 5 -1.2958 -12.0058 -6.7228 0.0000 25.6316 0.0000
# 6 0.0000 0.0000 0.0000 1.2464 0.0000 29.2773
#
#
#
# Elastic Compliance Matrix: (Units=1/GPa)
#
#
# Indices 1 2 3 4 5 6 
#
# 1 0.013874 -0.004961 -0.003023 0.000000 -0.002415 0.000000
# 2 -0.004961 0.018805 -0.002496 0.000000 0.007903 0.000000
# 3 -0.003023 -0.002496 0.007473 0.000000 0.000638 0.000000
# 4 0.000000 0.000000 0.000000 0.045320 0.000000 -0.001929
# 5 -0.002415 0.007903 0.000638 0.000000 0.042761 0.000000
# 6 0.000000 0.000000 0.000000 -0.001929 0.000000 0.034238
#
#
# Mechanical properties :
#
#
# Convention : Reuss Voigt Hill
#
# Bulk Modulus (GPa) = 52.10473 63.16659 57.63566
# Shear Modulus (GPa) = 26.33968 29.66657 28.00312
#
# Velocity S-wave (km/s) = 3.50473 3.71949 3.61370
# Velocity P-wave (km/s) = 6.37776 6.92120 6.65503
#
# Compressibility (1/GPa) = 0.01919211
#
# Stress axis : x y z
#
# Youngs Moduli (GPa) = 72.07877 53.17823 133.81294
#
# Poissons Ratio (x) = 0.26384 0.40448
# Poissons Ratio (y) = 0.35762 0.33393
# Poissons Ratio (z) = 0.21787 0.13271
#
# Static dielectric constant tensor:
#      x y z
#    x 3.377280 0.000000 0.469820 
#    y 0.000000 3.531910 0.000000 
#    z 0.469820 0.000000 4.122950 
# 
# 
# High freq. dielectric constant tensor:
#      x y z
#    x 1.820340 0.000000 -0.001100 
#    y 0.000000 1.825110 0.000000 
#    z -0.001100 0.000000 1.875420 
# 
# From -- ./inp_files/80045.got.cif
#   From: 2010.03.12/outbox.cif.g09.slc.cpg/sg14_41_cif.got.tgz:80045.got - 2010.03.31 13:35:05.
