data_PCOD8128590
_publ_section_title
;
Structure prediction by ZEFSAII (Michael W. Deem and Ramdas Pophale) SiO2 
 PCOD8128590
Probable space group: P 21/C
;
_chemical_formula_sum "Si O2"
_cell_formula_units_Z 24
_cell_length_a 8.848351
_cell_length_b 12.754551
_cell_length_c 14.709284
_cell_angle_alpha 90.000000
_cell_angle_beta 42.494971
_cell_angle_gamma 90.000000
_cell_volume 1121.400622
_symmetry_space_group_name_H-M "P 21/C"
_symmetry_group_IT_number 14
_symmetry_cell_setting 'monoclinic'
loop_
_space_group_symop_operation_xyz
x,y,z
-x,1/2+y,1/2-z
-x,-y,-z
x,1/2-y,1/2+z
loop_
_atom_site_type_symbol
_atom_site_label
_atom_site_fract_x
_atom_site_fract_y
_atom_site_fract_z
Si Si1 0.472833 0.606033 0.135001
Si Si2 0.076429 0.848891 0.140595
Si Si3 0.489344 0.336144 0.426594
Si Si4 0.171526 0.001597 0.632116
Si Si5 0.799159 0.649920 0.272754
Si Si6 0.391862 0.949618 0.867093
O O1 0.507371 0.730366 0.134773
O O2 0.316700 0.590008 0.115618
O O3 0.362745 0.551254 0.271636
O O4 0.707739 0.548497 0.010266
O O5 0.279635 0.845494 0.121637
O O6 0.972868 0.736884 0.159459
O O7 0.159886 0.908906 0.013309
O O8 0.864898 0.907674 0.277754
O O9 0.280978 0.329462 0.588511
O O10 0.454984 0.435376 0.375969
O O11 0.931716 0.959051 0.708684
O O12 0.585146 0.635764 0.303232
#
# Coordination Sequence:
#
# PCOD8128590 Si02
#       6
#     4   4   4   4   4   4
#     4  11  26  40  64  98 135 161 209 272 315 369
#     4  11  21  41  69  91 122 173 215 249 319 388
#     4  11  21  42  66  91 130 170 209 264 321 374
#     4  11  22  43  64  90 126 177 206 247 322 386
#     4  11  21  41  69  91 122 173 215 249 319 388
#     4  11  25  42  64 100 128 158 216 278 304 367
#
# _framework density 21.401807000000002
#
# number of rings (size 3 to 8) (size 9 to 14) (size 15 to 20)
#    0.000    1.000    6.667    1.000    0.000    4.000 
#    6.000    0.000    0.000    0.000    0.000    0.000 
#    0.000    0.000    0.000    0.000    0.000    0.000 
#
# Total GULP energy -297634.449059 kJ/mol
# GULP energy per Si atom -12401.435377 kJ/mol
# Density = 2.135310 g / cm^3
# Si number density = 21.401807 Si / 1000 Ang^3
#
#
#
# Elastic Constant Matrix: (Units=GPa)
#
#
# Indices 1 2 3 4 5 6 
#
# 1 19.5837 14.8222 16.4285 0.0000 8.9183 0.0000
# 2 14.8222 121.5058 39.0876 0.0000 9.8869 0.0000
# 3 16.4285 39.0876 118.1983 0.0000 12.1879 0.0000
# 4 0.0000 0.0000 0.0000 43.3148 0.0000 -7.6037
# 5 8.9183 9.8869 12.1879 0.0000 33.7097 0.0000
# 6 0.0000 0.0000 0.0000 -7.6037 0.0000 23.3612
#
#
#
# Elastic Compliance Matrix: (Units=1/GPa)
#
#
# Indices 1 2 3 4 5 6 
#
# 1 0.066295 -0.004985 -0.006137 0.000000 -0.013858 0.000000
# 2 -0.004985 0.009675 -0.002441 0.000000 -0.000636 0.000000
# 3 -0.006137 -0.002441 0.010262 0.000000 -0.001371 0.000000
# 4 0.000000 0.000000 0.000000 0.024486 0.000000 0.007970
# 5 -0.013858 -0.000636 -0.001371 0.000000 0.034014 0.000000
# 6 0.000000 0.000000 0.000000 0.007970 0.000000 0.045400
#
#
# Mechanical properties :
#
#
# Convention : Reuss Voigt Hill
#
# Bulk Modulus (GPa) = 16.91885 44.44050 30.67968
# Shear Modulus (GPa) = 21.10061 32.67376 26.88719
#
# Velocity S-wave (km/s) = 3.14335 3.91152 3.54828
# Velocity P-wave (km/s) = 4.59312 6.41949 5.58151
#
# Compressibility (1/GPa) = 0.05910567
#
# Stress axis : x y z
#
# Youngs Moduli (GPa) = 15.08411 103.35664 97.44772
#
# Poissons Ratio (x) = 0.51527 0.59802
# Poissons Ratio (y) = 0.07520 0.23787
# Poissons Ratio (z) = 0.09257 0.25230
#
# Static dielectric constant tensor:
#      x y z
#    x 3.440650 0.000000 -0.160210 
#    y 0.000000 3.904330 0.000000 
#    z -0.160210 0.000000 3.945170 
# 
# 
# High freq. dielectric constant tensor:
#      x y z
#    x 1.807130 0.000000 -0.017890 
#    y 0.000000 1.850820 0.000000 
#    z -0.017890 0.000000 1.848670 
# 
# From -- ./inp_files/41074.got.cif
#   From: 2010.03.12/outbox.cif.g09.slc.cpg/sg14_21_cif.got.tgz:41074.got - 2010.03.31 13:35:05.
