data_PCOD8128218
_publ_section_title
;
Structure prediction by ZEFSAII (Michael W. Deem and Ramdas Pophale) SiO2 
 PCOD8128218
Probable space group: P 21/C
;
_chemical_formula_sum "Si O2"
_cell_formula_units_Z 28
_cell_length_a 9.059947
_cell_length_b 18.692149
_cell_length_c 9.957898
_cell_angle_alpha 90.000000
_cell_angle_beta 131.507887
_cell_angle_gamma 90.000000
_cell_volume 1262.861748
_symmetry_space_group_name_H-M "P 21/C"
_symmetry_group_IT_number 14
_symmetry_cell_setting 'monoclinic'
loop_
_space_group_symop_operation_xyz
x,y,z
-x,1/2+y,1/2-z
-x,-y,-z
x,1/2-y,1/2+z
loop_
_atom_site_type_symbol
_atom_site_label
_atom_site_fract_x
_atom_site_fract_y
_atom_site_fract_z
Si Si1 0.556556 0.296070 0.495130
Si Si2 0.121653 0.199754 0.654344
Si Si3 0.590223 0.058623 0.151194
Si Si4 0.895132 0.160476 0.022102
Si Si5 0.035384 0.412685 0.870157
Si Si6 0.824497 0.339172 0.194224
Si Si7 0.633509 0.028189 0.462805
O O1 0.342938 0.272228 0.314645
O O2 0.522366 0.360135 0.581387
O O3 0.673496 0.328713 0.439927
O O4 0.690883 0.232386 0.637406
O O5 0.116547 0.142104 0.531144
O O6 0.993356 0.266370 0.529498
O O7 0.028890 0.173375 0.738928
O O8 0.514073 0.033975 0.251473
O O9 0.826878 0.055397 0.288754
O O10 0.500000 0.000000 0.000000
O O11 0.024725 0.123292 0.215615
O O12 0.873552 0.120626 0.865468
O O13 0.178785 0.478606 0.943316
O O14 0.695295 0.391094 0.027124
O O15 0.500000 0.000000 0.500000
#
# Coordination Sequence:
#
# PCOD8128218 Si02
#       7
#     4   4   4   4   4   4   4
#     4  10  25  42  75  99 138 185 239 282 352 424
#     4  11  22  45  74 100 135 189 235 288 349 422
#     4  11  24  47  74 102 136 190 236 282 356 430
#     4  10  24  43  67 105 140 174 233 296 346 418
#     4  11  25  47  69 102 142 188 233 288 357 434
#     4  11  26  45  67 105 143 179 234 297 346 419
#     4  12  29  45  69 104 145 181 235 300 357 416
#
# _framework density 22.171865
#
# number of rings (size 3 to 8) (size 9 to 14) (size 15 to 20)
#    0.000    1.143    1.429    3.857   12.000    2.857 
#    0.000    0.000    0.000    0.000    0.000    0.000 
#    0.000    0.000    0.000    0.000    0.000    0.000 
#
# Total GULP energy -347120.260155 kJ/mol
# GULP energy per Si atom -12397.152148 kJ/mol
# Density = 2.212140 g / cm^3
# Si number density = 22.171865 Si / 1000 Ang^3
#
#
#
# Elastic Constant Matrix: (Units=GPa)
#
#
# Indices 1 2 3 4 5 6 
#
# 1 59.7245 22.4173 54.2450 0.0000 -7.7588 0.0000
# 2 22.4173 99.2199 30.7083 0.0000 -11.4001 0.0000
# 3 54.2450 30.7083 135.1592 0.0000 -28.0840 0.0000
# 4 0.0000 0.0000 0.0000 26.7755 0.0000 -10.0552
# 5 -7.7588 -11.4001 -28.0840 0.0000 50.5523 0.0000
# 6 0.0000 0.0000 0.0000 -10.0552 0.0000 25.8887
#
#
#
# Elastic Compliance Matrix: (Units=1/GPa)
#
#
# Indices 1 2 3 4 5 6 
#
# 1 0.027414 -0.003136 -0.010810 0.000000 -0.002505 0.000000
# 2 -0.003136 0.011266 -0.000987 0.000000 0.001511 0.000000
# 3 -0.010810 -0.000987 0.013081 0.000000 0.005385 0.000000
# 4 0.000000 0.000000 0.000000 0.043725 0.000000 0.016983
# 5 -0.002505 0.001511 0.005385 0.000000 0.022729 0.000000
# 6 0.000000 0.000000 0.000000 0.016983 0.000000 0.045223
#
#
# Mechanical properties :
#
#
# Convention : Reuss Voigt Hill
#
# Bulk Modulus (GPa) = 45.67523 56.53832 51.10678
# Shear Modulus (GPa) = 24.92490 33.09217 29.00854
#
# Velocity S-wave (km/s) = 3.35650 3.86752 3.62103
# Velocity P-wave (km/s) = 5.97216 6.74529 6.37047
#
# Compressibility (1/GPa) = 0.02189370
#
# Stress axis : x y z
#
# Youngs Moduli (GPa) = 36.47819 88.76067 76.44937
#
# Poissons Ratio (x) = 0.27833 0.82644
# Poissons Ratio (y) = 0.11439 0.07547
# Poissons Ratio (z) = 0.39434 0.08763
#
# Static dielectric constant tensor:
#      x y z
#    x 4.138480 0.000000 -0.166900 
#    y 0.000000 4.005390 0.000000 
#    z -0.166900 0.000000 4.065710 
# 
# 
# High freq. dielectric constant tensor:
#      x y z
#    x 1.875320 0.000000 -0.010610 
#    y 0.000000 1.870400 0.000000 
#    z -0.010610 0.000000 1.884420 
# 
# From -- ./inp_files/10438.got.cif
#   From: 2010.03.12/outbox.cif.g09.slc.cpg/sg14_6_cif.got.tgz:10438.got - 2010.03.31 13:35:05.
