data_PCOD8128391
_publ_section_title
;
Structure prediction by ZEFSAII (Michael W. Deem and Ramdas Pophale) SiO2 
 PCOD8128391
Probable space group: P 21/C
;
_chemical_formula_sum "Si O2"
_cell_formula_units_Z 16
_cell_length_a 7.475238
_cell_length_b 8.448603
_cell_length_c 18.400341
_cell_angle_alpha 90.000000
_cell_angle_beta 31.016848
_cell_angle_gamma 90.000000
_cell_volume 598.808012
_symmetry_space_group_name_H-M "P 21/C"
_symmetry_group_IT_number 14
_symmetry_cell_setting 'monoclinic'
loop_
_space_group_symop_operation_xyz
x,y,z
-x,1/2+y,1/2-z
-x,-y,-z
x,1/2-y,1/2+z
loop_
_atom_site_type_symbol
_atom_site_label
_atom_site_fract_x
_atom_site_fract_y
_atom_site_fract_z
Si Si1 0.539192 0.562082 0.293767
Si Si2 0.815747 0.439120 0.344038
Si Si3 0.878154 0.753734 0.054376
Si Si4 0.585198 0.110653 0.402848
O O1 0.779445 0.498492 0.274240
O O2 0.803508 0.613488 0.137683
O O3 0.301940 0.413199 0.352932
O O4 0.287924 0.709079 0.404245
O O5 0.500000 0.500000 0.500000
O O6 0.835353 0.251059 0.345392
O O7 0.189922 0.513201 0.236232
O O8 0.741872 0.694761 0.022467
O O9 0.500000 0.000000 0.500000
#
# Coordination Sequence:
#
# PCOD8128391 Si02
#       4
#     4   4   4   4
#     4  10  25  45  72 106 143 191 240 301 355 431
#     4  11  26  45  72 106 147 192 245 299 363 432
#     4  10  25  46  73 103 146 188 245 294 362 428
#     4  11  26  46  74 107 146 192 243 300 365 433
#
# _framework density 26.719747000000002
#
# number of rings (size 3 to 8) (size 9 to 14) (size 15 to 20)
#    0.000    1.500    0.000    1.500   21.000    3.000 
#    0.000    0.000    0.000    0.000    0.000    0.000 
#    0.000    0.000    0.000    0.000    0.000    0.000 
#
# Total GULP energy -198370.956130 kJ/mol
# GULP energy per Si atom -12398.184758 kJ/mol
# Density = 2.665893 g / cm^3
# Si number density = 26.719747 Si / 1000 Ang^3
#
#
#
# Elastic Constant Matrix: (Units=GPa)
#
#
# Indices 1 2 3 4 5 6 
#
# 1 28.7586 30.6138 11.1790 0.0000 11.9461 0.0000
# 2 30.6138 166.0169 51.8866 0.0000 9.5923 0.0000
# 3 11.1790 51.8866 112.2518 0.0000 14.0051 0.0000
# 4 0.0000 0.0000 0.0000 62.5279 0.0000 5.8941
# 5 11.9461 9.5923 14.0051 0.0000 40.7606 0.0000
# 6 0.0000 0.0000 0.0000 5.8941 0.0000 52.6779
#
#
#
# Elastic Compliance Matrix: (Units=1/GPa)
#
#
# Indices 1 2 3 4 5 6 
#
# 1 0.048727 -0.008455 0.000616 0.000000 -0.012503 0.000000
# 2 -0.008455 0.008520 -0.003297 0.000000 0.001606 0.000000
# 3 0.000616 -0.003297 0.010758 0.000000 -0.003101 0.000000
# 4 0.000000 0.000000 0.000000 0.016163 0.000000 -0.001809
# 5 -0.012503 0.001606 -0.003101 0.000000 0.028885 0.000000
# 6 0.000000 0.000000 0.000000 -0.001809 0.000000 0.019186
#
#
# Mechanical properties :
#
#
# Convention : Reuss Voigt Hill
#
# Bulk Modulus (GPa) = 21.86623 54.93177 38.39900
# Shear Modulus (GPa) = 29.45390 45.41649 37.43520
#
# Velocity S-wave (km/s) = 3.32373 4.12726 3.74710
# Velocity P-wave (km/s) = 4.78862 6.58145 5.75527
#
# Compressibility (1/GPa) = 0.04573262
#
# Stress axis : x y z
#
# Youngs Moduli (GPa) = 20.52237 117.36808 92.95471
#
# Poissons Ratio (x) = 0.99239 -0.05722
# Poissons Ratio (y) = 0.17352 0.30643
# Poissons Ratio (z) = -0.01263 0.38692
#
# Static dielectric constant tensor:
#      x y z
#    x 5.000500 0.000000 -0.028720 
#    y 0.000000 6.461690 0.000000 
#    z -0.028720 0.000000 4.716330 
# 
# 
# High freq. dielectric constant tensor:
#      x y z
#    x 2.056740 0.000000 -0.008030 
#    y 0.000000 2.096150 0.000000 
#    z -0.008030 0.000000 2.079310 
# 
# From -- ./inp_files/7228.got.cif
#   From: 2010.03.12/outbox.cif.g09.slc.cpg/sg14_4_cif.got.tgz:7228.got - 2010.03.31 13:35:05.
