data_PCOD8128993
_publ_section_title
;
Structure prediction by ZEFSAII (Michael W. Deem and Ramdas Pophale) SiO2 
 PCOD8128993
Probable space group: P 21/C
;
_chemical_formula_sum "Si O2"
_cell_formula_units_Z 24
_cell_length_a 9.101120
_cell_length_b 13.647007
_cell_length_c 17.822434
_cell_angle_alpha 90.000000
_cell_angle_beta 31.198288
_cell_angle_gamma 90.000000
_cell_volume 1146.648339
_symmetry_space_group_name_H-M "P 21/C"
_symmetry_group_IT_number 14
_symmetry_cell_setting 'monoclinic'
loop_
_space_group_symop_operation_xyz
x,y,z
-x,1/2+y,1/2-z
-x,-y,-z
x,1/2-y,1/2+z
loop_
_atom_site_type_symbol
_atom_site_label
_atom_site_fract_x
_atom_site_fract_y
_atom_site_fract_z
Si Si1 0.552317 0.134494 0.623387
Si Si2 0.011619 0.964812 0.160414
Si Si3 0.009333 0.979121 0.664833
Si Si4 0.246612 0.832903 0.300191
Si Si5 0.447674 0.334557 0.587098
Si Si6 0.801307 0.829583 0.963911
O O1 0.712285 0.138086 0.631852
O O2 0.542907 0.241928 0.592700
O O3 0.718616 0.062211 0.496047
O O4 0.235781 0.093232 0.774152
O O5 0.899308 0.001961 0.289580
O O6 0.108735 0.056885 0.068168
O O7 0.277979 0.894598 0.058651
O O8 0.751388 0.901660 0.773670
O O9 0.918225 0.080058 0.667606
O O10 0.064022 0.734755 0.375418
O O11 0.543881 0.808798 0.131941
O O12 0.282760 0.301164 0.584407
#
# Coordination Sequence:
#
# PCOD8128993 Si02
#       6
#     4   4   4   4   4   4
#     4  12  28  39  72 103 140 173 224 283 339 403
#     4  11  23  47  72  99 129 185 228 277 332 399
#     4  11  23  47  67  99 135 177 233 275 331 400
#     4  12  27  45  66 102 140 181 221 282 342 397
#     4  11  23  46  71  98 134 182 229 279 326 404
#     4  11  26  45  71  96 137 180 230 274 336 403
#
# _framework density 20.930567
#
# number of rings (size 3 to 8) (size 9 to 14) (size 15 to 20)
#    0.000    0.667    3.333    4.000   11.667    2.000 
#    0.000    0.000    0.000    0.000    0.000    0.000 
#    0.000    0.000    0.000    0.000    0.000    0.000 
#
# Total GULP energy -297808.744305 kJ/mol
# GULP energy per Si atom -12408.697679 kJ/mol
# Density = 2.088293 g / cm^3
# Si number density = 20.930567 Si / 1000 Ang^3
#
#
#
# Elastic Constant Matrix: (Units=GPa)
#
#
# Indices 1 2 3 4 5 6 
#
# 1 9.9285 37.1345 -23.8368 0.0000 -56.7710 0.0000
# 2 37.1345 102.3595 46.6695 0.0000 -2.7872 0.0000
# 3 -23.8368 46.6695 56.6163 0.0000 -46.5892 0.0000
# 4 0.0000 0.0000 0.0000 41.5591 0.0000 -17.2070
# 5 -56.7710 -2.7872 -46.5892 0.0000 -4.9453 0.0000
# 6 0.0000 0.0000 0.0000 -17.2070 0.0000 13.9264
#
#
#
# Elastic Compliance Matrix: (Units=1/GPa)
#
#
# Indices 1 2 3 4 5 6 
#
# 1 0.007446 0.000485 -0.007750 0.000000 -0.012741 0.000000
# 2 0.000485 0.010762 -0.002084 0.000000 0.007999 0.000000
# 3 -0.007750 -0.002084 0.010316 0.000000 -0.007050 0.000000
# 4 0.000000 0.000000 0.000000 0.049264 0.000000 0.060869
# 5 -0.012741 0.007999 -0.007050 0.000000 0.005964 0.000000
# 6 0.000000 0.000000 0.000000 0.060869 0.000000 0.147014
#
#
# Mechanical properties :
#
#
# Convention : Reuss Voigt Hill
#
# Bulk Modulus (GPa) = 101.76563 32.09319 66.92941
# Shear Modulus (GPa) = 19.78330 17.37051 18.57690
#
# Velocity S-wave (km/s) = 3.07772 2.88394 2.98241
# Velocity P-wave (km/s) = 7.83301 5.14354 6.62616
#
# Compressibility (1/GPa) = 0.00982650
#
# Stress axis : x y z
#
# Youngs Moduli (GPa) = 134.30276 92.92374 96.93326
#
# Poissons Ratio (x) = -0.04509 0.75120
# Poissons Ratio (y) = -0.06516 0.20202
# Poissons Ratio (z) = 1.04081 0.19366
#
# Static dielectric constant tensor:
#      x y z
#    x 3.673130 0.000000 -0.042880 
#    y 0.000000 4.296640 0.000000 
#    z -0.042880 0.000000 4.088210 
# 
# 
# High freq. dielectric constant tensor:
#      x y z
#    x 1.815760 0.000000 -0.004950 
#    y 0.000000 1.833880 0.000000 
#    z -0.004950 0.000000 1.832560 
# 
# From -- ./inp_files/8457.got.cif
#   From: 2010.03.12/outbox.cif.g09.slc.cpg/sg14_5_cif.got.tgz:8457.got - 2010.03.31 13:35:05.
