data_PCOD8128038
_publ_section_title
;
Structure prediction by ZEFSAII (Michael W. Deem and Ramdas Pophale) SiO2 
 PCOD8128038
Probable space group: P 21/C
;
_chemical_formula_sum "Si O2"
_cell_formula_units_Z 28
_cell_length_a 9.118300
_cell_length_b 12.858166
_cell_length_c 14.362874
_cell_angle_alpha 90.000000
_cell_angle_beta 137.870985
_cell_angle_gamma 90.000000
_cell_volume 1129.610661
_symmetry_space_group_name_H-M "P 21/C"
_symmetry_group_IT_number 14
_symmetry_cell_setting 'monoclinic'
loop_
_space_group_symop_operation_xyz
x,y,z
-x,1/2+y,1/2-z
-x,-y,-z
x,1/2-y,1/2+z
loop_
_atom_site_type_symbol
_atom_site_label
_atom_site_fract_x
_atom_site_fract_y
_atom_site_fract_z
Si Si1 0.761048 0.100470 0.566975
Si Si2 0.176523 0.383565 0.976991
Si Si3 0.276280 0.405301 0.645815
Si Si4 0.700363 0.170425 0.250898
Si Si5 0.121309 0.894976 0.167462
Si Si6 0.833635 0.694070 0.830036
Si Si7 0.579533 0.739319 0.541573
O O1 0.879381 0.096654 0.722040
O O2 0.534462 0.162159 0.462393
O O3 0.919009 0.156495 0.567400
O O4 0.701894 0.985198 0.503478
O O5 0.236072 0.283259 0.942259
O O6 0.914839 0.402593 0.849942
O O7 0.260450 0.359112 0.120836
O O8 0.527551 0.376985 0.742009
O O9 0.273397 0.515820 0.695232
O O10 0.167307 0.319051 0.661606
O O11 0.129680 0.408429 0.482921
O O12 0.774823 0.285799 0.317641
O O13 0.598755 0.173052 0.099280
O O14 0.685406 0.665538 0.670280
#
# Coordination Sequence:
#
# PCOD8128038 Si02
#       7
#     4   4   4   4   4   4   4
#     4  11  26  46  73 104 146 190 236 302 362 422
#     4  12  25  47  72 108 148 185 248 299 353 436
#     4  11  23  43  72 105 145 193 240 294 362 429
#     4  11  22  45  72 104 145 188 240 302 354 424
#     4  10  23  45  70 102 147 189 240 297 361 427
#     4  12  25  44  71 105 142 187 243 294 354 430
#     4  11  24  46  73 100 147 194 238 293 370 423
#
# _framework density 24.787302
#
# number of rings (size 3 to 8) (size 9 to 14) (size 15 to 20)
#    0.000    0.857    2.857    4.286    2.000    2.286 
#    0.000    4.286    0.000    0.000    0.000    0.000 
#    0.000    0.000    0.000    0.000    0.000    0.000 
#
# Total GULP energy -347399.457439 kJ/mol
# GULP energy per Si atom -12407.123480 kJ/mol
# Density = 2.473089 g / cm^3
# Si number density = 24.787302 Si / 1000 Ang^3
#
#
#
# Elastic Constant Matrix: (Units=GPa)
#
#
# Indices 1 2 3 4 5 6 
#
# 1 103.5015 19.3573 24.8456 0.0000 -2.4987 0.0000
# 2 19.3573 59.3272 -7.5358 0.0000 1.8413 0.0000
# 3 24.8456 -7.5358 90.0921 0.0000 2.8188 0.0000
# 4 0.0000 0.0000 0.0000 25.9687 0.0000 3.2113
# 5 -2.4987 1.8413 2.8188 0.0000 38.4537 0.0000
# 6 0.0000 0.0000 0.0000 3.2113 0.0000 42.6856
#
#
#
# Elastic Compliance Matrix: (Units=1/GPa)
#
#
# Indices 1 2 3 4 5 6 
#
# 1 0.011313 -0.004173 -0.003506 0.000000 0.001192 0.000000
# 2 -0.004173 0.018609 0.002750 0.000000 -0.001364 0.000000
# 3 -0.003506 0.002750 0.012336 0.000000 -0.001264 0.000000
# 4 0.000000 0.000000 0.000000 0.038870 0.000000 -0.002924
# 5 0.001192 -0.001364 -0.001264 0.000000 0.026241 0.000000
# 6 0.000000 0.000000 0.000000 -0.002924 0.000000 0.023647
#
#
# Mechanical properties :
#
#
# Convention : Reuss Voigt Hill
#
# Bulk Modulus (GPa) = 30.86506 36.25055 33.55780
# Shear Modulus (GPa) = 32.96545 35.83851 34.40198
#
# Velocity S-wave (km/s) = 3.65078 3.80655 3.72948
# Velocity P-wave (km/s) = 5.49999 5.82890 5.66684
#
# Compressibility (1/GPa) = 0.03239910
#
# Stress axis : x y z
#
# Youngs Moduli (GPa) = 88.39646 53.73731 81.06173
#
# Poissons Ratio (x) = 0.22427 0.28422
# Poissons Ratio (y) = 0.36892 -0.22294
# Poissons Ratio (z) = 0.30994 -0.14779
#
# Static dielectric constant tensor:
#      x y z
#    x 4.373960 0.000000 -0.081980 
#    y 0.000000 4.337950 0.000000 
#    z -0.081980 0.000000 4.611670 
# 
# 
# High freq. dielectric constant tensor:
#      x y z
#    x 1.987360 0.000000 -0.004670 
#    y 0.000000 1.972350 0.000000 
#    z -0.004670 0.000000 2.003690 
# 
# From -- ./inp_files/41440.got.cif
#   From: 2010.03.12/outbox.cif.g09.slc.cpg/sg14_21_cif.got.tgz:41440.got - 2010.03.31 13:35:05.
