data_PCOD8128495
_publ_section_title
;
Structure prediction by ZEFSAII (Michael W. Deem and Ramdas Pophale) SiO2 
 PCOD8128495
Probable space group: P 21/C
;
_chemical_formula_sum "Si O2"
_cell_formula_units_Z 24
_cell_length_a 27.550320
_cell_length_b 6.248557
_cell_length_c 19.158958
_cell_angle_alpha 90.000000
_cell_angle_beta 160.411935
_cell_angle_gamma 90.000000
_cell_volume 1105.742383
_symmetry_space_group_name_H-M "P 21/C"
_symmetry_group_IT_number 14
_symmetry_cell_setting 'monoclinic'
loop_
_space_group_symop_operation_xyz
x,y,z
-x,1/2+y,1/2-z
-x,-y,-z
x,1/2-y,1/2+z
loop_
_atom_site_type_symbol
_atom_site_label
_atom_site_fract_x
_atom_site_fract_y
_atom_site_fract_z
Si Si1 0.348915 0.095844 0.197058
Si Si2 0.628083 0.348895 0.579817
Si Si3 0.163551 0.776320 0.021976
Si Si4 0.691027 0.091321 0.534566
Si Si5 0.140499 0.043164 0.362458
Si Si6 0.522045 0.740986 0.361708
O O1 0.500144 0.189104 0.431277
O O2 0.245963 0.999748 0.117739
O O3 0.389173 0.896678 0.202207
O O4 0.267019 0.282993 0.044449
O O5 0.746397 0.363254 0.800807
O O6 0.558364 0.582033 0.474632
O O7 0.706663 0.275978 0.614031
O O8 0.135835 0.630846 0.917210
O O9 0.011179 0.836796 0.849961
O O10 0.827577 0.080619 0.667226
O O11 0.671152 0.864788 0.547194
O O12 0.537742 0.114379 0.286238
#
# Coordination Sequence:
#
# PCOD8128495 Si02
#       6
#     4   4   4   4   4   4
#     4  11  22  42  69  99 126 174 220 276 324 391
#     4  11  25  41  69 104 134 166 225 283 324 389
#     4  12  26  45  66  98 134 181 222 270 332 398
#     4  11  21  39  67  99 132 174 218 269 331 390
#     4  12  25  44  70  92 136 183 224 263 337 402
#     4  11  20  39  67  98 129 169 220 271 332 384
#
# _framework density 21.704872999999999
#
# number of rings (size 3 to 8) (size 9 to 14) (size 15 to 20)
#    0.000    0.667    6.667    1.500    0.000    6.000 
#    0.000    0.833    0.000    0.000    0.000    0.000 
#    0.000    0.000    0.000    0.000    0.000    0.000 
#
# Total GULP energy -297630.712020 kJ/mol
# GULP energy per Si atom -12401.279668 kJ/mol
# Density = 2.165547 g / cm^3
# Si number density = 21.704873 Si / 1000 Ang^3
#
#
#
# Elastic Constant Matrix: (Units=GPa)
#
#
# Indices 1 2 3 4 5 6 
#
# 1 80.2734 13.9341 26.8535 0.0000 27.0286 0.0000
# 2 13.9341 75.7993 14.4558 0.0000 15.8968 0.0000
# 3 26.8535 14.4558 84.4202 0.0000 14.9495 0.0000
# 4 0.0000 0.0000 0.0000 22.0826 0.0000 3.6262
# 5 27.0286 15.8968 14.9495 0.0000 29.5628 0.0000
# 6 0.0000 0.0000 0.0000 3.6262 0.0000 34.8504
#
#
#
# Elastic Compliance Matrix: (Units=1/GPa)
#
#
# Indices 1 2 3 4 5 6 
#
# 1 0.018777 0.000479 -0.003261 0.000000 -0.015776 0.000000
# 2 0.000479 0.015001 -0.001335 0.000000 -0.007829 0.000000
# 3 -0.003261 -0.001335 0.013681 0.000000 -0.003219 0.000000
# 4 0.000000 0.000000 0.000000 0.046072 0.000000 -0.004794
# 5 -0.015776 -0.007829 -0.003219 0.000000 0.054088 0.000000
# 6 0.000000 0.000000 0.000000 -0.004794 0.000000 0.029193
#
#
# Mechanical properties :
#
#
# Convention : Reuss Voigt Hill
#
# Bulk Modulus (GPa) = 25.49349 38.99774 32.24561
# Shear Modulus (GPa) = 25.23706 29.64915 27.44310
#
# Velocity S-wave (km/s) = 3.41359 3.69997 3.55966
# Velocity P-wave (km/s) = 5.22569 6.02157 5.63769
#
# Compressibility (1/GPa) = 0.03922571
#
# Stress axis : x y z
#
# Youngs Moduli (GPa) = 53.25642 66.66117 73.09148
#
# Poissons Ratio (x) = -0.03191 0.23837
# Poissons Ratio (y) = -0.02549 0.09754
# Poissons Ratio (z) = 0.17368 0.08896
#
# Static dielectric constant tensor:
#      x y z
#    x 3.904270 0.000000 0.189390 
#    y 0.000000 4.059330 0.000000 
#    z 0.189390 0.000000 3.636900 
# 
# 
# High freq. dielectric constant tensor:
#      x y z
#    x 1.853670 0.000000 0.011740 
#    y 0.000000 1.865250 0.000000 
#    z 0.011740 0.000000 1.822590 
# 
# From -- ./inp_files/67916.got.cif
#   From: 2010.03.12/outbox.cif.g09.slc.cpg/sg14_34_cif.got.tgz:67916.got - 2010.03.31 13:35:05.
