data_PCOD8128309
_publ_section_title
;
Structure prediction by ZEFSAII (Michael W. Deem and Ramdas Pophale) SiO2 
 PCOD8128309
Probable space group: P 21/C
;
_chemical_formula_sum "Si O2"
_cell_formula_units_Z 20
_cell_length_a 4.926637
_cell_length_b 16.926588
_cell_length_c 12.123929
_cell_angle_alpha 90.000000
_cell_angle_beta 55.506633
_cell_angle_gamma 90.000000
_cell_volume 833.281303
_symmetry_space_group_name_H-M "P 21/C"
_symmetry_group_IT_number 14
_symmetry_cell_setting 'monoclinic'
loop_
_space_group_symop_operation_xyz
x,y,z
-x,1/2+y,1/2-z
-x,-y,-z
x,1/2-y,1/2+z
loop_
_atom_site_type_symbol
_atom_site_label
_atom_site_fract_x
_atom_site_fract_y
_atom_site_fract_z
Si Si1 0.818515 0.392512 0.974041
Si Si2 0.550089 0.802476 0.616823
Si Si3 0.445235 0.871535 0.054076
Si Si4 0.706795 0.478492 0.218365
Si Si5 0.181127 0.608311 0.378789
O O1 0.518432 0.359605 0.971176
O O2 0.081057 0.321845 0.928832
O O3 0.978351 0.465234 0.869940
O O4 0.665028 0.420950 0.123747
O O5 0.517784 0.712238 0.592344
O O6 0.292294 0.819900 0.774221
O O7 0.241515 0.925877 0.185006
O O8 0.233492 0.863698 0.992325
O O9 0.798281 0.911014 0.944856
O O10 0.374557 0.528900 0.305240
#
# Coordination Sequence:
#
# PCOD8128309 Si02
#       5
#     4   4   4   4   4
#     4  10  24  46  70  97 136 179 226 268 326 405
#     4  11  25  44  67  98 138 175 222 277 333 398
#     4  12  26  40  72  97 139 173 222 276 342 389
#     4  10  24  45  72 100 133 181 224 274 332 395
#     4  11  25  45  65 101 135 172 226 279 328 399
#
# _framework density 24.001498000000002
#
# number of rings (size 3 to 8) (size 9 to 14) (size 15 to 20)
#    0.000    1.200    0.000    4.800    5.600   13.600 
#    0.000    0.000    0.000    0.000    0.000    0.000 
#    0.000    0.000    0.000    0.000    0.000    0.000 
#
# Total GULP energy -248181.744618 kJ/mol
# GULP energy per Si atom -12409.087231 kJ/mol
# Density = 2.394687 g / cm^3
# Si number density = 24.001498 Si / 1000 Ang^3
#
#
#
# Elastic Constant Matrix: (Units=GPa)
#
#
# Indices 1 2 3 4 5 6 
#
# 1 63.5038 -6.3206 8.9450 0.0000 14.0775 0.0000
# 2 -6.3206 75.8720 26.0171 0.0000 3.9436 0.0000
# 3 8.9450 26.0171 105.6220 0.0000 9.5156 0.0000
# 4 0.0000 0.0000 0.0000 31.2357 0.0000 4.0848
# 5 14.0775 3.9436 9.5156 0.0000 24.0868 0.0000
# 6 0.0000 0.0000 0.0000 4.0848 0.0000 18.1008
#
#
#
# Elastic Compliance Matrix: (Units=1/GPa)
#
#
# Indices 1 2 3 4 5 6 
#
# 1 0.018560 0.002526 -0.001223 0.000000 -0.010778 0.000000
# 2 0.002526 0.014763 -0.003629 0.000000 -0.002460 0.000000
# 3 -0.001223 -0.003629 0.010729 0.000000 -0.002930 0.000000
# 4 0.000000 0.000000 0.000000 0.032988 0.000000 -0.007444
# 5 -0.010778 -0.002460 -0.002930 0.000000 0.049376 0.000000
# 6 0.000000 0.000000 0.000000 -0.007444 0.000000 0.056926
#
#
# Mechanical properties :
#
#
# Convention : Reuss Voigt Hill
#
# Bulk Modulus (GPa) = 25.38088 33.58676 29.48382
# Shear Modulus (GPa) = 24.85995 29.10842 26.98419
#
# Velocity S-wave (km/s) = 3.22182 3.48627 3.35665
# Velocity P-wave (km/s) = 4.94347 5.49813 5.22816
#
# Compressibility (1/GPa) = 0.03939974
#
# Stress axis : x y z
#
# Youngs Moduli (GPa) = 53.87945 67.73859 93.20484
#
# Poissons Ratio (x) = -0.17109 0.11399
# Poissons Ratio (y) = -0.13608 0.33821
# Poissons Ratio (z) = 0.06589 0.24580
#
# Static dielectric constant tensor:
#      x y z
#    x 4.143450 0.000000 0.103620 
#    y 0.000000 4.246050 0.000000 
#    z 0.103620 0.000000 4.607030 
# 
# 
# High freq. dielectric constant tensor:
#      x y z
#    x 1.949840 0.000000 0.011500 
#    y 0.000000 1.954810 0.000000 
#    z 0.011500 0.000000 1.964600 
# 
# From -- ./inp_files/21131.got.cif
#   From: 2010.03.12/outbox.cif.g09.slc.cpg/sg14_11_cif.got.tgz:21131.got - 2010.03.31 13:35:05.
