data_PCOD8128958
_publ_section_title
;
Structure prediction by ZEFSAII (Michael W. Deem and Ramdas Pophale) SiO2 
 PCOD8128958
Probable space group: P 21/C
;
_chemical_formula_sum "Si O2"
_cell_formula_units_Z 28
_cell_length_a 8.712582
_cell_length_b 24.005764
_cell_length_c 7.949680
_cell_angle_alpha 90.000000
_cell_angle_beta 46.644967
_cell_angle_gamma 90.000000
_cell_volume 1208.966812
_symmetry_space_group_name_H-M "P 21/C"
_symmetry_group_IT_number 14
_symmetry_cell_setting 'monoclinic'
loop_
_space_group_symop_operation_xyz
x,y,z
-x,1/2+y,1/2-z
-x,-y,-z
x,1/2-y,1/2+z
loop_
_atom_site_type_symbol
_atom_site_label
_atom_site_fract_x
_atom_site_fract_y
_atom_site_fract_z
Si Si1 0.061593 0.302293 0.370699
Si Si2 0.787098 0.272543 0.293202
Si Si3 0.189233 0.949516 0.174263
Si Si4 0.481401 0.131980 0.933880
Si Si5 0.085092 0.071345 0.306035
Si Si6 0.476805 0.830906 0.455273
Si Si7 0.147191 0.902653 0.845226
O O1 0.922350 0.313195 0.309855
O O2 0.961675 0.245914 0.523721
O O3 0.034201 0.355759 0.508785
O O4 0.310869 0.299233 0.142481
O O5 0.583000 0.307466 0.390084
O O6 0.694140 0.217620 0.454939
O O7 0.011691 0.925100 0.434386
O O8 0.402639 0.917964 0.058691
O O9 0.132036 0.942538 0.019070
O O10 0.220605 0.014919 0.183899
O O11 0.237581 0.125307 0.174188
O O12 0.488650 0.127915 0.727084
O O13 0.902978 0.068482 0.297189
O O14 0.377483 0.871876 0.671978
#
# Coordination Sequence:
#
# PCOD8128958 Si02
#       7
#     4   4   4   4   4   4   4
#     4  11  24  42  65 100 138 181 224 280 352 410
#     4  11  25  42  66 101 138 178 232 281 341 429
#     4  11  25  46  70 105 138 186 239 284 352 422
#     4  12  23  45  68 101 142 185 228 293 347 411
#     4  11  25  46  74 100 145 183 232 297 351 406
#     4  11  25  42  68 101 139 181 229 282 347 417
#     4  11  23  45  69 101 140 180 230 287 343 415
#
# _framework density 23.160271999999999
#
# number of rings (size 3 to 8) (size 9 to 14) (size 15 to 20)
#    0.000    0.857    5.714    0.857    2.000    2.286 
#    0.000    0.714    0.000    0.000    0.000    0.000 
#    0.000    0.000    0.000    0.000    0.000    0.000 
#
# Total GULP energy -346921.104296 kJ/mol
# GULP energy per Si atom -12390.039439 kJ/mol
# Density = 2.310756 g / cm^3
# Si number density = 23.160272 Si / 1000 Ang^3
#
#
#
# Elastic Constant Matrix: (Units=GPa)
#
#
# Indices 1 2 3 4 5 6 
#
# 1 99.1100 18.3312 47.5432 0.0000 -0.1546 0.0000
# 2 18.3312 59.8725 32.7190 0.0000 -0.3897 0.0000
# 3 47.5432 32.7190 113.4133 0.0000 -5.5328 0.0000
# 4 0.0000 0.0000 0.0000 39.6041 0.0000 -3.8453
# 5 -0.1546 -0.3897 -5.5328 0.0000 34.5050 0.0000
# 6 0.0000 0.0000 0.0000 -3.8453 0.0000 33.4614
#
#
#
# Elastic Compliance Matrix: (Units=1/GPa)
#
#
# Indices 1 2 3 4 5 6 
#
# 1 0.012717 -0.001146 -0.005038 0.000000 -0.000764 0.000000
# 2 -0.001146 0.019948 -0.005305 0.000000 -0.000631 0.000000
# 3 -0.005038 -0.005305 0.012554 0.000000 0.001931 0.000000
# 4 0.000000 0.000000 0.000000 0.025535 0.000000 0.002934
# 5 -0.000764 -0.000631 0.001931 0.000000 0.029280 0.000000
# 6 0.000000 0.000000 0.000000 0.002934 0.000000 0.030222
#
#
# Mechanical properties :
#
#
# Convention : Reuss Voigt Hill
#
# Bulk Modulus (GPa) = 44.96088 52.17585 48.56836
# Shear Modulus (GPa) = 31.12392 33.10095 32.11243
#
# Velocity S-wave (km/s) = 3.66983 3.78459 3.72765
# Velocity P-wave (km/s) = 6.11653 6.45559 6.28835
#
# Compressibility (1/GPa) = 0.02224156
#
# Stress axis : x y z
#
# Youngs Moduli (GPa) = 78.63407 50.13009 79.65618
#
# Poissons Ratio (x) = 0.05742 0.40130
# Poissons Ratio (y) = 0.09008 0.42261
# Poissons Ratio (z) = 0.39615 0.26596
#
# Static dielectric constant tensor:
#      x y z
#    x 3.954470 0.000000 0.066790 
#    y 0.000000 3.954400 0.000000 
#    z 0.066790 0.000000 4.204040 
# 
# 
# High freq. dielectric constant tensor:
#      x y z
#    x 1.908600 0.000000 0.001810 
#    y 0.000000 1.905110 0.000000 
#    z 0.001810 0.000000 1.919070 
# 
# From -- ./inp_files/11002.got.cif
#   From: 2010.03.12/outbox.cif.g09.slc.cpg/sg14_6_cif.got.tgz:11002.got - 2010.03.31 13:35:05.
