data_PCOD8128343
_publ_section_title
;
Structure prediction by ZEFSAII (Michael W. Deem and Ramdas Pophale) SiO2 
 PCOD8128343
Probable space group: P 21/C
;
_chemical_formula_sum "Si O2"
_cell_formula_units_Z 16
_cell_length_a 15.973946
_cell_length_b 5.162618
_cell_length_c 8.802571
_cell_angle_alpha 90.000000
_cell_angle_beta 123.071135
_cell_angle_gamma 90.000000
_cell_volume 608.320580
_symmetry_space_group_name_H-M "P 21/C"
_symmetry_group_IT_number 14
_symmetry_cell_setting 'monoclinic'
loop_
_space_group_symop_operation_xyz
x,y,z
-x,1/2+y,1/2-z
-x,-y,-z
x,1/2-y,1/2+z
loop_
_atom_site_type_symbol
_atom_site_label
_atom_site_fract_x
_atom_site_fract_y
_atom_site_fract_z
Si Si1 0.168663 0.544741 0.942055
Si Si2 0.302464 0.692289 0.814595
Si Si3 0.565131 0.030267 0.819426
Si Si4 0.007106 0.251020 0.405445
O O1 0.251390 0.508321 0.891608
O O2 0.114334 0.269429 0.923239
O O3 0.081774 0.747362 0.806198
O O4 0.217252 0.648165 0.144498
O O5 0.362487 0.514425 0.755292
O O6 0.375864 0.896000 0.969507
O O7 0.480757 0.246491 0.702470
O O8 0.000000 0.500000 0.500000
O O9 0.000000 0.000000 0.500000
#
# Coordination Sequence:
#
# PCOD8128343 Si02
#       4
#     4   4   4   4
#     4  11  24  50  75 116 156 206 268 317 390 451
#     4  10  24  47  78 117 149 206 260 328 377 479
#     4  11  24  50  75 111 155 199 251 321 409 468
#     4  12  26  49  75 108 158 209 254 319 388 452
#
# _framework density 26.301922999999999
#
# number of rings (size 3 to 8) (size 9 to 14) (size 15 to 20)
#    0.000    1.000    2.500    3.000    0.000    0.000 
#   18.000    0.000    0.000    0.000    0.000    0.000 
#    0.000    0.000    0.000    0.000    0.000    0.000 
#
# Total GULP energy -198425.656693 kJ/mol
# GULP energy per Si atom -12401.603543 kJ/mol
# Density = 2.624206 g / cm^3
# Si number density = 26.301923 Si / 1000 Ang^3
#
#
#
# Elastic Constant Matrix: (Units=GPa)
#
#
# Indices 1 2 3 4 5 6 
#
# 1 128.7412 29.2790 19.1611 0.0000 -5.8735 0.0000
# 2 29.2790 100.0024 14.8038 0.0000 -6.9007 0.0000
# 3 19.1611 14.8038 163.6856 0.0000 11.9766 0.0000
# 4 0.0000 0.0000 0.0000 23.9193 0.0000 -15.5020
# 5 -5.8735 -6.9007 11.9766 0.0000 50.9006 0.0000
# 6 0.0000 0.0000 0.0000 -15.5020 0.0000 44.2457
#
#
#
# Elastic Compliance Matrix: (Units=1/GPa)
#
#
# Indices 1 2 3 4 5 6 
#
# 1 0.008454 -0.002290 -0.000846 0.000000 0.000864 0.000000
# 2 -0.002290 0.010889 -0.000819 0.000000 0.001405 0.000000
# 3 -0.000846 -0.000819 0.006408 0.000000 -0.001716 0.000000
# 4 0.000000 0.000000 0.000000 0.054089 0.000000 0.018951
# 5 0.000864 0.001405 -0.001716 0.000000 0.020340 0.000000
# 6 0.000000 0.000000 0.000000 0.018951 0.000000 0.029241
#
#
# Mechanical properties :
#
#
# Convention : Reuss Voigt Hill
#
# Bulk Modulus (GPa) = 56.05573 57.65745 56.85659
# Shear Modulus (GPa) = 34.89736 45.75881 40.32809
#
# Velocity S-wave (km/s) = 3.64648 4.17556 3.91995
# Velocity P-wave (km/s) = 6.25202 6.72429 6.49245
#
# Compressibility (1/GPa) = 0.01783939
#
# Stress axis : x y z
#
# Youngs Moduli (GPa) = 118.29180 91.83958 156.05578
#
# Poissons Ratio (x) = 0.21034 0.13197
# Poissons Ratio (y) = 0.27092 0.12788
# Poissons Ratio (z) = 0.10004 0.07526
#
# Static dielectric constant tensor:
#      x y z
#    x 5.313000 0.000000 -0.133360 
#    y 0.000000 4.323420 0.000000 
#    z -0.133360 0.000000 5.344890 
# 
# 
# High freq. dielectric constant tensor:
#      x y z
#    x 2.078750 0.000000 -0.006170 
#    y 0.000000 2.025280 0.000000 
#    z -0.006170 0.000000 2.082360 
# 
# From -- ./inp_files/17304.got.cif
#   From: 2010.03.12/outbox.cif.g09.slc.cpg/sg14_9_cif.got.tgz:17304.got - 2010.03.31 13:35:05.
