data_PCOD8128192
_publ_section_title
;
Structure prediction by ZEFSAII (Michael W. Deem and Ramdas Pophale) SiO2 
 PCOD8128192
Probable space group: P 21/C
;
_chemical_formula_sum "Si O2"
_cell_formula_units_Z 20
_cell_length_a 13.841992
_cell_length_b 5.011989
_cell_length_c 12.218482
_cell_angle_alpha 90.000000
_cell_angle_beta 88.927451
_cell_angle_gamma 90.000000
_cell_volume 847.519812
_symmetry_space_group_name_H-M "P 21/C"
_symmetry_group_IT_number 14
_symmetry_cell_setting 'monoclinic'
loop_
_space_group_symop_operation_xyz
x,y,z
-x,1/2+y,1/2-z
-x,-y,-z
x,1/2-y,1/2+z
loop_
_atom_site_type_symbol
_atom_site_label
_atom_site_fract_x
_atom_site_fract_y
_atom_site_fract_z
Si Si1 0.150567 0.946065 0.496544
Si Si2 0.441654 0.022211 0.777525
Si Si3 0.684968 0.791543 0.396894
Si Si4 0.993133 0.848663 0.673539
Si Si5 0.653764 0.215892 0.014423
O O1 0.232113 0.735930 0.452680
O O2 0.072995 0.803607 0.577069
O O3 0.202430 0.170657 0.573103
O O4 0.104949 0.074537 0.388440
O O5 0.505987 0.287541 0.791845
O O6 0.340213 0.115750 0.725304
O O7 0.417531 0.895061 0.893997
O O8 0.649763 0.489674 0.412313
O O9 0.621024 0.989363 0.476978
O O10 0.977856 0.574676 0.739287
#
# Coordination Sequence:
#
# PCOD8128192 Si02
#       5
#     4   4   4   4   4
#     4   9  26  44  68 101 133 178 226 261 345 396
#     4  12  26  43  67 102 133 175 231 276 337 392
#     4  10  24  42  69  94 133 177 220 273 331 398
#     4  11  26  42  71 100 140 173 219 280 328 402
#     4  10  24  44  67  93 134 174 222 272 329 399
#
# _framework density 23.598269999999999
#
# number of rings (size 3 to 8) (size 9 to 14) (size 15 to 20)
#    1.200    0.400    0.000    2.400    8.400    6.400 
#    0.000    0.000    0.000    0.000    0.000    0.000 
#    0.000    0.000    0.000    0.000    0.000    0.000 
#
# Total GULP energy -247760.996964 kJ/mol
# GULP energy per Si atom -12388.049848 kJ/mol
# Density = 2.354456 g / cm^3
# Si number density = 23.598270 Si / 1000 Ang^3
#
#
#
# Elastic Constant Matrix: (Units=GPa)
#
#
# Indices 1 2 3 4 5 6 
#
# 1 55.1423 12.2871 3.5912 0.0000 3.2764 0.0000
# 2 12.2871 85.1025 -14.5664 0.0000 7.6603 0.0000
# 3 3.5912 -14.5664 39.8398 0.0000 13.0556 0.0000
# 4 0.0000 0.0000 0.0000 37.3678 0.0000 3.4932
# 5 3.2764 7.6603 13.0556 0.0000 36.4397 0.0000
# 6 0.0000 0.0000 0.0000 3.4932 0.0000 19.4676
#
#
#
# Elastic Compliance Matrix: (Units=1/GPa)
#
#
# Indices 1 2 3 4 5 6 
#
# 1 0.019048 -0.003249 -0.002909 0.000000 0.000013 0.000000
# 2 -0.003249 0.013893 0.007063 0.000000 -0.005159 0.000000
# 3 -0.002909 0.007063 0.032117 0.000000 -0.012730 0.000000
# 4 0.000000 0.000000 0.000000 0.027218 0.000000 -0.004884
# 5 0.000013 -0.005159 -0.012730 0.000000 0.033087 0.000000
# 6 0.000000 0.000000 0.000000 -0.004884 0.000000 0.052244
#
#
# Mechanical properties :
#
#
# Convention : Reuss Voigt Hill
#
# Bulk Modulus (GPa) = 14.95500 20.30090 17.62795
# Shear Modulus (GPa) = 25.24169 30.57319 27.90744
#
# Velocity S-wave (km/s) = 3.27409 3.60331 3.44263
# Velocity P-wave (km/s) = 4.54356 5.09246 4.82582
#
# Compressibility (1/GPa) = 0.06686727
#
# Stress axis : x y z
#
# Youngs Moduli (GPa) = 52.50009 71.97882 31.13622
#
# Poissons Ratio (x) = 0.23387 0.09058
# Poissons Ratio (y) = 0.17058 -0.21992
# Poissons Ratio (z) = 0.15273 -0.50840
#
# Static dielectric constant tensor:
#      x y z
#    x 4.158960 0.000000 0.246730 
#    y 0.000000 4.237280 0.000000 
#    z 0.246730 0.000000 3.960190 
# 
# 
# High freq. dielectric constant tensor:
#      x y z
#    x 1.927820 0.000000 0.018880 
#    y 0.000000 1.937400 0.000000 
#    z 0.018880 0.000000 1.925190 
# 
# From -- ./inp_files/31010.got.cif
#   From: 2010.03.12/outbox.cif.g09.slc.cpg/sg14_16_cif.got.tgz:31010.got - 2010.03.31 13:35:05.
