data_PCOD8128111
_publ_section_title
;
Structure prediction by ZEFSAII (Michael W. Deem and Ramdas Pophale) SiO2 
 PCOD8128111
Probable space group: P 21/C
;
_chemical_formula_sum "Si O2"
_cell_formula_units_Z 16
_cell_length_a 8.797203
_cell_length_b 5.119448
_cell_length_c 23.834862
_cell_angle_alpha 90.000000
_cell_angle_beta 42.459763
_cell_angle_gamma 90.000000
_cell_volume 724.653949
_symmetry_space_group_name_H-M "P 21/C"
_symmetry_group_IT_number 14
_symmetry_cell_setting 'monoclinic'
loop_
_space_group_symop_operation_xyz
x,y,z
-x,1/2+y,1/2-z
-x,-y,-z
x,1/2-y,1/2+z
loop_
_atom_site_type_symbol
_atom_site_label
_atom_site_fract_x
_atom_site_fract_y
_atom_site_fract_z
Si Si1 0.334716 0.581096 0.669922
Si Si2 0.985707 0.081672 0.169785
Si Si3 0.599728 0.749604 0.749985
Si Si4 0.394677 0.250745 0.999935
O O1 0.148256 0.499800 0.675826
O O2 0.442707 0.332772 0.673100
O O3 0.537087 0.740682 0.584420
O O4 0.218353 0.749425 0.750133
O O5 0.125587 0.240779 0.084171
O O6 0.864776 0.833476 0.173043
O O7 0.443668 0.499551 0.778212
O O8 0.500000 0.500000 0.000000
O O9 0.500000 0.000000 0.000000
#
# Coordination Sequence:
#
# PCOD8128111 Si02
#       4
#     4   4   4   4
#     4  11  22  42  73  99 134 177 231 279 342 398
#     4  11  22  42  73  99 134 177 231 279 342 398
#     4  12  26  42  66  98 138 186 224 274 340 408
#     4  10  24  38  66 109 136 163 228 295 332 395
#
# _framework density 22.079505000000001
#
# number of rings (size 3 to 8) (size 9 to 14) (size 15 to 20)
#    0.000    1.000    5.000    1.500    7.000    0.000 
#    0.000    2.500    0.000    0.000    0.000    0.000 
#    0.000    0.000    0.000    0.000    0.000    0.000 
#
# Total GULP energy -198239.206937 kJ/mol
# GULP energy per Si atom -12389.950434 kJ/mol
# Density = 2.202925 g / cm^3
# Si number density = 22.079505 Si / 1000 Ang^3
#
#
#
# Elastic Constant Matrix: (Units=GPa)
#
#
# Indices 1 2 3 4 5 6 
#
# 1 141.7079 64.5788 45.4280 0.0000 -1.2709 0.0000
# 2 64.5788 155.8966 71.2383 0.0000 -0.0512 0.0000
# 3 45.4280 71.2383 216.7883 0.0000 1.7602 0.0000
# 4 0.0000 0.0000 0.0000 33.2407 0.0000 -0.2037
# 5 -1.2709 -0.0512 1.7602 0.0000 1.4108 0.0000
# 6 0.0000 0.0000 0.0000 -0.2037 0.0000 48.9886
#
#
#
# Elastic Compliance Matrix: (Units=1/GPa)
#
#
# Indices 1 2 3 4 5 6 
#
# 1 0.008915 -0.003298 -0.000857 0.000000 0.008981 0.000000
# 2 -0.003298 0.008784 -0.002196 0.000000 0.000087 0.000000
# 3 -0.000857 -0.002196 0.005578 0.000000 -0.007811 0.000000
# 4 0.000000 0.000000 0.000000 0.030084 0.000000 0.000125
# 5 0.008981 0.000087 -0.007811 0.000000 0.726651 0.000000
# 6 0.000000 0.000000 0.000000 0.000125 0.000000 0.020413
#
#
# Mechanical properties :
#
#
# Convention : Reuss Voigt Hill
#
# Bulk Modulus (GPa) = 94.57497 97.43143 96.00320
# Shear Modulus (GPa) = 6.12254 38.93789 22.53022
#
# Velocity S-wave (km/s) = 1.66703 4.20400 3.19786
# Velocity P-wave (km/s) = 6.82877 8.23335 7.56374
#
# Compressibility (1/GPa) = 0.01057362
#
# Stress axis : x y z
#
# Youngs Moduli (GPa) = 112.16714 113.83787 179.29113
#
# Poissons Ratio (x) = 0.37548 0.15370
# Poissons Ratio (y) = 0.36997 0.39375
# Poissons Ratio (z) = 0.09615 0.25001
#
# Static dielectric constant tensor:
#      x y z
#    x 4.131220 0.000000 0.013690 
#    y 0.000000 4.227580 0.000000 
#    z 0.013690 0.000000 5.425860 
# 
# 
# High freq. dielectric constant tensor:
#      x y z
#    x 1.858370 0.000000 -0.000140 
#    y 0.000000 1.883180 0.000000 
#    z -0.000140 0.000000 1.855210 
# 
# From -- ./inp_files/45755.got.cif
#   From: 2010.03.12/outbox.cif.g09.slc.cpg/sg14_23_cif.got.tgz:45755.got - 2010.03.31 13:35:05.
