data_PCOD8128409
_publ_section_title
;
Structure prediction by ZEFSAII (Michael W. Deem and Ramdas Pophale) SiO2 
 PCOD8128409
Probable space group: P 21/C
;
_chemical_formula_sum "Si O2"
_cell_formula_units_Z 20
_cell_length_a 5.116495
_cell_length_b 10.024880
_cell_length_c 17.570161
_cell_angle_alpha 90.000000
_cell_angle_beta 78.077082
_cell_angle_gamma 90.000000
_cell_volume 881.770676
_symmetry_space_group_name_H-M "P 21/C"
_symmetry_group_IT_number 14
_symmetry_cell_setting 'monoclinic'
loop_
_space_group_symop_operation_xyz
x,y,z
-x,1/2+y,1/2-z
-x,-y,-z
x,1/2-y,1/2+z
loop_
_atom_site_type_symbol
_atom_site_label
_atom_site_fract_x
_atom_site_fract_y
_atom_site_fract_z
Si Si1 0.314108 0.004319 0.149209
Si Si2 0.281193 0.192432 0.620183
Si Si3 0.890714 0.597599 0.570277
Si Si4 0.789890 0.611737 0.032740
Si Si5 0.713085 0.447316 0.176717
O O1 0.271016 0.148772 0.114681
O O2 0.582917 0.934955 0.104513
O O3 0.308764 0.015138 0.240334
O O4 0.064399 0.915838 0.136693
O O5 0.394874 0.134328 0.531934
O O6 0.477079 0.158965 0.678093
O O7 0.990241 0.130281 0.651195
O O8 0.933361 0.747796 0.539433
O O9 0.000000 0.500000 0.500000
O O10 0.648095 0.564360 0.119001
O O11 0.000000 0.500000 0.000000
#
# Coordination Sequence:
#
# PCOD8128409 Si02
#       5
#     4   4   4   4   4
#     4  12  27  44  73 105 146 188 238 299 360 416
#     4  11  24  47  70 102 144 184 243 291 347 431
#     4  12  26  48  73 104 142 189 240 294 354 428
#     4  10  25  47  74 104 139 191 240 288 353 422
#     4  11  26  43  71 103 144 188 234 297 357 419
#
# _framework density 22.681632
#
# number of rings (size 3 to 8) (size 9 to 14) (size 15 to 20)
#    0.000    0.800    2.000    3.600    8.400    3.200 
#    0.000    0.000    0.000    0.000    0.000    0.000 
#    0.000    0.000    0.000    0.000    0.000    0.000 
#
# Total GULP energy -247980.879869 kJ/mol
# GULP energy per Si atom -12399.043993 kJ/mol
# Density = 2.263001 g / cm^3
# Si number density = 22.681632 Si / 1000 Ang^3
#
#
#
# Elastic Constant Matrix: (Units=GPa)
#
#
# Indices 1 2 3 4 5 6 
#
# 1 122.4576 26.5717 20.8876 0.0000 7.1119 0.0000
# 2 26.5717 130.8281 41.6959 0.0000 -9.9607 0.0000
# 3 20.8876 41.6959 122.9582 0.0000 18.7325 0.0000
# 4 0.0000 0.0000 0.0000 34.6129 0.0000 7.1284
# 5 7.1119 -9.9607 18.7325 0.0000 32.1193 0.0000
# 6 0.0000 0.0000 0.0000 7.1284 0.0000 24.3888
#
#
#
# Elastic Compliance Matrix: (Units=1/GPa)
#
#
# Indices 1 2 3 4 5 6 
#
# 1 0.008771 -0.001767 -0.000561 0.000000 -0.002163 0.000000
# 2 -0.001767 0.009650 -0.003828 0.000000 0.005616 0.000000
# 3 -0.000561 -0.003828 0.010633 0.000000 -0.007264 0.000000
# 4 0.000000 0.000000 0.000000 0.030741 0.000000 -0.008985
# 5 -0.002163 0.005616 -0.007264 0.000000 0.037591 0.000000
# 6 0.000000 0.000000 0.000000 -0.008985 0.000000 0.043629
#
#
# Mechanical properties :
#
#
# Convention : Reuss Voigt Hill
#
# Bulk Modulus (GPa) = 59.73223 61.61715 60.67469
# Shear Modulus (GPa) = 31.46474 37.36344 34.41409
#
# Velocity S-wave (km/s) = 3.72860 4.06310 3.89944
# Velocity P-wave (km/s) = 6.70290 7.01689 6.86169
#
# Compressibility (1/GPa) = 0.01674138
#
# Stress axis : x y z
#
# Youngs Moduli (GPa) = 114.01358 103.62563 94.04770
#
# Poissons Ratio (x) = 0.18313 0.05278
# Poissons Ratio (y) = 0.20149 0.36000
# Poissons Ratio (z) = 0.06398 0.39666
#
# Static dielectric constant tensor:
#      x y z
#    x 4.062940 0.000000 0.260740 
#    y 0.000000 4.264890 0.000000 
#    z 0.260740 0.000000 4.721580 
# 
# 
# High freq. dielectric constant tensor:
#      x y z
#    x 1.891800 0.000000 0.019970 
#    y 0.000000 1.906410 0.000000 
#    z 0.019970 0.000000 1.907890 
# 
# From -- ./inp_files/52646.got.cif
#   From: 2010.03.12/outbox.cif.g09.slc.cpg/sg14_27_cif.got.tgz:52646.got - 2010.03.31 13:35:05.
