data_PCOD8128678
_publ_section_title
;
Structure prediction by ZEFSAII (Michael W. Deem and Ramdas Pophale) SiO2 
 PCOD8128678
Probable space group: P 21/C
;
_chemical_formula_sum "Si O2"
_cell_formula_units_Z 24
_cell_length_a 8.809872
_cell_length_b 15.503323
_cell_length_c 17.355813
_cell_angle_alpha 90.000000
_cell_angle_beta 30.946596
_cell_angle_gamma 90.000000
_cell_volume 1219.001634
_symmetry_space_group_name_H-M "P 21/C"
_symmetry_group_IT_number 14
_symmetry_cell_setting 'monoclinic'
loop_
_space_group_symop_operation_xyz
x,y,z
-x,1/2+y,1/2-z
-x,-y,-z
x,1/2-y,1/2+z
loop_
_atom_site_type_symbol
_atom_site_label
_atom_site_fract_x
_atom_site_fract_y
_atom_site_fract_z
Si Si1 0.700057 0.970961 0.844928
Si Si2 0.749518 0.850357 0.211658
Si Si3 0.657923 0.897534 0.628130
Si Si4 0.718587 0.424194 0.188648
Si Si5 0.297079 0.516502 0.160340
Si Si6 0.417723 0.685514 0.378608
O O1 0.572439 0.887290 0.860619
O O2 0.722719 0.052230 0.776980
O O3 0.006369 0.943981 0.749563
O O4 0.500000 0.000000 0.000000
O O5 0.574987 0.872643 0.208456
O O6 0.774956 0.931062 0.258238
O O7 0.560954 0.777322 0.338765
O O8 0.068913 0.815474 0.046882
O O9 0.496225 0.830038 0.754454
O O10 0.987794 0.867372 0.458723
O O11 0.712412 0.988370 0.643926
O O12 0.445236 0.909663 0.647681
O O13 0.500000 0.500000 0.000000
#
# Coordination Sequence:
#
# PCOD8128678 Si02
#       6
#     4   4   4   4   4   4
#     4  11  22  39  64  93 123 159 204 251 304 366
#     4  11  24  40  61  88 122 163 206 253 306 358
#     4   9  19  36  60  85 113 155 198 239 289 358
#     4   9  19  36  60  84 115 154 199 237 289 360
#     4  11  22  39  66  93 122 160 203 249 308 369
#     4  11  24  40  61  87 123 162 206 256 304 359
#
# _framework density 19.688243
#
# number of rings (size 3 to 8) (size 9 to 14) (size 15 to 20)
#    0.000    1.667    3.333    1.000    7.000    2.000 
#    0.000    3.333    0.000    0.000    0.000    0.000 
#    0.000    0.000    0.000    0.000    0.000    0.000 
#
# Total GULP energy -297499.355765 kJ/mol
# GULP energy per Si atom -12395.806490 kJ/mol
# Density = 1.964343 g / cm^3
# Si number density = 19.688243 Si / 1000 Ang^3
#
#
#
# Elastic Constant Matrix: (Units=GPa)
#
#
# Indices 1 2 3 4 5 6 
#
# 1 124.2988 17.9161 56.0933 0.0000 -9.8956 0.0000
# 2 17.9161 51.7553 13.0618 0.0000 -11.8813 0.0000
# 3 56.0933 13.0618 130.1622 0.0000 -25.7706 0.0000
# 4 0.0000 0.0000 0.0000 33.0649 0.0000 -2.5103
# 5 -9.8956 -11.8813 -25.7706 0.0000 40.2634 0.0000
# 6 0.0000 0.0000 0.0000 -2.5103 0.0000 16.7226
#
#
#
# Elastic Compliance Matrix: (Units=1/GPa)
#
#
# Indices 1 2 3 4 5 6 
#
# 1 0.010334 -0.002715 -0.004393 0.000000 -0.001073 0.000000
# 2 -0.002715 0.021552 0.000154 0.000000 0.005791 0.000000
# 3 -0.004393 0.000154 0.010713 0.000000 0.005823 0.000000
# 4 0.000000 0.000000 0.000000 0.030592 0.000000 0.004592
# 5 -0.001073 0.005791 0.005823 0.000000 0.030008 0.000000
# 6 0.000000 0.000000 0.000000 0.004592 0.000000 0.060489
#
#
# Mechanical properties :
#
#
# Convention : Reuss Voigt Hill
#
# Bulk Modulus (GPa) = 34.85499 53.37320 44.11409
# Shear Modulus (GPa) = 26.71499 32.61984 29.66742
#
# Velocity S-wave (km/s) = 3.68761 4.07482 3.88604
# Velocity P-wave (km/s) = 5.98942 7.02189 6.52610
#
# Compressibility (1/GPa) = 0.02869030
#
# Stress axis : x y z
#
# Youngs Moduli (GPa) = 96.77165 46.39916 93.34065
#
# Poissons Ratio (x) = 0.12597 0.41008
# Poissons Ratio (y) = 0.26272 -0.01435
# Poissons Ratio (z) = 0.42515 -0.00713
#
# Static dielectric constant tensor:
#      x y z
#    x 3.785770 0.000000 -0.037530 
#    y 0.000000 3.488640 0.000000 
#    z -0.037530 0.000000 3.776980 
# 
# 
# High freq. dielectric constant tensor:
#      x y z
#    x 1.775290 0.000000 -0.010450 
#    y 0.000000 1.740350 0.000000 
#    z -0.010450 0.000000 1.784310 
# 
# From -- ./inp_files/8579.got.cif
#   From: 2010.03.12/outbox.cif.g09.slc.cpg/sg14_5_cif.got.tgz:8579.got - 2010.03.31 13:35:05.
