data_PCOD8128663
_publ_section_title
;
Structure prediction by ZEFSAII (Michael W. Deem and Ramdas Pophale) SiO2 
 PCOD8128663
Probable space group: P 21/C
;
_chemical_formula_sum "Si O2"
_cell_formula_units_Z 28
_cell_length_a 14.018923
_cell_length_b 4.963492
_cell_length_c 23.737962
_cell_angle_alpha 90.000000
_cell_angle_beta 122.899335
_cell_angle_gamma 90.000000
_cell_volume 1386.856010
_symmetry_space_group_name_H-M "P 21/C"
_symmetry_group_IT_number 14
_symmetry_cell_setting 'monoclinic'
loop_
_space_group_symop_operation_xyz
x,y,z
-x,1/2+y,1/2-z
-x,-y,-z
x,1/2-y,1/2+z
loop_
_atom_site_type_symbol
_atom_site_label
_atom_site_fract_x
_atom_site_fract_y
_atom_site_fract_z
Si Si1 0.732448 0.078714 0.503251
Si Si2 0.109267 0.363385 0.605065
Si Si3 0.426702 0.749308 0.957313
Si Si4 0.129213 0.424641 0.481529
Si Si5 0.578800 0.139893 0.173956
Si Si6 0.433421 0.612038 0.144804
Si Si7 0.245822 0.867732 0.679692
O O1 0.695278 0.206712 0.551168
O O2 0.791710 0.315416 0.487112
O O3 0.621642 0.000528 0.431136
O O4 0.813355 0.816854 0.536263
O O5 0.107560 0.321027 0.537401
O O6 0.203584 0.563958 0.659227
O O7 0.986645 0.474760 0.585659
O O8 0.138728 0.069141 0.638877
O O9 0.397595 0.780440 0.882724
O O10 0.500000 0.500000 0.000000
O O11 0.500000 0.000000 0.000000
O O12 0.532114 0.401690 0.191969
O O13 0.699395 0.074716 0.241537
O O14 0.486272 0.904923 0.151572
O O15 0.342142 0.587913 0.164354
#
# Coordination Sequence:
#
# PCOD8128663 Si02
#       7
#     4   4   4   4   4   4   4
#     4  12  21  37  62  85 121 153 195 247 297 343
#     4  11  22  38  60  87 118 151 196 246 300 355
#     4  12  23  38  59  84 117 158 198 242 283 342
#     4  11  22  38  60  89 116 151 195 250 303 343
#     4  12  24  39  55  86 123 161 195 236 290 362
#     4  12  21  37  58  87 122 158 191 234 297 363
#     4  12  23  37  59  86 122 160 191 239 299 359
#
# _framework density 20.189551999999999
#
# number of rings (size 3 to 8) (size 9 to 14) (size 15 to 20)
#    0.000    0.286    5.714    5.143    0.000    2.286 
#    0.000    0.000    0.000    3.429    0.000    0.000 
#    0.000    0.000    0.000    0.000    0.000    0.000 
#
# Total GULP energy -347227.367578 kJ/mol
# GULP energy per Si atom -12400.977414 kJ/mol
# Density = 2.014360 g / cm^3
# Si number density = 20.189552 Si / 1000 Ang^3
#
#
#
# Elastic Constant Matrix: (Units=GPa)
#
#
# Indices 1 2 3 4 5 6 
#
# 1 75.1567 32.0783 38.9888 0.0000 4.6946 0.0000
# 2 32.0783 119.3878 23.1318 0.0000 -0.5998 0.0000
# 3 38.9888 23.1318 105.4375 0.0000 -3.6994 0.0000
# 4 0.0000 0.0000 0.0000 28.0495 0.0000 9.1187
# 5 4.6946 -0.5998 -3.6994 0.0000 20.5025 0.0000
# 6 0.0000 0.0000 0.0000 9.1187 0.0000 36.9581
#
#
#
# Elastic Compliance Matrix: (Units=1/GPa)
#
#
# Indices 1 2 3 4 5 6 
#
# 1 0.018477 -0.003792 -0.006192 0.000000 -0.005459 0.000000
# 2 -0.003792 0.009526 -0.000652 0.000000 0.001029 0.000000
# 3 -0.006192 -0.000652 0.012042 0.000000 0.003572 0.000000
# 4 0.000000 0.000000 0.000000 0.038760 0.000000 -0.009563
# 5 -0.005459 0.001029 0.003572 0.000000 0.050699 0.000000
# 6 0.000000 0.000000 0.000000 -0.009563 0.000000 0.029417
#
#
# Mechanical properties :
#
#
# Convention : Reuss Voigt Hill
#
# Bulk Modulus (GPa) = 53.26490 54.26442 53.76466
# Shear Modulus (GPa) = 26.81642 30.82089 28.81865
#
# Velocity S-wave (km/s) = 3.64845 3.91138 3.78220
# Velocity P-wave (km/s) = 6.64740 6.88000 6.76470
#
# Compressibility (1/GPa) = 0.01877409
#
# Stress axis : x y z
#
# Youngs Moduli (GPa) = 54.11992 104.97098 83.04066
#
# Poissons Ratio (x) = 0.39809 0.51420
# Poissons Ratio (y) = 0.20524 0.05410
# Poissons Ratio (z) = 0.33512 0.06839
#
# Static dielectric constant tensor:
#      x y z
#    x 3.511030 0.000000 0.242570 
#    y 0.000000 3.548590 0.000000 
#    z 0.242570 0.000000 3.583000 
# 
# 
# High freq. dielectric constant tensor:
#      x y z
#    x 1.773760 0.000000 0.012540 
#    y 0.000000 1.811070 0.000000 
#    z 0.012540 0.000000 1.771430 
# 
# From -- ./inp_files/77323.got.cif
#   From: 2010.03.12/outbox.cif.g09.slc.cpg/sg14_39_cif.got.tgz:77323.got - 2010.03.31 13:35:05.
