data_PCOD8128725
_publ_section_title
;
Structure prediction by ZEFSAII (Michael W. Deem and Ramdas Pophale) SiO2 
 PCOD8128725
Probable space group: P 21/C
;
_chemical_formula_sum "Si O2"
_cell_formula_units_Z 32
_cell_length_a 11.292532
_cell_length_b 10.834792
_cell_length_c 22.263218
_cell_angle_alpha 90.000000
_cell_angle_beta 33.452432
_cell_angle_gamma 90.000000
_cell_volume 1501.564898
_symmetry_space_group_name_H-M "P 21/C"
_symmetry_group_IT_number 14
_symmetry_cell_setting 'monoclinic'
loop_
_space_group_symop_operation_xyz
x,y,z
-x,1/2+y,1/2-z
-x,-y,-z
x,1/2-y,1/2+z
loop_
_atom_site_type_symbol
_atom_site_label
_atom_site_fract_x
_atom_site_fract_y
_atom_site_fract_z
Si Si1 0.568418 0.632577 0.807121
Si Si2 0.126238 0.762325 0.008800
Si Si3 0.279832 0.295245 0.382408
Si Si4 0.725237 0.919070 0.886406
Si Si5 0.371511 0.636215 0.209549
Si Si6 0.092170 0.044812 0.062026
Si Si7 0.039068 0.238443 0.299425
Si Si8 0.640456 0.319356 0.398912
O O1 0.662286 0.621113 0.699894
O O2 0.518692 0.495405 0.853299
O O3 0.747167 0.684922 0.776506
O O4 0.363462 0.721919 0.890167
O O5 0.949199 0.726637 0.033205
O O6 0.068659 0.688659 0.094009
O O7 0.097597 0.908931 0.031413
O O8 0.471025 0.197891 0.308897
O O9 0.256639 0.374348 0.452994
O O10 0.835746 0.964699 0.900408
O O11 0.909323 0.878037 0.763268
O O12 0.606512 0.032161 0.900805
O O13 0.563664 0.801709 0.969307
O O14 0.358313 0.726261 0.157331
O O15 0.142973 0.609800 0.338075
O O16 0.867884 0.318710 0.335580
#
# Coordination Sequence:
#
# PCOD8128725 Si02
#       8
#     4   4   4   4   4   4   4   4
#     4  11  26  45  69 101 137 176 236 285 336 415
#     4  11  24  47  69  96 137 184 228 279 346 412
#     4  11  25  42  72 101 129 187 229 283 341 404
#     4  11  23  42  69  98 136 181 231 270 339 421
#     4  12  24  45  68 103 140 175 231 286 343 403
#     4  12  22  45  72  98 140 182 229 280 345 414
#     4  11  22  42  68  99 132 180 220 281 345 402
#     4  11  23  42  66  98 137 178 221 281 337 406
#
# _framework density 21.311098999999999
#
# number of rings (size 3 to 8) (size 9 to 14) (size 15 to 20)
#    0.000    0.750    6.250    1.875    3.500    0.500 
#    6.750    1.250    0.000    0.000    0.000    0.000 
#    0.000    0.000    0.000    0.000    0.000    0.000 
#
# Total GULP energy -396471.287943 kJ/mol
# GULP energy per Si atom -12389.727748 kJ/mol
# Density = 2.126259 g / cm^3
# Si number density = 21.311099 Si / 1000 Ang^3
#
#
#
# Elastic Constant Matrix: (Units=GPa)
#
#
# Indices 1 2 3 4 5 6 
#
# 1 99.5155 46.7609 28.3987 0.0000 -16.3024 0.0000
# 2 46.7609 93.4878 50.0419 0.0000 -4.4388 0.0000
# 3 28.3987 50.0419 106.0898 0.0000 -10.2985 0.0000
# 4 0.0000 0.0000 0.0000 39.4238 0.0000 -3.1490
# 5 -16.3024 -4.4388 -10.2985 0.0000 43.5625 0.0000
# 6 0.0000 0.0000 0.0000 -3.1490 0.0000 26.0287
#
#
#
# Elastic Compliance Matrix: (Units=1/GPa)
#
#
# Indices 1 2 3 4 5 6 
#
# 1 0.013977 -0.006700 -0.000143 0.000000 0.004514 0.000000
# 2 -0.006700 0.017522 -0.006695 0.000000 -0.002305 0.000000
# 3 -0.000143 -0.006695 0.012846 0.000000 0.002301 0.000000
# 4 0.000000 0.000000 0.000000 0.025613 0.000000 0.003099
# 5 0.004514 -0.002305 0.002301 0.000000 0.024954 0.000000
# 6 0.000000 0.000000 0.000000 0.003099 0.000000 0.038794
#
#
# Mechanical properties :
#
#
# Convention : Reuss Voigt Hill
#
# Bulk Modulus (GPa) = 57.90921 61.05509 59.48215
# Shear Modulus (GPa) = 30.02282 33.39578 31.70930
#
# Velocity S-wave (km/s) = 3.75745 3.96291 3.86155
# Velocity P-wave (km/s) = 6.78652 7.04636 6.91766
#
# Compressibility (1/GPa) = 0.01726841
#
# Stress axis : x y z
#
# Youngs Moduli (GPa) = 71.54399 57.06951 77.84685
#
# Poissons Ratio (x) = 0.38239 0.01111
# Poissons Ratio (y) = 0.47938 0.52121
# Poissons Ratio (z) = 0.01021 0.38210
#
# Static dielectric constant tensor:
#      x y z
#    x 3.961950 0.000000 -0.140150 
#    y 0.000000 3.673720 0.000000 
#    z -0.140150 0.000000 4.159470 
# 
# 
# High freq. dielectric constant tensor:
#      x y z
#    x 1.850060 0.000000 -0.014620 
#    y 0.000000 1.813970 0.000000 
#    z -0.014620 0.000000 1.846240 
# 
# From -- ./inp_files/73288.got.cif
#   From: 2010.03.12/outbox.cif.g09.slc.cpg/sg14_37_cif.got.tgz:73288.got - 2010.03.31 13:35:05.
