data_PCOD8128254
_publ_section_title
;
Structure prediction by ZEFSAII (Michael W. Deem and Ramdas Pophale) SiO2 
 PCOD8128254
Probable space group: P 21/C
;
_chemical_formula_sum "Si O2"
_cell_formula_units_Z 28
_cell_length_a 13.523740
_cell_length_b 8.937841
_cell_length_c 11.536437
_cell_angle_alpha 90.000000
_cell_angle_beta 66.167581
_cell_angle_gamma 90.000000
_cell_volume 1275.541587
_symmetry_space_group_name_H-M "P 21/C"
_symmetry_group_IT_number 14
_symmetry_cell_setting 'monoclinic'
loop_
_space_group_symop_operation_xyz
x,y,z
-x,1/2+y,1/2-z
-x,-y,-z
x,1/2-y,1/2+z
loop_
_atom_site_type_symbol
_atom_site_label
_atom_site_fract_x
_atom_site_fract_y
_atom_site_fract_z
Si Si1 0.946760 0.084181 0.129076
Si Si2 0.957099 0.349302 0.971047
Si Si3 0.349082 0.019040 0.161144
Si Si4 0.124398 0.330894 0.712728
Si Si5 0.480330 0.753202 0.012063
Si Si6 0.805357 0.979594 0.381193
Si Si7 0.414910 0.493155 0.898063
O O1 0.037183 0.070107 0.186056
O O2 0.834844 0.017280 0.232972
O O3 0.916971 0.249334 0.097241
O O4 0.000000 0.000000 0.000000
O O5 0.856240 0.391323 0.937459
O O6 0.057927 0.269946 0.856319
O O7 0.000000 0.500000 0.000000
O O8 0.376403 0.020754 0.284693
O O9 0.223828 0.062268 0.202562
O O10 0.417924 0.140074 0.058078
O O11 0.375860 0.855077 0.095180
O O12 0.156498 0.191705 0.615385
O O13 0.464244 0.657340 0.901283
O O14 0.502845 0.641597 0.109955
O O15 0.678869 0.979651 0.461438
#
# Coordination Sequence:
#
# PCOD8128254 Si02
#       7
#     4   4   4   4   4   4   4
#     4  11  24  41  63  93 132 173 214 270 320 384
#     4  11  22  39  63  88 132 172 210 265 325 381
#     4  11  23  43  72  94 130 176 217 272 338 391
#     4  11  23  40  64  97 127 170 224 263 318 404
#     4  10  24  44  66 102 131 163 226 277 327 408
#     4  11  23  40  64  97 129 169 220 266 319 401
#     4  11  23  43  68  97 135 170 215 279 339 383
#
# _framework density 21.951459
#
# number of rings (size 3 to 8) (size 9 to 14) (size 15 to 20)
#    0.000    1.143    4.286    1.714    0.000    3.429 
#    0.000    1.429    0.000    0.000    0.000    0.000 
#    0.000    0.000    0.000    0.000    0.000    0.000 
#
# Total GULP energy -347059.003596 kJ/mol
# GULP energy per Si atom -12394.964414 kJ/mol
# Density = 2.190150 g / cm^3
# Si number density = 21.951459 Si / 1000 Ang^3
#
#
#
# Elastic Constant Matrix: (Units=GPa)
#
#
# Indices 1 2 3 4 5 6 
#
# 1 75.2805 24.7920 15.8806 0.0000 3.6719 0.0000
# 2 24.7920 100.6788 19.3992 0.0000 4.3153 0.0000
# 3 15.8806 19.3992 75.6219 0.0000 8.5394 0.0000
# 4 0.0000 0.0000 0.0000 37.5624 0.0000 2.3831
# 5 3.6719 4.3153 8.5394 0.0000 36.9188 0.0000
# 6 0.0000 0.0000 0.0000 2.3831 0.0000 28.3370
#
#
#
# Elastic Compliance Matrix: (Units=1/GPa)
#
#
# Indices 1 2 3 4 5 6 
#
# 1 0.014836 -0.003199 -0.002229 0.000000 -0.000586 0.000000
# 2 -0.003199 0.011152 -0.002134 0.000000 -0.000492 0.000000
# 3 -0.002229 -0.002134 0.014566 0.000000 -0.002898 0.000000
# 4 0.000000 0.000000 0.000000 0.026765 0.000000 -0.002251
# 5 -0.000586 -0.000492 -0.002898 0.000000 0.027873 0.000000
# 6 0.000000 0.000000 0.000000 -0.002251 0.000000 0.035479
#
#
# Mechanical properties :
#
#
# Convention : Reuss Voigt Hill
#
# Bulk Modulus (GPa) = 39.32003 41.30276 40.31139
# Shear Modulus (GPa) = 32.41049 33.33093 32.87071
#
# Velocity S-wave (km/s) = 3.84664 3.90088 3.87386
# Velocity P-wave (km/s) = 6.13841 6.25664 6.19780
#
# Compressibility (1/GPa) = 0.02543233
#
# Stress axis : x y z
#
# Youngs Moduli (GPa) = 67.40431 89.66627 68.65142
#
# Poissons Ratio (x) = 0.28682 0.15301
# Poissons Ratio (y) = 0.21561 0.14648
# Poissons Ratio (z) = 0.15023 0.19132
#
# Static dielectric constant tensor:
#      x y z
#    x 3.461890 0.000000 -0.282460 
#    y 0.000000 3.880120 0.000000 
#    z -0.282460 0.000000 3.847130 
# 
# 
# High freq. dielectric constant tensor:
#      x y z
#    x 1.846710 0.000000 -0.003690 
#    y 0.000000 1.878460 0.000000 
#    z -0.003690 0.000000 1.867390 
# 
# From -- ./inp_files/31669.got.cif
#   From: 2010.03.12/outbox.cif.g09.slc.cpg/sg14_16_cif.got.tgz:31669.got - 2010.03.31 13:35:05.
