data_PCOD8128128
_publ_section_title
;
Structure prediction by ZEFSAII (Michael W. Deem and Ramdas Pophale) SiO2 
 PCOD8128128
Probable space group: P 21/C
;
_chemical_formula_sum "Si O2"
_cell_formula_units_Z 32
_cell_length_a 14.475676
_cell_length_b 11.846779
_cell_length_c 11.500223
_cell_angle_alpha 90.000000
_cell_angle_beta 51.387130
_cell_angle_gamma 90.000000
_cell_volume 1541.018556
_symmetry_space_group_name_H-M "P 21/C"
_symmetry_group_IT_number 14
_symmetry_cell_setting 'monoclinic'
loop_
_space_group_symop_operation_xyz
x,y,z
-x,1/2+y,1/2-z
-x,-y,-z
x,1/2-y,1/2+z
loop_
_atom_site_type_symbol
_atom_site_label
_atom_site_fract_x
_atom_site_fract_y
_atom_site_fract_z
Si Si1 0.934876 0.844968 0.010695
Si Si2 0.158388 0.959818 0.762445
Si Si3 0.515505 0.667310 0.540222
Si Si4 0.580125 0.080022 0.353656
Si Si5 0.238558 0.413838 0.997761
Si Si6 0.476027 0.045710 0.205021
Si Si7 0.911105 0.900638 0.600873
Si Si8 0.780584 0.672120 0.417494
O O1 0.963950 0.722194 0.037782
O O2 0.905184 0.929467 0.136774
O O3 0.819903 0.856434 0.017661
O O4 0.059430 0.864210 0.847772
O O5 0.281928 0.925898 0.723429
O O6 0.184397 0.978451 0.605573
O O7 0.464113 0.790955 0.598845
O O8 0.507125 0.639572 0.408956
O O9 0.442603 0.574062 0.671643
O O10 0.646175 0.646875 0.489242
O O11 0.583453 0.042205 0.214123
O O12 0.500000 0.000000 0.500000
O O13 0.378838 0.417689 0.876839
O O14 0.200601 0.413120 0.894571
O O15 0.201153 0.307078 0.107070
O O16 0.864755 0.903464 0.769100
O O17 0.000000 0.000000 0.500000
#
# Coordination Sequence:
#
# PCOD8128128 Si02
#       8
#     4   4   4   4   4   4   4   4
#     4  10  24  40  67  92 129 172 214 270 321 392
#     4  11  22  44  62  96 130 165 223 270 322 392
#     4  11  25  42  66 100 137 170 225 283 342 403
#     4  12  25  40  72  98 130 183 225 275 342 412
#     4  11  21  39  68  89 126 170 218 266 320 407
#     4  11  24  42  63  99 133 174 218 279 342 402
#     4  11  23  39  65  94 125 168 219 269 328 386
#     4  11  20  41  66  93 125 172 222 261 326 407
#
# _framework density 20.765485999999999
#
# number of rings (size 3 to 8) (size 9 to 14) (size 15 to 20)
#    0.000    1.000    5.000    1.500    1.750    1.000 
#    0.000    1.250    0.000    0.000    0.000    0.000 
#    0.000    0.000    0.000    0.000    0.000    0.000 
#
# Total GULP energy -396485.814602 kJ/mol
# GULP energy per Si atom -12390.181706 kJ/mol
# Density = 2.071822 g / cm^3
# Si number density = 20.765486 Si / 1000 Ang^3
#
#
#
# Elastic Constant Matrix: (Units=GPa)
#
#
# Indices 1 2 3 4 5 6 
#
# 1 57.2353 9.9973 9.1328 0.0000 -7.7428 0.0000
# 2 9.9973 111.3100 28.6188 0.0000 -2.7550 0.0000
# 3 9.1328 28.6188 78.5459 0.0000 1.1871 0.0000
# 4 0.0000 0.0000 0.0000 33.9826 0.0000 -0.6997
# 5 -7.7428 -2.7550 1.1871 0.0000 36.6544 0.0000
# 6 0.0000 0.0000 0.0000 -0.6997 0.0000 29.1971
#
#
#
# Elastic Compliance Matrix: (Units=1/GPa)
#
#
# Indices 1 2 3 4 5 6 
#
# 1 0.018477 -0.001099 -0.001807 0.000000 0.003879 0.000000
# 2 -0.001099 0.010005 -0.003527 0.000000 0.000634 0.000000
# 3 -0.001807 -0.003527 0.014243 0.000000 -0.001108 0.000000
# 4 0.000000 0.000000 0.000000 0.029441 0.000000 0.000706
# 5 0.003879 0.000634 -0.001108 0.000000 0.028185 0.000000
# 6 0.000000 0.000000 0.000000 0.000706 0.000000 0.034267
#
#
# Mechanical properties :
#
#
# Convention : Reuss Voigt Hill
#
# Bulk Modulus (GPa) = 33.48998 38.06545 35.77772
# Shear Modulus (GPa) = 31.75869 33.25629 32.50749
#
# Velocity S-wave (km/s) = 3.91499 4.00624 3.96088
# Velocity P-wave (km/s) = 6.04971 6.30641 6.17939
#
# Compressibility (1/GPa) = 0.02985967
#
# Stress axis : x y z
#
# Youngs Moduli (GPa) = 54.12220 99.94788 70.20794
#
# Poissons Ratio (x) = 0.10984 0.12683
# Poissons Ratio (y) = 0.05948 0.24764
# Poissons Ratio (z) = 0.09777 0.35254
#
# Static dielectric constant tensor:
#      x y z
#    x 4.559120 0.000000 0.206090 
#    y 0.000000 3.818450 0.000000 
#    z 0.206090 0.000000 3.747710 
# 
# 
# High freq. dielectric constant tensor:
#      x y z
#    x 1.821740 0.000000 0.010720 
#    y 0.000000 1.808740 0.000000 
#    z 0.010720 0.000000 1.813910 
# 
# From -- ./inp_files/32377.got.cif
#   From: 2010.03.12/outbox.cif.g09.slc.cpg/sg14_17_cif.got.tgz:32377.got - 2010.03.31 13:35:05.
