data_PCOD8128541
_publ_section_title
;
Structure prediction by ZEFSAII (Michael W. Deem and Ramdas Pophale) SiO2 
 PCOD8128541
Probable space group: P 21/C
;
_chemical_formula_sum "Si O2"
_cell_formula_units_Z 32
_cell_length_a 12.024789
_cell_length_b 14.488478
_cell_length_c 8.779685
_cell_angle_alpha 90.000000
_cell_angle_beta 90.719734
_cell_angle_gamma 90.000000
_cell_volume 1529.483860
_symmetry_space_group_name_H-M "P 21/C"
_symmetry_group_IT_number 14
_symmetry_cell_setting 'monoclinic'
loop_
_space_group_symop_operation_xyz
x,y,z
-x,1/2+y,1/2-z
-x,-y,-z
x,1/2-y,1/2+z
loop_
_atom_site_type_symbol
_atom_site_label
_atom_site_fract_x
_atom_site_fract_y
_atom_site_fract_z
Si Si1 0.936246 0.213154 0.604905
Si Si2 0.050840 0.979041 0.237157
Si Si3 0.164088 0.495817 0.431267
Si Si4 0.578775 0.708543 0.843749
Si Si5 0.285730 0.668560 0.354261
Si Si6 0.921663 0.817963 0.670413
Si Si7 0.423368 0.786846 0.582350
Si Si8 0.725347 0.689881 0.582460
O O1 0.918845 0.109251 0.662852
O O2 0.823958 0.269692 0.628295
O O3 0.043198 0.267338 0.673792
O O4 0.970186 0.204417 0.430167
O O5 0.917907 0.988295 0.215007
O O6 0.097441 0.072216 0.314659
O O7 0.101949 0.959117 0.072912
O O8 0.265537 0.562001 0.390494
O O9 0.206141 0.395605 0.481420
O O10 0.508056 0.756328 0.712004
O O11 0.671670 0.655336 0.744841
O O12 0.495237 0.651458 0.958188
O O13 0.635708 0.785574 0.952124
O O14 0.377007 0.703390 0.477025
O O15 0.323855 0.666480 0.176085
O O16 0.804857 0.777841 0.610032
#
# Coordination Sequence:
#
# PCOD8128541 Si02
#       8
#     4   4   4   4   4   4   4   4
#     4  12  23  38  60  90 127 166 200 242 296 363
#     4  11  23  38  54  89 133 165 202 242 286 359
#     4  11  22  36  60  89 125 163 205 244 294 365
#     4   9  20  40  63  85 112 151 206 258 303 354
#     4  11  21  38  63  89 118 163 200 245 309 356
#     4  12  23  38  60  90 127 166 200 242 296 363
#     4   9  20  40  63  85 112 151 206 258 303 354
#     4  11  21  38  63  89 118 163 200 245 309 356
#
# _framework density 20.922090000000001
#
# number of rings (size 3 to 8) (size 9 to 14) (size 15 to 20)
#    0.000    1.250    2.500    4.875    0.000    0.000 
#    0.000    6.250    0.000    6.000    0.000    0.000 
#    0.000    0.000    0.000    0.000    0.000    0.000 
#
# Total GULP energy -396470.876036 kJ/mol
# GULP energy per Si atom -12389.714876 kJ/mol
# Density = 2.087447 g / cm^3
# Si number density = 20.922090 Si / 1000 Ang^3
#
#
#
# Elastic Constant Matrix: (Units=GPa)
#
#
# Indices 1 2 3 4 5 6 
#
# 1 85.7118 14.3418 31.0156 0.0000 0.5761 0.0000
# 2 14.3418 94.7908 4.3446 0.0000 13.0553 0.0000
# 3 31.0156 4.3446 93.9158 0.0000 -6.5418 0.0000
# 4 0.0000 0.0000 0.0000 25.5328 0.0000 -1.8915
# 5 0.5761 13.0553 -6.5418 0.0000 42.5061 0.0000
# 6 0.0000 0.0000 0.0000 -1.8915 0.0000 8.2798
#
#
#
# Elastic Compliance Matrix: (Units=1/GPa)
#
#
# Indices 1 2 3 4 5 6 
#
# 1 0.013571 -0.001808 -0.004420 0.000000 -0.000309 0.000000
# 2 -0.001808 0.011309 -0.000168 0.000000 -0.003475 0.000000
# 3 -0.004420 -0.000168 0.012254 0.000000 0.001998 0.000000
# 4 0.000000 0.000000 0.000000 0.039840 0.000000 0.009101
# 5 -0.000309 -0.003475 0.001998 0.000000 0.024905 0.000000
# 6 0.000000 0.000000 0.000000 0.009101 0.000000 0.122855
#
#
# Mechanical properties :
#
#
# Convention : Reuss Voigt Hill
#
# Bulk Modulus (GPa) = 41.07981 41.53584 41.30783
# Shear Modulus (GPa) = 20.35497 30.24484 25.29990
#
# Velocity S-wave (km/s) = 3.12251 3.80622 3.48119
# Velocity P-wave (km/s) = 5.71641 6.26196 5.99539
#
# Compressibility (1/GPa) = 0.02434286
#
# Stress axis : x y z
#
# Youngs Moduli (GPa) = 73.68694 88.42185 81.60382
#
# Poissons Ratio (x) = 0.15988 0.36066
# Poissons Ratio (y) = 0.13324 0.01372
# Poissons Ratio (z) = 0.32567 0.01486
#
# Static dielectric constant tensor:
#      x y z
#    x 4.204810 0.000000 -0.467230 
#    y 0.000000 3.448600 0.000000 
#    z -0.467230 0.000000 4.317410 
# 
# 
# High freq. dielectric constant tensor:
#      x y z
#    x 1.832680 0.000000 -0.012980 
#    y 0.000000 1.780170 0.000000 
#    z -0.012980 0.000000 1.842270 
# 
# From -- ./inp_files/13340.got.cif
#   From: 2010.03.12/outbox.cif.g09.slc.cpg/sg14_7_cif.got.tgz:13340.got - 2010.03.31 13:35:05.
