data_PCOD8128531
_publ_section_title
;
Structure prediction by ZEFSAII (Michael W. Deem and Ramdas Pophale) SiO2 
 PCOD8128531
Probable space group: P 21/C
;
_chemical_formula_sum "Si O2"
_cell_formula_units_Z 24
_cell_length_a 11.293325
_cell_length_b 4.930705
_cell_length_c 22.459368
_cell_angle_alpha 90.000000
_cell_angle_beta 58.002964
_cell_angle_gamma 90.000000
_cell_volume 1060.627538
_symmetry_space_group_name_H-M "P 21/C"
_symmetry_group_IT_number 14
_symmetry_cell_setting 'monoclinic'
loop_
_space_group_symop_operation_xyz
x,y,z
-x,1/2+y,1/2-z
-x,-y,-z
x,1/2-y,1/2+z
loop_
_atom_site_type_symbol
_atom_site_label
_atom_site_fract_x
_atom_site_fract_y
_atom_site_fract_z
Si Si1 0.910538 0.700670 0.840665
Si Si2 0.379933 0.882747 0.422494
Si Si3 0.216135 0.817057 0.066589
Si Si4 0.208491 0.976206 0.234532
Si Si5 0.592492 0.544741 0.216121
Si Si6 0.447298 0.875717 0.092368
O O1 0.859454 0.404236 0.872467
O O2 0.076350 0.707205 0.786946
O O3 0.875432 0.911241 0.903414
O O4 0.835542 0.785602 0.799332
O O5 0.237090 0.780166 0.492815
O O6 0.348092 0.930727 0.361870
O O7 0.504353 0.668633 0.397227
O O8 0.426456 0.163178 0.441159
O O9 0.375975 0.882631 0.045797
O O10 0.275346 0.101705 0.276612
O O11 0.323298 0.786992 0.171049
O O12 0.512023 0.826072 0.226334
#
# Coordination Sequence:
#
# PCOD8128531 Si02
#       6
#     4   4   4   4   4   4
#     4  11  25  41  67  95 129 176 213 278 303 389
#     4  12  22  41  61  96 130 172 207 267 326 394
#     4  11  24  40  62  96 132 170 220 254 331 380
#     4  11  23  44  66  98 131 164 230 261 333 366
#     4  12  25  42  66  97 133 170 214 269 331 392
#     4  11  21  36  65  92 129 164 215 270 323 369
#
# _framework density 22.628112999999999
#
# number of rings (size 3 to 8) (size 9 to 14) (size 15 to 20)
#    0.000    0.667    3.333    6.000    0.000    4.000 
#    0.000    1.667    0.000    0.000    0.000    0.000 
#    0.000    0.000    0.000    0.000    0.000    0.000 
#
# Total GULP energy -297661.837757 kJ/mol
# GULP energy per Si atom -12402.576573 kJ/mol
# Density = 2.257661 g / cm^3
# Si number density = 22.628113 Si / 1000 Ang^3
#
#
#
# Elastic Constant Matrix: (Units=GPa)
#
#
# Indices 1 2 3 4 5 6 
#
# 1 81.6066 4.5221 19.3184 0.0000 7.0031 0.0000
# 2 4.5221 69.2272 -18.6222 0.0000 -3.6218 0.0000
# 3 19.3184 -18.6222 72.7489 0.0000 4.8539 0.0000
# 4 0.0000 0.0000 0.0000 29.3319 0.0000 -3.4534
# 5 7.0031 -3.6218 4.8539 0.0000 31.7926 0.0000
# 6 0.0000 0.0000 0.0000 -3.4534 0.0000 25.3939
#
#
#
# Elastic Compliance Matrix: (Units=1/GPa)
#
#
# Indices 1 2 3 4 5 6 
#
# 1 0.013529 -0.002083 -0.003952 0.000000 -0.002614 0.000000
# 2 -0.002083 0.015878 0.004512 0.000000 0.001579 0.000000
# 3 -0.003952 0.004512 0.016021 0.000000 -0.001062 0.000000
# 4 0.000000 0.000000 0.000000 0.034647 0.000000 0.004712
# 5 -0.002614 0.001579 -0.001062 0.000000 0.032372 0.000000
# 6 0.000000 0.000000 0.000000 0.004712 0.000000 0.040020
#
#
# Mechanical properties :
#
#
# Convention : Reuss Voigt Hill
#
# Bulk Modulus (GPa) = 23.59469 26.00214 24.79841
# Shear Modulus (GPa) = 29.47414 31.86130 30.66772
#
# Velocity S-wave (km/s) = 3.61299 3.75646 3.68542
# Velocity P-wave (km/s) = 5.27776 5.50733 5.39377
#
# Compressibility (1/GPa) = 0.04238243
#
# Stress axis : x y z
#
# Youngs Moduli (GPa) = 73.91454 62.98145 62.41758
#
# Poissons Ratio (x) = 0.13122 0.24665
# Poissons Ratio (y) = 0.15400 -0.28165
# Poissons Ratio (z) = 0.29208 -0.28419
#
# Static dielectric constant tensor:
#      x y z
#    x 3.862360 0.000000 0.019780 
#    y 0.000000 3.973110 0.000000 
#    z 0.019780 0.000000 4.224250 
# 
# 
# High freq. dielectric constant tensor:
#      x y z
#    x 1.854480 0.000000 0.001920 
#    y 0.000000 1.896940 0.000000 
#    z 0.001920 0.000000 1.909340 
# 
# From -- ./inp_files/72728.got.cif
#   From: 2010.03.12/outbox.cif.g09.slc.cpg/sg14_37_cif.got.tgz:72728.got - 2010.03.31 13:35:05.
