data_PCOD8128052
_publ_section_title
;
Structure prediction by ZEFSAII (Michael W. Deem and Ramdas Pophale) SiO2 
 PCOD8128052
Probable space group: P 21/C
;
_chemical_formula_sum "Si O2"
_cell_formula_units_Z 28
_cell_length_a 7.082781
_cell_length_b 11.770010
_cell_length_c 20.518734
_cell_angle_alpha 90.000000
_cell_angle_beta 127.440464
_cell_angle_gamma 90.000000
_cell_volume 1358.137575
_symmetry_space_group_name_H-M "P 21/C"
_symmetry_group_IT_number 14
_symmetry_cell_setting 'monoclinic'
loop_
_space_group_symop_operation_xyz
x,y,z
-x,1/2+y,1/2-z
-x,-y,-z
x,1/2-y,1/2+z
loop_
_atom_site_type_symbol
_atom_site_label
_atom_site_fract_x
_atom_site_fract_y
_atom_site_fract_z
Si Si1 0.058553 0.230498 0.128200
Si Si2 0.652546 0.585587 0.074387
Si Si3 0.155074 0.021730 0.680906
Si Si4 0.226115 0.074662 0.059401
Si Si5 0.491700 0.821742 0.998314
Si Si6 0.471365 0.112555 0.847529
Si Si7 0.461490 0.142458 0.304320
O O1 0.099587 0.365236 0.127725
O O2 0.152455 0.190953 0.077841
O O3 0.207652 0.164767 0.215766
O O4 0.781483 0.200140 0.080002
O O5 0.565630 0.587508 0.130393
O O6 0.928011 0.556726 0.135024
O O7 0.500000 0.500000 0.000000
O O8 0.632304 0.704651 0.033880
O O9 0.214158 0.076710 0.764460
O O10 0.367508 0.943037 0.698293
O O11 0.378387 0.100843 0.027186
O O12 0.370385 0.995197 0.140315
O O13 0.000000 0.000000 0.000000
O O14 0.520460 0.885589 0.072808
O O15 0.570751 0.230149 0.837110
#
# Coordination Sequence:
#
# PCOD8128052 Si02
#       7
#     4   4   4   4   4   4   4
#     4  11  24  43  67 101 136 177 224 275 340 402
#     4  11  25  44  67  99 130 182 224 278 348 392
#     4  11  24  44  70  96 136 173 230 281 333 410
#     4  12  25  40  70  98 130 183 222 270 338 400
#     4  11  25  44  66 100 140 174 225 281 332 410
#     4  10  23  46  62  99 133 174 224 274 335 394
#     4  10  25  43  68  98 135 175 224 284 330 401
#
# _framework density 20.616467
#
# number of rings (size 3 to 8) (size 9 to 14) (size 15 to 20)
#    0.000    1.143    4.286    0.429    6.000    0.571 
#    0.000    2.857    0.000    0.000    0.000    0.000 
#    0.000    0.000    0.000    0.000    0.000    0.000 
#
# Total GULP energy -346899.831724 kJ/mol
# GULP energy per Si atom -12389.279704 kJ/mol
# Density = 2.056954 g / cm^3
# Si number density = 20.616467 Si / 1000 Ang^3
#
#
#
# Elastic Constant Matrix: (Units=GPa)
#
#
# Indices 1 2 3 4 5 6 
#
# 1 105.3684 68.0895 57.1230 0.0000 15.5875 0.0000
# 2 68.0895 139.0342 57.2634 0.0000 12.0907 0.0000
# 3 57.1230 57.2634 114.8848 0.0000 13.0068 0.0000
# 4 0.0000 0.0000 0.0000 31.1508 0.0000 5.8752
# 5 15.5875 12.0907 13.0068 0.0000 30.8970 0.0000
# 6 0.0000 0.0000 0.0000 5.8752 0.0000 37.4254
#
#
#
# Elastic Compliance Matrix: (Units=1/GPa)
#
#
# Indices 1 2 3 4 5 6 
#
# 1 0.016386 -0.005672 -0.004868 0.000000 -0.003998 0.000000
# 2 -0.005672 0.011102 -0.002673 0.000000 -0.000358 0.000000
# 3 -0.004868 -0.002673 0.012664 0.000000 -0.001830 0.000000
# 4 0.000000 0.000000 0.000000 0.033081 0.000000 -0.005193
# 5 -0.003998 -0.000358 -0.001830 0.000000 0.035293 0.000000
# 6 0.000000 0.000000 0.000000 -0.005193 0.000000 0.027535
#
#
# Mechanical properties :
#
#
# Convention : Reuss Voigt Hill
#
# Bulk Modulus (GPa) = 72.84987 80.47101 76.66044
# Shear Modulus (GPa) = 29.92868 31.68207 30.80537
#
# Velocity S-wave (km/s) = 3.81424 3.92438 3.86970
# Velocity P-wave (km/s) = 7.40340 7.72343 7.56511
#
# Compressibility (1/GPa) = 0.01372686
#
# Stress axis : x y z
#
# Youngs Moduli (GPa) = 61.02632 90.07000 78.96341
#
# Poissons Ratio (x) = 0.51092 0.38436
# Poissons Ratio (y) = 0.34617 0.21107
# Poissons Ratio (z) = 0.29705 0.24076
#
# Static dielectric constant tensor:
#      x y z
#    x 3.594420 0.000000 -0.003200 
#    y 0.000000 4.841700 0.000000 
#    z -0.003200 0.000000 4.282740 
# 
# 
# High freq. dielectric constant tensor:
#      x y z
#    x 1.779020 0.000000 0.007610 
#    y 0.000000 1.834940 0.000000 
#    z 0.007610 0.000000 1.829340 
# 
# From -- ./inp_files/63589.got.cif
#   From: 2010.03.12/outbox.cif.g09.slc.cpg/sg14_32_cif.got.tgz:63589.got - 2010.03.31 13:35:05.
