data_PCOD8128570
_publ_section_title
;
Structure prediction by ZEFSAII (Michael W. Deem and Ramdas Pophale) SiO2 
 PCOD8128570
Probable space group: P 21/C
;
_chemical_formula_sum "Si O2"
_cell_formula_units_Z 24
_cell_length_a 20.610696
_cell_length_b 8.275620
_cell_length_c 15.520327
_cell_angle_alpha 90.000000
_cell_angle_beta 153.712825
_cell_angle_gamma 90.000000
_cell_volume 1172.386555
_symmetry_space_group_name_H-M "P 21/C"
_symmetry_group_IT_number 14
_symmetry_cell_setting 'monoclinic'
loop_
_space_group_symop_operation_xyz
x,y,z
-x,1/2+y,1/2-z
-x,-y,-z
x,1/2-y,1/2+z
loop_
_atom_site_type_symbol
_atom_site_label
_atom_site_fract_x
_atom_site_fract_y
_atom_site_fract_z
Si Si1 0.916324 0.924410 0.321263
Si Si2 0.663659 0.070122 0.435470
Si Si3 0.916729 0.936873 0.633044
Si Si4 0.344149 0.556248 0.583819
Si Si5 0.156598 0.074206 0.202053
Si Si6 0.836459 0.914013 0.981760
O O1 0.861341 0.743389 0.270644
O O2 0.024601 0.936203 0.368526
O O3 0.000000 0.000000 0.500000
O O4 0.769629 0.026398 0.128919
O O5 0.753673 0.980440 0.467997
O O6 0.655436 0.254708 0.397429
O O7 0.502924 0.997280 0.243175
O O8 0.739659 0.043303 0.618907
O O9 0.032003 0.953615 0.850264
O O10 0.914378 0.757016 0.593651
O O11 0.296533 0.455530 0.612056
O O12 0.227967 0.091138 0.191715
O O13 0.000000 0.000000 0.000000
#
# Coordination Sequence:
#
# PCOD8128570 Si02
#       6
#     4   4   4   4   4   4
#     4  11  22  42  68  98 130 165 219 265 317 384
#     4  12  24  45  66  93 132 173 218 268 328 389
#     4  11  21  40  66  94 131 170 216 260 321 388
#     4  11  26  44  67  92 131 177 213 267 330 390
#     4  12  24  39  68 101 132 167 218 271 316 378
#     4  11  23  40  65  98 129 172 215 266 324 381
#
# _framework density 20.471063000000001
#
# number of rings (size 3 to 8) (size 9 to 14) (size 15 to 20)
#    0.000    0.667    3.333    7.000    2.333    0.667 
#    0.000    0.833    0.000    0.000    0.000    0.000 
#    0.000    0.000    0.000    0.000    0.000    0.000 
#
# Total GULP energy -297634.944110 kJ/mol
# GULP energy per Si atom -12401.456005 kJ/mol
# Density = 2.042447 g / cm^3
# Si number density = 20.471063 Si / 1000 Ang^3
#
#
#
# Elastic Constant Matrix: (Units=GPa)
#
#
# Indices 1 2 3 4 5 6 
#
# 1 111.0655 20.9057 58.7279 0.0000 0.0546 0.0000
# 2 20.9057 74.4713 10.1192 0.0000 -4.1920 0.0000
# 3 58.7279 10.1192 117.7636 0.0000 15.5077 0.0000
# 4 0.0000 0.0000 0.0000 8.4498 0.0000 3.5301
# 5 0.0546 -4.1920 15.5077 0.0000 42.5148 0.0000
# 6 0.0000 0.0000 0.0000 3.5301 0.0000 32.2402
#
#
#
# Elastic Compliance Matrix: (Units=1/GPa)
#
#
# Indices 1 2 3 4 5 6 
#
# 1 0.012935 -0.002630 -0.006500 0.000000 0.002095 0.000000
# 2 -0.002630 0.014262 -0.000105 0.000000 0.001448 0.000000
# 3 -0.006500 -0.000105 0.012335 0.000000 -0.004501 0.000000
# 4 0.000000 0.000000 0.000000 0.124019 0.000000 -0.013579
# 5 0.002095 0.001448 -0.004501 0.000000 0.025303 0.000000
# 6 0.000000 0.000000 0.000000 -0.013579 0.000000 0.032504
#
#
# Mechanical properties :
#
#
# Convention : Reuss Voigt Hill
#
# Bulk Modulus (GPa) = 47.47899 53.64511 50.56205
# Shear Modulus (GPa) = 20.25534 30.87747 25.56641
#
# Velocity S-wave (km/s) = 3.14898 3.88796 3.53782
# Velocity P-wave (km/s) = 6.03863 6.81302 6.43748
#
# Compressibility (1/GPa) = 0.02106195
#
# Stress axis : x y z
#
# Youngs Moduli (GPa) = 77.30996 70.11650 81.06960
#
# Poissons Ratio (x) = 0.18440 0.52699
# Poissons Ratio (y) = 0.20332 0.00848
# Poissons Ratio (z) = 0.50255 0.00734
#
# Static dielectric constant tensor:
#      x y z
#    x 4.199860 0.000000 -0.238890 
#    y 0.000000 3.780750 0.000000 
#    z -0.238890 0.000000 3.767280 
# 
# 
# High freq. dielectric constant tensor:
#      x y z
#    x 1.809900 0.000000 -0.000130 
#    y 0.000000 1.815530 0.000000 
#    z -0.000130 0.000000 1.788260 
# 
# From -- ./inp_files/48644.got.cif
#   From: 2010.03.12/outbox.cif.g09.slc.cpg/sg14_25_cif.got.tgz:48644.got - 2010.03.31 13:35:05.
