data_PCOD8128408
_publ_section_title
;
Structure prediction by ZEFSAII (Michael W. Deem and Ramdas Pophale) SiO2 
 PCOD8128408
Probable space group: P 21/C
;
_chemical_formula_sum "Si O2"
_cell_formula_units_Z 24
_cell_length_a 21.616164
_cell_length_b 5.370845
_cell_length_c 21.743443
_cell_angle_alpha 90.000000
_cell_angle_beta 22.407339
_cell_angle_gamma 90.000000
_cell_volume 962.253921
_symmetry_space_group_name_H-M "P 21/C"
_symmetry_group_IT_number 14
_symmetry_cell_setting 'monoclinic'
loop_
_space_group_symop_operation_xyz
x,y,z
-x,1/2+y,1/2-z
-x,-y,-z
x,1/2-y,1/2+z
loop_
_atom_site_type_symbol
_atom_site_label
_atom_site_fract_x
_atom_site_fract_y
_atom_site_fract_z
Si Si1 0.689576 0.318992 0.363011
Si Si2 0.656047 0.922173 0.776154
Si Si3 0.588252 0.292199 0.219765
Si Si4 0.235822 0.350242 0.015414
Si Si5 0.148246 0.322809 0.234080
Si Si6 0.171003 0.071802 0.959835
O O1 0.496473 0.294035 0.549859
O O2 0.721406 0.356681 0.260492
O O3 0.771820 0.561788 0.319940
O O4 0.761093 0.059854 0.320218
O O5 0.807112 0.734825 0.622695
O O6 0.589777 0.002902 0.771413
O O7 0.714793 0.368100 0.049100
O O8 0.406874 0.296024 0.361295
O O9 0.649269 0.037053 0.193398
O O10 0.123174 0.234237 0.064683
O O11 0.144492 0.341610 0.163745
O O12 0.961484 0.352361 0.428078
#
# Coordination Sequence:
#
# PCOD8128408 Si02
#       6
#     4   4   4   4   4   4
#     4  11  27  48  75 103 141 189 238 299 348 431
#     4  10  25  47  74 101 135 189 249 289 351 424
#     4  11  22  43  69 100 132 186 240 290 346 425
#     4  11  24  41  69  98 141 185 237 291 355 429
#     4  12  29  45  70 108 147 183 231 296 372 420
#     4  11  27  43  71 102 145 189 234 299 360 433
#
# _framework density 24.94144
#
# number of rings (size 3 to 8) (size 9 to 14) (size 15 to 20)
#    0.000    1.000    3.333    1.000   14.000    2.667 
#    0.000    0.000    0.000    0.000    0.000    0.000 
#    0.000    0.000    0.000    0.000    0.000    0.000 
#
# Total GULP energy -297405.678636 kJ/mol
# GULP energy per Si atom -12391.903276 kJ/mol
# Density = 2.488467 g / cm^3
# Si number density = 24.941440 Si / 1000 Ang^3
#
#
#
# Elastic Constant Matrix: (Units=GPa)
#
#
# Indices 1 2 3 4 5 6 
#
# 1 62.8397 3.9790 17.0099 0.0000 9.7558 0.0000
# 2 3.9790 64.0978 -1.3717 0.0000 -5.0177 0.0000
# 3 17.0099 -1.3717 79.5473 0.0000 2.4191 0.0000
# 4 0.0000 0.0000 0.0000 30.3094 0.0000 -11.3002
# 5 9.7558 -5.0177 2.4191 0.0000 29.2908 0.0000
# 6 0.0000 0.0000 0.0000 -11.3002 0.0000 28.6320
#
#
#
# Elastic Compliance Matrix: (Units=1/GPa)
#
#
# Indices 1 2 3 4 5 6 
#
# 1 0.017940 -0.001659 -0.003684 0.000000 -0.005955 0.000000
# 2 -0.001659 0.015969 0.000531 0.000000 0.003244 0.000000
# 3 -0.003684 0.000531 0.013361 0.000000 0.000214 0.000000
# 4 0.000000 0.000000 0.000000 0.038685 0.000000 0.015268
# 5 -0.005955 0.003244 0.000214 0.000000 0.036662 0.000000
# 6 0.000000 0.000000 0.000000 0.015268 0.000000 0.040952
#
#
# Mechanical properties :
#
#
# Convention : Reuss Voigt Hill
#
# Bulk Modulus (GPa) = 26.56104 27.30214 26.93159
# Shear Modulus (GPa) = 26.91905 30.10427 28.51166
#
# Velocity S-wave (km/s) = 3.28882 3.47796 3.38471
# Velocity P-wave (km/s) = 5.00942 5.20562 5.10846
#
# Compressibility (1/GPa) = 0.03764913
#
# Stress axis : x y z
#
# Youngs Moduli (GPa) = 55.74066 62.61947 74.84197
#
# Poissons Ratio (x) = 0.10387 0.27570
# Poissons Ratio (y) = 0.09246 -0.03977
# Poissons Ratio (z) = 0.20533 -0.03328
#
# Static dielectric constant tensor:
#      x y z
#    x 4.693020 0.000000 0.160030 
#    y 0.000000 4.631780 0.000000 
#    z 0.160030 0.000000 4.377470 
# 
# 
# High freq. dielectric constant tensor:
#      x y z
#    x 2.002040 0.000000 0.009480 
#    y 0.000000 1.992000 0.000000 
#    z 0.009480 0.000000 1.983330 
# 
# From -- ./inp_files/69510.got.cif
#   From: 2010.03.12/outbox.cif.g09.slc.cpg/sg14_35_cif.got.tgz:69510.got - 2010.03.31 13:35:05.
