data_PCOD8128475
_publ_section_title
;
Structure prediction by ZEFSAII (Michael W. Deem and Ramdas Pophale) SiO2 
 PCOD8128475
Probable space group: P 21/C
;
_chemical_formula_sum "Si O2"
_cell_formula_units_Z 24
_cell_length_a 17.673372
_cell_length_b 4.988727
_cell_length_c 23.039696
_cell_angle_alpha 90.000000
_cell_angle_beta 36.126836
_cell_angle_gamma 90.000000
_cell_volume 1197.635793
_symmetry_space_group_name_H-M "P 21/C"
_symmetry_group_IT_number 14
_symmetry_cell_setting 'monoclinic'
loop_
_space_group_symop_operation_xyz
x,y,z
-x,1/2+y,1/2-z
-x,-y,-z
x,1/2-y,1/2+z
loop_
_atom_site_type_symbol
_atom_site_label
_atom_site_fract_x
_atom_site_fract_y
_atom_site_fract_z
Si Si1 0.491342 0.001426 0.293260
Si Si2 0.236523 0.172197 0.218084
Si Si3 0.988391 0.338866 0.797036
Si Si4 0.613699 0.722878 0.487112
Si Si5 0.705789 0.290245 0.994594
Si Si6 0.346769 0.681037 0.200385
O O1 0.548587 0.751549 0.222129
O O2 0.363541 0.902365 0.405168
O O3 0.601905 0.104839 0.268018
O O4 0.095748 0.129634 0.279685
O O5 0.345066 0.124271 0.101693
O O6 0.246395 0.462786 0.239936
O O7 0.267643 0.958299 0.249617
O O8 0.970515 0.621372 0.776007
O O9 0.857614 0.251607 0.910629
O O10 0.641891 0.492002 0.517104
O O11 0.464345 0.798459 0.582177
O O12 0.692930 0.992818 0.451279
#
# Coordination Sequence:
#
# PCOD8128475 Si02
#       6
#     4   4   4   4   4   4
#     4  11  23  42  65  83 110 150 202 265 301 331
#     4  12  21  35  57  85 130 159 182 232 289 357
#     4  12  22  38  58  85 127 167 194 220 273 362
#     4  11  20  35  57  85 128 155 188 232 287 360
#     4  11  21  38  60  90 115 156 206 235 281 348
#     4  11  23  36  56  90 115 154 198 240 302 348
#
# _framework density 20.039480000000001
#
# number of rings (size 3 to 8) (size 9 to 14) (size 15 to 20)
#    0.000    0.667    3.333    8.000    0.000    0.000 
#    0.000    0.000    0.000    6.000    0.000    0.000 
#    0.000    0.000    0.000    0.000    0.000    0.000 
#
# Total GULP energy -297670.251390 kJ/mol
# GULP energy per Si atom -12402.927141 kJ/mol
# Density = 1.999387 g / cm^3
# Si number density = 20.039480 Si / 1000 Ang^3
#
#
#
# Elastic Constant Matrix: (Units=GPa)
#
#
# Indices 1 2 3 4 5 6 
#
# 1 68.7041 13.6139 26.8196 0.0000 -8.9882 0.0000
# 2 13.6139 93.9855 7.9557 0.0000 -7.9828 0.0000
# 3 26.8196 7.9557 41.1266 0.0000 -4.9467 0.0000
# 4 0.0000 0.0000 0.0000 19.6883 0.0000 2.3439
# 5 -8.9882 -7.9828 -4.9467 0.0000 30.4894 0.0000
# 6 0.0000 0.0000 0.0000 2.3439 0.0000 41.2379
#
#
#
# Elastic Compliance Matrix: (Units=1/GPa)
#
#
# Indices 1 2 3 4 5 6 
#
# 1 0.020180 -0.001572 -0.012433 0.000000 0.003521 0.000000
# 2 -0.001572 0.011136 -0.000851 0.000000 0.002314 0.000000
# 3 -0.012433 -0.000851 0.032759 0.000000 0.001427 0.000000
# 4 0.000000 0.000000 0.000000 0.051138 0.000000 -0.002907
# 5 0.003521 0.002314 0.001427 0.000000 0.034674 0.000000
# 6 0.000000 0.000000 0.000000 -0.002907 0.000000 0.024415
#
#
# Mechanical properties :
#
#
# Convention : Reuss Voigt Hill
#
# Bulk Modulus (GPa) = 29.09930 33.39939 31.24935
# Shear Modulus (GPa) = 23.20537 28.64491 25.92514
#
# Velocity S-wave (km/s) = 3.40661 3.78487 3.60071
# Velocity P-wave (km/s) = 5.47958 5.98359 5.73712
#
# Compressibility (1/GPa) = 0.03436509
#
# Stress axis : x y z
#
# Youngs Moduli (GPa) = 49.55288 89.79726 30.52595
#
# Poissons Ratio (x) = 0.14114 0.37952
# Poissons Ratio (y) = 0.07788 0.02598
# Poissons Ratio (z) = 0.61607 0.07641
#
# Static dielectric constant tensor:
#      x y z
#    x 3.570400 0.000000 -0.098780 
#    y 0.000000 3.933510 0.000000 
#    z -0.098780 0.000000 3.367460 
# 
# 
# High freq. dielectric constant tensor:
#      x y z
#    x 1.772050 0.000000 -0.015980 
#    y 0.000000 1.812710 0.000000 
#    z -0.015980 0.000000 1.747710 
# 
# From -- ./inp_files/73468.got.cif
#   From: 2010.03.12/outbox.cif.g09.slc.cpg/sg14_37_cif.got.tgz:73468.got - 2010.03.31 13:35:05.
