data_PCOD8128186
_publ_section_title
;
Structure prediction by ZEFSAII (Michael W. Deem and Ramdas Pophale) SiO2 
 PCOD8128186
Probable space group: P 21/C
;
_chemical_formula_sum "Si O2"
_cell_formula_units_Z 32
_cell_length_a 12.106256
_cell_length_b 14.187155
_cell_length_c 18.113016
_cell_angle_alpha 90.000000
_cell_angle_beta 28.603285
_cell_angle_gamma 90.000000
_cell_volume 1489.353001
_symmetry_space_group_name_H-M "P 21/C"
_symmetry_group_IT_number 14
_symmetry_cell_setting 'monoclinic'
loop_
_space_group_symop_operation_xyz
x,y,z
-x,1/2+y,1/2-z
-x,-y,-z
x,1/2-y,1/2+z
loop_
_atom_site_type_symbol
_atom_site_label
_atom_site_fract_x
_atom_site_fract_y
_atom_site_fract_z
Si Si1 0.088281 0.183857 0.856186
Si Si2 0.576412 0.720391 0.447085
Si Si3 0.035124 0.627749 0.025227
Si Si4 0.362102 0.591155 0.108060
Si Si5 0.250364 0.495994 0.320033
Si Si6 0.387841 0.014872 0.267746
Si Si7 0.951602 0.916655 0.744115
Si Si8 0.255172 0.914818 0.054191
O O1 0.246085 0.256854 0.721455
O O2 0.944383 0.257508 0.992056
O O3 0.913387 0.122765 0.910324
O O4 0.273936 0.114508 0.785712
O O5 0.520715 0.815664 0.524901
O O6 0.728770 0.644138 0.402449
O O7 0.349314 0.673012 0.545896
O O8 0.805941 0.595875 0.115817
O O9 0.020072 0.586207 0.117696
O O10 0.260175 0.586388 0.850765
O O11 0.250236 0.567020 0.251619
O O12 0.171557 0.619561 0.160163
O O13 0.500000 0.500000 0.000000
O O14 0.446087 0.530106 0.260238
O O15 0.000000 0.500000 0.500000
O O16 0.536514 0.024484 0.105012
O O17 0.893199 0.023481 0.801773
#
# Coordination Sequence:
#
# PCOD8128186 Si02
#       8
#     4   4   4   4   4   4   4   4
#     4  11  22  41  66  96 126 180 223 268 331 410
#     4  11  23  39  69 100 126 176 229 274 332 399
#     4  10  24  42  68  99 129 176 229 272 334 408
#     4  12  23  42  69  99 132 176 227 280 335 400
#     4  12  24  43  64  96 138 174 217 273 341 400
#     4  11  23  42  65  96 134 174 220 271 338 400
#     4  11  22  42  68  99 132 170 227 282 334 394
#     4  12  22  43  70  94 138 174 222 280 340 400
#
# _framework density 21.485838999999999
#
# number of rings (size 3 to 8) (size 9 to 14) (size 15 to 20)
#    0.000    0.750    6.250    2.625    1.750    0.000 
#    2.250    1.250    0.000    0.000    0.000    0.000 
#    0.000    0.000    0.000    0.000    0.000    0.000 
#
# Total GULP energy -396626.241340 kJ/mol
# GULP energy per Si atom -12394.570042 kJ/mol
# Density = 2.143694 g / cm^3
# Si number density = 21.485839 Si / 1000 Ang^3
#
#
#
# Elastic Constant Matrix: (Units=GPa)
#
#
# Indices 1 2 3 4 5 6 
#
# 1 104.5987 31.5963 21.1718 0.0000 -18.4735 0.0000
# 2 31.5963 128.1426 27.7222 0.0000 3.6043 0.0000
# 3 21.1718 27.7222 60.6494 0.0000 -2.7544 0.0000
# 4 0.0000 0.0000 0.0000 46.9234 0.0000 2.8488
# 5 -18.4735 3.6043 -2.7544 0.0000 30.5099 0.0000
# 6 0.0000 0.0000 0.0000 2.8488 0.0000 28.2181
#
#
#
# Elastic Compliance Matrix: (Units=1/GPa)
#
#
# Indices 1 2 3 4 5 6 
#
# 1 0.012227 -0.002636 -0.002724 0.000000 0.007469 0.000000
# 2 -0.002636 0.009287 -0.003461 0.000000 -0.003005 0.000000
# 3 -0.002724 -0.003461 0.019043 0.000000 0.000479 0.000000
# 4 0.000000 0.000000 0.000000 0.021443 0.000000 -0.002165
# 5 0.007469 -0.003005 0.000479 0.000000 0.037697 0.000000
# 6 0.000000 0.000000 0.000000 -0.002165 0.000000 0.035657
#
#
# Mechanical properties :
#
#
# Convention : Reuss Voigt Hill
#
# Bulk Modulus (GPa) = 43.64063 50.48573 47.06318
# Shear Modulus (GPa) = 31.12655 35.32361 33.22508
#
# Velocity S-wave (km/s) = 3.81031 4.05908 3.93666
# Velocity P-wave (km/s) = 6.30186 6.74658 6.52801
#
# Compressibility (1/GPa) = 0.02291443
#
# Stress axis : x y z
#
# Youngs Moduli (GPa) = 81.78632 107.67702 52.51212
#
# Poissons Ratio (x) = 0.28378 0.14306
# Poissons Ratio (y) = 0.21555 0.18177
# Poissons Ratio (z) = 0.22282 0.37272
#
# Static dielectric constant tensor:
#      x y z
#    x 0.073840 0.000000 0.766130 
#    y 0.000000 3.336570 0.000000 
#    z 0.766130 0.000000 3.756410 
# 
# 
# High freq. dielectric constant tensor:
#      x y z
#    x 1.833450 0.000000 -0.019460 
#    y 0.000000 1.852390 0.000000 
#    z -0.019460 0.000000 1.844040 
# 
# From -- ./inp_files/57987.got.cif
#   From: 2010.03.12/outbox.cif.g09.slc.cpg/sg14_29_cif.got.tgz:57987.got - 2010.03.31 13:35:05.
