data_PCOD8128998
_publ_section_title
;
Structure prediction by ZEFSAII (Michael W. Deem and Ramdas Pophale) SiO2 
 PCOD8128998
Probable space group: P 21/C
;
_chemical_formula_sum "Si O2"
_cell_formula_units_Z 20
_cell_length_a 18.785350
_cell_length_b 6.489304
_cell_length_c 9.575811
_cell_angle_alpha 90.000000
_cell_angle_beta 52.280636
_cell_angle_gamma 90.000000
_cell_volume 923.376231
_symmetry_space_group_name_H-M "P 21/C"
_symmetry_group_IT_number 14
_symmetry_cell_setting 'monoclinic'
loop_
_space_group_symop_operation_xyz
x,y,z
-x,1/2+y,1/2-z
-x,-y,-z
x,1/2-y,1/2+z
loop_
_atom_site_type_symbol
_atom_site_label
_atom_site_fract_x
_atom_site_fract_y
_atom_site_fract_z
Si Si1 0.182278 0.005668 0.233311
Si Si2 0.613244 0.988609 0.012019
Si Si3 0.535495 0.695816 0.875569
Si Si4 0.118090 0.293987 0.079226
Si Si5 0.057547 0.641267 0.327591
O O1 0.116360 0.811856 0.338623
O O2 0.165535 0.104721 0.101275
O O3 0.163303 0.178263 0.373684
O O4 0.284869 0.931385 0.119855
O O5 0.550365 0.188333 0.085741
O O6 0.600131 0.866092 0.171446
O O7 0.593303 0.842353 0.905171
O O8 0.500000 0.500000 0.000000
O O9 0.128061 0.503774 0.155915
O O10 0.011409 0.254168 0.193614
O O11 0.000000 0.500000 0.500000
#
# Coordination Sequence:
#
# PCOD8128998 Si02
#       5
#     4   4   4   4   4
#     4  12  27  42  71 102 136 176 235 283 326 412
#     4  11  25  45  69 105 131 180 228 278 341 405
#     4  11  23  46  74  95 142 176 218 283 350 406
#     4  12  24  44  67  97 135 180 224 281 339 391
#     4  12  24  44  67  95 138 182 225 276 342 395
#
# _framework density 21.659644
#
# number of rings (size 3 to 8) (size 9 to 14) (size 15 to 20)
#    0.000    0.400    6.000    3.000    0.000    3.200 
#    0.000    0.000    0.000    0.000    0.000    0.000 
#    0.000    0.000    0.000    0.000    0.000    0.000 
#
# Total GULP energy -248137.707115 kJ/mol
# GULP energy per Si atom -12406.885356 kJ/mol
# Density = 2.161035 g / cm^3
# Si number density = 21.659644 Si / 1000 Ang^3
#
#
#
# Elastic Constant Matrix: (Units=GPa)
#
#
# Indices 1 2 3 4 5 6 
#
# 1 120.2206 40.7545 45.4310 0.0000 -16.0917 0.0000
# 2 40.7545 98.6668 35.8194 0.0000 -1.6034 0.0000
# 3 45.4310 35.8194 101.1899 0.0000 5.3827 0.0000
# 4 0.0000 0.0000 0.0000 42.8295 0.0000 3.8642
# 5 -16.0917 -1.6034 5.3827 0.0000 35.0599 0.0000
# 6 0.0000 0.0000 0.0000 3.8642 0.0000 30.0984
#
#
#
# Elastic Compliance Matrix: (Units=1/GPa)
#
#
# Indices 1 2 3 4 5 6 
#
# 1 0.011919 -0.003174 -0.004548 0.000000 0.006024 0.000000
# 2 -0.003174 0.012523 -0.002985 0.000000 -0.000426 0.000000
# 3 -0.004548 -0.002985 0.013207 0.000000 -0.004252 0.000000
# 4 0.000000 0.000000 0.000000 0.023622 0.000000 -0.003033
# 5 0.006024 -0.000426 -0.004252 0.000000 0.031921 0.000000
# 6 0.000000 0.000000 0.000000 -0.003033 0.000000 0.033614
#
#
# Mechanical properties :
#
#
# Convention : Reuss Voigt Hill
#
# Bulk Modulus (GPa) = 61.59756 62.67636 62.13696
# Shear Modulus (GPa) = 32.54528 34.80237 33.67382
#
# Velocity S-wave (km/s) = 3.88051 4.01282 3.94722
# Velocity P-wave (km/s) = 6.96982 7.10423 7.03735
#
# Compressibility (1/GPa) = 0.01623441
#
# Stress axis : x y z
#
# Youngs Moduli (GPa) = 83.89912 79.85289 75.71615
#
# Poissons Ratio (x) = 0.25347 0.34436
# Poissons Ratio (y) = 0.26631 0.22603
# Poissons Ratio (z) = 0.38158 0.23837
#
# Static dielectric constant tensor:
#      x y z
#    x 3.855290 0.000000 0.186210 
#    y 0.000000 3.987190 0.000000 
#    z 0.186210 0.000000 3.857330 
# 
# 
# High freq. dielectric constant tensor:
#      x y z
#    x 1.848940 0.000000 0.013100 
#    y 0.000000 1.857000 0.000000 
#    z 0.013100 0.000000 1.855800 
# 
# From -- ./inp_files/18337.got.cif
#   From: 2010.03.12/outbox.cif.g09.slc.cpg/sg14_10_cif.got.tgz:18337.got - 2010.03.31 13:35:05.
