data_PCOD8128916
_publ_section_title
;
Structure prediction by ZEFSAII (Michael W. Deem and Ramdas Pophale) SiO2 
 PCOD8128916
Probable space group: P 21/C
;
_chemical_formula_sum "Si O2"
_cell_formula_units_Z 20
_cell_length_a 11.334325
_cell_length_b 7.893896
_cell_length_c 13.476046
_cell_angle_alpha 90.000000
_cell_angle_beta 131.516104
_cell_angle_gamma 90.000000
_cell_volume 902.812708
_symmetry_space_group_name_H-M "P 21/C"
_symmetry_group_IT_number 14
_symmetry_cell_setting 'monoclinic'
loop_
_space_group_symop_operation_xyz
x,y,z
-x,1/2+y,1/2-z
-x,-y,-z
x,1/2-y,1/2+z
loop_
_atom_site_type_symbol
_atom_site_label
_atom_site_fract_x
_atom_site_fract_y
_atom_site_fract_z
Si Si1 0.447933 0.938225 0.862387
Si Si2 0.870137 0.117639 0.571780
Si Si3 0.640678 0.843610 0.361265
Si Si4 0.958305 0.810954 0.999993
Si Si5 0.882145 0.360268 0.745726
O O1 0.538073 0.766745 0.880991
O O2 0.263026 0.902175 0.763938
O O3 0.469954 0.081299 0.788668
O O4 0.500000 0.000000 0.000000
O O5 0.818576 0.281912 0.606833
O O6 0.944438 0.177475 0.510569
O O7 0.720022 0.998141 0.467088
O O8 0.007527 0.023027 0.710891
O O9 0.772002 0.722575 0.384346
O O10 0.007633 0.778762 0.140316
O O11 0.000000 0.000000 0.000000
#
# Coordination Sequence:
#
# PCOD8128916 Si02
#       5
#     4   4   4   4   4
#     4  12  29  46  70 103 147 188 235 287 362 426
#     4  11  23  45  71 103 137 179 240 289 351 415
#     4  11  27  48  69 101 149 186 233 298 348 426
#     4  11  23  43  74 100 133 181 235 294 351 412
#     4  11  24  43  70 101 136 181 232 289 349 423
#
# _framework density 22.152987
#
# number of rings (size 3 to 8) (size 9 to 14) (size 15 to 20)
#    0.000    0.800    4.000    2.400   14.000    2.400 
#    0.000    0.000    0.000    0.000    0.000    0.000 
#    0.000    0.000    0.000    0.000    0.000    0.000 
#
# Total GULP energy -247976.438470 kJ/mol
# GULP energy per Si atom -12398.821924 kJ/mol
# Density = 2.210257 g / cm^3
# Si number density = 22.152987 Si / 1000 Ang^3
#
#
#
# Elastic Constant Matrix: (Units=GPa)
#
#
# Indices 1 2 3 4 5 6 
#
# 1 75.3811 26.3955 33.5437 0.0000 -6.5548 0.0000
# 2 26.3955 104.7979 48.4731 0.0000 -7.7782 0.0000
# 3 33.5437 48.4731 118.5797 0.0000 -10.1013 0.0000
# 4 0.0000 0.0000 0.0000 36.7951 0.0000 -15.3151
# 5 -6.5548 -7.7782 -10.1013 0.0000 30.6226 0.0000
# 6 0.0000 0.0000 0.0000 -15.3151 0.0000 52.7109
#
#
#
# Elastic Compliance Matrix: (Units=1/GPa)
#
#
# Indices 1 2 3 4 5 6 
#
# 1 0.015708 -0.002272 -0.003372 0.000000 0.001673 0.000000
# 2 -0.002272 0.012158 -0.004224 0.000000 0.001208 0.000000
# 3 -0.003372 -0.004224 0.011278 0.000000 0.001925 0.000000
# 4 0.000000 0.000000 0.000000 0.030916 0.000000 0.008983
# 5 0.001673 0.001208 0.001925 0.000000 0.033956 0.000000
# 6 0.000000 0.000000 0.000000 0.008983 0.000000 0.021581
#
#
# Mechanical properties :
#
#
# Convention : Reuss Voigt Hill
#
# Bulk Modulus (GPa) = 51.52985 57.28703 54.40844
# Shear Modulus (GPa) = 32.93748 36.71550 34.82649
#
# Velocity S-wave (km/s) = 3.86011 4.07549 3.96926
# Velocity P-wave (km/s) = 6.57105 6.93268 6.75428
#
# Compressibility (1/GPa) = 0.01940623
#
# Stress axis : x y z
#
# Youngs Moduli (GPa) = 63.66359 82.24967 88.66987
#
# Poissons Ratio (x) = 0.18691 0.29899
# Poissons Ratio (y) = 0.14467 0.37456
# Poissons Ratio (z) = 0.21467 0.34744
#
# Static dielectric constant tensor:
#      x y z
#    x 3.999300 0.000000 0.001580 
#    y 0.000000 3.934690 0.000000 
#    z 0.001580 0.000000 3.973140 
# 
# 
# High freq. dielectric constant tensor:
#      x y z
#    x 1.867600 0.000000 -0.003540 
#    y 0.000000 1.878710 0.000000 
#    z -0.003540 0.000000 1.877260 
# 
# From -- ./inp_files/28234.got.cif
#   From: 2010.03.12/outbox.cif.g09.slc.cpg/sg14_15_cif.got.tgz:28234.got - 2010.03.31 13:35:05.
