data_PCOD8128283
_publ_section_title
;
Structure prediction by ZEFSAII (Michael W. Deem and Ramdas Pophale) SiO2 
 PCOD8128283
Probable space group: P 21/C
;
_chemical_formula_sum "Si O2"
_cell_formula_units_Z 28
_cell_length_a 8.721618
_cell_length_b 24.599977
_cell_length_c 8.829121
_cell_angle_alpha 90.000000
_cell_angle_beta 137.179366
_cell_angle_gamma 90.000000
_cell_volume 1287.567525
_symmetry_space_group_name_H-M "P 21/C"
_symmetry_group_IT_number 14
_symmetry_cell_setting 'monoclinic'
loop_
_space_group_symop_operation_xyz
x,y,z
-x,1/2+y,1/2-z
-x,-y,-z
x,1/2-y,1/2+z
loop_
_atom_site_type_symbol
_atom_site_label
_atom_site_fract_x
_atom_site_fract_y
_atom_site_fract_z
Si Si1 0.838119 0.457714 0.464204
Si Si2 0.378602 0.011307 0.754903
Si Si3 0.161566 0.653125 0.705170
Si Si4 0.950751 0.425626 0.891329
Si Si5 0.162791 0.264412 0.648711
Si Si6 0.205838 0.819816 0.573657
Si Si7 0.474082 0.227800 0.638323
O O1 0.579706 0.480742 0.278315
O O2 0.859682 0.407352 0.368070
O O3 0.917661 0.442369 0.691699
O O4 0.000000 0.500000 0.500000
O O5 0.212054 0.064003 0.629611
O O6 0.212194 0.959649 0.611470
O O7 0.500000 0.000000 0.000000
O O8 0.330227 0.683521 0.712865
O O9 0.926183 0.686135 0.520897
O O10 0.248008 0.652507 0.941145
O O11 0.886265 0.362720 0.869592
O O12 0.319778 0.222306 0.672647
O O13 0.968155 0.228787 0.583043
O O14 0.318119 0.290386 0.887766
O O15 0.429723 0.790167 0.801330
#
# Coordination Sequence:
#
# PCOD8128283 Si02
#       7
#     4   4   4   4   4   4   4
#     4  11  27  45  67  99 137 175 228 287 337 397
#     4   9  22  45  66  92 128 177 226 275 329 394
#     4  11  26  42  64 102 135 171 224 273 332 403
#     4  10  24  44  70  96 129 181 227 275 337 404
#     4  11  24  43  66  96 138 177 215 269 336 400
#     4  11  25  41  68 101 133 174 226 270 330 408
#     4  11  24  44  66  97 134 178 219 270 330 400
#
# _framework density 21.746434000000001
#
# number of rings (size 3 to 8) (size 9 to 14) (size 15 to 20)
#    0.000    1.429    2.857    0.000   12.000    2.857 
#    0.000    0.000    0.000    0.000    0.000    0.000 
#    0.000    0.000    0.000    0.000    0.000    0.000 
#
# Total GULP energy -346994.262024 kJ/mol
# GULP energy per Si atom -12392.652215 kJ/mol
# Density = 2.169694 g / cm^3
# Si number density = 21.746434 Si / 1000 Ang^3
#
#
#
# Elastic Constant Matrix: (Units=GPa)
#
#
# Indices 1 2 3 4 5 6 
#
# 1 119.9176 43.3758 37.8194 0.0000 9.7447 0.0000
# 2 43.3758 108.1764 24.3326 0.0000 1.9469 0.0000
# 3 37.8194 24.3326 109.0164 0.0000 2.3740 0.0000
# 4 0.0000 0.0000 0.0000 24.0343 0.0000 -5.1159
# 5 9.7447 1.9469 2.3740 0.0000 40.9895 0.0000
# 6 0.0000 0.0000 0.0000 -5.1159 0.0000 37.8625
#
#
#
# Elastic Compliance Matrix: (Units=1/GPa)
#
#
# Indices 1 2 3 4 5 6 
#
# 1 0.010732 -0.003618 -0.002867 0.000000 -0.002213 0.000000
# 2 -0.003618 0.010957 -0.001199 0.000000 0.000409 0.000000
# 3 -0.002867 -0.001199 0.010432 0.000000 0.000134 0.000000
# 4 0.000000 0.000000 0.000000 0.042839 0.000000 0.005788
# 5 -0.002213 0.000409 0.000134 0.000000 0.024895 0.000000
# 6 0.000000 0.000000 0.000000 0.005788 0.000000 0.027193
#
#
# Mechanical properties :
#
#
# Convention : Reuss Voigt Hill
#
# Bulk Modulus (GPa) = 59.69512 60.90733 60.30122
# Shear Modulus (GPa) = 33.78281 36.01610 34.89946
#
# Velocity S-wave (km/s) = 3.94571 4.07404 4.01039
# Velocity P-wave (km/s) = 6.94754 7.08514 7.01667
#
# Compressibility (1/GPa) = 0.01675179
#
# Stress axis : x y z
#
# Youngs Moduli (GPa) = 93.17884 91.26190 95.85529
#
# Poissons Ratio (x) = 0.33023 0.27484
# Poissons Ratio (y) = 0.33717 0.11496
# Poissons Ratio (z) = 0.26717 0.10945
#
# Static dielectric constant tensor:
#      x y z
#    x 3.812780 0.000000 0.518420 
#    y 0.000000 3.800320 0.000000 
#    z 0.518420 0.000000 3.905420 
# 
# 
# High freq. dielectric constant tensor:
#      x y z
#    x 1.860130 0.000000 0.013210 
#    y 0.000000 1.842230 0.000000 
#    z 0.013210 0.000000 1.858300 
# 
# From -- ./inp_files/11109.got.cif
#   From: 2010.03.12/outbox.cif.g09.slc.cpg/sg14_6_cif.got.tgz:11109.got - 2010.03.31 13:35:05.
