data_PCOD8128933
_publ_section_title
;
Structure prediction by ZEFSAII (Michael W. Deem and Ramdas Pophale) SiO2 
 PCOD8128933
Probable space group: P 21/C
;
_chemical_formula_sum "Si O2"
_cell_formula_units_Z 24
_cell_length_a 9.042519
_cell_length_b 13.462737
_cell_length_c 17.743552
_cell_angle_alpha 90.000000
_cell_angle_beta 148.234935
_cell_angle_gamma 90.000000
_cell_volume 1137.130129
_symmetry_space_group_name_H-M "P 21/C"
_symmetry_group_IT_number 14
_symmetry_cell_setting 'monoclinic'
loop_
_space_group_symop_operation_xyz
x,y,z
-x,1/2+y,1/2-z
-x,-y,-z
x,1/2-y,1/2+z
loop_
_atom_site_type_symbol
_atom_site_label
_atom_site_fract_x
_atom_site_fract_y
_atom_site_fract_z
Si Si1 0.633819 0.465420 0.717498
Si Si2 0.117535 0.382850 0.415216
Si Si3 0.448271 0.516950 0.798475
Si Si4 0.100549 0.156241 0.733659
Si Si5 0.530431 0.658890 0.076105
Si Si6 0.828952 0.656924 0.049401
O O1 0.382409 0.451767 0.549351
O O2 0.517355 0.460457 0.751541
O O3 0.782586 0.570328 0.768880
O O4 0.851111 0.375915 0.798921
O O5 0.074713 0.382914 0.307362
O O6 0.174546 0.272956 0.471927
O O7 0.844607 0.425996 0.337722
O O8 0.424770 0.437501 0.854455
O O9 0.693749 0.596263 0.921986
O O10 0.306182 0.249586 0.815732
O O11 0.795545 0.188615 0.571708
O O12 0.650750 0.633048 0.046484
#
# Coordination Sequence:
#
# PCOD8128933 Si02
#       6
#     4   4   4   4   4   4
#     4  12  26  43  67 102 135 176 217 273 335 397
#     4  11  25  43  70  97 132 175 226 274 324 394
#     4  12  24  46  66  99 138 175 217 272 339 394
#     4  11  25  44  69 100 132 176 227 273 324 386
#     4  11  25  43  71  98 133 177 224 276 323 388
#     4  11  23  44  69  95 130 178 226 268 330 387
#
# _framework density 21.105763
#
# number of rings (size 3 to 8) (size 9 to 14) (size 15 to 20)
#    0.000    0.667    3.333    4.000    9.333    2.667 
#    0.000    0.000    0.000    0.000    0.000    0.000 
#    0.000    0.000    0.000    0.000    0.000    0.000 
#
# Total GULP energy -297825.815789 kJ/mol
# GULP energy per Si atom -12409.408991 kJ/mol
# Density = 2.105773 g / cm^3
# Si number density = 21.105763 Si / 1000 Ang^3
#
#
#
# Elastic Constant Matrix: (Units=GPa)
#
#
# Indices 1 2 3 4 5 6 
#
# 1 52.0650 54.3189 38.4508 0.0000 14.2806 0.0000
# 2 54.3189 92.9174 50.1385 0.0000 8.5142 0.0000
# 3 38.4508 50.1385 125.1871 0.0000 25.6438 0.0000
# 4 0.0000 0.0000 0.0000 43.2744 0.0000 10.6778
# 5 14.2806 8.5142 25.6438 0.0000 26.3623 0.0000
# 6 0.0000 0.0000 0.0000 10.6778 0.0000 13.3723
#
#
#
# Elastic Compliance Matrix: (Units=1/GPa)
#
#
# Indices 1 2 3 4 5 6 
#
# 1 0.059172 -0.032115 -0.001088 0.000000 -0.020624 0.000000
# 2 -0.032115 0.031187 -0.005154 0.000000 0.012338 0.000000
# 3 -0.001088 -0.005154 0.012394 0.000000 -0.009803 0.000000
# 4 0.000000 0.000000 0.000000 0.028779 0.000000 -0.022980
# 5 -0.020624 0.012338 -0.009803 0.000000 0.054656 0.000000
# 6 0.000000 0.000000 0.000000 -0.022980 0.000000 0.093131
#
#
# Mechanical properties :
#
#
# Convention : Reuss Voigt Hill
#
# Bulk Modulus (GPa) = 38.40192 61.77623 50.08908
# Shear Modulus (GPa) = 13.70946 25.08588 19.39767
#
# Velocity S-wave (km/s) = 2.55141 3.45132 3.03491
# Velocity P-wave (km/s) = 5.18788 6.72425 6.00540
#
# Compressibility (1/GPa) = 0.02604037
#
# Stress axis : x y z
#
# Youngs Moduli (GPa) = 16.89990 32.06466 80.68206
#
# Poissons Ratio (x) = 1.02975 0.08774
# Poissons Ratio (y) = 0.54274 0.41584
# Poissons Ratio (z) = 0.01838 0.16526
#
# Static dielectric constant tensor:
#      x y z
#    x 3.687050 0.000000 0.160580 
#    y 0.000000 3.867420 0.000000 
#    z 0.160580 0.000000 3.973390 
# 
# 
# High freq. dielectric constant tensor:
#      x y z
#    x 1.823350 0.000000 0.011540 
#    y 0.000000 1.834620 0.000000 
#    z 0.011540 0.000000 1.843250 
# 
# From -- ./inp_files/8580.got.cif
#   From: 2010.03.12/outbox.cif.g09.slc.cpg/sg14_5_cif.got.tgz:8580.got - 2010.03.31 13:35:05.
