data_PCOD8128932
_publ_section_title
;
Structure prediction by ZEFSAII (Michael W. Deem and Ramdas Pophale) SiO2 
 PCOD8128932
Probable space group: P 21/C
;
_chemical_formula_sum "Si O2"
_cell_formula_units_Z 32
_cell_length_a 11.209096
_cell_length_b 14.818440
_cell_length_c 9.149847
_cell_angle_alpha 90.000000
_cell_angle_beta 68.938557
_cell_angle_gamma 90.000000
_cell_volume 1418.272169
_symmetry_space_group_name_H-M "P 21/C"
_symmetry_group_IT_number 14
_symmetry_cell_setting 'monoclinic'
loop_
_space_group_symop_operation_xyz
x,y,z
-x,1/2+y,1/2-z
-x,-y,-z
x,1/2-y,1/2+z
loop_
_atom_site_type_symbol
_atom_site_label
_atom_site_fract_x
_atom_site_fract_y
_atom_site_fract_z
Si Si1 0.101931 0.851110 0.391250
Si Si2 0.254404 0.480472 0.714047
Si Si3 0.230917 0.764717 0.613150
Si Si4 0.808707 0.656413 0.022095
Si Si5 0.313047 0.349355 0.462346
Si Si6 0.421008 0.894477 0.660611
Si Si7 0.434917 0.614450 0.485376
Si Si8 0.647614 0.912453 0.369061
O O1 0.184339 0.824396 0.497166
O O2 0.113420 0.777741 0.256373
O O3 0.955302 0.854260 0.503681
O O4 0.146552 0.948473 0.310170
O O5 0.275391 0.406697 0.832622
O O6 0.217567 0.421390 0.584794
O O7 0.388527 0.531065 0.611157
O O8 0.309192 0.821711 0.697476
O O9 0.319754 0.684270 0.519594
O O10 0.763691 0.759667 0.044710
O O11 0.786585 0.618686 0.867682
O O12 0.437559 0.336902 0.510859
O O13 0.370250 0.388388 0.289784
O O14 0.459677 0.917701 0.809135
O O15 0.543744 0.859520 0.514950
O O16 0.367143 0.981674 0.600912
#
# Coordination Sequence:
#
# PCOD8128932 Si02
#       8
#     4   4   4   4   4   4   4   4
#     4  11  27  47  75 101 143 195 246 296 359 426
#     4  11  25  48  73 103 142 192 239 297 368 431
#     4  11  24  44  72 103 138 186 238 298 351 430
#     4  12  27  48  69 104 145 192 243 298 363 429
#     4  12  26  44  72 104 147 185 238 298 369 431
#     4  11  23  44  69 102 144 176 235 291 361 433
#     4  11  24  45  70 107 142 190 233 295 372 429
#     4  11  26  40  68 104 137 185 231 294 356 435
#
# _framework density 22.562664999999999
#
# number of rings (size 3 to 8) (size 9 to 14) (size 15 to 20)
#    0.000    0.750    2.500    3.750   10.500    2.000 
#    0.000    0.625    0.000    0.000    0.000    0.000 
#    0.000    0.000    0.000    0.000    0.000    0.000 
#
# Total GULP energy -396707.352928 kJ/mol
# GULP energy per Si atom -12397.104779 kJ/mol
# Density = 2.251131 g / cm^3
# Si number density = 22.562665 Si / 1000 Ang^3
#
#
#
# Elastic Constant Matrix: (Units=GPa)
#
#
# Indices 1 2 3 4 5 6 
#
# 1 83.2327 40.1804 55.4550 0.0000 6.2947 0.0000
# 2 40.1804 129.8741 57.2711 0.0000 -0.8591 0.0000
# 3 55.4550 57.2711 132.1266 0.0000 7.2691 0.0000
# 4 0.0000 0.0000 0.0000 35.6405 0.0000 7.2950
# 5 6.2947 -0.8591 7.2691 0.0000 28.7065 0.0000
# 6 0.0000 0.0000 0.0000 7.2950 0.0000 27.6683
#
#
#
# Elastic Compliance Matrix: (Units=1/GPa)
#
#
# Indices 1 2 3 4 5 6 
#
# 1 0.017560 -0.002790 -0.006028 0.000000 -0.002408 0.000000
# 2 -0.002790 0.010014 -0.003265 0.000000 0.001738 0.000000
# 3 -0.006028 -0.003265 0.011608 0.000000 -0.001715 0.000000
# 4 0.000000 0.000000 0.000000 0.029659 0.000000 -0.007820
# 5 -0.002408 0.001738 -0.001715 0.000000 0.035850 0.000000
# 6 0.000000 0.000000 0.000000 -0.007820 0.000000 0.038204
#
#
# Mechanical properties :
#
#
# Convention : Reuss Voigt Hill
#
# Bulk Modulus (GPa) = 66.59974 72.33850 69.46912
# Shear Modulus (GPa) = 29.05830 31.22485 30.14158
#
# Velocity S-wave (km/s) = 3.59262 3.72414 3.65897
# Velocity P-wave (km/s) = 6.84039 7.11499 6.97904
#
# Compressibility (1/GPa) = 0.01501507
#
# Stress axis : x y z
#
# Youngs Moduli (GPa) = 56.94765 99.85552 86.14505
#
# Poissons Ratio (x) = 0.27863 0.51930
# Poissons Ratio (y) = 0.15890 0.28129
# Poissons Ratio (z) = 0.34329 0.32606
#
# Static dielectric constant tensor:
#      x y z
#    x 3.730790 0.000000 -0.009880 
#    y 0.000000 4.322010 0.000000 
#    z -0.009880 0.000000 4.198870 
# 
# 
# High freq. dielectric constant tensor:
#      x y z
#    x 1.865870 0.000000 0.004200 
#    y 0.000000 1.907350 0.000000 
#    z 0.004200 0.000000 1.903030 
# 
# From -- ./inp_files/13289.got.cif
#   From: 2010.03.12/outbox.cif.g09.slc.cpg/sg14_7_cif.got.tgz:13289.got - 2010.03.31 13:35:05.
