data_PCOD8128244
_publ_section_title
;
Structure prediction by ZEFSAII (Michael W. Deem and Ramdas Pophale) SiO2 
 PCOD8128244
Probable space group: P 21/C
;
_chemical_formula_sum "Si O2"
_cell_formula_units_Z 28
_cell_length_a 7.640588
_cell_length_b 4.989770
_cell_length_c 28.338102
_cell_angle_alpha 90.000000
_cell_angle_beta 86.695107
_cell_angle_gamma 90.000000
_cell_volume 1078.587024
_symmetry_space_group_name_H-M "P 21/C"
_symmetry_group_IT_number 14
_symmetry_cell_setting 'monoclinic'
loop_
_space_group_symop_operation_xyz
x,y,z
-x,1/2+y,1/2-z
-x,-y,-z
x,1/2-y,1/2+z
loop_
_atom_site_type_symbol
_atom_site_label
_atom_site_fract_x
_atom_site_fract_y
_atom_site_fract_z
Si Si1 0.417778 0.712909 0.234355
Si Si2 0.925869 0.484401 0.228319
Si Si3 0.680443 0.363016 0.363494
Si Si4 0.151847 0.969675 0.559376
Si Si5 0.769707 0.648181 0.041436
Si Si6 0.653281 0.368498 0.595980
Si Si7 0.996523 0.311539 0.638428
O O1 0.420290 0.415120 0.256748
O O2 0.270554 0.885971 0.263022
O O3 0.390544 0.681046 0.178469
O O4 0.980051 0.446941 0.172632
O O5 0.948182 0.794220 0.241726
O O6 0.537546 0.594852 0.377462
O O7 0.864083 0.482916 0.340911
O O8 0.714150 0.193352 0.410086
O O9 0.261720 0.060079 0.511962
O O10 0.083191 0.232288 0.587241
O O11 0.977757 0.804577 0.547376
O O12 0.680963 0.435466 0.078532
O O13 0.673816 0.929975 0.051422
O O14 0.805397 0.441781 0.631966
#
# Coordination Sequence:
#
# PCOD8128244 Si02
#       7
#     4   4   4   4   4   4   4
#     4  12  28  48  71 105 145 185 238 306 361 427
#     4  12  25  46  73 101 139 185 239 297 362 436
#     4  12  26  46  74 104 141 191 240 292 363 428
#     4  10  24  43  78  99 148 186 238 293 356 425
#     4  10  24  47  69 109 143 189 233 293 359 421
#     4  11  26  44  71 102 148 184 237 292 352 423
#     4  11  25  46  70 104 138 190 239 292 358 430
#
# _framework density 25.959887999999999
#
# number of rings (size 3 to 8) (size 9 to 14) (size 15 to 20)
#    0.000    0.857    2.857    2.571    6.000    5.143 
#    0.000    0.000    0.000    0.000    0.000    0.000 
#    0.000    0.000    0.000    0.000    0.000    0.000 
#
# Total GULP energy -347237.754851 kJ/mol
# GULP energy per Si atom -12401.348388 kJ/mol
# Density = 2.590080 g / cm^3
# Si number density = 25.959888 Si / 1000 Ang^3
#
#
#
# Elastic Constant Matrix: (Units=GPa)
#
#
# Indices 1 2 3 4 5 6 
#
# 1 101.0288 1.3069 21.2074 0.0000 9.8231 0.0000
# 2 1.3069 48.7607 -3.1649 0.0000 11.3928 0.0000
# 3 21.2074 -3.1649 127.0587 0.0000 17.9832 0.0000
# 4 0.0000 0.0000 0.0000 33.3356 0.0000 -0.1549
# 5 9.8231 11.3928 17.9832 0.0000 33.2837 0.0000
# 6 0.0000 0.0000 0.0000 -0.1549 0.0000 34.4141
#
#
#
# Elastic Compliance Matrix: (Units=1/GPa)
#
#
# Indices 1 2 3 4 5 6 
#
# 1 0.010421 0.000187 -0.001397 0.000000 -0.002385 0.000000
# 2 0.000187 0.022668 0.001775 0.000000 -0.008774 0.000000
# 3 -0.001397 0.001775 0.008852 0.000000 -0.004978 0.000000
# 4 0.000000 0.000000 0.000000 0.029999 0.000000 0.000135
# 5 -0.002385 -0.008774 -0.004978 0.000000 0.036441 0.000000
# 6 0.000000 0.000000 0.000000 0.000135 0.000000 0.029058
#
#
# Mechanical properties :
#
#
# Convention : Reuss Voigt Hill
#
# Bulk Modulus (GPa) = 23.21681 35.06075 29.13878
# Shear Modulus (GPa) = 33.18572 37.37328 35.27950
#
# Velocity S-wave (km/s) = 3.57928 3.79839 3.69046
# Velocity P-wave (km/s) = 5.10337 5.72470 5.42294
#
# Compressibility (1/GPa) = 0.04307223
#
# Stress axis : x y z
#
# Youngs Moduli (GPa) = 95.96094 44.11409 112.96385
#
# Poissons Ratio (x) = -0.00826 0.15783
# Poissons Ratio (y) = -0.01796 -0.20053
# Poissons Ratio (z) = 0.13407 -0.07831
#
# Static dielectric constant tensor:
#      x y z
#    x 4.865360 0.000000 0.098860 
#    y 0.000000 4.379910 0.000000 
#    z 0.098860 0.000000 4.651470 
# 
# 
# High freq. dielectric constant tensor:
#      x y z
#    x 2.045680 0.000000 0.000540 
#    y 0.000000 2.024530 0.000000 
#    z 0.000540 0.000000 2.041360 
# 
# From -- ./inp_files/79023.got.cif
#   From: 2010.03.12/outbox.cif.g09.slc.cpg/sg14_40_cif.got.tgz:79023.got - 2010.03.31 13:35:05.
