data_PCOD8128992
_publ_section_title
;
Structure prediction by ZEFSAII (Michael W. Deem and Ramdas Pophale) SiO2 
 PCOD8128992
Probable space group: P 21/C
;
_chemical_formula_sum "Si O2"
_cell_formula_units_Z 24
_cell_length_a 10.390952
_cell_length_b 10.924720
_cell_length_c 11.606662
_cell_angle_alpha 90.000000
_cell_angle_beta 51.927743
_cell_angle_gamma 90.000000
_cell_volume 1037.233821
_symmetry_space_group_name_H-M "P 21/C"
_symmetry_group_IT_number 14
_symmetry_cell_setting 'monoclinic'
loop_
_space_group_symop_operation_xyz
x,y,z
-x,1/2+y,1/2-z
-x,-y,-z
x,1/2-y,1/2+z
loop_
_atom_site_type_symbol
_atom_site_label
_atom_site_fract_x
_atom_site_fract_y
_atom_site_fract_z
Si Si1 0.668168 0.947149 0.553467
Si Si2 0.826496 0.558603 0.736414
Si Si3 0.801063 0.370137 0.155780
Si Si4 0.862023 0.720809 0.506684
Si Si5 0.672326 0.123561 0.177937
Si Si6 0.170672 0.521125 0.620353
O O1 0.680142 0.960110 0.408759
O O2 0.717844 0.810547 0.554906
O O3 0.481675 0.958673 0.698494
O O4 0.787903 0.045596 0.549437
O O5 0.804631 0.671068 0.662072
O O6 0.831797 0.434956 0.655136
O O7 0.992491 0.583128 0.714276
O O8 0.659823 0.266183 0.219334
O O9 0.767948 0.460957 0.282254
O O10 0.970310 0.296962 0.072084
O O11 0.854867 0.618205 0.408964
O O12 0.702574 0.100888 0.025777
#
# Coordination Sequence:
#
# PCOD8128992 Si02
#       6
#     4   4   4   4   4   4
#     4  12  29  41  72 104 139 179 237 284 350 412
#     4  11  23  46  71  97 138 189 226 282 348 408
#     4  12  26  44  75 105 136 184 236 281 344 416
#     4  11  24  46  70 103 137 180 236 288 339 414
#     4  11  26  47  66 104 144 180 226 293 349 402
#     4  11  24  45  73  98 138 184 231 279 352 405
#
# _framework density 23.138466999999999
#
# number of rings (size 3 to 8) (size 9 to 14) (size 15 to 20)
#    0.000    0.667    5.000    2.000    9.333    2.000 
#    0.000    0.000    0.000    0.000    0.000    0.000 
#    0.000    0.000    0.000    0.000    0.000    0.000 
#
# Total GULP energy -297478.941340 kJ/mol
# GULP energy per Si atom -12394.955889 kJ/mol
# Density = 2.308580 g / cm^3
# Si number density = 23.138467 Si / 1000 Ang^3
#
#
#
# Elastic Constant Matrix: (Units=GPa)
#
#
# Indices 1 2 3 4 5 6 
#
# 1 50.8471 39.0648 28.4630 0.0000 18.3423 0.0000
# 2 39.0648 127.6411 32.6084 0.0000 21.0796 0.0000
# 3 28.4630 32.6084 135.3617 0.0000 17.2499 0.0000
# 4 0.0000 0.0000 0.0000 29.0225 0.0000 0.3411
# 5 18.3423 21.0796 17.2499 0.0000 40.6668 0.0000
# 6 0.0000 0.0000 0.0000 0.3411 0.0000 32.7058
#
#
#
# Elastic Compliance Matrix: (Units=1/GPa)
#
#
# Indices 1 2 3 4 5 6 
#
# 1 0.029996 -0.006871 -0.003575 0.000000 -0.008451 0.000000
# 2 -0.006871 0.010476 -0.000826 0.000000 -0.001980 0.000000
# 3 -0.003575 -0.000826 0.008540 0.000000 -0.001582 0.000000
# 4 0.000000 0.000000 0.000000 0.034460 0.000000 -0.000359
# 5 -0.008451 -0.001980 -0.001582 0.000000 0.030099 0.000000
# 6 0.000000 0.000000 0.000000 -0.000359 0.000000 0.030579
#
#
# Mechanical properties :
#
#
# Convention : Reuss Voigt Hill
#
# Bulk Modulus (GPa) = 37.78451 57.12473 47.45462
# Shear Modulus (GPa) = 28.48723 34.72660 31.60691
#
# Velocity S-wave (km/s) = 3.51260 3.87824 3.69994
# Velocity P-wave (km/s) = 5.72855 6.69299 6.22947
#
# Compressibility (1/GPa) = 0.02646587
#
# Stress axis : x y z
#
# Youngs Moduli (GPa) = 33.33819 95.46022 117.09634
#
# Poissons Ratio (x) = 0.65593 0.41863
# Poissons Ratio (y) = 0.22907 0.09676
# Poissons Ratio (z) = 0.11919 0.07888
#
# Static dielectric constant tensor:
#      x y z
#    x 4.049910 0.000000 0.108830 
#    y 0.000000 4.277520 0.000000 
#    z 0.108830 0.000000 4.139350 
# 
# 
# High freq. dielectric constant tensor:
#      x y z
#    x 1.908010 0.000000 0.009200 
#    y 0.000000 1.919480 0.000000 
#    z 0.009200 0.000000 1.915380 
# 
# From -- ./inp_files/28984.got.cif
#   From: 2010.03.12/outbox.cif.g09.slc.cpg/sg14_15_cif.got.tgz:28984.got - 2010.03.31 13:35:05.
