data_PCOD8128297
_publ_section_title
;
Structure prediction by ZEFSAII (Michael W. Deem and Ramdas Pophale) SiO2 
 PCOD8128297
Probable space group: P 21/C
;
_chemical_formula_sum "Si O2"
_cell_formula_units_Z 28
_cell_length_a 5.167483
_cell_length_b 15.601160
_cell_length_c 17.234709
_cell_angle_alpha 90.000000
_cell_angle_beta 58.542264
_cell_angle_gamma 90.000000
_cell_volume 1185.227830
_symmetry_space_group_name_H-M "P 21/C"
_symmetry_group_IT_number 14
_symmetry_cell_setting 'monoclinic'
loop_
_space_group_symop_operation_xyz
x,y,z
-x,1/2+y,1/2-z
-x,-y,-z
x,1/2-y,1/2+z
loop_
_atom_site_type_symbol
_atom_site_label
_atom_site_fract_x
_atom_site_fract_y
_atom_site_fract_z
Si Si1 0.267989 0.501386 0.296471
Si Si2 0.440270 0.660727 0.825609
Si Si3 0.733112 0.186435 0.236840
Si Si4 0.067078 0.099004 0.492878
Si Si5 0.361504 0.214623 0.080385
Si Si6 0.309471 0.821312 0.584067
Si Si7 0.435801 0.471000 0.596503
O O1 0.398753 0.426887 0.222710
O O2 0.424487 0.592972 0.249060
O O3 0.350344 0.481396 0.373816
O O4 0.913867 0.507299 0.331784
O O5 0.473577 0.731423 0.751890
O O6 0.094386 0.640210 0.906014
O O7 0.607856 0.699577 0.873784
O O8 0.843060 0.198381 0.308736
O O9 0.006826 0.191030 0.131175
O O10 0.952053 0.146047 0.432495
O O11 0.427440 0.108185 0.444866
O O12 0.000000 0.000000 0.500000
O O13 0.517892 0.129959 0.092010
O O14 0.520530 0.234859 0.972967
O O15 0.500000 0.500000 0.500000
#
# Coordination Sequence:
#
# PCOD8128297 Si02
#       7
#     4   4   4   4   4   4   4
#     4  11  26  43  71 103 134 188 231 286 350 415
#     4  11  24  44  71  98 145 178 237 284 353 403
#     4  11  24  46  68 100 145 181 233 289 344 416
#     4  11  24  44  67 100 136 175 229 288 343 411
#     4  10  24  45  67 101 140 181 229 292 344 409
#     4  11  25  40  69 100 130 186 223 277 352 411
#     4  11  25  46  68  99 141 180 235 293 345 409
#
# _framework density 23.62415
#
# number of rings (size 3 to 8) (size 9 to 14) (size 15 to 20)
#    0.000    1.143    2.857    1.714    6.000    3.429 
#    2.571    0.000    0.000    0.000    0.000    0.000 
#    0.000    0.000    0.000    0.000    0.000    0.000 
#
# Total GULP energy -347100.412629 kJ/mol
# GULP energy per Si atom -12396.443308 kJ/mol
# Density = 2.357038 g / cm^3
# Si number density = 23.624150 Si / 1000 Ang^3
#
#
#
# Elastic Constant Matrix: (Units=GPa)
#
#
# Indices 1 2 3 4 5 6 
#
# 1 62.9712 11.3118 2.1011 0.0000 14.6327 0.0000
# 2 11.3118 134.8319 31.9239 0.0000 6.3076 0.0000
# 3 2.1011 31.9239 88.6847 0.0000 18.3512 0.0000
# 4 0.0000 0.0000 0.0000 37.0975 0.0000 3.8406
# 5 14.6327 6.3076 18.3512 0.0000 33.0850 0.0000
# 6 0.0000 0.0000 0.0000 3.8406 0.0000 29.1428
#
#
#
# Elastic Compliance Matrix: (Units=1/GPa)
#
#
# Indices 1 2 3 4 5 6 
#
# 1 0.018145 -0.001574 0.001960 0.000000 -0.008812 0.000000
# 2 -0.001574 0.008244 -0.003106 0.000000 0.000847 0.000000
# 3 0.001960 -0.003106 0.014013 0.000000 -0.008047 0.000000
# 4 0.000000 0.000000 0.000000 0.027329 0.000000 -0.003602
# 5 -0.008812 0.000847 -0.008047 0.000000 0.038425 0.000000
# 6 0.000000 0.000000 0.000000 -0.003602 0.000000 0.034788
#
#
# Mechanical properties :
#
#
# Convention : Reuss Voigt Hill
#
# Bulk Modulus (GPa) = 28.60153 41.90681 35.25417
# Shear Modulus (GPa) = 31.63793 35.94179 33.78986
#
# Velocity S-wave (km/s) = 3.66351 3.90474 3.78605
# Velocity P-wave (km/s) = 5.47980 6.17308 5.83674
#
# Compressibility (1/GPa) = 0.03496317
#
# Stress axis : x y z
#
# Youngs Moduli (GPa) = 55.11037 121.29415 71.36422
#
# Poissons Ratio (x) = 0.19094 -0.13989
# Poissons Ratio (y) = 0.08675 0.22164
# Poissons Ratio (z) = -0.10803 0.37671
#
# Static dielectric constant tensor:
#      x y z
#    x 4.005280 0.000000 0.066290 
#    y 0.000000 4.498440 0.000000 
#    z 0.066290 0.000000 4.398430 
# 
# 
# High freq. dielectric constant tensor:
#      x y z
#    x 1.925100 0.000000 0.006700 
#    y 0.000000 1.943070 0.000000 
#    z 0.006700 0.000000 1.936070 
# 
# From -- ./inp_files/53395.got.cif
#   From: 2010.03.12/outbox.cif.g09.slc.cpg/sg14_27_cif.got.tgz:53395.got - 2010.03.31 13:35:05.
