data_PCOD8128776
_publ_section_title
;
Structure prediction by ZEFSAII (Michael W. Deem and Ramdas Pophale) SiO2 
 PCOD8128776
Probable space group: P 21/C
;
_chemical_formula_sum "Si O2"
_cell_formula_units_Z 20
_cell_length_a 19.900696
_cell_length_b 5.483290
_cell_length_c 13.662729
_cell_angle_alpha 90.000000
_cell_angle_beta 33.368242
_cell_angle_gamma 90.000000
_cell_volume 820.018727
_symmetry_space_group_name_H-M "P 21/C"
_symmetry_group_IT_number 14
_symmetry_cell_setting 'monoclinic'
loop_
_space_group_symop_operation_xyz
x,y,z
-x,1/2+y,1/2-z
-x,-y,-z
x,1/2-y,1/2+z
loop_
_atom_site_type_symbol
_atom_site_label
_atom_site_fract_x
_atom_site_fract_y
_atom_site_fract_z
Si Si1 0.786031 0.597058 0.854663
Si Si2 0.594760 0.957876 0.045019
Si Si3 0.779981 0.262526 0.691965
Si Si4 0.656266 0.238946 0.652529
Si Si5 0.996710 0.635680 0.193149
O O1 0.652869 0.690106 0.984536
O O2 0.837941 0.461289 0.694919
O O3 0.873153 0.820716 0.780367
O O4 0.768327 0.412767 0.967388
O O5 0.675993 0.108083 0.871080
O O6 0.454998 0.939432 0.178600
O O7 0.597214 0.071322 0.150214
O O8 0.713039 0.377355 0.677527
O O9 0.891959 0.095456 0.518001
O O10 0.979583 0.388920 0.275779
#
# Coordination Sequence:
#
# PCOD8128776 Si02
#       5
#     4   4   4   4   4
#     4  11  25  44  71 102 140 189 235 302 355 436
#     4  11  24  42  72  99 143 185 240 296 361 434
#     4  11  26  43  70 106 138 187 245 294 360 433
#     4  11  22  46  65 103 143 186 235 293 367 426
#     4  12  27  49  77 105 148 195 239 301 365 429
#
# _framework density 24.389689000000001
#
# number of rings (size 3 to 8) (size 9 to 14) (size 15 to 20)
#    0.000    0.800    4.000    2.400    5.600    3.200 
#    0.000    0.000    0.000    0.000    0.000    0.000 
#    0.000    0.000    0.000    0.000    0.000    0.000 
#
# Total GULP energy -247954.942180 kJ/mol
# GULP energy per Si atom -12397.747109 kJ/mol
# Density = 2.433418 g / cm^3
# Si number density = 24.389689 Si / 1000 Ang^3
#
#
#
# Elastic Constant Matrix: (Units=GPa)
#
#
# Indices 1 2 3 4 5 6 
#
# 1 105.0363 10.1454 30.4705 0.0000 8.1857 0.0000
# 2 10.1454 68.7007 2.9386 0.0000 15.6012 0.0000
# 3 30.4705 2.9386 110.8110 0.0000 8.3890 0.0000
# 4 0.0000 0.0000 0.0000 26.6722 0.0000 -10.6868
# 5 8.1857 15.6012 8.3890 0.0000 33.7923 0.0000
# 6 0.0000 0.0000 0.0000 -10.6868 0.0000 36.8956
#
#
#
# Elastic Compliance Matrix: (Units=1/GPa)
#
#
# Indices 1 2 3 4 5 6 
#
# 1 0.010537 -0.001133 -0.002766 0.000000 -0.001343 0.000000
# 2 -0.001133 0.016385 0.000437 0.000000 -0.007399 0.000000
# 3 -0.002766 0.000437 0.009924 0.000000 -0.001996 0.000000
# 4 0.000000 0.000000 0.000000 0.042415 0.000000 0.012285
# 5 -0.001343 -0.007399 -0.001996 0.000000 0.033829 0.000000
# 6 0.000000 0.000000 0.000000 0.012285 0.000000 0.030662
#
#
# Mechanical properties :
#
#
# Convention : Reuss Voigt Hill
#
# Bulk Modulus (GPa) = 33.41902 41.29521 37.35712
# Shear Modulus (GPa) = 31.12381 35.53824 33.33102
#
# Velocity S-wave (km/s) = 3.57614 3.82134 3.70077
# Velocity P-wave (km/s) = 5.54829 6.03642 5.79750
#
# Compressibility (1/GPa) = 0.02992308
#
# Stress axis : x y z
#
# Youngs Moduli (GPa) = 94.90456 61.03286 100.76212
#
# Poissons Ratio (x) = 0.06914 0.27868
# Poissons Ratio (y) = 0.10751 -0.04404
# Poissons Ratio (z) = 0.26248 -0.02668
#
# Static dielectric constant tensor:
#      x y z
#    x 4.480900 0.000000 -0.010160 
#    y 0.000000 4.063690 0.000000 
#    z -0.010160 0.000000 4.635990 
# 
# 
# High freq. dielectric constant tensor:
#      x y z
#    x 1.977310 0.000000 -0.003840 
#    y 0.000000 1.943270 0.000000 
#    z -0.003840 0.000000 1.988670 
# 
# From -- ./inp_files/34525.got.cif
#   From: 2010.03.12/outbox.cif.g09.slc.cpg/sg14_18_cif.got.tgz:34525.got - 2010.03.31 13:35:05.
