data_PCOD8128081
_publ_section_title
;
Structure prediction by ZEFSAII (Michael W. Deem and Ramdas Pophale) SiO2 
 PCOD8128081
Probable space group: P 21/C
;
_chemical_formula_sum "Si O2"
_cell_formula_units_Z 24
_cell_length_a 14.038844
_cell_length_b 12.205438
_cell_length_c 10.500721
_cell_angle_alpha 90.000000
_cell_angle_beta 38.001346
_cell_angle_gamma 90.000000
_cell_volume 1107.793656
_symmetry_space_group_name_H-M "P 21/C"
_symmetry_group_IT_number 14
_symmetry_cell_setting 'monoclinic'
loop_
_space_group_symop_operation_xyz
x,y,z
-x,1/2+y,1/2-z
-x,-y,-z
x,1/2-y,1/2+z
loop_
_atom_site_type_symbol
_atom_site_label
_atom_site_fract_x
_atom_site_fract_y
_atom_site_fract_z
Si Si1 0.160678 0.777435 0.222122
Si Si2 0.324554 0.331193 0.007639
Si Si3 0.330561 0.977227 0.127264
Si Si4 0.826751 0.031005 0.219373
Si Si5 0.198480 0.314095 0.869015
Si Si6 0.666989 0.411144 0.641176
O O1 0.264021 0.852060 0.212191
O O2 0.199578 0.650685 0.195549
O O3 0.980811 0.789705 0.435578
O O4 0.204715 0.817951 0.032518
O O5 0.282640 0.282219 0.912935
O O6 0.506327 0.348953 0.829799
O O7 0.233786 0.446122 0.112643
O O8 0.275016 0.252150 0.173526
O O9 0.213432 0.057459 0.322162
O O10 0.342220 0.000655 0.962996
O O11 0.500000 0.000000 0.000000
O O12 0.719375 0.021179 0.208246
O O13 0.000000 0.000000 0.000000
#
# Coordination Sequence:
#
# PCOD8128081 Si02
#       6
#     4   4   4   4   4   4
#     4  10  25  45  75 107 146 195 241 307 373 439
#     4  12  28  45  76 107 149 194 245 308 367 444
#     4  10  23  47  70 105 143 185 245 295 368 428
#     4  12  25  49  71 107 148 189 246 303 373 439
#     4  12  25  47  74 108 147 196 249 303 369 444
#     4  10  26  46  72 110 139 197 243 307 371 433
#
# _framework density 21.664684000000001
#
# number of rings (size 3 to 8) (size 9 to 14) (size 15 to 20)
#    1.000    0.000    3.333    2.000    7.000    2.667 
#    0.000    0.000    0.000    0.000    0.000    0.000 
#    0.000    0.000    0.000    0.000    0.000    0.000 
#
# Total GULP energy -297482.180140 kJ/mol
# GULP energy per Si atom -12395.090839 kJ/mol
# Density = 2.161537 g / cm^3
# Si number density = 21.664684 Si / 1000 Ang^3
#
#
#
# Elastic Constant Matrix: (Units=GPa)
#
#
# Indices 1 2 3 4 5 6 
#
# 1 122.0927 24.0981 33.7904 0.0000 0.0539 0.0000
# 2 24.0981 88.7728 6.7960 0.0000 21.6380 0.0000
# 3 33.7904 6.7960 108.8730 0.0000 6.5444 0.0000
# 4 0.0000 0.0000 0.0000 46.0030 0.0000 7.6937
# 5 0.0539 21.6380 6.5444 0.0000 32.6109 0.0000
# 6 0.0000 0.0000 0.0000 7.6937 0.0000 28.5401
#
#
#
# Elastic Compliance Matrix: (Units=1/GPa)
#
#
# Indices 1 2 3 4 5 6 
#
# 1 0.009598 -0.003006 -0.002946 0.000000 0.002570 0.000000
# 2 -0.003006 0.014390 0.000616 0.000000 -0.009667 0.000000
# 3 -0.002946 0.000616 0.010208 0.000000 -0.002452 0.000000
# 4 0.000000 0.000000 0.000000 0.022764 0.000000 -0.006137
# 5 0.002570 -0.009667 -0.002452 0.000000 0.037566 0.000000
# 6 0.000000 0.000000 0.000000 -0.006137 0.000000 0.036693
#
#
# Mechanical properties :
#
#
# Convention : Reuss Voigt Hill
#
# Bulk Modulus (GPa) = 42.51034 49.90083 46.20558
# Shear Modulus (GPa) = 33.39280 38.43440 35.91360
#
# Velocity S-wave (km/s) = 3.93026 4.21653 4.07591
# Velocity P-wave (km/s) = 6.34511 6.84023 6.59732
#
# Compressibility (1/GPa) = 0.02352369
#
# Stress axis : x y z
#
# Youngs Moduli (GPa) = 104.18825 69.49337 97.96017
#
# Poissons Ratio (x) = 0.20892 0.28856
# Poissons Ratio (y) = 0.31323 -0.06033
# Poissons Ratio (z) = 0.30691 -0.04280
#
# Static dielectric constant tensor:
#      x y z
#    x 3.944250 0.000000 -0.072420 
#    y 0.000000 4.268790 0.000000 
#    z -0.072420 0.000000 4.802330 
# 
# 
# High freq. dielectric constant tensor:
#      x y z
#    x 1.850270 0.000000 -0.003570 
#    y 0.000000 1.847640 0.000000 
#    z -0.003570 0.000000 1.867350 
# 
# From -- ./inp_files/32150.got.cif
#   From: 2010.03.12/outbox.cif.g09.slc.cpg/sg14_17_cif.got.tgz:32150.got - 2010.03.31 13:35:05.
