data_PCOD8128493
_publ_section_title
;
Structure prediction by ZEFSAII (Michael W. Deem and Ramdas Pophale) SiO2 
 PCOD8128493
Probable space group: P 21/C
;
_chemical_formula_sum "Si O2"
_cell_formula_units_Z 32
_cell_length_a 25.843421
_cell_length_b 12.631281
_cell_length_c 13.954534
_cell_angle_alpha 90.000000
_cell_angle_beta 21.214200
_cell_angle_gamma 90.000000
_cell_volume 1648.344803
_symmetry_space_group_name_H-M "P 21/C"
_symmetry_group_IT_number 14
_symmetry_cell_setting 'monoclinic'
loop_
_space_group_symop_operation_xyz
x,y,z
-x,1/2+y,1/2-z
-x,-y,-z
x,1/2-y,1/2+z
loop_
_atom_site_type_symbol
_atom_site_label
_atom_site_fract_x
_atom_site_fract_y
_atom_site_fract_z
Si Si1 0.941780 0.992423 0.992572
Si Si2 0.449631 0.386410 0.052852
Si Si3 0.240652 0.698212 0.244765
Si Si4 0.197439 0.892297 0.448850
Si Si5 0.668801 0.870353 0.449410
Si Si6 0.565818 0.662546 0.720163
Si Si7 0.640201 0.204452 0.661290
Si Si8 0.552951 0.979000 0.080030
O O1 0.863730 0.097363 0.086083
O O2 0.058907 0.963052 0.709957
O O3 0.832444 0.895021 0.187790
O O4 0.000000 0.000000 0.000000
O O5 0.366586 0.337401 0.289570
O O6 0.500000 0.500000 0.000000
O O7 0.352866 0.392998 0.125978
O O8 0.585258 0.312848 0.800174
O O9 0.165078 0.794380 0.432737
O O10 0.392655 0.669152 0.031206
O O11 0.277073 0.739583 0.076476
O O12 0.245371 0.847681 0.467475
O O13 0.318639 0.969631 0.199220
O O14 0.634045 0.750538 0.534387
O O15 0.573832 0.937907 0.686827
O O16 0.604638 0.554124 0.597424
O O17 0.509564 0.123029 0.867609
#
# Coordination Sequence:
#
# PCOD8128493 Si02
#       8
#     4   4   4   4   4   4   4   4
#     4  12  26  46  65  92 135 181 218 268 326 404
#     4  12  21  35  66 100 131 170 211 279 342 378
#     4  11  21  43  65  95 131 173 220 271 332 389
#     4  12  24  40  69  93 132 179 215 273 335 391
#     4  12  22  42  65  94 131 171 222 272 329 390
#     4  11  22  38  65 100 131 161 220 283 324 389
#     4  11  21  39  68  99 127 172 226 271 324 397
#     4  11  20  39  65  97 127 166 222 272 320 388
#
# _framework density 19.413416000000002
#
# number of rings (size 3 to 8) (size 9 to 14) (size 15 to 20)
#    0.000    0.500   10.000    0.375    0.000    2.000 
#    2.250    0.000    0.000    1.500    0.000    0.000 
#    0.000    0.000    0.000    0.000    0.000    0.000 
#
# Total GULP energy -396647.851386 kJ/mol
# GULP energy per Si atom -12395.245356 kJ/mol
# Density = 1.936923 g / cm^3
# Si number density = 19.413416 Si / 1000 Ang^3
#
#
#
# Elastic Constant Matrix: (Units=GPa)
#
#
# Indices 1 2 3 4 5 6 
#
# 1 113.5239 32.5977 49.2926 0.0000 9.5016 0.0000
# 2 32.5977 79.8115 28.0712 0.0000 2.2814 0.0000
# 3 49.2926 28.0712 90.5014 0.0000 4.8405 0.0000
# 4 0.0000 0.0000 0.0000 245.2104 0.0000 19.8664
# 5 9.5016 2.2814 4.8405 0.0000 28.8975 0.0000
# 6 0.0000 0.0000 0.0000 19.8664 0.0000 36.6893
#
#
#
# Elastic Compliance Matrix: (Units=1/GPa)
#
#
# Indices 1 2 3 4 5 6 
#
# 1 0.012360 -0.002977 -0.005654 0.000000 -0.002882 0.000000
# 2 -0.002977 0.014785 -0.002981 0.000000 0.000311 0.000000
# 3 -0.005654 -0.002981 0.015077 0.000000 -0.000431 0.000000
# 4 0.000000 0.000000 0.000000 0.004265 0.000000 -0.002310
# 5 -0.002882 0.000311 -0.000431 0.000000 0.035600 0.000000
# 6 0.000000 0.000000 0.000000 -0.002310 0.000000 0.028506
#
#
# Mechanical properties :
#
#
# Convention : Reuss Voigt Hill
#
# Bulk Modulus (GPa) = 52.64036 55.97333 54.30685
# Shear Modulus (GPa) = 35.67569 73.75111 54.71340
#
# Velocity S-wave (km/s) = 4.29147 6.17027 5.31455
# Velocity P-wave (km/s) = 7.19235 8.92513 8.10518
#
# Compressibility (1/GPa) = 0.01899683
#
# Stress axis : x y z
#
# Youngs Moduli (GPa) = 80.90645 67.63579 66.32606
#
# Poissons Ratio (x) = 0.20136 0.37504
# Poissons Ratio (y) = 0.24086 0.19772
# Poissons Ratio (z) = 0.45748 0.20163
#
# Static dielectric constant tensor:
#      x y z
#    x 4.060130 0.000000 0.195510 
#    y 0.000000 3.820490 0.000000 
#    z 0.195510 0.000000 3.438320 
# 
# 
# High freq. dielectric constant tensor:
#      x y z
#    x 1.770700 0.000000 0.022250 
#    y 0.000000 1.768690 0.000000 
#    z 0.022250 0.000000 1.726010 
# 
# From -- ./inp_files/52032.got.cif
#   From: 2010.03.12/outbox.cif.g09.slc.cpg/sg14_27_cif.got.tgz:52032.got - 2010.03.31 13:35:05.
