data_PCOD8128618
_publ_section_title
;
Structure prediction by ZEFSAII (Michael W. Deem and Ramdas Pophale) SiO2 
 PCOD8128618
Probable space group: P 21/C
;
_chemical_formula_sum "Si O2"
_cell_formula_units_Z 20
_cell_length_a 8.896535
_cell_length_b 16.294387
_cell_length_c 9.024560
_cell_angle_alpha 90.000000
_cell_angle_beta 48.371048
_cell_angle_gamma 90.000000
_cell_volume 977.854793
_symmetry_space_group_name_H-M "P 21/C"
_symmetry_group_IT_number 14
_symmetry_cell_setting 'monoclinic'
loop_
_space_group_symop_operation_xyz
x,y,z
-x,1/2+y,1/2-z
-x,-y,-z
x,1/2-y,1/2+z
loop_
_atom_site_type_symbol
_atom_site_label
_atom_site_fract_x
_atom_site_fract_y
_atom_site_fract_z
Si Si1 0.930576 0.535359 0.197908
Si Si2 0.311742 0.322954 0.778104
Si Si3 0.835103 0.666777 0.788224
Si Si4 0.253068 0.608024 0.504042
Si Si5 0.728322 0.488359 0.807006
O O1 0.820018 0.620805 0.243503
O O2 0.776891 0.469882 0.369157
O O3 0.132725 0.552364 0.158217
O O4 0.000000 0.500000 0.000000
O O5 0.269834 0.230987 0.751667
O O6 0.542417 0.344414 0.595532
O O7 0.261115 0.333164 0.984784
O O8 0.811349 0.579341 0.720839
O O9 0.076988 0.676301 0.641611
O O10 0.256352 0.572943 0.337802
O O11 0.500000 0.500000 0.000000
#
# Coordination Sequence:
#
# PCOD8128618 Si02
#       5
#     4   4   4   4   4
#     4  11  21  43  70  98 129 172 228 273 318 402
#     4  12  26  44  66 100 134 174 224 273 335 391
#     4  11  26  43  64  99 137 170 221 274 333 393
#     4  11  24  46  70  95 133 181 219 273 334 389
#     4  11  22  44  71  97 131 177 224 270 329 397
#
# _framework density 20.452935
#
# number of rings (size 3 to 8) (size 9 to 14) (size 15 to 20)
#    0.000    0.800    6.000    3.000    5.600    3.200 
#    0.000    0.000    0.000    0.000    0.000    0.000 
#    0.000    0.000    0.000    0.000    0.000    0.000 
#
# Total GULP energy -247973.130378 kJ/mol
# GULP energy per Si atom -12398.656519 kJ/mol
# Density = 2.040638 g / cm^3
# Si number density = 20.452935 Si / 1000 Ang^3
#
#
#
# Elastic Constant Matrix: (Units=GPa)
#
#
# Indices 1 2 3 4 5 6 
#
# 1 119.6739 39.8144 33.7967 0.0000 -21.3695 0.0000
# 2 39.8144 58.6095 -6.2274 0.0000 -2.9109 0.0000
# 3 33.7967 -6.2274 94.7155 0.0000 -16.6955 0.0000
# 4 0.0000 0.0000 0.0000 22.5705 0.0000 0.8253
# 5 -21.3695 -2.9109 -16.6955 0.0000 44.0814 0.0000
# 6 0.0000 0.0000 0.0000 0.8253 0.0000 45.9280
#
#
#
# Elastic Compliance Matrix: (Units=1/GPa)
#
#
# Indices 1 2 3 4 5 6 
#
# 1 0.013621 -0.009550 -0.004753 0.000000 0.004172 0.000000
# 2 -0.009550 0.023995 0.004767 0.000000 -0.001240 0.000000
# 3 -0.004753 0.004767 0.013091 0.000000 0.002969 0.000000
# 4 0.000000 0.000000 0.000000 0.044335 0.000000 -0.000797
# 5 0.004172 -0.001240 0.002969 0.000000 0.025750 0.000000
# 6 0.000000 0.000000 0.000000 -0.000797 0.000000 0.021788
#
#
# Mechanical properties :
#
#
# Convention : Reuss Voigt Hill
#
# Bulk Modulus (GPa) = 31.61205 45.30735 38.45970
# Shear Modulus (GPa) = 29.03678 36.22367 32.63023
#
# Velocity S-wave (km/s) = 3.77196 4.21298 3.99856
# Velocity P-wave (km/s) = 5.87025 6.77242 6.33741
#
# Compressibility (1/GPa) = 0.03163351
#
# Stress axis : x y z
#
# Youngs Moduli (GPa) = 73.41833 41.67571 76.39120
#
# Poissons Ratio (x) = 0.39802 0.36306
# Poissons Ratio (y) = 0.70118 -0.36415
# Poissons Ratio (z) = 0.34893 -0.19866
#
# Static dielectric constant tensor:
#      x y z
#    x 5.412810 0.000000 -4.085350 
#    y 0.000000 3.602660 0.000000 
#    z -4.085350 0.000000 13.524910 
# 
# 
# High freq. dielectric constant tensor:
#      x y z
#    x 1.811700 0.000000 -0.007620 
#    y 0.000000 1.791670 0.000000 
#    z -0.007620 0.000000 1.815730 
# 
# From -- ./inp_files/9266.got.cif
#   From: 2010.03.12/outbox.cif.g09.slc.cpg/sg14_5_cif.got.tgz:9266.got - 2010.03.31 13:35:05.
