data_PCOD8128820
_publ_section_title
;
Structure prediction by ZEFSAII (Michael W. Deem and Ramdas Pophale) SiO2 
 PCOD8128820
Probable space group: P 21/C
;
_chemical_formula_sum "Si O2"
_cell_formula_units_Z 20
_cell_length_a 7.744708
_cell_length_b 21.406636
_cell_length_c 8.705026
_cell_angle_alpha 90.000000
_cell_angle_beta 145.838256
_cell_angle_gamma 90.000000
_cell_volume 810.396011
_symmetry_space_group_name_H-M "P 21/C"
_symmetry_group_IT_number 14
_symmetry_cell_setting 'monoclinic'
loop_
_space_group_symop_operation_xyz
x,y,z
-x,1/2+y,1/2-z
-x,-y,-z
x,1/2-y,1/2+z
loop_
_atom_site_type_symbol
_atom_site_label
_atom_site_fract_x
_atom_site_fract_y
_atom_site_fract_z
Si Si1 0.655423 0.886295 0.773830
Si Si2 0.131772 0.249456 0.589164
Si Si3 0.747950 0.304655 0.554916
Si Si4 0.648690 0.485090 0.769382
Si Si5 0.684207 0.084541 0.785028
O O1 0.769397 0.817243 0.904853
O O2 0.495956 0.882933 0.488638
O O3 0.416767 0.913268 0.726199
O O4 0.962456 0.930283 0.001686
O O5 0.846654 0.256769 0.493271
O O6 0.021277 0.199773 0.379670
O O7 0.426371 0.218756 0.888532
O O8 0.708785 0.373226 0.456741
O O9 0.500000 0.500000 0.500000
O O10 0.507070 0.523616 0.807900
O O11 0.000000 0.500000 0.000000
#
# Coordination Sequence:
#
# PCOD8128820 Si02
#       5
#     4   4   4   4   4
#     4  11  23  44  67  91 130 181 218 256 322 404
#     4  11  23  40  63  93 126 168 215 262 317 379
#     4  11  23  40  63  93 126 168 215 262 317 379
#     4  12  26  42  66 104 132 164 218 280 330 372
#     4  11  23  44  67  91 130 181 218 256 322 404
#
# _framework density 24.679292
#
# number of rings (size 3 to 8) (size 9 to 14) (size 15 to 20)
#    0.000    0.800    0.000    9.600    0.000    4.800 
#    0.000    0.000    0.000    0.000    0.000    0.000 
#    0.000    0.000    0.000    0.000    0.000    0.000 
#
# Total GULP energy -247944.682746 kJ/mol
# GULP energy per Si atom -12397.234137 kJ/mol
# Density = 2.462312 g / cm^3
# Si number density = 24.679292 Si / 1000 Ang^3
#
#
#
# Elastic Constant Matrix: (Units=GPa)
#
#
# Indices 1 2 3 4 5 6 
#
# 1 52.1049 -4.0613 23.7436 0.0000 24.0672 0.0000
# 2 -4.0613 20.1499 14.9631 0.0000 7.8716 0.0000
# 3 23.7436 14.9631 152.3832 0.0000 15.3998 0.0000
# 4 0.0000 0.0000 0.0000 30.5872 0.0000 0.9866
# 5 24.0672 7.8716 15.3998 0.0000 53.3219 0.0000
# 6 0.0000 0.0000 0.0000 0.9866 0.0000 35.4748
#
#
#
# Elastic Compliance Matrix: (Units=1/GPa)
#
#
# Indices 1 2 3 4 5 6 
#
# 1 0.028773 0.014555 -0.004515 0.000000 -0.013832 0.000000
# 2 0.014555 0.063231 -0.007076 0.000000 -0.013860 0.000000
# 3 -0.004515 -0.007076 0.007879 0.000000 0.000807 0.000000
# 4 0.000000 0.000000 0.000000 0.032723 0.000000 -0.000910
# 5 -0.013832 -0.013860 0.000807 0.000000 0.026810 0.000000
# 6 0.000000 0.000000 0.000000 -0.000910 0.000000 0.028214
#
#
# Mechanical properties :
#
#
# Convention : Reuss Voigt Hill
#
# Bulk Modulus (GPa) = 9.45080 32.65875 21.05477
# Shear Modulus (GPa) = 23.04452 36.54296 29.79374
#
# Velocity S-wave (km/s) = 3.05906 3.85218 3.47830
# Velocity P-wave (km/s) = 4.03917 5.74871 4.96803
#
# Compressibility (1/GPa) = 0.10581118
#
# Stress axis : x y z
#
# Youngs Moduli (GPa) = 34.75536 15.81508 126.91738
#
# Poissons Ratio (x) = -0.23019 0.57298
# Poissons Ratio (y) = -0.50586 0.89807
# Poissons Ratio (z) = 0.15691 0.11191
#
# Static dielectric constant tensor:
#      x y z
#    x 4.616900 0.000000 0.256180 
#    y 0.000000 4.285520 0.000000 
#    z 0.256180 0.000000 4.371280 
# 
# 
# High freq. dielectric constant tensor:
#      x y z
#    x 1.982830 0.000000 0.015240 
#    y 0.000000 1.970430 0.000000 
#    z 0.015240 0.000000 1.996090 
# 
# From -- ./inp_files/10766.got.cif
#   From: 2010.03.12/outbox.cif.g09.slc.cpg/sg14_6_cif.got.tgz:10766.got - 2010.03.31 13:35:05.
