data_PCOD8128152
_publ_section_title
;
Structure prediction by ZEFSAII (Michael W. Deem and Ramdas Pophale) SiO2 
 PCOD8128152
Probable space group: P 21/C
;
_chemical_formula_sum "Si O2"
_cell_formula_units_Z 16
_cell_length_a 11.166985
_cell_length_b 14.927213
_cell_length_c 9.337302
_cell_angle_alpha 90.000000
_cell_angle_beta 26.760676
_cell_angle_gamma 90.000000
_cell_volume 700.816127
_symmetry_space_group_name_H-M "P 21/C"
_symmetry_group_IT_number 14
_symmetry_cell_setting 'monoclinic'
loop_
_space_group_symop_operation_xyz
x,y,z
-x,1/2+y,1/2-z
-x,-y,-z
x,1/2-y,1/2+z
loop_
_atom_site_type_symbol
_atom_site_label
_atom_site_fract_x
_atom_site_fract_y
_atom_site_fract_z
Si Si1 0.246937 0.173021 0.488017
Si Si2 0.061995 0.835566 0.747717
Si Si3 0.224668 0.991328 0.375259
Si Si4 0.464556 0.307224 0.061826
O O1 0.181736 0.068702 0.540131
O O2 0.416845 0.204991 0.167271
O O3 0.437688 0.188822 0.420469
O O4 0.979561 0.235832 0.779138
O O5 0.247318 0.838072 0.691292
O O6 0.194808 0.896495 0.485320
O O7 0.770262 0.868677 0.113752
O O8 0.000000 0.000000 0.500000
O O9 0.500000 0.000000 0.000000
#
# Coordination Sequence:
#
# PCOD8128152 Si02
#       4
#     4   4   4   4
#     4  10  26  43  72  99 142 182 227 287 344 407
#     4  10  25  42  67 101 139 175 235 275 343 410
#     4  12  27  44  72 103 141 182 235 283 346 415
#     4  10  24  41  70  96 142 178 229 277 349 400
#
# _framework density 22.830525000000002
#
# number of rings (size 3 to 8) (size 9 to 14) (size 15 to 20)
#    1.500    0.000    0.000    3.000   10.500    2.000 
#    0.000    0.000    0.000    0.000    0.000    0.000 
#    0.000    0.000    0.000    0.000    0.000    0.000 
#
# Total GULP energy -198260.330778 kJ/mol
# GULP energy per Si atom -12391.270674 kJ/mol
# Density = 2.277856 g / cm^3
# Si number density = 22.830525 Si / 1000 Ang^3
#
#
#
# Elastic Constant Matrix: (Units=GPa)
#
#
# Indices 1 2 3 4 5 6 
#
# 1 181.8726 44.5834 42.1466 0.0000 -33.8031 0.0000
# 2 44.5834 116.0647 42.2208 0.0000 0.7245 0.0000
# 3 42.1466 42.2208 87.4001 0.0000 -30.8022 0.0000
# 4 0.0000 0.0000 0.0000 24.2172 0.0000 11.6091
# 5 -33.8031 0.7245 -30.8022 0.0000 46.4947 0.0000
# 6 0.0000 0.0000 0.0000 11.6091 0.0000 38.4068
#
#
#
# Elastic Compliance Matrix: (Units=1/GPa)
#
#
# Indices 1 2 3 4 5 6 
#
# 1 0.007165 -0.002623 -0.000441 0.000000 0.004958 0.000000
# 2 -0.002623 0.012217 -0.007013 0.000000 -0.006744 0.000000
# 3 -0.000441 -0.007013 0.019527 0.000000 0.012725 0.000000
# 4 0.000000 0.000000 0.000000 0.048290 0.000000 -0.014597
# 5 0.004958 -0.006744 0.012725 0.000000 0.033648 0.000000
# 6 0.000000 0.000000 0.000000 -0.014597 0.000000 0.030449
#
#
# Mechanical properties :
#
#
# Convention : Reuss Voigt Hill
#
# Bulk Modulus (GPa) = 53.32038 71.47100 62.39569
# Shear Modulus (GPa) = 28.13709 38.91617 33.52663
#
# Velocity S-wave (km/s) = 3.51441 4.13312 3.83626
# Velocity P-wave (km/s) = 6.31456 7.35866 6.85651
#
# Compressibility (1/GPa) = 0.01875456
#
# Stress axis : x y z
#
# Youngs Moduli (GPa) = 139.56832 81.85481 51.21140
#
# Poissons Ratio (x) = 0.21469 0.02257
# Poissons Ratio (y) = 0.36607 0.35917
# Poissons Ratio (z) = 0.06151 0.57408
#
# Static dielectric constant tensor:
#      x y z
#    x 4.189490 0.000000 -0.085380 
#    y 0.000000 15.513660 0.000000 
#    z -0.085380 0.000000 3.978470 
# 
# 
# High freq. dielectric constant tensor:
#      x y z
#    x 1.913440 0.000000 -0.011710 
#    y 0.000000 1.873450 0.000000 
#    z -0.011710 0.000000 1.902880 
# 
# From -- ./inp_files/8950.got.cif
#   From: 2010.03.12/outbox.cif.g09.slc.cpg/sg14_5_cif.got.tgz:8950.got - 2010.03.31 13:35:05.
