data_PCOD8128828
_publ_section_title
;
Structure prediction by ZEFSAII (Michael W. Deem and Ramdas Pophale) SiO2 
 PCOD8128828
Probable space group: P 21/C
;
_chemical_formula_sum "Si O2"
_cell_formula_units_Z 32
_cell_length_a 17.627105
_cell_length_b 14.796248
_cell_length_c 11.645262
_cell_angle_alpha 90.000000
_cell_angle_beta 30.969368
_cell_angle_gamma 90.000000
_cell_volume 1562.912037
_symmetry_space_group_name_H-M "P 21/C"
_symmetry_group_IT_number 14
_symmetry_cell_setting 'monoclinic'
loop_
_space_group_symop_operation_xyz
x,y,z
-x,1/2+y,1/2-z
-x,-y,-z
x,1/2-y,1/2+z
loop_
_atom_site_type_symbol
_atom_site_label
_atom_site_fract_x
_atom_site_fract_y
_atom_site_fract_z
Si Si1 0.748072 0.660289 0.375005
Si Si2 0.869522 0.918332 0.499904
Si Si3 0.597266 0.353923 0.127945
Si Si4 0.272402 0.139336 0.545592
Si Si5 0.392869 0.656164 0.438731
Si Si6 0.645249 0.061568 0.796001
Si Si7 0.191676 0.517945 0.573056
Si Si8 0.342672 0.506976 0.143325
O O1 0.802063 0.657127 0.172467
O O2 0.574397 0.646313 0.617487
O O3 0.795546 0.761470 0.346154
O O4 0.824371 0.583568 0.355238
O O5 0.831680 0.904274 0.415434
O O6 0.043723 0.926568 0.290123
O O7 0.790611 0.008863 0.646820
O O8 0.660683 0.252189 0.040321
O O9 0.675517 0.408121 0.127391
O O10 0.641588 0.403048 0.953161
O O11 0.433114 0.148749 0.286054
O O12 0.288456 0.079188 0.639715
O O13 0.355966 0.649410 0.621452
O O14 0.326957 0.571935 0.454654
O O15 0.500000 0.000000 0.000000
O O16 0.218095 0.516023 0.402234
O O17 0.500000 0.500000 0.000000
#
# Coordination Sequence:
#
# PCOD8128828 Si02
#       8
#     4   4   4   4   4   4   4   4
#     4  11  23  42  72  99 129 176 225 277 329 393
#     4  12  25  45  68  95 137 180 223 274 337 401
#     4  11  23  40  70 103 126 171 226 279 326 379
#     4  11  24  43  70  99 128 177 227 272 331 397
#     4  11  23  40  67 100 132 169 225 278 323 389
#     4  12  20  42  70  93 129 173 229 274 317 396
#     4  12  26  45  65 100 139 179 217 277 344 389
#     4  12  23  43  68  95 137 170 216 278 330 395
#
# _framework density 20.474602000000001
#
# number of rings (size 3 to 8) (size 9 to 14) (size 15 to 20)
#    0.000    0.500    7.500    0.375    3.500    0.500 
#    4.500    0.000    0.000    0.000    0.000    0.000 
#    0.000    0.000    0.000    0.000    0.000    0.000 
#
# Total GULP energy -396695.363154 kJ/mol
# GULP energy per Si atom -12396.730099 kJ/mol
# Density = 2.042800 g / cm^3
# Si number density = 20.474602 Si / 1000 Ang^3
#
#
#
# Elastic Constant Matrix: (Units=GPa)
#
#
# Indices 1 2 3 4 5 6 
#
# 1 90.2052 40.4769 32.9669 0.0000 22.2603 0.0000
# 2 40.4769 125.1697 31.4213 0.0000 9.4652 0.0000
# 3 32.9669 31.4213 79.1750 0.0000 13.7391 0.0000
# 4 0.0000 0.0000 0.0000 25.0985 0.0000 9.8758
# 5 22.2603 9.4652 13.7391 0.0000 36.9251 0.0000
# 6 0.0000 0.0000 0.0000 9.8758 0.0000 31.9896
#
#
#
# Elastic Compliance Matrix: (Units=1/GPa)
#
#
# Indices 1 2 3 4 5 6 
#
# 1 0.015929 -0.003615 -0.003947 0.000000 -0.007208 0.000000
# 2 -0.003615 0.009730 -0.002461 0.000000 0.000601 0.000000
# 3 -0.003947 -0.002461 0.015744 0.000000 -0.002848 0.000000
# 4 0.000000 0.000000 0.000000 0.045352 0.000000 -0.014001
# 5 -0.007208 0.000601 -0.002848 0.000000 0.032333 0.000000
# 6 0.000000 0.000000 0.000000 -0.014001 0.000000 0.035583
#
#
# Mechanical properties :
#
#
# Convention : Reuss Voigt Hill
#
# Bulk Modulus (GPa) = 46.82028 56.03113 51.42570
# Shear Modulus (GPa) = 27.49715 31.44829 29.47272
#
# Velocity S-wave (km/s) = 3.66866 3.92339 3.79816
# Velocity P-wave (km/s) = 6.39238 6.92456 6.66379
#
# Compressibility (1/GPa) = 0.02135827
#
# Stress axis : x y z
#
# Youngs Moduli (GPa) = 62.77744 102.76980 63.51438
#
# Poissons Ratio (x) = 0.37154 0.25070
# Poissons Ratio (y) = 0.22696 0.15628
# Poissons Ratio (z) = 0.24779 0.25287
#
# Static dielectric constant tensor:
#      x y z
#    x 3.788150 0.000000 0.355080 
#    y 0.000000 3.958840 0.000000 
#    z 0.355080 0.000000 3.796510 
# 
# 
# High freq. dielectric constant tensor:
#      x y z
#    x 1.803540 0.000000 0.021190 
#    y 0.000000 1.802890 0.000000 
#    z 0.021190 0.000000 1.790110 
# 
# From -- ./inp_files/34155.got.cif
#   From: 2010.03.12/outbox.cif.g09.slc.cpg/sg14_18_cif.got.tgz:34155.got - 2010.03.31 13:35:05.
