data_PCOD8128945
_publ_section_title
;
Structure prediction by ZEFSAII (Michael W. Deem and Ramdas Pophale) SiO2 
 PCOD8128945
Probable space group: P 21/C
;
_chemical_formula_sum "Si O2"
_cell_formula_units_Z 24
_cell_length_a 12.849480
_cell_length_b 9.508362
_cell_length_c 13.329478
_cell_angle_alpha 90.000000
_cell_angle_beta 42.588559
_cell_angle_gamma 90.000000
_cell_volume 1102.095353
_symmetry_space_group_name_H-M "P 21/C"
_symmetry_group_IT_number 14
_symmetry_cell_setting 'monoclinic'
loop_
_space_group_symop_operation_xyz
x,y,z
-x,1/2+y,1/2-z
-x,-y,-z
x,1/2-y,1/2+z
loop_
_atom_site_type_symbol
_atom_site_label
_atom_site_fract_x
_atom_site_fract_y
_atom_site_fract_z
Si Si1 0.315578 0.287370 0.476482
Si Si2 0.161129 0.901410 0.784038
Si Si3 0.858251 0.943877 0.730387
Si Si4 0.152181 0.180962 0.901047
Si Si5 0.664217 0.161387 0.751017
Si Si6 0.798136 0.477144 0.961517
O O1 0.193635 0.370809 0.630470
O O2 0.297900 0.327844 0.371902
O O3 0.482112 0.336171 0.395043
O O4 0.289385 0.120531 0.503181
O O5 0.279710 0.820779 0.771930
O O6 0.200016 0.880444 0.639372
O O7 0.169556 0.067186 0.801482
O O8 0.993139 0.842998 0.925028
O O9 0.861546 0.834148 0.636945
O O10 0.027963 0.008552 0.625205
O O11 0.741029 0.066904 0.783216
O O12 0.707431 0.110715 0.609372
#
# Coordination Sequence:
#
# PCOD8128945 Si02
#       6
#     4   4   4   4   4   4
#     4  12  27  45  70 106 142 185 233 293 355 413
#     4  11  25  43  72 107 139 185 236 290 349 419
#     4  12  24  47  77 103 136 189 240 287 345 427
#     4  11  23  44  73 105 139 178 244 291 341 421
#     4  12  28  44  70 107 146 181 232 299 352 409
#     4  12  25  46  76 100 142 192 233 283 354 423
#
# _framework density 21.776699000000001
#
# number of rings (size 3 to 8) (size 9 to 14) (size 15 to 20)
#    0.000    0.333    6.667    2.000    2.333    3.333 
#    0.000    0.000    0.000    0.000    0.000    0.000 
#    0.000    0.000    0.000    0.000    0.000    0.000 
#
# Total GULP energy -297722.463829 kJ/mol
# GULP energy per Si atom -12405.102660 kJ/mol
# Density = 2.172713 g / cm^3
# Si number density = 21.776699 Si / 1000 Ang^3
#
#
#
# Elastic Constant Matrix: (Units=GPa)
#
#
# Indices 1 2 3 4 5 6 
#
# 1 90.4921 42.4564 42.8228 0.0000 -1.1159 0.0000
# 2 42.4564 54.9218 39.0910 0.0000 -15.4595 0.0000
# 3 42.8228 39.0910 90.6469 0.0000 6.9250 0.0000
# 4 0.0000 0.0000 0.0000 -1.1478 0.0000 -18.3637
# 5 -1.1159 -15.4595 6.9250 0.0000 42.6263 0.0000
# 6 0.0000 0.0000 0.0000 -18.3637 0.0000 22.9758
#
#
#
# Elastic Compliance Matrix: (Units=1/GPa)
#
#
# Indices 1 2 3 4 5 6 
#
# 1 0.018670 -0.013741 -0.002583 0.000000 -0.004075 0.000000
# 2 -0.013741 0.043467 -0.013599 0.000000 0.017614 0.000000
# 3 -0.002583 -0.013599 0.018731 0.000000 -0.008043 0.000000
# 4 0.000000 0.000000 0.000000 -0.063190 0.000000 -0.050506
# 5 -0.004075 0.017614 -0.008043 0.000000 0.031048 0.000000
# 6 0.000000 0.000000 0.000000 -0.050506 0.000000 0.003157
#
#
# Mechanical properties :
#
#
# Convention : Reuss Voigt Hill
#
# Bulk Modulus (GPa) = 47.56938 53.86680 50.71809
# Shear Modulus (GPa) = 42.11052 20.33690 31.22371
#
# Velocity S-wave (km/s) = 4.40220 3.05927 3.79068
# Velocity P-wave (km/s) = 6.90875 6.10479 6.51917
#
# Compressibility (1/GPa) = 0.02102193
#
# Stress axis : x y z
#
# Youngs Moduli (GPa) = 53.56324 23.00580 53.38762
#
# Poissons Ratio (x) = 0.31612 0.13788
# Poissons Ratio (y) = 0.73601 0.72603
# Poissons Ratio (z) = 0.13834 0.31286
#
# Static dielectric constant tensor:
#      x y z
#    x 3.952430 0.000000 0.082020 
#    y 0.000000 3.935090 0.000000 
#    z 0.082020 0.000000 3.835650 
# 
# 
# High freq. dielectric constant tensor:
#      x y z
#    x 1.864900 0.000000 0.011500 
#    y 0.000000 1.861890 0.000000 
#    z 0.011500 0.000000 1.854490 
# 
# From -- ./inp_files/46349.got.cif
#   From: 2010.03.12/outbox.cif.g09.slc.cpg/sg14_24_cif.got.tgz:46349.got - 2010.03.31 13:35:05.
