data_PCOD8128395
_publ_section_title
;
Structure prediction by ZEFSAII (Michael W. Deem and Ramdas Pophale) SiO2 
 PCOD8128395
Probable space group: P 21/C
;
_chemical_formula_sum "Si O2"
_cell_formula_units_Z 16
_cell_length_a 5.613756
_cell_length_b 23.107004
_cell_length_c 5.107764
_cell_angle_alpha 90.000000
_cell_angle_beta 109.188898
_cell_angle_gamma 90.000000
_cell_volume 625.752224
_symmetry_space_group_name_H-M "P 21/C"
_symmetry_group_IT_number 14
_symmetry_cell_setting 'monoclinic'
loop_
_space_group_symop_operation_xyz
x,y,z
-x,1/2+y,1/2-z
-x,-y,-z
x,1/2-y,1/2+z
loop_
_atom_site_type_symbol
_atom_site_label
_atom_site_fract_x
_atom_site_fract_y
_atom_site_fract_z
Si Si1 0.196405 0.491026 0.835990
Si Si2 0.072600 0.212639 0.063261
Si Si3 0.741283 0.102267 0.917414
Si Si4 0.573039 0.880919 0.708944
O O1 0.123360 0.539332 0.586313
O O2 0.181924 0.422379 0.757859
O O3 0.500000 0.500000 0.000000
O O4 0.000000 0.500000 0.000000
O O5 0.029470 0.263048 0.257900
O O6 0.352239 0.185543 0.198508
O O7 0.900923 0.157672 0.058266
O O8 0.611604 0.121149 0.601374
O O9 0.550237 0.089774 0.082046
#
# Coordination Sequence:
#
# PCOD8128395 Si02
#       4
#     4   4   4   4
#     4  10  25  45  79 115 152 194 246 309 389 457
#     4  12  28  45  74 105 144 200 256 306 368 442
#     4  11  26  47  74 108 150 193 244 312 378 448
#     4  11  26  47  74 108 150 193 244 312 378 448
#
# _framework density 25.569224999999999
#
# number of rings (size 3 to 8) (size 9 to 14) (size 15 to 20)
#    0.000    1.000    0.000    3.750   17.500    7.000 
#    0.000    0.000    0.000    0.000    0.000    0.000 
#    0.000    0.000    0.000    0.000    0.000    0.000 
#
# Total GULP energy -198318.818024 kJ/mol
# GULP energy per Si atom -12394.926126 kJ/mol
# Density = 2.551103 g / cm^3
# Si number density = 25.569225 Si / 1000 Ang^3
#
#
#
# Elastic Constant Matrix: (Units=GPa)
#
#
# Indices 1 2 3 4 5 6 
#
# 1 111.1239 51.1905 33.8489 0.0000 -35.5602 0.0000
# 2 51.1905 169.6355 30.3183 0.0000 -3.8914 0.0000
# 3 33.8489 30.3183 131.1961 0.0000 -21.1355 0.0000
# 4 0.0000 0.0000 0.0000 60.1267 0.0000 8.9598
# 5 -35.5602 -3.8914 -21.1355 0.0000 58.4231 0.0000
# 6 0.0000 0.0000 0.0000 8.9598 0.0000 65.2362
#
#
#
# Elastic Compliance Matrix: (Units=1/GPa)
#
#
# Indices 1 2 3 4 5 6 
#
# 1 0.013503 -0.003646 -0.001440 0.000000 0.007455 0.000000
# 2 -0.003646 0.007134 -0.001050 0.000000 -0.002124 0.000000
# 3 -0.001440 -0.001050 0.008584 0.000000 0.002159 0.000000
# 4 0.000000 0.000000 0.000000 0.016979 0.000000 -0.002332
# 5 0.007455 -0.002124 0.002159 0.000000 0.022294 0.000000
# 6 0.000000 0.000000 0.000000 -0.002332 0.000000 0.015649
#
#
# Mechanical properties :
#
#
# Convention : Reuss Voigt Hill
#
# Bulk Modulus (GPa) = 59.00315 71.40790 65.20552
# Shear Modulus (GPa) = 48.98784 56.53037 52.75910
#
# Velocity S-wave (km/s) = 4.38184 4.70710 4.54738
# Velocity P-wave (km/s) = 6.98044 7.58487 7.28892
#
# Compressibility (1/GPa) = 0.01694825
#
# Stress axis : x y z
#
# Youngs Moduli (GPa) = 74.05754 140.16796 116.49280
#
# Poissons Ratio (x) = 0.51110 0.16777
# Poissons Ratio (y) = 0.27004 0.12233
# Poissons Ratio (z) = 0.10666 0.14719
#
# Static dielectric constant tensor:
#      x y z
#    x 4.747960 0.000000 0.340510 
#    y 0.000000 5.302580 0.000000 
#    z 0.340510 0.000000 4.516990 
# 
# 
# High freq. dielectric constant tensor:
#      x y z
#    x 2.030110 0.000000 0.022300 
#    y 0.000000 2.055290 0.000000 
#    z 0.022300 0.000000 2.042040 
# 
# From -- ./inp_files/294.got.cif
#   From: 2010.03.12/outbox.cif.g09.slc.cpg/sg14_1_cif.got.tgz:294.got - 2010.03.31 13:35:05.
