data_PCOD8128822
_publ_section_title
;
Structure prediction by ZEFSAII (Michael W. Deem and Ramdas Pophale) SiO2 
 PCOD8128822
Probable space group: P 21/C
;
_chemical_formula_sum "Si O2"
_cell_formula_units_Z 28
_cell_length_a 11.010222
_cell_length_b 11.969991
_cell_length_c 18.168542
_cell_angle_alpha 90.000000
_cell_angle_beta 34.916844
_cell_angle_gamma 90.000000
_cell_volume 1370.565223
_symmetry_space_group_name_H-M "P 21/C"
_symmetry_group_IT_number 14
_symmetry_cell_setting 'monoclinic'
loop_
_space_group_symop_operation_xyz
x,y,z
-x,1/2+y,1/2-z
-x,-y,-z
x,1/2-y,1/2+z
loop_
_atom_site_type_symbol
_atom_site_label
_atom_site_fract_x
_atom_site_fract_y
_atom_site_fract_z
Si Si1 0.939229 0.373684 0.444886
Si Si2 0.009047 0.229389 0.142372
Si Si3 0.264098 0.868104 0.111170
Si Si4 0.964429 0.630601 0.099769
Si Si5 0.269222 0.380042 0.637538
Si Si6 0.250196 0.426115 0.939303
Si Si7 0.256674 0.944711 0.817437
O O1 0.873569 0.377037 0.393279
O O2 0.768323 0.437913 0.581378
O O3 0.944127 0.247801 0.474342
O O4 0.169102 0.434285 0.335771
O O5 0.837914 0.284586 0.280487
O O6 0.886294 0.153461 0.145438
O O7 0.161117 0.150490 0.114325
O O8 0.151441 0.321739 0.031189
O O9 0.282821 0.987361 0.141009
O O10 0.498749 0.823865 0.975413
O O11 0.858025 0.665053 0.229476
O O12 0.796152 0.582134 0.124826
O O13 0.151460 0.540995 0.019561
O O14 0.501240 0.431280 0.827737
#
# Coordination Sequence:
#
# PCOD8128822 Si02
#       7
#     4   4   4   4   4   4   4
#     4  11  23  45  65  93 129 163 218 266 311 386
#     4  12  22  44  64  96 134 164 212 268 310 390
#     4  11  23  40  64  92 129 173 208 256 320 373
#     4  11  23  45  65  93 129 163 218 266 311 386
#     4  11  23  40  64  92 129 173 208 256 320 373
#     4  11  25  43  66  95 129 171 210 264 326 374
#     4  11  25  43  66  95 129 171 210 264 326 374
#
# _framework density 20.429528999999999
#
# number of rings (size 3 to 8) (size 9 to 14) (size 15 to 20)
#    0.000    0.857    5.714    1.714    0.000    2.286 
#    0.000    1.429    0.000    0.000    0.000    0.000 
#    0.000    0.000    0.000    0.000    0.000    0.000 
#
# Total GULP energy -347292.919799 kJ/mol
# GULP energy per Si atom -12403.318564 kJ/mol
# Density = 2.038303 g / cm^3
# Si number density = 20.429529 Si / 1000 Ang^3
#
#
#
# Elastic Constant Matrix: (Units=GPa)
#
#
# Indices 1 2 3 4 5 6 
#
# 1 66.9338 12.3950 36.5758 0.0000 3.1838 0.0000
# 2 12.3950 97.3551 36.7951 0.0000 -9.5066 0.0000
# 3 36.5758 36.7951 124.5414 0.0000 -12.7999 0.0000
# 4 0.0000 0.0000 0.0000 19.1095 0.0000 3.0552
# 5 3.1838 -9.5066 -12.7999 0.0000 35.5058 0.0000
# 6 0.0000 0.0000 0.0000 3.0552 0.0000 27.1720
#
#
#
# Elastic Compliance Matrix: (Units=1/GPa)
#
#
# Indices 1 2 3 4 5 6 
#
# 1 0.018284 -0.000588 -0.005588 0.000000 -0.003811 0.000000
# 2 -0.000588 0.011711 -0.003073 0.000000 0.002080 0.000000
# 3 -0.005588 -0.003073 0.010951 0.000000 0.003626 0.000000
# 4 0.000000 0.000000 0.000000 0.053288 0.000000 -0.005992
# 5 -0.003811 0.002080 0.003626 0.000000 0.030370 0.000000
# 6 0.000000 0.000000 0.000000 -0.005992 0.000000 0.037476
#
#
# Mechanical properties :
#
#
# Convention : Reuss Voigt Hill
#
# Bulk Modulus (GPa) = 44.54808 51.15135 47.84972
# Shear Modulus (GPa) = 26.58703 29.89508 28.24106
#
# Velocity S-wave (km/s) = 3.61141 3.82950 3.72205
# Velocity P-wave (km/s) = 6.26440 6.68174 6.47644
#
# Compressibility (1/GPa) = 0.02244765
#
# Stress axis : x y z
#
# Youngs Moduli (GPa) = 54.69374 85.38733 91.31466
#
# Poissons Ratio (x) = 0.05023 0.51022
# Poissons Ratio (y) = 0.03217 0.28066
# Poissons Ratio (z) = 0.30560 0.26244
#
# Static dielectric constant tensor:
#      x y z
#    x 3.633500 0.000000 0.023110 
#    y 0.000000 3.820290 0.000000 
#    z 0.023110 0.000000 3.673310 
# 
# 
# High freq. dielectric constant tensor:
#      x y z
#    x 1.803740 0.000000 0.008900 
#    y 0.000000 1.807180 0.000000 
#    z 0.008900 0.000000 1.798270 
# 
# From -- ./inp_files/35200.got.cif
#   From: 2010.03.12/outbox.cif.g09.slc.cpg/sg14_18_cif.got.tgz:35200.got - 2010.03.31 13:35:05.
