data_PCOD8128011
_publ_section_title
;
Structure prediction by ZEFSAII (Michael W. Deem and Ramdas Pophale) SiO2 
 PCOD8128011
Probable space group: P 21/C
;
_chemical_formula_sum "Si O2"
_cell_formula_units_Z 32
_cell_length_a 9.677787
_cell_length_b 10.550957
_cell_length_c 15.563192
_cell_angle_alpha 90.000000
_cell_angle_beta 111.769585
_cell_angle_gamma 90.000000
_cell_volume 1475.822087
_symmetry_space_group_name_H-M "P 21/C"
_symmetry_group_IT_number 14
_symmetry_cell_setting 'monoclinic'
loop_
_space_group_symop_operation_xyz
x,y,z
-x,1/2+y,1/2-z
-x,-y,-z
x,1/2-y,1/2+z
loop_
_atom_site_type_symbol
_atom_site_label
_atom_site_fract_x
_atom_site_fract_y
_atom_site_fract_z
Si Si1 0.092032 0.702369 0.213988
Si Si2 0.367234 0.243636 0.662277
Si Si3 0.855702 0.840195 0.259787
Si Si4 0.052416 0.979020 0.416892
Si Si5 0.624935 0.008381 0.455703
Si Si6 0.708684 0.440495 0.625542
Si Si7 0.360205 0.748975 0.662674
Si Si8 0.370185 0.013762 0.069096
O O1 0.198778 0.684243 0.323247
O O2 0.189713 0.752346 0.156236
O O3 0.951769 0.791987 0.201445
O O4 0.010418 0.575834 0.167084
O O5 0.273548 0.245093 0.729248
O O6 0.361082 0.115816 0.602336
O O7 0.537633 0.267643 0.729700
O O8 0.296759 0.366668 0.599771
O O9 0.760774 0.959708 0.207905
O O10 0.973880 0.852121 0.365380
O O11 0.228831 0.976048 0.452943
O O12 0.000000 0.000000 0.500000
O O13 0.500000 0.000000 0.500000
O O14 0.606685 0.135050 0.394557
O O15 0.742192 0.481195 0.535168
O O16 0.530450 0.426130 0.581440
O O17 0.394520 0.613001 0.629604
#
# Coordination Sequence:
#
# PCOD8128011 Si02
#       8
#     4   4   4   4   4   4   4   4
#     4  11  25  43  70  96 141 183 232 281 345 411
#     4  12  25  46  69 104 139 178 231 287 340 411
#     4  11  25  43  70  96 141 183 232 281 345 411
#     4  11  23  46  67  96 137 191 230 290 347 398
#     4  12  29  45  76 103 134 183 246 284 336 424
#     4  10  23  45  62 101 138 187 217 279 353 401
#     4  12  25  46  69 104 139 178 231 287 340 411
#     4  11  25  40  76  97 144 177 223 283 347 404
#
# _framework density 21.682829999999999
#
# number of rings (size 3 to 8) (size 9 to 14) (size 15 to 20)
#    0.000    0.750    5.000    1.500   10.500    2.000 
#    0.000    1.250    0.000    0.000    0.000    0.000 
#    0.000    0.000    0.000    0.000    0.000    0.000 
#
# Total GULP energy -396428.105631 kJ/mol
# GULP energy per Si atom -12388.378301 kJ/mol
# Density = 2.163348 g / cm^3
# Si number density = 21.682830 Si / 1000 Ang^3
#
#
#
# Elastic Constant Matrix: (Units=GPa)
#
#
# Indices 1 2 3 4 5 6 
#
# 1 101.8215 4.9434 7.2306 0.0000 -9.8716 0.0000
# 2 4.9434 90.9516 11.8208 0.0000 -9.0259 0.0000
# 3 7.2306 11.8208 94.2541 0.0000 7.4781 0.0000
# 4 0.0000 0.0000 0.0000 29.8244 0.0000 -8.3335
# 5 -9.8716 -9.0259 7.4781 0.0000 43.7869 0.0000
# 6 0.0000 0.0000 0.0000 -8.3335 0.0000 17.3429
#
#
#
# Elastic Compliance Matrix: (Units=1/GPa)
#
#
# Indices 1 2 3 4 5 6 
#
# 1 0.010131 -0.000189 -0.000944 0.000000 0.002406 0.000000
# 2 -0.000189 0.011475 -0.001631 0.000000 0.002601 0.000000
# 3 -0.000944 -0.001631 0.011080 0.000000 -0.002441 0.000000
# 4 0.000000 0.000000 0.000000 0.038730 0.000000 0.018610
# 5 0.002406 0.002601 -0.002441 0.000000 0.024334 0.000000
# 6 0.000000 0.000000 0.000000 0.018610 0.000000 0.066603
#
#
# Mechanical properties :
#
#
# Convention : Reuss Voigt Hill
#
# Bulk Modulus (GPa) = 36.82258 37.22408 37.02333
# Shear Modulus (GPa) = 28.25919 35.72632 31.99275
#
# Velocity S-wave (km/s) = 3.61404 4.06356 3.84538
# Velocity P-wave (km/s) = 5.86807 6.26271 6.06860
#
# Compressibility (1/GPa) = 0.02715725
#
# Stress axis : x y z
#
# Youngs Moduli (GPa) = 98.71055 87.14386 90.25005
#
# Poissons Ratio (x) = 0.01648 0.08523
# Poissons Ratio (y) = 0.01867 0.14720
# Poissons Ratio (z) = 0.09322 0.14214
#
# Static dielectric constant tensor:
#      x y z
#    x 4.257520 0.000000 0.295220 
#    y 0.000000 3.822930 0.000000 
#    z 0.295220 0.000000 4.017730 
# 
# 
# High freq. dielectric constant tensor:
#      x y z
#    x 1.853370 0.000000 0.005260 
#    y 0.000000 1.842890 0.000000 
#    z 0.005260 0.000000 1.865480 
# 
# From -- ./inp_files/40364.got.cif
#   From: 2010.03.12/outbox.cif.g09.slc.cpg/sg14_21_cif.got.tgz:40364.got - 2010.03.31 13:35:05.
