data_PCOD8128123
_publ_section_title
;
Structure prediction by ZEFSAII (Michael W. Deem and Ramdas Pophale) SiO2 
 PCOD8128123
Probable space group: P 21/C
;
_chemical_formula_sum "Si O2"
_cell_formula_units_Z 28
_cell_length_a 27.964850
_cell_length_b 8.775088
_cell_length_c 28.129528
_cell_angle_alpha 90.000000
_cell_angle_beta 10.218242
_cell_angle_gamma 90.000000
_cell_volume 1224.546667
_symmetry_space_group_name_H-M "P 21/C"
_symmetry_group_IT_number 14
_symmetry_cell_setting 'monoclinic'
loop_
_space_group_symop_operation_xyz
x,y,z
-x,1/2+y,1/2-z
-x,-y,-z
x,1/2-y,1/2+z
loop_
_atom_site_type_symbol
_atom_site_label
_atom_site_fract_x
_atom_site_fract_y
_atom_site_fract_z
Si Si1 0.510477 0.490549 0.413345
Si Si2 0.514766 0.257858 0.488909
Si Si3 0.812172 0.159240 0.450764
Si Si4 0.705466 0.060253 0.181214
Si Si5 0.271963 0.009310 0.948160
Si Si6 0.060211 0.609221 0.069502
Si Si7 0.777116 0.522576 0.774415
O O1 0.624771 0.376157 0.341994
O O2 0.497369 0.659106 0.448457
O O3 0.230828 0.427432 0.666808
O O4 0.726385 0.512370 0.159950
O O5 0.233180 0.181270 0.745972
O O6 0.713471 0.114454 0.300307
O O7 0.777435 0.340137 0.484056
O O8 0.957245 0.100683 0.356721
O O9 0.522647 0.080908 0.730522
O O10 0.005924 0.110167 0.218037
O O11 0.666676 0.984466 0.167793
O O12 0.424569 0.045980 0.483497
O O13 0.814562 0.230917 0.069276
O O14 0.932615 0.975489 0.989634
#
# Coordination Sequence:
#
# PCOD8128123 Si02
#       7
#     4   4   4   4   4   4   4
#     4  11  23  41  62  93 125 167 211 258 313 371
#     4  10  24  40  64  90 128 164 212 264 310 368
#     4  11  24  45  70  99 132 176 217 271 332 397
#     4  11  22  42  66  90 127 169 209 251 322 387
#     4  11  24  45  70  99 132 176 217 271 332 397
#     4  11  22  42  66  90 127 169 209 251 322 387
#     4  11  23  41  62  93 125 167 211 258 313 371
#
# _framework density 22.865603
#
# number of rings (size 3 to 8) (size 9 to 14) (size 15 to 20)
#    0.000    1.143    2.857    2.571    0.000   12.571 
#   15.429    0.000    0.000    0.000    0.000    0.000 
#    0.000    0.000    0.000    0.000    0.000    0.000 
#
# Total GULP energy -347173.482737 kJ/mol
# GULP energy per Si atom -12399.052955 kJ/mol
# Density = 2.281356 g / cm^3
# Si number density = 22.865603 Si / 1000 Ang^3
#
#
#
# Elastic Constant Matrix: (Units=GPa)
#
#
# Indices 1 2 3 4 5 6 
#
# 1 63.5496 20.3019 19.8185 0.0000 -10.4283 0.0000
# 2 20.3019 71.2963 -2.8623 0.0000 -11.1948 0.0000
# 3 19.8185 -2.8623 86.6465 0.0000 1.2433 0.0000
# 4 0.0000 0.0000 0.0000 21.6302 0.0000 3.3257
# 5 -10.4283 -11.1948 1.2433 0.0000 35.3186 0.0000
# 6 0.0000 0.0000 0.0000 3.3257 0.0000 18.2169
#
#
#
# Elastic Compliance Matrix: (Units=1/GPa)
#
#
# Indices 1 2 3 4 5 6 
#
# 1 0.019530 -0.005071 -0.004697 0.000000 0.004325 0.000000
# 2 -0.005071 0.016093 0.001641 0.000000 0.003546 0.000000
# 3 -0.004697 0.001641 0.012688 0.000000 -0.001313 0.000000
# 4 0.000000 0.000000 0.000000 0.047567 0.000000 -0.008684
# 5 0.004325 0.003546 -0.001313 0.000000 0.030761 0.000000
# 6 0.000000 0.000000 0.000000 -0.008684 0.000000 0.056479
#
#
# Mechanical properties :
#
#
# Convention : Reuss Voigt Hill
#
# Bulk Modulus (GPa) = 31.19416 32.88985 32.04200
# Shear Modulus (GPa) = 23.80303 27.31544 25.55923
#
# Velocity S-wave (km/s) = 3.22995 3.46006 3.34698
# Velocity P-wave (km/s) = 5.25187 5.51161 5.38331
#
# Compressibility (1/GPa) = 0.03205729
#
# Stress axis : x y z
#
# Youngs Moduli (GPa) = 51.20330 62.14066 78.81194
#
# Poissons Ratio (x) = 0.31510 0.37015
# Poissons Ratio (y) = 0.25964 -0.12929
# Poissons Ratio (z) = 0.24048 -0.10194
#
# Static dielectric constant tensor:
#      x y z
#    x 4.333880 0.000000 -0.012220 
#    y 0.000000 4.165640 0.000000 
#    z -0.012220 0.000000 4.033070 
# 
# 
# High freq. dielectric constant tensor:
#      x y z
#    x 1.916850 0.000000 0.000180 
#    y 0.000000 1.900100 0.000000 
#    z 0.000180 0.000000 1.900520 
# 
# From -- ./inp_files/80883.got.cif
#   From: 2010.03.12/outbox.cif.g09.slc.cpg/sg14_41_cif.got.tgz:80883.got - 2010.03.31 13:35:05.
