data_PCOD8128699
_publ_section_title
;
Structure prediction by ZEFSAII (Michael W. Deem and Ramdas Pophale) SiO2 
 PCOD8128699
Probable space group: P 21/C
;
_chemical_formula_sum "Si O2"
_cell_formula_units_Z 28
_cell_length_a 9.094026
_cell_length_b 13.916255
_cell_length_c 18.881885
_cell_angle_alpha 90.000000
_cell_angle_beta 149.802725
_cell_angle_gamma 90.000000
_cell_volume 1201.914664
_symmetry_space_group_name_H-M "P 21/C"
_symmetry_group_IT_number 14
_symmetry_cell_setting 'monoclinic'
loop_
_space_group_symop_operation_xyz
x,y,z
-x,1/2+y,1/2-z
-x,-y,-z
x,1/2-y,1/2+z
loop_
_atom_site_type_symbol
_atom_site_label
_atom_site_fract_x
_atom_site_fract_y
_atom_site_fract_z
Si Si1 0.314912 0.664869 0.507103
Si Si2 0.277256 0.229211 0.060460
Si Si3 0.025989 0.337880 0.201890
Si Si4 0.163961 0.546263 0.002225
Si Si5 0.618149 0.399308 0.152252
Si Si6 0.932731 0.970528 0.052148
Si Si7 0.666601 0.276851 0.849580
O O1 0.120149 0.734345 0.376386
O O2 0.201788 0.555183 0.455060
O O3 0.289078 0.688225 0.579388
O O4 0.658234 0.676307 0.629875
O O5 0.500705 0.290358 0.106703
O O6 0.293980 0.118982 0.041696
O O7 0.373064 0.235667 0.182562
O O8 0.956138 0.277717 0.920681
O O9 0.061148 0.400661 0.144725
O O10 0.831222 0.401285 0.174112
O O11 0.345894 0.471323 0.030722
O O12 0.380961 0.626183 0.125021
O O13 0.000000 0.500000 0.000000
O O14 0.772519 0.430495 0.289520
O O15 0.000000 0.000000 0.000000
#
# Coordination Sequence:
#
# PCOD8128699 Si02
#       7
#     4   4   4   4   4   4   4
#     4  11  26  48  74 105 150 198 251 304 385 446
#     4  12  23  41  68 106 146 185 245 308 375 433
#     4  11  29  49  73 106 154 201 248 306 388 452
#     4  11  24  43  75 106 141 189 252 309 372 445
#     4  12  27  47  70 110 151 198 250 311 380 452
#     4  12  26  44  77 112 150 191 257 317 374 448
#     4  11  22  40  69 106 141 185 243 313 370 437
#
# _framework density 23.296163
#
# number of rings (size 3 to 8) (size 9 to 14) (size 15 to 20)
#    0.000    0.571    4.286    3.000   10.000    0.571 
#    0.000    0.000    0.000    0.000    0.000    0.000 
#    0.000    0.000    0.000    0.000    0.000    0.000 
#
# Total GULP energy -347216.028871 kJ/mol
# GULP energy per Si atom -12400.572460 kJ/mol
# Density = 2.324314 g / cm^3
# Si number density = 23.296163 Si / 1000 Ang^3
#
#
#
# Elastic Constant Matrix: (Units=GPa)
#
#
# Indices 1 2 3 4 5 6 
#
# 1 85.4214 35.1170 14.3769 0.0000 16.9754 0.0000
# 2 35.1170 156.0750 45.5901 0.0000 11.4374 0.0000
# 3 14.3769 45.5901 93.8709 0.0000 15.8407 0.0000
# 4 0.0000 0.0000 0.0000 36.7621 0.0000 7.8707
# 5 16.9754 11.4374 15.8407 0.0000 34.1905 0.0000
# 6 0.0000 0.0000 0.0000 7.8707 0.0000 32.2596
#
#
#
# Elastic Compliance Matrix: (Units=1/GPa)
#
#
# Indices 1 2 3 4 5 6 
#
# 1 0.014029 -0.002775 0.000236 0.000000 -0.006147 0.000000
# 2 -0.002775 0.008040 -0.003535 0.000000 0.000326 0.000000
# 3 0.000236 -0.003535 0.013185 0.000000 -0.005043 0.000000
# 4 0.000000 0.000000 0.000000 0.028701 0.000000 -0.007003
# 5 -0.006147 0.000326 -0.005043 0.000000 0.034527 0.000000
# 6 0.000000 0.000000 0.000000 -0.007003 0.000000 0.032707
#
#
# Mechanical properties :
#
#
# Convention : Reuss Voigt Hill
#
# Bulk Modulus (GPa) = 43.27744 58.39282 50.83513
# Shear Modulus (GPa) = 33.10401 36.66132 34.88266
#
# Velocity S-wave (km/s) = 3.77371 3.97130 3.87377
# Velocity P-wave (km/s) = 6.13232 6.79324 6.47122
#
# Compressibility (1/GPa) = 0.02310673
#
# Stress axis : x y z
#
# Youngs Moduli (GPa) = 71.27961 124.37410 75.84629
#
# Poissons Ratio (x) = 0.34516 -0.01793
# Poissons Ratio (y) = 0.19782 0.26811
# Poissons Ratio (z) = -0.01685 0.43964
#
# Static dielectric constant tensor:
#      x y z
#    x 3.807120 0.000000 -0.020980 
#    y 0.000000 4.539450 0.000000 
#    z -0.020980 0.000000 4.226580 
# 
# 
# High freq. dielectric constant tensor:
#      x y z
#    x 1.899490 0.000000 0.002250 
#    y 0.000000 1.936470 0.000000 
#    z 0.002250 0.000000 1.920480 
# 
# From -- ./inp_files/65935.got.cif
#   From: 2010.03.12/outbox.cif.g09.slc.cpg/sg14_33_cif.got.tgz:65935.got - 2010.03.31 13:35:05.
