data_PCOD8128146
_publ_section_title
;
Structure prediction by ZEFSAII (Michael W. Deem and Ramdas Pophale) SiO2 
 PCOD8128146
Probable space group: P 21/C
;
_chemical_formula_sum "Si O2"
_cell_formula_units_Z 20
_cell_length_a 17.756694
_cell_length_b 14.122535
_cell_length_c 12.113180
_cell_angle_alpha 90.000000
_cell_angle_beta 160.812343
_cell_angle_gamma 90.000000
_cell_volume 998.352742
_symmetry_space_group_name_H-M "P 21/C"
_symmetry_group_IT_number 14
_symmetry_cell_setting 'monoclinic'
loop_
_space_group_symop_operation_xyz
x,y,z
-x,1/2+y,1/2-z
-x,-y,-z
x,1/2-y,1/2+z
loop_
_atom_site_type_symbol
_atom_site_label
_atom_site_fract_x
_atom_site_fract_y
_atom_site_fract_z
Si Si1 0.112305 0.409267 0.858207
Si Si2 0.541380 0.637313 0.825818
Si Si3 0.815290 0.711410 0.615710
Si Si4 0.274258 0.439056 0.700993
Si Si5 0.977577 0.096871 0.408463
O O1 0.933720 0.488177 0.571508
O O2 0.145835 0.410087 0.036504
O O3 0.036302 0.300014 0.726621
O O4 0.351864 0.429703 0.124451
O O5 0.281358 0.612024 0.492821
O O6 0.572907 0.746289 0.827064
O O7 0.697446 0.624681 0.151107
O O8 0.770796 0.628531 0.466433
O O9 0.958769 0.678390 0.919363
O O10 0.500000 0.500000 0.000000
O O11 0.000000 0.000000 0.500000
#
# Coordination Sequence:
#
# PCOD8128146 Si02
#       5
#     4   4   4   4   4
#     4  10  24  41  68  95 132 174 225 268 328 397
#     4  10  25  40  68  96 129 177 221 270 333 389
#     4  10  25  41  66  99 133 170 225 272 322 401
#     4  12  21  45  69  96 134 180 216 272 338 392
#     4  12  22  46  64  96 133 169 223 277 326 384
#
# _framework density 20.033000999999999
#
# number of rings (size 3 to 8) (size 9 to 14) (size 15 to 20)
#    1.200    0.000    4.000    1.800    2.800    0.800 
#    0.000    0.000    0.000    0.000    0.000    0.000 
#    0.000    0.000    0.000    0.000    0.000    0.000 
#
# Total GULP energy -247761.159454 kJ/mol
# GULP energy per Si atom -12388.057973 kJ/mol
# Density = 1.998741 g / cm^3
# Si number density = 20.033001 Si / 1000 Ang^3
#
#
#
# Elastic Constant Matrix: (Units=GPa)
#
#
# Indices 1 2 3 4 5 6 
#
# 1 117.8050 5.4659 23.2897 0.0000 -21.0796 0.0000
# 2 5.4659 79.7450 21.8799 0.0000 -8.7150 0.0000
# 3 23.2897 21.8799 66.6411 0.0000 -15.8054 0.0000
# 4 0.0000 0.0000 0.0000 29.4914 0.0000 -7.6137
# 5 -21.0796 -8.7150 -15.8054 0.0000 35.1875 0.0000
# 6 0.0000 0.0000 0.0000 -7.6137 0.0000 42.2134
#
#
#
# Elastic Compliance Matrix: (Units=1/GPa)
#
#
# Indices 1 2 3 4 5 6 
#
# 1 0.009828 0.000535 -0.002443 0.000000 0.004923 0.000000
# 2 0.000535 0.013886 -0.004314 0.000000 0.001822 0.000000
# 3 -0.002443 -0.004314 0.018664 0.000000 0.005852 0.000000
# 4 0.000000 0.000000 0.000000 0.035564 0.000000 0.006414
# 5 0.004923 0.001822 0.005852 0.000000 0.034448 0.000000
# 6 0.000000 0.000000 0.000000 0.006414 0.000000 0.024846
#
#
# Mechanical properties :
#
#
# Convention : Reuss Voigt Hill
#
# Bulk Modulus (GPa) = 33.40749 40.60689 37.00719
# Shear Modulus (GPa) = 31.31722 35.61551 33.46637
#
# Velocity S-wave (km/s) = 3.95812 4.22102 4.09168
# Velocity P-wave (km/s) = 6.13200 6.63853 6.39028
#
# Compressibility (1/GPa) = 0.02993341
#
# Stress axis : x y z
#
# Youngs Moduli (GPa) = 101.75517 72.01480 53.58037
#
# Poissons Ratio (x) = -0.03849 0.13087
# Poissons Ratio (y) = -0.05439 0.23114
# Poissons Ratio (z) = 0.24854 0.31066
#
# Static dielectric constant tensor:
#      x y z
#    x 3.922140 0.000000 -0.090090 
#    y 0.000000 3.637670 0.000000 
#    z -0.090090 0.000000 3.125320 
# 
# 
# High freq. dielectric constant tensor:
#      x y z
#    x 1.801690 0.000000 -0.015010 
#    y 0.000000 1.788660 0.000000 
#    z -0.015010 0.000000 1.756560 
# 
# From -- ./inp_files/24418.got.cif
#   From: 2010.03.12/outbox.cif.g09.slc.cpg/sg14_13_cif.got.tgz:24418.got - 2010.03.31 13:35:05.
