data_PCOD8128724
_publ_section_title
;
Structure prediction by ZEFSAII (Michael W. Deem and Ramdas Pophale) SiO2 
 PCOD8128724
Probable space group: P 21/C
;
_chemical_formula_sum "Si O2"
_cell_formula_units_Z 24
_cell_length_a 8.665569
_cell_length_b 8.152522
_cell_length_c 28.786029
_cell_angle_alpha 90.000000
_cell_angle_beta 33.203934
_cell_angle_gamma 90.000000
_cell_volume 1113.654969
_symmetry_space_group_name_H-M "P 21/C"
_symmetry_group_IT_number 14
_symmetry_cell_setting 'monoclinic'
loop_
_space_group_symop_operation_xyz
x,y,z
-x,1/2+y,1/2-z
-x,-y,-z
x,1/2-y,1/2+z
loop_
_atom_site_type_symbol
_atom_site_label
_atom_site_fract_x
_atom_site_fract_y
_atom_site_fract_z
Si Si1 0.890649 0.633529 0.645386
Si Si2 0.800210 0.383006 0.520880
Si Si3 0.746803 0.066903 0.858584
Si Si4 0.237589 0.835450 0.721323
Si Si5 0.245599 0.581151 0.908227
Si Si6 0.300139 0.732660 0.306462
O O1 0.778262 0.452669 0.661141
O O2 0.638155 0.748841 0.726198
O O3 0.019081 0.705461 0.565344
O O4 0.132661 0.629948 0.623137
O O5 0.556534 0.486410 0.556980
O O6 0.658019 0.244737 0.588764
O O7 0.000000 0.500000 0.500000
O O8 0.697361 0.219742 0.837608
O O9 0.955506 0.936863 0.782060
O O10 0.204282 0.730654 0.777511
O O11 0.492540 0.961667 0.663918
O O12 0.149673 0.641297 0.880588
O O13 0.000000 0.500000 0.000000
#
# Coordination Sequence:
#
# PCOD8128724 Si02
#       6
#     4   4   4   4   4   4
#     4  11  24  42  68 101 133 178 227 281 340 410
#     4  12  24  41  70  97 135 182 227 282 345 405
#     4  11  24  43  66  97 141 174 229 282 344 402
#     4  11  25  44  69  98 137 183 225 280 342 409
#     4  12  24  43  66 102 135 173 238 281 334 408
#     4  11  22  42  68  96 129 173 232 271 336 402
#
# _framework density 21.550661000000002
#
# number of rings (size 3 to 8) (size 9 to 14) (size 15 to 20)
#    0.000    0.667    5.000    4.500    0.000    0.000 
#    0.000    0.833    0.000    0.000    0.000    0.000 
#    0.000    0.000    0.000    0.000    0.000    0.000 
#
# Total GULP energy -297639.435019 kJ/mol
# GULP energy per Si atom -12401.643126 kJ/mol
# Density = 2.150161 g / cm^3
# Si number density = 21.550661 Si / 1000 Ang^3
#
#
#
# Elastic Constant Matrix: (Units=GPa)
#
#
# Indices 1 2 3 4 5 6 
#
# 1 115.9514 55.0581 36.8394 0.0000 9.0798 0.0000
# 2 55.0581 75.7873 23.9152 0.0000 12.0861 0.0000
# 3 36.8394 23.9152 89.7099 0.0000 14.2523 0.0000
# 4 0.0000 0.0000 0.0000 41.3118 0.0000 1.5605
# 5 9.0798 12.0861 14.2523 0.0000 45.4644 0.0000
# 6 0.0000 0.0000 0.0000 1.5605 0.0000 31.1539
#
#
#
# Elastic Compliance Matrix: (Units=1/GPa)
#
#
# Indices 1 2 3 4 5 6 
#
# 1 0.014039 -0.009236 -0.003418 0.000000 0.000723 0.000000
# 2 -0.009236 0.020820 -0.001233 0.000000 -0.003304 0.000000
# 3 -0.003418 -0.001233 0.013385 0.000000 -0.003186 0.000000
# 4 0.000000 0.000000 0.000000 0.024252 0.000000 -0.001215
# 5 0.000723 -0.003304 -0.003186 0.000000 0.023728 0.000000
# 6 0.000000 0.000000 0.000000 -0.001215 0.000000 0.032160
#
#
# Mechanical properties :
#
#
# Convention : Reuss Voigt Hill
#
# Bulk Modulus (GPa) = 48.84770 57.00824 52.92797
# Shear Modulus (GPa) = 30.67830 34.62840 32.65335
#
# Velocity S-wave (km/s) = 3.77708 4.01289 3.89677
# Velocity P-wave (km/s) = 6.46045 6.92687 6.69772
#
# Compressibility (1/GPa) = 0.02047179
#
# Stress axis : x y z
#
# Youngs Moduli (GPa) = 71.22920 48.02965 74.70847
#
# Poissons Ratio (x) = 0.44360 0.25535
# Poissons Ratio (y) = 0.65787 0.09210
# Poissons Ratio (z) = 0.24345 0.05921
#
# Static dielectric constant tensor:
#      x y z
#    x 3.983530 0.000000 0.189040 
#    y 0.000000 3.931240 0.000000 
#    z 0.189040 0.000000 4.247940 
# 
# 
# High freq. dielectric constant tensor:
#      x y z
#    x 1.847360 0.000000 0.014780 
#    y 0.000000 1.842900 0.000000 
#    z 0.014780 0.000000 1.856500 
# 
# From -- ./inp_files/79431.got.cif
#   From: 2010.03.12/outbox.cif.g09.slc.cpg/sg14_40_cif.got.tgz:79431.got - 2010.03.31 13:35:05.
