data_PCOD8128868
_publ_section_title
;
Structure prediction by ZEFSAII (Michael W. Deem and Ramdas Pophale) SiO2 
 PCOD8128868
Probable space group: P 21/C
;
_chemical_formula_sum "Si O2"
_cell_formula_units_Z 16
_cell_length_a 11.630256
_cell_length_b 7.195503
_cell_length_c 9.016121
_cell_angle_alpha 90.000000
_cell_angle_beta 54.905359
_cell_angle_gamma 90.000000
_cell_volume 617.350060
_symmetry_space_group_name_H-M "P 21/C"
_symmetry_group_IT_number 14
_symmetry_cell_setting 'monoclinic'
loop_
_space_group_symop_operation_xyz
x,y,z
-x,1/2+y,1/2-z
-x,-y,-z
x,1/2-y,1/2+z
loop_
_atom_site_type_symbol
_atom_site_label
_atom_site_fract_x
_atom_site_fract_y
_atom_site_fract_z
Si Si1 0.854680 0.491628 0.794292
Si Si2 0.434657 0.801908 0.531544
Si Si3 0.435476 0.048546 0.839739
Si Si4 0.858780 0.813880 0.990347
O O1 0.834096 0.596259 0.967605
O O2 0.863345 0.654657 0.663592
O O3 0.997443 0.376349 0.693434
O O4 0.730429 0.345612 0.856210
O O5 0.480899 0.730534 0.660967
O O6 0.529470 0.962910 0.368335
O O7 0.483710 0.631883 0.391051
O O8 0.268835 0.067772 0.983431
#
# Coordination Sequence:
#
# PCOD8128868 Si02
#       4
#     4   4   4   4
#     4  11  25  45  67  98 135 176 224 272 329 394
#     4  11  24  42  68  98 133 173 222 273 330 392
#     4  11  23  42  68  99 133 174 217 273 331 392
#     4  11  24  42  67  95 135 175 219 275 330 392
#
# _framework density 25.917224000000001
#
# number of rings (size 3 to 8) (size 9 to 14) (size 15 to 20)
#    0.000    1.000    0.000    6.000    0.000    8.000 
#    0.000    0.000    0.000    0.000    0.000    0.000 
#    0.000    0.000    0.000    0.000    0.000    0.000 
#
# Total GULP energy -198451.967401 kJ/mol
# GULP energy per Si atom -12403.247963 kJ/mol
# Density = 2.585824 g / cm^3
# Si number density = 25.917224 Si / 1000 Ang^3
#
#
#
# Elastic Constant Matrix: (Units=GPa)
#
#
# Indices 1 2 3 4 5 6 
#
# 1 143.0142 40.3204 49.0921 0.0000 -15.7874 0.0000
# 2 40.3204 111.1220 40.3152 0.0000 17.9857 0.0000
# 3 49.0921 40.3152 121.5865 0.0000 0.8518 0.0000
# 4 0.0000 0.0000 0.0000 32.7398 0.0000 -2.0976
# 5 -15.7874 17.9857 0.8518 0.0000 55.0800 0.0000
# 6 0.0000 0.0000 0.0000 -2.0976 0.0000 36.8055
#
#
#
# Elastic Compliance Matrix: (Units=1/GPa)
#
#
# Indices 1 2 3 4 5 6 
#
# 1 0.009158 -0.002908 -0.002759 0.000000 0.003617 0.000000
# 2 -0.002908 0.011785 -0.002701 0.000000 -0.004640 0.000000
# 3 -0.002759 -0.002701 0.010235 0.000000 -0.000067 0.000000
# 4 0.000000 0.000000 0.000000 0.030656 0.000000 0.001747
# 5 0.003617 -0.004640 -0.000067 0.000000 0.020708 0.000000
# 6 0.000000 0.000000 0.000000 0.001747 0.000000 0.027269
#
#
# Mechanical properties :
#
#
# Convention : Reuss Voigt Hill
#
# Bulk Modulus (GPa) = 69.23971 70.57533 69.90752
# Shear Modulus (GPa) = 38.06284 41.32474 39.69379
#
# Velocity S-wave (km/s) = 3.83643 3.99744 3.91776
# Velocity P-wave (km/s) = 6.81161 6.97110 6.89181
#
# Compressibility (1/GPa) = 0.01444258
#
# Stress axis : x y z
#
# Youngs Moduli (GPa) = 109.18858 84.85281 97.70644
#
# Poissons Ratio (x) = 0.24672 0.26958
# Poissons Ratio (y) = 0.31748 0.26392
# Poissons Ratio (z) = 0.30126 0.22920
#
# Static dielectric constant tensor:
#      x y z
#    x 4.823890 0.000000 0.313000 
#    y 0.000000 5.076100 0.000000 
#    z 0.313000 0.000000 4.824710 
# 
# 
# High freq. dielectric constant tensor:
#      x y z
#    x 2.048310 0.000000 0.018190 
#    y 0.000000 2.070110 0.000000 
#    z 0.018190 0.000000 2.056630 
# 
# From -- ./inp_files/7209.got.cif
#   From: 2010.03.12/outbox.cif.g09.slc.cpg/sg14_4_cif.got.tgz:7209.got - 2010.03.31 13:35:05.
