data_PCOD8128436
_publ_section_title
;
Structure prediction by ZEFSAII (Michael W. Deem and Ramdas Pophale) SiO2 
 PCOD8128436
Probable space group: P 21/C
;
_chemical_formula_sum "Si O2"
_cell_formula_units_Z 32
_cell_length_a 11.419957
_cell_length_b 11.966750
_cell_length_c 10.883554
_cell_angle_alpha 90.000000
_cell_angle_beta 78.348412
_cell_angle_gamma 90.000000
_cell_volume 1456.695492
_symmetry_space_group_name_H-M "P 21/C"
_symmetry_group_IT_number 14
_symmetry_cell_setting 'monoclinic'
loop_
_space_group_symop_operation_xyz
x,y,z
-x,1/2+y,1/2-z
-x,-y,-z
x,1/2-y,1/2+z
loop_
_atom_site_type_symbol
_atom_site_label
_atom_site_fract_x
_atom_site_fract_y
_atom_site_fract_z
Si Si1 0.826058 0.736599 0.457911
Si Si2 0.351878 0.405852 0.122252
Si Si3 0.186606 0.575333 0.773376
Si Si4 0.379810 0.903539 0.418826
Si Si5 0.989696 0.584853 0.290970
Si Si6 0.791252 0.984837 0.118125
Si Si7 0.225721 0.804770 0.031727
Si Si8 0.970960 0.153019 0.479465
O O1 0.718827 0.793934 0.405259
O O2 0.940940 0.705136 0.347554
O O3 0.784391 0.630718 0.545113
O O4 0.886128 0.829387 0.535568
O O5 0.483809 0.370064 0.138986
O O6 0.287901 0.470290 0.245069
O O7 0.367227 0.491105 0.008825
O O8 0.315215 0.555183 0.807634
O O9 0.137811 0.480618 0.691728
O O10 0.207924 0.683630 0.682711
O O11 0.083543 0.578460 0.899889
O O12 0.319553 0.793754 0.488497
O O13 0.074308 0.517998 0.367834
O O14 0.056786 0.596604 0.146488
O O15 0.733528 0.081998 0.045900
O O16 0.098245 0.771229 0.000600
#
# Coordination Sequence:
#
# PCOD8128436 Si02
#       8
#     4   4   4   4   4   4   4   4
#     4  12  23  42  65 102 141 176 224 278 344 415
#     4  11  26  49  69  98 131 183 229 294 341 396
#     4  11  22  40  64  99 132 182 225 274 338 400
#     4  10  26  47  71  95 130 178 240 286 341 403
#     4  12  22  40  66 103 147 176 222 279 338 422
#     4  12  24  44  69 103 140 176 223 281 353 413
#     4  11  23  42  68  99 134 176 229 278 342 413
#     4  11  22  35  64 100 137 183 219 270 340 409
#
# _framework density 21.967528000000001
#
# number of rings (size 3 to 8) (size 9 to 14) (size 15 to 20)
#    0.000    0.750    2.500    6.000    5.250    1.000 
#    4.500    1.250    0.000    0.000    0.000    0.000 
#    0.000    0.000    0.000    0.000    0.000    0.000 
#
# Total GULP energy -396663.528873 kJ/mol
# GULP energy per Si atom -12395.735277 kJ/mol
# Density = 2.191753 g / cm^3
# Si number density = 21.967528 Si / 1000 Ang^3
#
#
#
# Elastic Constant Matrix: (Units=GPa)
#
#
# Indices 1 2 3 4 5 6 
#
# 1 127.3147 24.9427 8.4198 0.0000 -11.1050 0.0000
# 2 24.9427 72.7126 1.3275 0.0000 -4.0959 0.0000
# 3 8.4198 1.3275 55.3645 0.0000 -7.0299 0.0000
# 4 0.0000 0.0000 0.0000 34.9747 0.0000 4.7687
# 5 -11.1050 -4.0959 -7.0299 0.0000 19.6585 0.0000
# 6 0.0000 0.0000 0.0000 4.7687 0.0000 25.3500
#
#
#
# Elastic Compliance Matrix: (Units=1/GPa)
#
#
# Indices 1 2 3 4 5 6 
#
# 1 0.008808 -0.002775 -0.000749 0.000000 0.004130 0.000000
# 2 -0.002775 0.014791 0.000272 0.000000 0.001611 0.000000
# 3 -0.000749 0.000272 0.018985 0.000000 0.006423 0.000000
# 4 0.000000 0.000000 0.000000 0.029345 0.000000 -0.005520
# 5 0.004130 0.001611 0.006423 0.000000 0.055834 0.000000
# 6 0.000000 0.000000 0.000000 -0.005520 0.000000 0.040486
#
#
# Mechanical properties :
#
#
# Convention : Reuss Voigt Hill
#
# Bulk Modulus (GPa) = 27.71617 36.08575 31.90096
# Shear Modulus (GPa) = 26.76967 30.71008 28.73988
#
# Velocity S-wave (km/s) = 3.49464 3.74301 3.62095
# Velocity P-wave (km/s) = 5.37844 5.92813 5.65996
#
# Compressibility (1/GPa) = 0.03608003
#
# Stress axis : x y z
#
# Youngs Moduli (GPa) = 113.53383 67.61087 52.67314
#
# Poissons Ratio (x) = 0.18763 0.03943
# Poissons Ratio (y) = 0.31507 -0.01433
# Poissons Ratio (z) = 0.08499 -0.01839
#
# Static dielectric constant tensor:
#      x y z
#    x 4.037280 0.000000 0.137200 
#    y 0.000000 3.909800 0.000000 
#    z 0.137200 0.000000 4.031940 
# 
# 
# High freq. dielectric constant tensor:
#      x y z
#    x 1.848770 0.000000 0.015290 
#    y 0.000000 1.870580 0.000000 
#    z 0.015290 0.000000 1.874720 
# 
# From -- ./inp_files/29365.got.cif
#   From: 2010.03.12/outbox.cif.g09.slc.cpg/sg14_15_cif.got.tgz:29365.got - 2010.03.31 13:35:05.
