data_PCOD8128274
_publ_section_title
;
Structure prediction by ZEFSAII (Michael W. Deem and Ramdas Pophale) SiO2 
 PCOD8128274
Probable space group: P 21/C
;
_chemical_formula_sum "Si O2"
_cell_formula_units_Z 20
_cell_length_a 12.447944
_cell_length_b 7.555010
_cell_length_c 8.596824
_cell_angle_alpha 90.000000
_cell_angle_beta 74.103524
_cell_angle_gamma 90.000000
_cell_volume 777.564785
_symmetry_space_group_name_H-M "P 21/C"
_symmetry_group_IT_number 14
_symmetry_cell_setting 'monoclinic'
loop_
_space_group_symop_operation_xyz
x,y,z
-x,1/2+y,1/2-z
-x,-y,-z
x,1/2-y,1/2+z
loop_
_atom_site_type_symbol
_atom_site_label
_atom_site_fract_x
_atom_site_fract_y
_atom_site_fract_z
Si Si1 0.106621 0.495454 0.166431
Si Si2 0.659056 0.142137 0.910799
Si Si3 0.113232 0.676529 0.837824
Si Si4 0.565264 0.861279 0.176122
Si Si5 0.346128 0.049817 0.533596
O O1 0.117001 0.611223 0.319600
O O2 0.219636 0.378311 0.113804
O O3 0.996146 0.379504 0.216842
O O4 0.101733 0.628778 0.021495
O O5 0.774786 0.092258 0.780087
O O6 0.660425 0.337948 0.987493
O O7 0.641651 0.004185 0.057448
O O8 0.563151 0.122051 0.820612
O O9 0.606462 0.659164 0.132059
O O10 0.571400 0.897947 0.357393
#
# Coordination Sequence:
#
# PCOD8128274 Si02
#       5
#     4   4   4   4   4
#     4  10  25  44  70 100 135 185 228 295 343 418
#     4  10  26  46  70 102 143 186 232 290 349 418
#     4  10  24  44  68  99 136 180 230 288 349 411
#     4  11  27  44  73 103 139 192 231 288 355 413
#     4  11  27  44  72 104 141 184 233 295 341 427
#
# _framework density 25.721326999999999
#
# number of rings (size 3 to 8) (size 9 to 14) (size 15 to 20)
#    0.000    1.600    0.000    0.600   22.400    2.400 
#    0.000    0.000    0.000    0.000    0.000    0.000 
#    0.000    0.000    0.000    0.000    0.000    0.000 
#
# Total GULP energy -248055.874592 kJ/mol
# GULP energy per Si atom -12402.793730 kJ/mol
# Density = 2.566278 g / cm^3
# Si number density = 25.721327 Si / 1000 Ang^3
#
#
#
# Elastic Constant Matrix: (Units=GPa)
#
#
# Indices 1 2 3 4 5 6 
#
# 1 112.4378 -4.5925 -28.0819 0.0000 -14.8795 0.0000
# 2 -4.5925 85.9677 8.8461 0.0000 -5.8757 0.0000
# 3 -28.0819 8.8461 42.0412 0.0000 -5.9041 0.0000
# 4 0.0000 0.0000 0.0000 37.7041 0.0000 -2.0696
# 5 -14.8795 -5.8757 -5.9041 0.0000 35.7032 0.0000
# 6 0.0000 0.0000 0.0000 -2.0696 0.0000 40.2975
#
#
#
# Elastic Compliance Matrix: (Units=1/GPa)
#
#
# Indices 1 2 3 4 5 6 
#
# 1 0.011976 0.000170 0.008874 0.000000 0.006486 0.000000
# 2 0.000170 0.011980 -0.002171 0.000000 0.001683 0.000000
# 3 0.008874 -0.002171 0.031368 0.000000 0.008528 0.000000
# 4 0.000000 0.000000 0.000000 0.026597 0.000000 0.001366
# 5 0.006486 0.001683 0.008528 0.000000 0.032399 0.000000
# 6 0.000000 0.000000 0.000000 0.001366 0.000000 0.024886
#
#
# Mechanical properties :
#
#
# Convention : Reuss Voigt Hill
#
# Bulk Modulus (GPa) = 14.47796 21.42113 17.94954
# Shear Modulus (GPa) = 33.67400 40.35930 37.01665
#
# Velocity S-wave (km/s) = 3.62219 3.96548 3.79772
# Velocity P-wave (km/s) = 4.80986 5.41415 5.12092
#
# Compressibility (1/GPa) = 0.06907050
#
# Stress axis : x y z
#
# Youngs Moduli (GPa) = 83.50357 83.47399 31.87926
#
# Poissons Ratio (x) = -0.01418 -0.28291
# Poissons Ratio (y) = -0.01419 0.06920
# Poissons Ratio (z) = -0.74104 0.18121
#
# Static dielectric constant tensor:
#      x y z
#    x 5.269570 0.000000 -0.175190 
#    y 0.000000 4.621280 0.000000 
#    z -0.175190 0.000000 4.422970 
# 
# 
# High freq. dielectric constant tensor:
#      x y z
#    x 2.055940 0.000000 -0.007880 
#    y 0.000000 2.016420 0.000000 
#    z -0.007880 0.000000 2.023010 
# 
# From -- ./inp_files/11807.got.cif
#   From: 2010.03.12/outbox.cif.g09.slc.cpg/sg14_6_cif.got.tgz:11807.got - 2010.03.31 13:35:05.
