data_PCOD8128884
_publ_section_title
;
Structure prediction by ZEFSAII (Michael W. Deem and Ramdas Pophale) SiO2 
 PCOD8128884
Probable space group: P 21/C
;
_chemical_formula_sum "Si O2"
_cell_formula_units_Z 28
_cell_length_a 5.632417
_cell_length_b 20.064559
_cell_length_c 12.135547
_cell_angle_alpha 90.000000
_cell_angle_beta 113.621704
_cell_angle_gamma 90.000000
_cell_volume 1256.548575
_symmetry_space_group_name_H-M "P 21/C"
_symmetry_group_IT_number 14
_symmetry_cell_setting 'monoclinic'
loop_
_space_group_symop_operation_xyz
x,y,z
-x,1/2+y,1/2-z
-x,-y,-z
x,1/2-y,1/2+z
loop_
_atom_site_type_symbol
_atom_site_label
_atom_site_fract_x
_atom_site_fract_y
_atom_site_fract_z
Si Si1 0.309535 0.964152 0.281462
Si Si2 0.902116 0.208281 0.104867
Si Si3 0.163636 0.066862 0.537296
Si Si4 0.010868 0.593887 0.219826
Si Si5 0.292084 0.169491 0.993361
Si Si6 0.458888 0.462660 0.604594
Si Si7 0.031823 0.152055 0.723381
O O1 0.540558 0.957006 0.412485
O O2 0.173653 0.893030 0.251179
O O3 0.148654 0.027436 0.289190
O O4 0.369514 0.977913 0.165647
O O5 0.053294 0.156058 0.212816
O O6 0.901808 0.282072 0.152547
O O7 0.072789 0.210783 0.022451
O O8 0.594962 0.191666 0.048650
O O9 0.067811 0.114888 0.419729
O O10 0.146145 0.106947 0.647637
O O11 0.000000 0.000000 0.500000
O O12 0.306385 0.573402 0.289498
O O13 0.240866 0.172530 0.853535
O O14 0.255751 0.095721 0.039080
O O15 0.500000 0.500000 0.500000
#
# Coordination Sequence:
#
# PCOD8128884 Si02
#       7
#     4   4   4   4   4   4   4
#     4  12  23  43  73 107 146 195 254 314 384 447
#     4  11  29  51  76 107 151 206 255 312 386 453
#     4  12  25  45  68 111 150 189 251 311 385 454
#     4  11  24  45  67 105 144 198 244 309 375 454
#     4  11  27  52  74 108 150 197 256 311 380 456
#     4  11  23  42  72 107 145 192 248 315 376 452
#     4  12  30  46  76 111 148 200 254 320 378 463
#
# _framework density 22.283263000000002
#
# number of rings (size 3 to 8) (size 9 to 14) (size 15 to 20)
#    0.000    0.571    4.286    2.143   10.000    1.143 
#    2.571    0.000    0.000    0.000    0.000    0.000 
#    0.000    0.000    0.000    0.000    0.000    0.000 
#
# Total GULP energy -346872.496650 kJ/mol
# GULP energy per Si atom -12388.303452 kJ/mol
# Density = 2.223255 g / cm^3
# Si number density = 22.283263 Si / 1000 Ang^3
#
#
#
# Elastic Constant Matrix: (Units=GPa)
#
#
# Indices 1 2 3 4 5 6 
#
# 1 100.5976 39.0286 43.4761 0.0000 -5.3496 0.0000
# 2 39.0286 132.0996 42.4576 0.0000 -2.3785 0.0000
# 3 43.4761 42.4576 154.6899 0.0000 -15.3474 0.0000
# 4 0.0000 0.0000 0.0000 27.7683 0.0000 0.4734
# 5 -5.3496 -2.3785 -15.3474 0.0000 36.5507 0.0000
# 6 0.0000 0.0000 0.0000 0.4734 0.0000 22.4119
#
#
#
# Elastic Compliance Matrix: (Units=1/GPa)
#
#
# Indices 1 2 3 4 5 6 
#
# 1 0.012162 -0.002744 -0.002615 0.000000 0.000503 0.000000
# 2 -0.002744 0.008928 -0.001734 0.000000 -0.000549 0.000000
# 3 -0.002615 -0.001734 0.007958 0.000000 0.002846 0.000000
# 4 0.000000 0.000000 0.000000 0.036025 0.000000 -0.000761
# 5 0.000503 -0.000549 0.002846 0.000000 0.028592 0.000000
# 6 0.000000 0.000000 0.000000 -0.000761 0.000000 0.044635
#
#
# Mechanical properties :
#
#
# Convention : Reuss Voigt Hill
#
# Bulk Modulus (GPa) = 67.28303 70.81242 69.04773
# Shear Modulus (GPa) = 31.75813 34.84116 33.29964
#
# Velocity S-wave (km/s) = 3.77928 3.95847 3.86991
# Velocity P-wave (km/s) = 7.02167 7.26223 7.14296
#
# Compressibility (1/GPa) = 0.01486259
#
# Stress axis : x y z
#
# Youngs Moduli (GPa) = 82.22301 112.00683 125.66334
#
# Poissons Ratio (x) = 0.30731 0.32863
# Poissons Ratio (y) = 0.22559 0.21787
# Poissons Ratio (z) = 0.21503 0.19420
#
# Static dielectric constant tensor:
#      x y z
#    x 4.435970 0.000000 -0.262130 
#    y 0.000000 5.860380 0.000000 
#    z -0.262130 0.000000 3.140220 
# 
# 
# High freq. dielectric constant tensor:
#      x y z
#    x 1.873070 0.000000 -0.000290 
#    y 0.000000 1.879650 0.000000 
#    z -0.000290 0.000000 1.899370 
# 
# From -- ./inp_files/21831.got.cif
#   From: 2010.03.12/outbox.cif.g09.slc.cpg/sg14_11_cif.got.tgz:21831.got - 2010.03.31 13:35:05.
