data_PCOD8128379
_publ_section_title
;
Structure prediction by ZEFSAII (Michael W. Deem and Ramdas Pophale) SiO2 
 PCOD8128379
Probable space group: P 21/C
;
_chemical_formula_sum "Si O2"
_cell_formula_units_Z 20
_cell_length_a 18.460334
_cell_length_b 11.195132
_cell_length_c 10.038249
_cell_angle_alpha 90.000000
_cell_angle_beta 26.135686
_cell_angle_gamma 90.000000
_cell_volume 913.841934
_symmetry_space_group_name_H-M "P 21/C"
_symmetry_group_IT_number 14
_symmetry_cell_setting 'monoclinic'
loop_
_space_group_symop_operation_xyz
x,y,z
-x,1/2+y,1/2-z
-x,-y,-z
x,1/2-y,1/2+z
loop_
_atom_site_type_symbol
_atom_site_label
_atom_site_fract_x
_atom_site_fract_y
_atom_site_fract_z
Si Si1 0.008634 0.652392 0.300371
Si Si2 0.608836 0.350951 0.731176
Si Si3 0.691459 0.504957 0.846644
Si Si4 0.365193 0.909676 0.279507
Si Si5 0.053724 0.862816 0.431100
O O1 0.996742 0.774769 0.405273
O O2 0.869106 0.561600 0.578820
O O3 0.180393 0.578894 0.026578
O O4 0.980628 0.686075 0.191115
O O5 0.683485 0.434104 0.722663
O O6 0.570865 0.222647 0.857456
O O7 0.748514 0.352192 0.386595
O O8 0.441816 0.390521 0.938786
O O9 0.646808 0.419354 0.041560
O O10 0.500000 0.000000 0.000000
O O11 0.000000 0.000000 0.500000
#
# Coordination Sequence:
#
# PCOD8128379 Si02
#       5
#     4   4   4   4   4
#     4  11  26  43  73 106 142 187 240 288 360 425
#     4  10  25  44  69  99 145 178 232 294 358 409
#     4  11  24  45  69 102 139 183 235 294 351 426
#     4  11  26  44  73  98 143 181 244 287 355 424
#     4  11  24  45  71 101 146 185 234 295 351 419
#
# _framework density 21.885622000000001
#
# number of rings (size 3 to 8) (size 9 to 14) (size 15 to 20)
#    0.000    1.200    2.000    1.800   14.000    6.400 
#    0.000    0.000    0.000    0.000    0.000    0.000 
#    0.000    0.000    0.000    0.000    0.000    0.000 
#
# Total GULP energy -247971.888054 kJ/mol
# GULP energy per Si atom -12398.594403 kJ/mol
# Density = 2.183581 g / cm^3
# Si number density = 21.885622 Si / 1000 Ang^3
#
#
#
# Elastic Constant Matrix: (Units=GPa)
#
#
# Indices 1 2 3 4 5 6 
#
# 1 94.1211 37.1582 31.2358 0.0000 -1.1293 0.0000
# 2 37.1582 128.9808 49.5141 0.0000 -21.7883 0.0000
# 3 31.2358 49.5141 86.0969 0.0000 -5.7323 0.0000
# 4 0.0000 0.0000 0.0000 36.8138 0.0000 -4.2705
# 5 -1.1293 -21.7883 -5.7323 0.0000 49.7207 0.0000
# 6 0.0000 0.0000 0.0000 -4.2705 0.0000 33.9776
#
#
#
# Elastic Compliance Matrix: (Units=1/GPa)
#
#
# Indices 1 2 3 4 5 6 
#
# 1 0.012709 -0.002655 -0.003166 0.000000 -0.001240 0.000000
# 2 -0.002655 0.011241 -0.005218 0.000000 0.004264 0.000000
# 3 -0.003166 -0.005218 0.015728 0.000000 -0.000545 0.000000
# 4 0.000000 0.000000 0.000000 0.027566 0.000000 0.003465
# 5 -0.001240 0.004264 -0.000545 0.000000 0.021890 0.000000
# 6 0.000000 0.000000 0.000000 0.003465 0.000000 0.029867
#
#
# Mechanical properties :
#
#
# Convention : Reuss Voigt Hill
#
# Bulk Modulus (GPa) = 56.81903 60.55723 58.68813
# Shear Modulus (GPa) = 34.02628 36.85513 35.44071
#
# Velocity S-wave (km/s) = 3.94729 4.10809 4.02849
# Velocity P-wave (km/s) = 6.84054 7.08744 6.96508
#
# Compressibility (1/GPa) = 0.01759974
#
# Stress axis : x y z
#
# Youngs Moduli (GPa) = 78.68574 88.95693 63.58127
#
# Poissons Ratio (x) = 0.23620 0.20131
# Poissons Ratio (y) = 0.20893 0.33175
# Poissons Ratio (z) = 0.24914 0.46415
#
# Static dielectric constant tensor:
#      x y z
#    x 3.974170 0.000000 0.001900 
#    y 0.000000 3.970070 0.000000 
#    z 0.001900 0.000000 4.122920 
# 
# 
# High freq. dielectric constant tensor:
#      x y z
#    x 1.862930 0.000000 0.004890 
#    y 0.000000 1.863740 0.000000 
#    z 0.004890 0.000000 1.871580 
# 
# From -- ./inp_files/17829.got.cif
#   From: 2010.03.12/outbox.cif.g09.slc.cpg/sg14_9_cif.got.tgz:17829.got - 2010.03.31 13:35:05.
