data_PCOD8128234
_publ_section_title
;
Structure prediction by ZEFSAII (Michael W. Deem and Ramdas Pophale) SiO2 
 PCOD8128234
Probable space group: P 21/C
;
_chemical_formula_sum "Si O2"
_cell_formula_units_Z 20
_cell_length_a 11.793838
_cell_length_b 10.719730
_cell_length_c 8.109997
_cell_angle_alpha 90.000000
_cell_angle_beta 56.625483
_cell_angle_gamma 90.000000
_cell_volume 856.237690
_symmetry_space_group_name_H-M "P 21/C"
_symmetry_group_IT_number 14
_symmetry_cell_setting 'monoclinic'
loop_
_space_group_symop_operation_xyz
x,y,z
-x,1/2+y,1/2-z
-x,-y,-z
x,1/2-y,1/2+z
loop_
_atom_site_type_symbol
_atom_site_label
_atom_site_fract_x
_atom_site_fract_y
_atom_site_fract_z
Si Si1 0.820983 0.897701 0.009214
Si Si2 0.478065 0.124579 0.623089
Si Si3 0.429490 0.629590 0.607411
Si Si4 0.857967 0.357071 0.336376
Si Si5 0.971620 0.803483 0.590524
O O1 0.851427 0.866001 0.791574
O O2 0.856705 0.043893 0.987071
O O3 0.663874 0.876907 0.168119
O O4 0.911069 0.824922 0.067536
O O5 0.590802 0.128835 0.678417
O O6 0.481297 0.248430 0.509268
O O7 0.500000 0.000000 0.500000
O O8 0.500000 0.500000 0.500000
O O9 0.287171 0.650589 0.632605
O O10 0.901394 0.228387 0.390394
O O11 0.972825 0.388456 0.104526
#
# Coordination Sequence:
#
# PCOD8128234 Si02
#       5
#     4   4   4   4   4
#     4  11  23  45  67 100 135 179 233 283 344 414
#     4  12  27  47  73 102 142 187 232 290 351 416
#     4  12  25  46  72 103 142 183 234 287 348 418
#     4  11  23  44  68 100 135 179 231 284 345 411
#     4  10  24  43  70  96 136 180 231 283 346 404
#
# _framework density 23.358000000000001
#
# number of rings (size 3 to 8) (size 9 to 14) (size 15 to 20)
#    0.000    0.800    2.000    4.800    2.800    0.000 
#    7.200    0.000    0.000    0.000    0.000    0.000 
#    0.000    0.000    0.000    0.000    0.000    0.000 
#
# Total GULP energy -247902.818760 kJ/mol
# GULP energy per Si atom -12395.140938 kJ/mol
# Density = 2.330484 g / cm^3
# Si number density = 23.358000 Si / 1000 Ang^3
#
#
#
# Elastic Constant Matrix: (Units=GPa)
#
#
# Indices 1 2 3 4 5 6 
#
# 1 88.7611 10.6806 18.8767 0.0000 -0.7312 0.0000
# 2 10.6806 115.5418 41.8908 0.0000 -1.5338 0.0000
# 3 18.8767 41.8908 110.4300 0.0000 -7.4633 0.0000
# 4 0.0000 0.0000 0.0000 43.2204 0.0000 6.4024
# 5 -0.7312 -1.5338 -7.4633 0.0000 40.4139 0.0000
# 6 0.0000 0.0000 0.0000 6.4024 0.0000 31.9549
#
#
#
# Elastic Compliance Matrix: (Units=1/GPa)
#
#
# Indices 1 2 3 4 5 6 
#
# 1 0.011709 -0.000412 -0.001855 0.000000 -0.000146 0.000000
# 2 -0.000412 0.010054 -0.003765 0.000000 -0.000321 0.000000
# 3 -0.001855 -0.003765 0.010925 0.000000 0.001841 0.000000
# 4 0.000000 0.000000 0.000000 0.023845 0.000000 -0.004777
# 5 -0.000146 -0.000321 0.001841 0.000000 0.025069 0.000000
# 6 0.000000 0.000000 0.000000 -0.004777 0.000000 0.032251
#
#
# Mechanical properties :
#
#
# Convention : Reuss Voigt Hill
#
# Bulk Modulus (GPa) = 48.48713 50.84766 49.66739
# Shear Modulus (GPa) = 37.65275 39.33683 38.49479
#
# Velocity S-wave (km/s) = 4.01931 4.10821 4.06400
# Velocity P-wave (km/s) = 6.50716 6.65727 6.58264
#
# Compressibility (1/GPa) = 0.02062403
#
# Stress axis : x y z
#
# Youngs Moduli (GPa) = 85.40376 99.46521 91.53012
#
# Poissons Ratio (x) = 0.04095 0.16981
# Poissons Ratio (y) = 0.03516 0.34463
# Poissons Ratio (z) = 0.15845 0.37450
#
# Static dielectric constant tensor:
#      x y z
#    x 4.159230 0.000000 0.144040 
#    y 0.000000 4.273460 0.000000 
#    z 0.144040 0.000000 4.473440 
# 
# 
# High freq. dielectric constant tensor:
#      x y z
#    x 1.925420 0.000000 0.007030 
#    y 0.000000 1.926230 0.000000 
#    z 0.007030 0.000000 1.936050 
# 
# From -- ./inp_files/12331.got.cif
#   From: 2010.03.12/outbox.cif.g09.slc.cpg/sg14_7_cif.got.tgz:12331.got - 2010.03.31 13:35:05.
