data_PCOD8128135
_publ_section_title
;
Structure prediction by ZEFSAII (Michael W. Deem and Ramdas Pophale) SiO2 
 PCOD8128135
Probable space group: P 21/C
;
_chemical_formula_sum "Si O2"
_cell_formula_units_Z 20
_cell_length_a 24.459092
_cell_length_b 5.026011
_cell_length_c 9.221513
_cell_angle_alpha 90.000000
_cell_angle_beta 132.736305
_cell_angle_gamma 90.000000
_cell_volume 832.623614
_symmetry_space_group_name_H-M "P 21/C"
_symmetry_group_IT_number 14
_symmetry_cell_setting 'monoclinic'
loop_
_space_group_symop_operation_xyz
x,y,z
-x,1/2+y,1/2-z
-x,-y,-z
x,1/2-y,1/2+z
loop_
_atom_site_type_symbol
_atom_site_label
_atom_site_fract_x
_atom_site_fract_y
_atom_site_fract_z
Si Si1 0.184330 0.188305 0.910998
Si Si2 0.240344 0.827609 0.368365
Si Si3 0.526790 0.990224 0.883285
Si Si4 0.307929 0.505273 0.251195
Si Si5 0.024852 0.440770 0.209441
O O1 0.107379 0.183730 0.858734
O O2 0.186334 0.415986 0.787663
O O3 0.251591 0.251713 0.147808
O O4 0.193003 0.911007 0.848361
O O5 0.267887 0.753337 0.259355
O O6 0.315634 0.884142 0.600536
O O7 0.484110 0.773808 0.711634
O O8 0.500000 0.000000 0.000000
O O9 0.614452 0.919772 0.038727
O O10 0.025295 0.713391 0.303861
O O11 0.000000 0.500000 0.000000
#
# Coordination Sequence:
#
# PCOD8128135 Si02
#       5
#     4   4   4   4   4
#     4  10  26  43  74 102 145 187 249 292 366 434
#     4  10  24  40  72 100 137 184 251 295 357 425
#     4  12  28  46  75 108 153 196 248 308 378 444
#     4  10  26  44  74  99 149 184 252 291 374 425
#     4  12  28  51  79 111 156 198 248 308 379 444
#
# _framework density 24.020458999999999
#
# number of rings (size 3 to 8) (size 9 to 14) (size 15 to 20)
#    1.200    0.000    0.000    3.600   11.200    0.000 
#    0.000    0.000    0.000    0.000    0.000    0.000 
#    0.000    0.000    0.000    0.000    0.000    0.000 
#
# Total GULP energy -247806.246599 kJ/mol
# GULP energy per Si atom -12390.312330 kJ/mol
# Density = 2.396579 g / cm^3
# Si number density = 24.020459 Si / 1000 Ang^3
#
#
#
# Elastic Constant Matrix: (Units=GPa)
#
#
# Indices 1 2 3 4 5 6 
#
# 1 104.9285 26.0979 57.8552 0.0000 5.1737 0.0000
# 2 26.0979 105.4612 35.9404 0.0000 -0.3940 0.0000
# 3 57.8552 35.9404 89.3151 0.0000 -10.2872 0.0000
# 4 0.0000 0.0000 0.0000 34.6756 0.0000 -6.8993
# 5 5.1737 -0.3940 -10.2872 0.0000 48.8247 0.0000
# 6 0.0000 0.0000 0.0000 -6.8993 0.0000 41.9217
#
#
#
# Elastic Compliance Matrix: (Units=1/GPa)
#
#
# Indices 1 2 3 4 5 6 
#
# 1 0.015511 -0.000323 -0.010359 0.000000 -0.003829 0.000000
# 2 -0.000323 0.011032 -0.004321 0.000000 -0.000787 0.000000
# 3 -0.010359 -0.004321 0.020259 0.000000 0.005331 0.000000
# 4 0.000000 0.000000 0.000000 0.029815 0.000000 0.004907
# 5 -0.003829 -0.000787 0.005331 0.000000 0.022004 0.000000
# 6 0.000000 0.000000 0.000000 0.004907 0.000000 0.024662
#
#
# Mechanical properties :
#
#
# Convention : Reuss Voigt Hill
#
# Bulk Modulus (GPa) = 59.53278 59.94351 59.73815
# Shear Modulus (GPa) = 31.46933 37.07182 34.27057
#
# Velocity S-wave (km/s) = 3.62346 3.93280 3.78130
# Velocity P-wave (km/s) = 6.50723 6.75514 6.63234
#
# Compressibility (1/GPa) = 0.01679747
#
# Stress axis : x y z
#
# Youngs Moduli (GPa) = 64.47133 90.64912 49.36088
#
# Poissons Ratio (x) = 0.02924 0.51131
# Poissons Ratio (y) = 0.02080 0.21328
# Poissons Ratio (z) = 0.66783 0.39168
#
# Static dielectric constant tensor:
#      x y z
#    x 4.247210 0.000000 -0.104830 
#    y 0.000000 4.324800 0.000000 
#    z -0.104830 0.000000 4.414550 
# 
# 
# High freq. dielectric constant tensor:
#      x y z
#    x 1.947710 0.000000 -0.013220 
#    y 0.000000 1.968490 0.000000 
#    z -0.013220 0.000000 1.954110 
# 
# From -- ./inp_files/19608.got.cif
#   From: 2010.03.12/outbox.cif.g09.slc.cpg/sg14_10_cif.got.tgz:19608.got - 2010.03.31 13:35:05.
