data_PCOD8128955
_publ_section_title
;
Structure prediction by ZEFSAII (Michael W. Deem and Ramdas Pophale) SiO2 
 PCOD8128955
Probable space group: P 21/C
;
_chemical_formula_sum "Si O2"
_cell_formula_units_Z 28
_cell_length_a 9.505479
_cell_length_b 13.659759
_cell_length_c 22.861417
_cell_angle_alpha 90.000000
_cell_angle_beta 154.356842
_cell_angle_gamma 90.000000
_cell_volume 1284.612813
_symmetry_space_group_name_H-M "P 21/C"
_symmetry_group_IT_number 14
_symmetry_cell_setting 'monoclinic'
loop_
_space_group_symop_operation_xyz
x,y,z
-x,1/2+y,1/2-z
-x,-y,-z
x,1/2-y,1/2+z
loop_
_atom_site_type_symbol
_atom_site_label
_atom_site_fract_x
_atom_site_fract_y
_atom_site_fract_z
Si Si1 0.551658 0.827758 0.062898
Si Si2 0.338378 0.036429 0.192286
Si Si3 0.499183 0.774685 0.370704
Si Si4 0.957449 0.337619 0.721749
Si Si5 0.749909 0.284379 0.844320
Si Si6 0.096683 0.958410 0.225078
Si Si7 0.304980 0.622610 0.590820
O O1 0.492351 0.887039 0.100285
O O2 0.728172 0.726549 0.144730
O O3 0.754684 0.899979 0.096660
O O4 0.207785 0.805841 0.902159
O O5 0.654072 0.103461 0.320910
O O6 0.177297 0.996709 0.190900
O O7 0.462330 0.949303 0.197569
O O8 0.076425 0.100393 0.058917
O O9 0.314669 0.681851 0.330531
O O10 0.450807 0.766677 0.283132
O O11 0.364617 0.878525 0.345283
O O12 0.872263 0.772876 0.529561
O O13 0.074602 0.450646 0.762149
O O14 0.661966 0.231775 0.871999
#
# Coordination Sequence:
#
# PCOD8128955 Si02
#       7
#     4   4   4   4   4   4   4
#     4  11  25  43  70  98 136 177 230 279 343 406
#     4  11  24  41  69 101 133 180 229 275 341 408
#     4  11  25  44  70 105 135 186 224 284 349 403
#     4  11  24  44  68  97 135 179 227 282 342 405
#     4  12  24  46  69 100 145 176 229 287 339 410
#     4  11  23  45  68 100 135 180 229 280 339 413
#     4  11  24  41  68 103 131 181 228 277 341 411
#
# _framework density 21.796451000000001
#
# number of rings (size 3 to 8) (size 9 to 14) (size 15 to 20)
#    0.000    0.857    4.286    3.000    2.000    0.571 
#    2.571    2.143    0.000    0.000    0.000    0.000 
#    0.000    0.000    0.000    0.000    0.000    0.000 
#
# Total GULP energy -347199.916896 kJ/mol
# GULP energy per Si atom -12399.997032 kJ/mol
# Density = 2.174684 g / cm^3
# Si number density = 21.796451 Si / 1000 Ang^3
#
#
#
# Elastic Constant Matrix: (Units=GPa)
#
#
# Indices 1 2 3 4 5 6 
#
# 1 102.7004 30.0359 14.9408 0.0000 -6.9027 0.0000
# 2 30.0359 105.9841 32.1261 0.0000 -1.4462 0.0000
# 3 14.9408 32.1261 65.4841 0.0000 1.7596 0.0000
# 4 0.0000 0.0000 0.0000 32.7035 0.0000 -1.8195
# 5 -6.9027 -1.4462 1.7596 0.0000 25.7100 0.0000
# 6 0.0000 0.0000 0.0000 -1.8195 0.0000 41.1493
#
#
#
# Elastic Compliance Matrix: (Units=1/GPa)
#
#
# Indices 1 2 3 4 5 6 
#
# 1 0.010892 -0.002668 -0.001253 0.000000 0.002860 0.000000
# 2 -0.002668 0.011763 -0.005170 0.000000 0.000299 0.000000
# 3 -0.001253 -0.005170 0.018143 0.000000 -0.001869 0.000000
# 4 0.000000 0.000000 0.000000 0.030653 0.000000 0.001355
# 5 0.002860 0.000299 -0.001869 0.000000 0.039808 0.000000
# 6 0.000000 0.000000 0.000000 0.001355 0.000000 0.024362
#
#
# Mechanical properties :
#
#
# Convention : Reuss Voigt Hill
#
# Bulk Modulus (GPa) = 44.21666 47.59715 45.90691
# Shear Modulus (GPa) = 30.99019 33.05028 32.02024
#
# Velocity S-wave (km/s) = 3.77477 3.89821 3.83699
# Velocity P-wave (km/s) = 6.27126 6.49199 6.38258
#
# Compressibility (1/GPa) = 0.02261591
#
# Stress axis : x y z
#
# Youngs Moduli (GPa) = 91.81184 85.01449 55.11649
#
# Poissons Ratio (x) = 0.22681 0.06906
# Poissons Ratio (y) = 0.24494 0.28495
# Poissons Ratio (z) = 0.11505 0.43953
#
# Static dielectric constant tensor:
#      x y z
#    x 3.928760 0.000000 -0.000210 
#    y 0.000000 4.080080 0.000000 
#    z -0.000210 0.000000 3.822920 
# 
# 
# High freq. dielectric constant tensor:
#      x y z
#    x 1.863410 0.000000 -0.000820 
#    y 0.000000 1.862080 0.000000 
#    z -0.000820 0.000000 1.840690 
# 
# From -- ./inp_files/65933.got.cif
#   From: 2010.03.12/outbox.cif.g09.slc.cpg/sg14_33_cif.got.tgz:65933.got - 2010.03.31 13:35:05.
