data_PCOD8128624
_publ_section_title
;
Structure prediction by ZEFSAII (Michael W. Deem and Ramdas Pophale) SiO2 
 PCOD8128624
Probable space group: P 21/C
;
_chemical_formula_sum "Si O2"
_cell_formula_units_Z 24
_cell_length_a 8.329812
_cell_length_b 11.852911
_cell_length_c 11.562907
_cell_angle_alpha 90.000000
_cell_angle_beta 88.001820
_cell_angle_gamma 90.000000
_cell_volume 1140.940762
_symmetry_space_group_name_H-M "P 21/C"
_symmetry_group_IT_number 14
_symmetry_cell_setting 'monoclinic'
loop_
_space_group_symop_operation_xyz
x,y,z
-x,1/2+y,1/2-z
-x,-y,-z
x,1/2-y,1/2+z
loop_
_atom_site_type_symbol
_atom_site_label
_atom_site_fract_x
_atom_site_fract_y
_atom_site_fract_z
Si Si1 0.202445 0.838976 0.182477
Si Si2 0.310739 0.433807 0.795126
Si Si3 0.824128 0.968061 0.458601
Si Si4 0.891167 0.401291 0.553135
Si Si5 0.324581 0.891748 0.728992
Si Si6 0.898002 0.741154 0.809607
O O1 0.325548 0.745233 0.228770
O O2 0.020151 0.796959 0.206380
O O3 0.224671 0.955909 0.248238
O O4 0.226560 0.856590 0.044881
O O5 0.497381 0.438169 0.758794
O O6 0.234557 0.321993 0.742593
O O7 0.290515 0.433717 0.933231
O O8 0.814784 0.866734 0.367613
O O9 0.752297 0.074606 0.392178
O O10 0.000000 0.000000 0.500000
O O11 0.781414 0.442101 0.663032
O O12 0.000000 0.500000 0.500000
O O13 0.006827 0.301413 0.589804
#
# Coordination Sequence:
#
# PCOD8128624 Si02
#       6
#     4   4   4   4   4   4
#     4  11  24  44  69  95 139 176 231 282 339 415
#     4  12  26  45  67 105 138 181 226 291 351 403
#     4  12  23  46  73  97 137 183 238 278 343 415
#     4  11  21  44  67  97 130 176 232 277 337 408
#     4  11  28  41  68 101 139 182 224 291 354 399
#     4  11  23  42  71 101 129 179 238 277 338 416
#
# _framework density 21.035273
#
# number of rings (size 3 to 8) (size 9 to 14) (size 15 to 20)
#    0.000    0.667    3.333    5.500    4.667    2.000 
#    0.000    0.000    0.000    0.000    0.000    0.000 
#    0.000    0.000    0.000    0.000    0.000    0.000 
#
# Total GULP energy -297725.063382 kJ/mol
# GULP energy per Si atom -12405.210974 kJ/mol
# Density = 2.098740 g / cm^3
# Si number density = 21.035273 Si / 1000 Ang^3
#
#
#
# Elastic Constant Matrix: (Units=GPa)
#
#
# Indices 1 2 3 4 5 6 
#
# 1 107.0975 34.1223 28.8959 0.0000 -4.0180 0.0000
# 2 34.1223 103.9272 38.2836 0.0000 -1.7039 0.0000
# 3 28.8959 38.2836 120.4270 0.0000 -4.5820 0.0000
# 4 0.0000 0.0000 0.0000 41.3307 0.0000 2.6169
# 5 -4.0180 -1.7039 -4.5820 0.0000 29.4713 0.0000
# 6 0.0000 0.0000 0.0000 2.6169 0.0000 27.6379
#
#
#
# Elastic Compliance Matrix: (Units=1/GPa)
#
#
# Indices 1 2 3 4 5 6 
#
# 1 0.010740 -0.002916 -0.001610 0.000000 0.001045 0.000000
# 2 -0.002916 0.011690 -0.003024 0.000000 -0.000192 0.000000
# 3 -0.001610 -0.003024 0.009694 0.000000 0.001113 0.000000
# 4 0.000000 0.000000 0.000000 0.024341 0.000000 -0.002305
# 5 0.001045 -0.000192 0.001113 0.000000 0.034236 0.000000
# 6 0.000000 0.000000 0.000000 -0.002305 0.000000 0.036400
#
#
# Mechanical properties :
#
#
# Convention : Reuss Voigt Hill
#
# Bulk Modulus (GPa) = 58.74138 59.33949 59.04044
# Shear Modulus (GPa) = 33.81204 35.03130 34.42167
#
# Velocity S-wave (km/s) = 4.01359 4.08531 4.04961
# Velocity P-wave (km/s) = 7.03309 7.10801 7.07065
#
# Compressibility (1/GPa) = 0.01702377
#
# Stress axis : x y z
#
# Youngs Moduli (GPa) = 93.10971 85.54096 103.15852
#
# Poissons Ratio (x) = 0.24943 0.16611
# Poissons Ratio (y) = 0.27150 0.31195
# Poissons Ratio (z) = 0.14993 0.25867
#
# Static dielectric constant tensor:
#      x y z
#    x 3.561910 0.000000 -0.106020 
#    y 0.000000 4.060350 0.000000 
#    z -0.106020 0.000000 4.094030 
# 
# 
# High freq. dielectric constant tensor:
#      x y z
#    x 1.805510 0.000000 -0.002370 
#    y 0.000000 1.838140 0.000000 
#    z -0.002370 0.000000 1.840030 
# 
# From -- ./inp_files/24149.got.cif
#   From: 2010.03.12/outbox.cif.g09.slc.cpg/sg14_13_cif.got.tgz:24149.got - 2010.03.31 13:35:05.
