data_PCOD8128084
_publ_section_title
;
Structure prediction by ZEFSAII (Michael W. Deem and Ramdas Pophale) SiO2 
 PCOD8128084
Probable space group: P 21/C
;
_chemical_formula_sum "Si O2"
_cell_formula_units_Z 20
_cell_length_a 12.553624
_cell_length_b 6.409660
_cell_length_c 10.825161
_cell_angle_alpha 90.000000
_cell_angle_beta 89.173457
_cell_angle_gamma 90.000000
_cell_volume 870.950119
_symmetry_space_group_name_H-M "P 21/C"
_symmetry_group_IT_number 14
_symmetry_cell_setting 'monoclinic'
loop_
_space_group_symop_operation_xyz
x,y,z
-x,1/2+y,1/2-z
-x,-y,-z
x,1/2-y,1/2+z
loop_
_atom_site_type_symbol
_atom_site_label
_atom_site_fract_x
_atom_site_fract_y
_atom_site_fract_z
Si Si1 0.643544 0.400883 0.746556
Si Si2 0.105291 0.134203 0.502159
Si Si3 0.486877 0.187426 0.907704
Si Si4 0.688877 0.492629 0.101411
Si Si5 0.180076 0.216238 0.755729
O O1 0.601315 0.293175 0.873910
O O2 0.559702 0.583923 0.716597
O O3 0.761906 0.492308 0.758596
O O4 0.644718 0.235334 0.633202
O O5 0.211312 0.987198 0.495158
O O6 0.110223 0.257567 0.633285
O O7 0.106560 0.288538 0.382112
O O8 0.000000 0.000000 0.500000
O O9 0.403775 0.362660 0.957286
O O10 0.500000 0.000000 0.000000
O O11 0.732558 0.599191 0.228925
#
# Coordination Sequence:
#
# PCOD8128084 Si02
#       5
#     4   4   4   4   4
#     4  11  22  42  62 101 136 184 225 282 343 414
#     4  10  23  47  71  99 133 176 233 292 347 415
#     4  11  24  36  66  99 139 186 228 277 345 411
#     4   9  23  41  64  97 137 176 235 280 340 407
#     4   9  24  44  70  99 138 177 229 287 350 419
#
# _framework density 22.963425999999998
#
# number of rings (size 3 to 8) (size 9 to 14) (size 15 to 20)
#    1.200    0.800    2.000    0.000    5.600    2.400 
#    0.000    2.000    0.000    0.000    0.000    0.000 
#    0.000    0.000    0.000    0.000    0.000    0.000 
#
# Total GULP energy -247796.609552 kJ/mol
# GULP energy per Si atom -12389.830478 kJ/mol
# Density = 2.291116 g / cm^3
# Si number density = 22.963426 Si / 1000 Ang^3
#
#
#
# Elastic Constant Matrix: (Units=GPa)
#
#
# Indices 1 2 3 4 5 6 
#
# 1 125.1368 51.3896 52.1969 0.0000 -20.1412 0.0000
# 2 51.3896 85.9162 28.0155 0.0000 -12.9809 0.0000
# 3 52.1969 28.0155 146.8253 0.0000 -8.4015 0.0000
# 4 0.0000 0.0000 0.0000 33.8173 0.0000 -10.9561
# 5 -20.1412 -12.9809 -8.4015 0.0000 29.2864 0.0000
# 6 0.0000 0.0000 0.0000 -10.9561 0.0000 37.8839
#
#
#
# Elastic Compliance Matrix: (Units=1/GPa)
#
#
# Indices 1 2 3 4 5 6 
#
# 1 0.012410 -0.005653 -0.003038 0.000000 0.005158 0.000000
# 2 -0.005653 0.015720 -0.000827 0.000000 0.002843 0.000000
# 3 -0.003038 -0.000827 0.008040 0.000000 -0.000150 0.000000
# 4 0.000000 0.000000 0.000000 0.032628 0.000000 0.009436
# 5 0.005158 0.002843 -0.000150 0.000000 0.038910 0.000000
# 6 0.000000 0.000000 0.000000 0.009436 0.000000 0.029125
#
#
# Mechanical properties :
#
#
# Convention : Reuss Voigt Hill
#
# Bulk Modulus (GPa) = 58.36514 69.00913 63.68714
# Shear Modulus (GPa) = 30.94434 35.28261 33.11348
#
# Velocity S-wave (km/s) = 3.67488 3.92404 3.80150
# Velocity P-wave (km/s) = 6.59379 7.11672 6.86024
#
# Compressibility (1/GPa) = 0.01713351
#
# Stress axis : x y z
#
# Youngs Moduli (GPa) = 80.57921 63.61432 124.37610
#
# Poissons Ratio (x) = 0.35961 0.37786
# Poissons Ratio (y) = 0.45552 0.10288
# Poissons Ratio (z) = 0.24481 0.05262
#
# Static dielectric constant tensor:
#      x y z
#    x 3.919470 0.000000 -0.003120 
#    y 0.000000 4.041230 0.000000 
#    z -0.003120 0.000000 4.059530 
# 
# 
# High freq. dielectric constant tensor:
#      x y z
#    x 1.892280 0.000000 0.000790 
#    y 0.000000 1.888070 0.000000 
#    z 0.000790 0.000000 1.909500 
# 
# From -- ./inp_files/31110.got.cif
#   From: 2010.03.12/outbox.cif.g09.slc.cpg/sg14_16_cif.got.tgz:31110.got - 2010.03.31 13:35:05.
