data_PCOD8128876
_publ_section_title
;
Structure prediction by ZEFSAII (Michael W. Deem and Ramdas Pophale) SiO2 
 PCOD8128876
Probable space group: P 21/C
;
_chemical_formula_sum "Si O2"
_cell_formula_units_Z 24
_cell_length_a 7.669318
_cell_length_b 9.277777
_cell_length_c 14.133190
_cell_angle_alpha 90.000000
_cell_angle_beta 80.392745
_cell_angle_gamma 90.000000
_cell_volume 991.532006
_symmetry_space_group_name_H-M "P 21/C"
_symmetry_group_IT_number 14
_symmetry_cell_setting 'monoclinic'
loop_
_space_group_symop_operation_xyz
x,y,z
-x,1/2+y,1/2-z
-x,-y,-z
x,1/2-y,1/2+z
loop_
_atom_site_type_symbol
_atom_site_label
_atom_site_fract_x
_atom_site_fract_y
_atom_site_fract_z
Si Si1 0.198237 0.627779 0.137868
Si Si2 0.157739 0.980684 0.844816
Si Si3 0.359768 0.638379 0.503787
Si Si4 0.769151 0.898650 0.869929
Si Si5 0.331513 0.144913 0.525390
Si Si6 0.203080 0.317068 0.838034
O O1 0.225449 0.606816 0.247102
O O2 0.257366 0.784324 0.099801
O O3 0.323914 0.512906 0.071152
O O4 0.991188 0.614412 0.130996
O O5 0.946051 0.990926 0.865911
O O6 0.220259 0.145034 0.835780
O O7 0.231385 0.897031 0.928667
O O8 0.393906 0.483392 0.558835
O O9 0.505242 0.753858 0.456130
O O10 0.823071 0.745197 0.915187
O O11 0.712533 0.876927 0.766462
O O12 0.321998 0.126409 0.413542
#
# Coordination Sequence:
#
# PCOD8128876 Si02
#       6
#     4   4   4   4   4   4
#     4  11  25  45  68 102 138 179 238 292 339 417
#     4  11  23  44  72  98 135 186 236 290 343 408
#     4  12  25  44  69 101 142 185 223 284 362 423
#     4  11  23  42  70  98 132 182 239 279 340 418
#     4  12  25  43  67 104 139 177 227 287 360 417
#     4  11  23  43  72 100 135 184 238 293 337 409
#
# _framework density 24.204968999999998
#
# number of rings (size 3 to 8) (size 9 to 14) (size 15 to 20)
#    0.000    0.667    5.000    3.000    0.000    2.667 
#    0.000    0.000    0.000    0.000    0.000    0.000 
#    0.000    0.000    0.000    0.000    0.000    0.000 
#
# Total GULP energy -297486.920060 kJ/mol
# GULP energy per Si atom -12395.288336 kJ/mol
# Density = 2.414988 g / cm^3
# Si number density = 24.204969 Si / 1000 Ang^3
#
#
#
# Elastic Constant Matrix: (Units=GPa)
#
#
# Indices 1 2 3 4 5 6 
#
# 1 38.8459 25.6481 20.9952 0.0000 3.7938 0.0000
# 2 25.6481 126.9738 60.3566 0.0000 3.9378 0.0000
# 3 20.9952 60.3566 175.3933 0.0000 13.7587 0.0000
# 4 0.0000 0.0000 0.0000 53.9108 0.0000 -7.3772
# 5 3.7938 3.9378 13.7587 0.0000 29.1689 0.0000
# 6 0.0000 0.0000 0.0000 -7.3772 0.0000 35.2444
#
#
#
# Elastic Compliance Matrix: (Units=1/GPa)
#
#
# Indices 1 2 3 4 5 6 
#
# 1 0.030348 -0.005283 -0.001621 0.000000 -0.002469 0.000000
# 2 -0.005283 0.010338 -0.002980 0.000000 0.000697 0.000000
# 3 -0.001621 -0.002980 0.007137 0.000000 -0.002753 0.000000
# 4 0.000000 0.000000 0.000000 0.019096 0.000000 0.003997
# 5 -0.002469 0.000697 -0.002753 0.000000 0.035809 0.000000
# 6 0.000000 0.000000 0.000000 0.003997 0.000000 0.029210
#
#
# Mechanical properties :
#
#
# Convention : Reuss Voigt Hill
#
# Bulk Modulus (GPa) = 35.64418 61.69029 48.66723
# Shear Modulus (GPa) = 31.04498 39.27903 35.16201
#
# Velocity S-wave (km/s) = 3.58521 4.03273 3.81554
# Velocity P-wave (km/s) = 5.64767 6.87210 6.28976
#
# Compressibility (1/GPa) = 0.02805507
#
# Stress axis : x y z
#
# Youngs Moduli (GPa) = 32.95093 96.73491 140.11763
#
# Poissons Ratio (x) = 0.51105 0.22714
# Poissons Ratio (y) = 0.17408 0.41750
# Poissons Ratio (z) = 0.05342 0.28824
#
# Static dielectric constant tensor:
#      x y z
#    x 4.395310 0.000000 -0.378660 
#    y 0.000000 4.613390 0.000000 
#    z -0.378660 0.000000 4.583880 
# 
# 
# High freq. dielectric constant tensor:
#      x y z
#    x 1.953290 0.000000 -0.023470 
#    y 0.000000 1.984840 0.000000 
#    z -0.023470 0.000000 1.975840 
# 
# From -- ./inp_files/39003.got.cif
#   From: 2010.03.12/outbox.cif.g09.slc.cpg/sg14_20_cif.got.tgz:39003.got - 2010.03.31 13:35:05.
