data_PCOD8128970
_publ_section_title
;
Structure prediction by ZEFSAII (Michael W. Deem and Ramdas Pophale) SiO2 
 PCOD8128970
Probable space group: P 21/C
;
_chemical_formula_sum "Si O2"
_cell_formula_units_Z 32
_cell_length_a 25.935987
_cell_length_b 9.842727
_cell_length_c 15.916652
_cell_angle_alpha 90.000000
_cell_angle_beta 22.377625
_cell_angle_gamma 90.000000
_cell_volume 1546.904211
_symmetry_space_group_name_H-M "P 21/C"
_symmetry_group_IT_number 14
_symmetry_cell_setting 'monoclinic'
loop_
_space_group_symop_operation_xyz
x,y,z
-x,1/2+y,1/2-z
-x,-y,-z
x,1/2-y,1/2+z
loop_
_atom_site_type_symbol
_atom_site_label
_atom_site_fract_x
_atom_site_fract_y
_atom_site_fract_z
Si Si1 0.620726 0.596871 0.302519
Si Si2 0.510565 0.882285 0.414037
Si Si3 0.967691 0.341263 0.893375
Si Si4 0.787717 0.521233 0.895100
Si Si5 0.181808 0.389654 0.842885
Si Si6 0.962224 0.627048 0.403024
Si Si7 0.776870 0.096771 0.232359
Si Si8 0.755436 0.838141 0.931615
O O1 0.500000 0.500000 0.500000
O O2 0.556051 0.739741 0.380727
O O3 0.714045 0.637170 0.239691
O O4 0.698215 0.512193 0.113565
O O5 0.364627 0.857141 0.592996
O O6 0.500000 0.000000 0.500000
O O7 0.625920 0.909403 0.170549
O O8 0.983076 0.332968 0.770331
O O9 0.113105 0.374280 0.712903
O O10 0.876835 0.465353 0.052583
O O11 0.895039 0.207829 0.039567
O O12 0.747118 0.429512 0.876265
O O13 0.767715 0.676886 0.898663
O O14 0.936622 0.467477 0.695527
O O15 0.254631 0.404459 0.644272
O O16 0.067322 0.272355 0.009328
O O17 0.823252 0.540323 0.613711
#
# Coordination Sequence:
#
# PCOD8128970 Si02
#       8
#     4   4   4   4   4   4   4   4
#     4  11  25  48  68  97 143 183 229 274 353 419
#     4  11  26  46  67 102 136 180 228 283 341 408
#     4  12  24  42  67 108 136 173 231 290 342 401
#     4  11  23  45  73  98 132 190 226 275 342 422
#     4  12  24  42  71 104 135 181 223 296 344 397
#     4  12  22  43  74  98 137 180 231 277 351 410
#     4  12  24  44  71 101 134 181 238 276 338 422
#     4  11  24  45  69 101 144 174 229 284 346 410
#
# _framework density 20.686477
#
# number of rings (size 3 to 8) (size 9 to 14) (size 15 to 20)
#    0.000    0.500    3.750    6.000    1.750    0.000 
#    2.250    0.000    0.000    0.000    0.000    0.000 
#    0.000    0.000    0.000    0.000    0.000    0.000 
#
# Total GULP energy -396488.729491 kJ/mol
# GULP energy per Si atom -12390.272797 kJ/mol
# Density = 2.063939 g / cm^3
# Si number density = 20.686477 Si / 1000 Ang^3
#
#
#
# Elastic Constant Matrix: (Units=GPa)
#
#
# Indices 1 2 3 4 5 6 
#
# 1 136.0012 13.5488 57.5655 0.0000 29.7268 0.0000
# 2 13.5488 73.3107 36.0522 0.0000 21.1005 0.0000
# 3 57.5655 36.0522 101.8035 0.0000 18.6033 0.0000
# 4 0.0000 0.0000 0.0000 47.4228 0.0000 -2.1665
# 5 29.7268 21.1005 18.6033 0.0000 66.2134 0.0000
# 6 0.0000 0.0000 0.0000 -2.1665 0.0000 16.5412
#
#
#
# Elastic Compliance Matrix: (Units=1/GPa)
#
#
# Indices 1 2 3 4 5 6 
#
# 1 0.010487 0.002067 -0.005989 0.000000 -0.003684 0.000000
# 2 0.002067 0.017893 -0.006635 0.000000 -0.004766 0.000000
# 3 -0.005989 -0.006635 0.015476 0.000000 0.000455 0.000000
# 4 0.000000 0.000000 0.000000 0.021214 0.000000 0.002778
# 5 -0.003684 -0.004766 0.000455 0.000000 0.018148 0.000000
# 6 0.000000 0.000000 0.000000 0.002778 0.000000 0.060819
#
#
# Mechanical properties :
#
#
# Convention : Reuss Voigt Hill
#
# Bulk Modulus (GPa) = 43.96812 58.38315 51.17564
# Shear Modulus (GPa) = 28.94689 39.63207 34.28948
#
# Velocity S-wave (km/s) = 3.74480 4.38178 4.07576
# Velocity P-wave (km/s) = 6.32445 7.34058 6.85138
#
# Compressibility (1/GPa) = 0.02274375
#
# Stress axis : x y z
#
# Youngs Moduli (GPa) = 95.35441 55.88767 64.61716
#
# Poissons Ratio (x) = -0.11555 0.38699
# Poissons Ratio (y) = -0.19714 0.42871
# Poissons Ratio (z) = 0.57107 0.37080
#
# Static dielectric constant tensor:
#      x y z
#    x 3.868680 0.000000 0.120090 
#    y 0.000000 3.886980 0.000000 
#    z 0.120090 0.000000 4.039440 
# 
# 
# High freq. dielectric constant tensor:
#      x y z
#    x 1.820020 0.000000 0.009090 
#    y 0.000000 1.817740 0.000000 
#    z 0.009090 0.000000 1.821140 
# 
# From -- ./inp_files/62668.got.cif
#   From: 2010.03.12/outbox.cif.g09.slc.cpg/sg14_32_cif.got.tgz:62668.got - 2010.03.31 13:35:05.
