data_PCOD8128121
_publ_section_title
;
Structure prediction by ZEFSAII (Michael W. Deem and Ramdas Pophale) SiO2 
 PCOD8128121
Probable space group: P 21/C
;
_chemical_formula_sum "Si O2"
_cell_formula_units_Z 20
_cell_length_a 12.095398
_cell_length_b 8.581189
_cell_length_c 8.928591
_cell_angle_alpha 90.000000
_cell_angle_beta 112.920094
_cell_angle_gamma 90.000000
_cell_volume 853.558397
_symmetry_space_group_name_H-M "P 21/C"
_symmetry_group_IT_number 14
_symmetry_cell_setting 'monoclinic'
loop_
_space_group_symop_operation_xyz
x,y,z
-x,1/2+y,1/2-z
-x,-y,-z
x,1/2-y,1/2+z
loop_
_atom_site_type_symbol
_atom_site_label
_atom_site_fract_x
_atom_site_fract_y
_atom_site_fract_z
Si Si1 0.872829 0.963593 0.745968
Si Si2 0.363111 0.658215 0.922042
Si Si3 0.904720 0.670100 0.585681
Si Si4 0.674472 0.516572 0.581924
Si Si5 0.513018 0.990322 0.259446
O O1 0.900572 0.854312 0.617611
O O2 0.740529 0.032973 0.662828
O O3 0.882313 0.857886 0.899098
O O4 0.965982 0.105286 0.797962
O O5 0.311235 0.830803 0.894108
O O6 0.464781 0.640796 0.848087
O O7 0.423442 0.629127 0.115036
O O8 0.805601 0.586434 0.635840
O O9 0.595168 0.562121 0.395834
O O10 0.610005 0.586188 0.696276
#
# Coordination Sequence:
#
# PCOD8128121 Si02
#       5
#     4   4   4   4   4
#     4  11  26  47  70 100 133 174 223 275 335 399
#     4  11  23  44  69  99 135 179 221 278 326 394
#     4  11  26  47  70 100 133 174 223 275 335 399
#     4  11  23  44  69  99 135 179 221 278 326 394
#     4  10  24  40  64 102 136 178 220 266 332 392
#
# _framework density 23.431321000000001
#
# number of rings (size 3 to 8) (size 9 to 14) (size 15 to 20)
#    0.000    1.200    2.000    2.400    2.800   10.400 
#    0.000    0.000    0.000    0.000    0.000    0.000 
#    0.000    0.000    0.000    0.000    0.000    0.000 
#
# Total GULP energy -248088.307962 kJ/mol
# GULP energy per Si atom -12404.415398 kJ/mol
# Density = 2.337799 g / cm^3
# Si number density = 23.431321 Si / 1000 Ang^3
#
#
#
# Elastic Constant Matrix: (Units=GPa)
#
#
# Indices 1 2 3 4 5 6 
#
# 1 93.6857 12.9364 35.9429 0.0000 -3.3863 0.0000
# 2 12.9364 76.9602 20.8146 0.0000 17.0774 0.0000
# 3 35.9429 20.8146 117.5069 0.0000 3.1258 0.0000
# 4 0.0000 0.0000 0.0000 28.9285 0.0000 -0.0477
# 5 -3.3863 17.0774 3.1258 0.0000 22.8438 0.0000
# 6 0.0000 0.0000 0.0000 -0.0477 0.0000 25.0403
#
#
#
# Elastic Compliance Matrix: (Units=1/GPa)
#
#
# Indices 1 2 3 4 5 6 
#
# 1 0.012450 -0.001975 -0.003560 0.000000 0.003809 0.000000
# 2 -0.001975 0.016633 -0.002011 0.000000 -0.012452 0.000000
# 3 -0.003560 -0.002011 0.009965 0.000000 -0.000388 0.000000
# 4 0.000000 0.000000 0.000000 0.034568 0.000000 0.000066
# 5 0.003809 -0.012452 -0.000388 0.000000 0.053702 0.000000
# 6 0.000000 0.000000 0.000000 0.000066 0.000000 0.039936
#
#
# Mechanical properties :
#
#
# Convention : Reuss Voigt Hill
#
# Bulk Modulus (GPa) = 41.74198 47.50452 44.62325
# Shear Modulus (GPa) = 26.26997 29.92642 28.09820
#
# Velocity S-wave (km/s) = 3.35199 3.57767 3.46666
# Velocity P-wave (km/s) = 5.73013 6.11426 5.92531
#
# Compressibility (1/GPa) = 0.02395670
#
# Stress axis : x y z
#
# Youngs Moduli (GPa) = 80.32051 60.12265 100.34647
#
# Poissons Ratio (x) = 0.11876 0.35720
# Poissons Ratio (y) = 0.15866 0.20178
# Poissons Ratio (z) = 0.28591 0.12089
#
# Static dielectric constant tensor:
#      x y z
#    x 4.320650 0.000000 -0.143150 
#    y 0.000000 3.918320 0.000000 
#    z -0.143150 0.000000 4.389720 
# 
# 
# High freq. dielectric constant tensor:
#      x y z
#    x 1.933090 0.000000 -0.005170 
#    y 0.000000 1.917260 0.000000 
#    z -0.005170 0.000000 1.939710 
# 
# From -- ./inp_files/11896.got.cif
#   From: 2010.03.12/outbox.cif.g09.slc.cpg/sg14_6_cif.got.tgz:11896.got - 2010.03.31 13:35:05.
