data_PCOD8128231
_publ_section_title
;
Structure prediction by ZEFSAII (Michael W. Deem and Ramdas Pophale) SiO2 
 PCOD8128231
Probable space group: P 21/C
;
_chemical_formula_sum "Si O2"
_cell_formula_units_Z 32
_cell_length_a 8.880621
_cell_length_b 13.507064
_cell_length_c 14.122447
_cell_angle_alpha 90.000000
_cell_angle_beta 65.317881
_cell_angle_gamma 90.000000
_cell_volume 1539.236672
_symmetry_space_group_name_H-M "P 21/C"
_symmetry_group_IT_number 14
_symmetry_cell_setting 'monoclinic'
loop_
_space_group_symop_operation_xyz
x,y,z
-x,1/2+y,1/2-z
-x,-y,-z
x,1/2-y,1/2+z
loop_
_atom_site_type_symbol
_atom_site_label
_atom_site_fract_x
_atom_site_fract_y
_atom_site_fract_z
Si Si1 0.297928 0.360926 0.219144
Si Si2 0.083095 0.029144 0.381339
Si Si3 0.080335 0.621928 0.725217
Si Si4 0.674251 0.442309 0.696003
Si Si5 0.837344 0.151466 0.317611
Si Si6 0.642390 0.076285 0.991769
Si Si7 0.503742 0.210721 0.490167
Si Si8 0.365833 0.321029 0.830056
O O1 0.386937 0.449301 0.253666
O O2 0.290132 0.262149 0.282663
O O3 0.111150 0.395409 0.248009
O O4 0.398751 0.346847 0.096192
O O5 0.251407 0.083255 0.363792
O O6 0.974942 0.104325 0.347776
O O7 0.121262 0.928279 0.314980
O O8 0.000000 0.000000 0.500000
O O9 0.118545 0.737221 0.721602
O O10 0.200390 0.568981 0.618296
O O11 0.829046 0.408712 0.720908
O O12 0.719529 0.448915 0.573874
O O13 0.538704 0.356747 0.742510
O O14 0.662962 0.144867 0.419649
O O15 0.560250 0.183994 0.014751
O O16 0.500000 0.000000 0.000000
O O17 0.387304 0.224946 0.428982
#
# Coordination Sequence:
#
# PCOD8128231 Si02
#       8
#     4   4   4   4   4   4   4   4
#     4  12  23  44  67  99 136 175 231 282 350 406
#     4  12  25  44  69 102 138 183 229 285 352 407
#     4  11  25  43  67 101 140 181 229 290 338 415
#     4  11  24  42  71  97 133 182 227 280 344 412
#     4  10  24  46  65 103 138 174 235 281 347 410
#     4  11  23  45  68  99 136 186 231 280 346 411
#     4  10  24  43  69  96 136 177 225 288 341 406
#     4  11  24  42  68 104 130 179 233 280 341 420
#
# _framework density 20.789525999999999
#
# number of rings (size 3 to 8) (size 9 to 14) (size 15 to 20)
#    0.000    1.000    3.750    2.250    1.750    5.500 
#    2.250    0.000    0.000    0.000    0.000    0.000 
#    0.000    0.000    0.000    0.000    0.000    0.000 
#
# Total GULP energy -396893.820393 kJ/mol
# GULP energy per Si atom -12402.931887 kJ/mol
# Density = 2.074221 g / cm^3
# Si number density = 20.789526 Si / 1000 Ang^3
#
#
#
# Elastic Constant Matrix: (Units=GPa)
#
#
# Indices 1 2 3 4 5 6 
#
# 1 75.1090 12.1083 39.4790 0.0000 1.3419 0.0000
# 2 12.1083 88.2503 44.7277 0.0000 3.5007 0.0000
# 3 39.4790 44.7277 156.7974 0.0000 15.8620 0.0000
# 4 0.0000 0.0000 0.0000 33.7066 0.0000 5.0559
# 5 1.3419 3.5007 15.8620 0.0000 32.2867 0.0000
# 6 0.0000 0.0000 0.0000 5.0559 0.0000 40.3529
#
#
#
# Elastic Compliance Matrix: (Units=1/GPa)
#
#
# Indices 1 2 3 4 5 6 
#
# 1 0.015401 -0.000155 -0.003968 0.000000 0.001326 0.000000
# 2 -0.000155 0.013254 -0.003785 0.000000 0.000429 0.000000
# 3 -0.003968 -0.003785 0.008837 0.000000 -0.003766 0.000000
# 4 0.000000 0.000000 0.000000 0.030236 0.000000 -0.003788
# 5 0.001326 0.000429 -0.003766 0.000000 0.032721 0.000000
# 6 0.000000 0.000000 0.000000 -0.003788 0.000000 0.025256
#
#
# Mechanical properties :
#
#
# Convention : Reuss Voigt Hill
#
# Bulk Modulus (GPa) = 46.13191 56.97629 51.55410
# Shear Modulus (GPa) = 33.61423 36.19202 34.90312
#
# Velocity S-wave (km/s) = 4.02541 4.17691 4.10186
# Velocity P-wave (km/s) = 6.62143 7.12235 6.87645
#
# Compressibility (1/GPa) = 0.02167697
#
# Stress axis : x y z
#
# Youngs Moduli (GPa) = 64.93198 75.44833 113.15491
#
# Poissons Ratio (x) = 0.01167 0.44896
# Poissons Ratio (y) = 0.01005 0.42832
# Poissons Ratio (z) = 0.25763 0.28559
#
# Static dielectric constant tensor:
#      x y z
#    x 6.069770 0.000000 0.837350 
#    y 0.000000 3.824540 0.000000 
#    z 0.837350 0.000000 4.074220 
# 
# 
# High freq. dielectric constant tensor:
#      x y z
#    x 1.818550 0.000000 0.008450 
#    y 0.000000 1.828510 0.000000 
#    z 0.008450 0.000000 1.816750 
# 
# From -- ./inp_files/41203.got.cif
#   From: 2010.03.12/outbox.cif.g09.slc.cpg/sg14_21_cif.got.tgz:41203.got - 2010.03.31 13:35:05.
