data_PCOD8128831
_publ_section_title
;
Structure prediction by ZEFSAII (Michael W. Deem and Ramdas Pophale) SiO2 
 PCOD8128831
Probable space group: P 21/C
;
_chemical_formula_sum "Si O2"
_cell_formula_units_Z 32
_cell_length_a 14.263289
_cell_length_b 14.126795
_cell_length_c 9.436462
_cell_angle_alpha 90.000000
_cell_angle_beta 129.168610
_cell_angle_gamma 90.000000
_cell_volume 1474.134324
_symmetry_space_group_name_H-M "P 21/C"
_symmetry_group_IT_number 14
_symmetry_cell_setting 'monoclinic'
loop_
_space_group_symop_operation_xyz
x,y,z
-x,1/2+y,1/2-z
-x,-y,-z
x,1/2-y,1/2+z
loop_
_atom_site_type_symbol
_atom_site_label
_atom_site_fract_x
_atom_site_fract_y
_atom_site_fract_z
Si Si1 0.720078 0.170639 0.168123
Si Si2 0.620092 0.569389 0.009667
Si Si3 0.571227 0.226180 0.767098
Si Si4 0.282958 0.455689 0.369767
Si Si5 0.114012 0.329201 0.360031
Si Si6 0.992237 0.274185 0.960182
Si Si7 0.458260 0.406913 0.770168
Si Si8 0.788528 0.650769 0.962361
O O1 0.627374 0.219821 0.186585
O O2 0.850443 0.215883 0.312227
O O3 0.731825 0.058891 0.212046
O O4 0.677838 0.183753 0.966110
O O5 0.515659 0.641786 0.862056
O O6 0.578821 0.463774 0.930160
O O7 0.748709 0.585594 0.055936
O O8 0.639972 0.580791 0.197123
O O9 0.493340 0.298176 0.786522
O O10 0.168079 0.429956 0.362981
O O11 0.406681 0.449948 0.575309
O O12 0.290757 0.378377 0.250715
O O13 0.230970 0.260564 0.506528
O O14 0.030301 0.327517 0.422631
O O15 0.033001 0.278802 0.161269
O O16 0.068186 0.356160 0.944401
#
# Coordination Sequence:
#
# PCOD8128831 Si02
#       8
#     4   4   4   4   4   4   4   4
#     4  12  25  44  68  97 137 173 226 272 341 399
#     4  11  23  43  61  96 136 166 224 268 331 399
#     4  12  25  42  67  98 130 185 210 275 345 388
#     4  11  23  40  69 100 132 171 227 281 320 404
#     4   9  20  39  63  98 122 171 219 262 334 375
#     4   9  21  41  65  92 127 170 216 269 329 394
#     4  11  25  40  64  96 135 174 217 271 335 400
#     4   9  22  38  65  96 126 171 216 270 327 382
#
# _framework density 21.707654000000002
#
# number of rings (size 3 to 8) (size 9 to 14) (size 15 to 20)
#    0.750    0.750    2.500    2.250    3.500    5.000 
#    0.000    1.250    0.000    2.250    0.000    0.000 
#    0.000    0.000    0.000    0.000    0.000    0.000 
#
# Total GULP energy -396480.084062 kJ/mol
# GULP energy per Si atom -12390.002627 kJ/mol
# Density = 2.165825 g / cm^3
# Si number density = 21.707654 Si / 1000 Ang^3
#
#
#
# Elastic Constant Matrix: (Units=GPa)
#
#
# Indices 1 2 3 4 5 6 
#
# 1 56.9058 -3.3302 11.4673 0.0000 -2.3079 0.0000
# 2 -3.3302 63.5051 19.1884 0.0000 -1.8375 0.0000
# 3 11.4673 19.1884 62.8568 0.0000 -5.7851 0.0000
# 4 0.0000 0.0000 0.0000 28.9520 0.0000 -4.0039
# 5 -2.3079 -1.8375 -5.7851 0.0000 22.1291 0.0000
# 6 0.0000 0.0000 0.0000 -4.0039 0.0000 23.7964
#
#
#
# Elastic Compliance Matrix: (Units=1/GPa)
#
#
# Indices 1 2 3 4 5 6 
#
# 1 0.018542 0.002198 -0.003954 0.000000 0.001083 0.000000
# 2 0.002198 0.017608 -0.005759 0.000000 0.000186 0.000000
# 3 -0.003954 -0.005759 0.018758 0.000000 0.004013 0.000000
# 4 0.000000 0.000000 0.000000 0.035363 0.000000 0.005950
# 5 0.001083 0.000186 0.004013 0.000000 0.046367 0.000000
# 6 0.000000 0.000000 0.000000 0.005950 0.000000 0.043024
#
#
# Mechanical properties :
#
#
# Convention : Reuss Voigt Hill
#
# Bulk Modulus (GPa) = 25.07639 26.43543 25.75591
# Shear Modulus (GPa) = 24.04029 25.37165 24.70597
#
# Velocity S-wave (km/s) = 3.33146 3.42246 3.37727
# Velocity P-wave (km/s) = 5.13567 5.27466 5.20563
#
# Compressibility (1/GPa) = 0.03987814
#
# Stress axis : x y z
#
# Youngs Moduli (GPa) = 53.93074 56.79380 53.31054
#
# Poissons Ratio (x) = -0.12486 0.21080
# Poissons Ratio (y) = -0.11857 0.30702
# Poissons Ratio (z) = 0.21326 0.32708
#
# Static dielectric constant tensor:
#      x y z
#    x 3.841840 0.000000 -0.276530 
#    y 0.000000 3.728010 0.000000 
#    z -0.276530 0.000000 3.975050 
# 
# 
# High freq. dielectric constant tensor:
#      x y z
#    x 1.843430 0.000000 -0.018640 
#    y 0.000000 1.830020 0.000000 
#    z -0.018640 0.000000 1.859990 
# 
# From -- ./inp_files/16257.got.cif
#   From: 2010.03.12/outbox.cif.g09.slc.cpg/sg14_9_cif.got.tgz:16257.got - 2010.03.31 13:35:05.
