data_PCOD8128184
_publ_section_title
;
Structure prediction by ZEFSAII (Michael W. Deem and Ramdas Pophale) SiO2 
 PCOD8128184
Probable space group: P 21/C
;
_chemical_formula_sum "Si O2"
_cell_formula_units_Z 28
_cell_length_a 15.825367
_cell_length_b 8.168334
_cell_length_c 16.235177
_cell_angle_alpha 90.000000
_cell_angle_beta 141.532223
_cell_angle_gamma 90.000000
_cell_volume 1305.529339
_symmetry_space_group_name_H-M "P 21/C"
_symmetry_group_IT_number 14
_symmetry_cell_setting 'monoclinic'
loop_
_space_group_symop_operation_xyz
x,y,z
-x,1/2+y,1/2-z
-x,-y,-z
x,1/2-y,1/2+z
loop_
_atom_site_type_symbol
_atom_site_label
_atom_site_fract_x
_atom_site_fract_y
_atom_site_fract_z
Si Si1 0.314253 0.492726 0.704248
Si Si2 0.768898 0.460278 0.182759
Si Si3 0.819817 0.752785 0.510345
Si Si4 0.089311 0.622163 0.157737
Si Si5 0.175920 0.813567 0.544916
Si Si6 0.908423 0.693020 0.748894
Si Si7 0.623818 0.006887 0.410139
O O1 0.325921 0.497196 0.811575
O O2 0.229804 0.337621 0.608954
O O3 0.218555 0.633435 0.599565
O O4 0.462794 0.497166 0.777736
O O5 0.857780 0.298029 0.268896
O O6 0.854946 0.625262 0.230986
O O7 0.669180 0.413865 0.031576
O O8 0.889715 0.649939 0.637760
O O9 0.928386 0.887104 0.559862
O O10 0.686212 0.825909 0.452605
O O11 0.108967 0.604865 0.075008
O O12 0.159071 0.460941 0.252588
O O13 0.313895 0.900671 0.621070
O O14 0.068880 0.804947 0.388852
#
# Coordination Sequence:
#
# PCOD8128184 Si02
#       7
#     4   4   4   4   4   4   4
#     4  11  24  42  64  90 130 169 216 258 309 389
#     4  10  24  42  68  95 123 171 214 261 327 370
#     4  11  24  38  64  97 123 165 215 254 327 379
#     4  11  23  41  65  99 129 158 213 268 323 377
#     4  11  23  39  65  92 127 168 208 262 328 368
#     4  11  23  40  66  97 130 158 208 274 322 369
#     4  11  23  42  63  91 129 173 210 259 314 379
#
# _framework density 21.447239
#
# number of rings (size 3 to 8) (size 9 to 14) (size 15 to 20)
#    0.000    1.143    1.429    4.286    8.000    2.286 
#    0.000    0.000    0.000    5.143    0.000    0.000 
#    0.000    0.000    0.000    0.000    0.000    0.000 
#
# Total GULP energy -347027.540629 kJ/mol
# GULP energy per Si atom -12393.840737 kJ/mol
# Density = 2.139842 g / cm^3
# Si number density = 21.447239 Si / 1000 Ang^3
#
#
#
# Elastic Constant Matrix: (Units=GPa)
#
#
# Indices 1 2 3 4 5 6 
#
# 1 105.1503 23.0479 27.6444 0.0000 -4.9824 0.0000
# 2 23.0479 96.0140 25.9069 0.0000 -3.0661 0.0000
# 3 27.6444 25.9069 73.1837 0.0000 -13.9412 0.0000
# 4 0.0000 0.0000 0.0000 -293.2454 0.0000 240.8174
# 5 -4.9824 -3.0661 -13.9412 0.0000 31.8957 0.0000
# 6 0.0000 0.0000 0.0000 240.8174 0.0000 -159.2584
#
#
#
# Elastic Compliance Matrix: (Units=1/GPa)
#
#
# Indices 1 2 3 4 5 6 
#
# 1 0.010790 -0.001648 -0.003492 0.000000 0.000001 0.000000
# 2 -0.001648 0.011783 -0.003689 0.000000 -0.000737 0.000000
# 3 -0.003492 -0.003689 0.017582 0.000000 0.006785 0.000000
# 4 0.000000 0.000000 0.000000 0.014105 0.000000 0.021328
# 5 0.000001 -0.000737 0.006785 0.000000 0.034247 0.000000
# 6 0.000000 0.000000 0.000000 0.021328 0.000000 0.025971
#
#
# Mechanical properties :
#
#
# Convention : Reuss Voigt Hill
#
# Bulk Modulus (GPa) = 44.45256 47.50516 45.97886
# Shear Modulus (GPa) = 35.80814 -70.93839 -17.56512
#
# Velocity S-wave (km/s) = 4.09050 -5.75739 -2.86491
# Velocity P-wave (km/s) = 6.56361 4.69030 3.24670
#
# Compressibility (1/GPa) = 0.02249589
#
# Stress axis : x y z
#
# Youngs Moduli (GPa) = 92.68262 84.87151 56.87712
#
# Poissons Ratio (x) = 0.13984 0.19863
# Poissons Ratio (y) = 0.15271 0.20982
# Poissons Ratio (z) = 0.32367 0.31309
#
# Static dielectric constant tensor:
#      x y z
#    x 4.046400 0.000000 -0.274440 
#    y 0.000000 3.953500 0.000000 
#    z -0.274440 0.000000 3.824020 
# 
# 
# High freq. dielectric constant tensor:
#      x y z
#    x 1.847460 0.000000 -0.017430 
#    y 0.000000 1.853080 0.000000 
#    z -0.017430 0.000000 1.833360 
# 
# From -- ./inp_files/43805.got.cif
#   From: 2010.03.12/outbox.cif.g09.slc.cpg/sg14_22_cif.got.tgz:43805.got - 2010.03.31 13:35:05.
