data_PCOD8128564
_publ_section_title
;
Structure prediction by ZEFSAII (Michael W. Deem and Ramdas Pophale) SiO2 
 PCOD8128564
Probable space group: P 21/C
;
_chemical_formula_sum "Si O2"
_cell_formula_units_Z 24
_cell_length_a 14.456172
_cell_length_b 4.933744
_cell_length_c 16.581299
_cell_angle_alpha 90.000000
_cell_angle_beta 71.979425
_cell_angle_gamma 90.000000
_cell_volume 1124.615566
_symmetry_space_group_name_H-M "P 21/C"
_symmetry_group_IT_number 14
_symmetry_cell_setting 'monoclinic'
loop_
_space_group_symop_operation_xyz
x,y,z
-x,1/2+y,1/2-z
-x,-y,-z
x,1/2-y,1/2+z
loop_
_atom_site_type_symbol
_atom_site_label
_atom_site_fract_x
_atom_site_fract_y
_atom_site_fract_z
Si Si1 0.062348 0.955045 0.745497
Si Si2 0.751179 0.618642 0.903608
Si Si3 0.260222 0.251357 0.911143
Si Si4 0.340766 0.639249 0.645059
Si Si5 0.479691 0.251292 0.808156
Si Si6 0.205516 0.745114 0.830268
O O1 0.144621 0.070710 0.664577
O O2 0.989810 0.202322 0.784616
O O3 0.103955 0.841508 0.818893
O O4 0.687228 0.343429 0.919882
O O5 0.691178 0.838336 0.868697
O O6 0.770252 0.715829 0.988449
O O7 0.373424 0.321391 0.869872
O O8 0.195217 0.449064 0.872726
O O9 0.238402 0.945105 0.892286
O O10 0.455523 0.647845 0.633668
O O11 0.286851 0.740842 0.739672
O O12 0.525864 0.523967 0.759338
#
# Coordination Sequence:
#
# PCOD8128564 Si02
#       6
#     4   4   4   4   4   4
#     4  11  23  44  68  93 118 163 215 260 313 397
#     4  11  25  40  64  93 131 161 204 267 323 360
#     4  12  23  41  61  97 131 164 204 265 313 354
#     4  11  21  40  62  91 125 177 213 244 301 376
#     4  12  22  37  63  94 127 168 224 249 289 371
#     4  11  22  40  67  90 123 171 207 250 317 381
#
# _framework density 21.340627999999999
#
# number of rings (size 3 to 8) (size 9 to 14) (size 15 to 20)
#    0.000    0.667    3.333    7.000    0.000    1.333 
#    0.000    5.000    0.000    0.000    0.000    0.000 
#    0.000    0.000    0.000    0.000    0.000    0.000 
#
# Total GULP energy -297737.075666 kJ/mol
# GULP energy per Si atom -12405.711486 kJ/mol
# Density = 2.129206 g / cm^3
# Si number density = 21.340628 Si / 1000 Ang^3
#
#
#
# Elastic Constant Matrix: (Units=GPa)
#
#
# Indices 1 2 3 4 5 6 
#
# 1 92.3368 27.3553 33.7179 0.0000 12.6047 0.0000
# 2 27.3553 105.1800 12.2823 0.0000 -1.6000 0.0000
# 3 33.7179 12.2823 73.9932 0.0000 10.0160 0.0000
# 4 0.0000 0.0000 0.0000 32.3400 0.0000 17.6415
# 5 12.6047 -1.6000 10.0160 0.0000 15.0838 0.0000
# 6 0.0000 0.0000 0.0000 17.6415 0.0000 48.6283
#
#
#
# Elastic Compliance Matrix: (Units=1/GPa)
#
#
# Indices 1 2 3 4 5 6 
#
# 1 0.014972 -0.003462 -0.004950 0.000000 -0.009592 0.000000
# 2 -0.003462 0.010569 -0.000791 0.000000 0.004540 0.000000
# 3 -0.004950 -0.000791 0.016869 0.000000 -0.007150 0.000000
# 4 0.000000 0.000000 0.000000 0.038551 0.000000 -0.013985
# 5 -0.009592 0.004540 -0.007150 0.000000 0.079541 0.000000
# 6 0.000000 0.000000 0.000000 -0.013985 0.000000 0.025638
#
#
# Mechanical properties :
#
#
# Convention : Reuss Voigt Hill
#
# Bulk Modulus (GPa) = 41.65763 46.46900 44.06332
# Shear Modulus (GPa) = 23.52408 32.42072 27.97240
#
# Velocity S-wave (km/s) = 3.32371 3.90192 3.62437
# Velocity P-wave (km/s) = 5.85595 6.49016 6.18119
#
# Compressibility (1/GPa) = 0.02400521
#
# Stress axis : x y z
#
# Youngs Moduli (GPa) = 66.78978 94.61313 59.27896
#
# Poissons Ratio (x) = 0.32755 0.29341
# Poissons Ratio (y) = 0.23122 0.04691
# Poissons Ratio (z) = 0.33059 0.07487
#
# Static dielectric constant tensor:
#      x y z
#    x 3.981490 0.000000 0.233600 
#    y 0.000000 4.105240 0.000000 
#    z 0.233600 0.000000 3.597460 
# 
# 
# High freq. dielectric constant tensor:
#      x y z
#    x 1.838870 0.000000 0.019190 
#    y 0.000000 1.861580 0.000000 
#    z 0.019190 0.000000 1.811230 
# 
# From -- ./inp_files/45843.got.cif
#   From: 2010.03.12/outbox.cif.g09.slc.cpg/sg14_23_cif.got.tgz:45843.got - 2010.03.31 13:35:05.
