data_PCOD8128105
_publ_section_title
;
Structure prediction by ZEFSAII (Michael W. Deem and Ramdas Pophale) SiO2 
 PCOD8128105
Probable space group: P 21/C
;
_chemical_formula_sum "Si O2"
_cell_formula_units_Z 28
_cell_length_a 5.292019
_cell_length_b 16.244955
_cell_length_c 17.294544
_cell_angle_alpha 90.000000
_cell_angle_beta 112.174808
_cell_angle_gamma 90.000000
_cell_volume 1376.820066
_symmetry_space_group_name_H-M "P 21/C"
_symmetry_group_IT_number 14
_symmetry_cell_setting 'monoclinic'
loop_
_space_group_symop_operation_xyz
x,y,z
-x,1/2+y,1/2-z
-x,-y,-z
x,1/2-y,1/2+z
loop_
_atom_site_type_symbol
_atom_site_label
_atom_site_fract_x
_atom_site_fract_y
_atom_site_fract_z
Si Si1 0.167611 0.828676 0.714034
Si Si2 0.401759 0.287227 0.843667
Si Si3 0.131665 0.879975 0.878093
Si Si4 0.856807 0.712393 0.835343
Si Si5 0.101452 0.945393 0.139328
Si Si6 0.500016 0.129879 0.939656
Si Si7 0.693363 0.154482 0.703776
O O1 0.369186 0.849931 0.665617
O O2 0.233676 0.878133 0.800545
O O3 0.213016 0.732079 0.734154
O O4 0.850325 0.842415 0.653171
O O5 0.286206 0.227539 0.763675
O O6 0.522285 0.227433 0.923358
O O7 0.951840 0.799932 0.881007
O O8 0.401998 0.883938 0.961351
O O9 0.936903 0.957168 0.869578
O O10 0.625370 0.665512 0.859275
O O11 0.119531 0.652960 0.852239
O O12 0.295562 0.920608 0.091323
O O13 0.254840 0.925724 0.237913
O O14 0.809338 0.900524 0.102509
#
# Coordination Sequence:
#
# PCOD8128105 Si02
#       7
#     4   4   4   4   4   4   4
#     4   9  17  33  49  65  91 138 173 225 229 278
#     4   9  15  31  52  62  87 140 177 201 242 284
#     4  10  24  32  50  80 116 133 177 212 261 298
#     4   9  17  33  49  65  91 138 174 224 229 277
#     4  12  21  34  49  77 111 151 165 200 255 332
#     4  12  21  34  49  77 111 149 166 199 256 333
#     4   9  15  31  52  62  87 140 176 202 241 286
#
# _framework density 20.336717
#
# number of rings (size 3 to 8) (size 9 to 14) (size 15 to 20)
#    0.000    2.286    5.714    0.857    0.000    9.143 
#    0.000    0.000    0.000    0.000    0.000    0.000 
#    0.000   37.714    0.000    0.286    0.000    0.000 
#
# Total GULP energy -346898.776181 kJ/mol
# GULP energy per Si atom -12389.242006 kJ/mol
# Density = 2.029043 g / cm^3
# Si number density = 20.336717 Si / 1000 Ang^3
#
#
#
# Elastic Constant Matrix: (Units=GPa)
#
#
# Indices 1 2 3 4 5 6 
#
# 1 172.7557 14.9699 15.4969 0.0000 11.1672 0.0000
# 2 14.9699 34.7682 33.9052 0.0000 -4.6650 0.0000
# 3 15.4969 33.9052 29.1662 0.0000 -2.5286 0.0000
# 4 0.0000 0.0000 0.0000 18.9530 0.0000 0.9914
# 5 11.1672 -4.6650 -2.5286 0.0000 9.0629 0.0000
# 6 0.0000 0.0000 0.0000 0.9914 0.0000 8.2484
#
#
#
# Elastic Compliance Matrix: (Units=1/GPa)
#
#
# Indices 1 2 3 4 5 6 
#
# 1 0.006808 -0.000825 -0.003507 0.000000 -0.009791 0.000000
# 2 -0.000825 -0.200595 0.230335 0.000000 -0.037972 0.000000
# 3 -0.003507 0.230335 -0.226434 0.000000 0.059706 0.000000
# 4 0.000000 0.000000 0.000000 0.053096 0.000000 -0.006382
# 5 -0.009791 -0.037972 0.059706 0.000000 0.119517 0.000000
# 6 0.000000 0.000000 0.000000 -0.006382 0.000000 0.122003
#
#
# Mechanical properties :
#
#
# Convention : Reuss Voigt Hill
#
# Bulk Modulus (GPa) = 31.46257 40.60379 36.03318
# Shear Modulus (GPa) = -8.81808 18.74075 4.96134
#
# Velocity S-wave (km/s) = -2.08457 3.03895 1.56361
# Velocity P-wave (km/s) = 3.11616 5.68531 4.58439
#
# Compressibility (1/GPa) = 0.03178380
#
# Stress axis : x y z
#
# Youngs Moduli (GPa) = 146.89660 -4.98517 -4.41629
#
# Poissons Ratio (x) = -0.00411 -0.01549
# Poissons Ratio (y) = 0.12121 1.01722
# Poissons Ratio (z) = 0.51512 1.14826
#
# Static dielectric constant tensor:
#      x y z
#    x 6.458330 0.000000 0.382240 
#    y 0.000000 3.304850 0.000000 
#    z 0.382240 0.000000 3.325030 
# 
# 
# High freq. dielectric constant tensor:
#      x y z
#    x 1.828200 0.000000 0.015600 
#    y 0.000000 1.741940 0.000000 
#    z 0.015600 0.000000 1.740040 
# 
# From -- ./inp_files/63724.got.cif
#   From: 2010.03.12/outbox.cif.g09.slc.cpg/sg14_32_cif.got.tgz:63724.got - 2010.03.31 13:35:05.
