data_PCOD8128109
_publ_section_title
;
Structure prediction by ZEFSAII (Michael W. Deem and Ramdas Pophale) SiO2 
 PCOD8128109
Probable space group: P 21/C
;
_chemical_formula_sum "Si O2"
_cell_formula_units_Z 24
_cell_length_a 9.729679
_cell_length_b 13.837307
_cell_length_c 14.798967
_cell_angle_alpha 90.000000
_cell_angle_beta 35.250380
_cell_angle_gamma 90.000000
_cell_volume 1149.927994
_symmetry_space_group_name_H-M "P 21/C"
_symmetry_group_IT_number 14
_symmetry_cell_setting 'monoclinic'
loop_
_space_group_symop_operation_xyz
x,y,z
-x,1/2+y,1/2-z
-x,-y,-z
x,1/2-y,1/2+z
loop_
_atom_site_type_symbol
_atom_site_label
_atom_site_fract_x
_atom_site_fract_y
_atom_site_fract_z
Si Si1 0.114290 0.354464 0.671178
Si Si2 0.149568 0.183402 0.348018
Si Si3 0.843965 0.206181 0.144936
Si Si4 0.045008 0.500166 0.112964
Si Si5 0.517981 0.565414 0.221062
Si Si6 0.421966 0.607003 0.684337
O O1 0.368141 0.391147 0.500923
O O2 0.164307 0.287930 0.733872
O O3 0.970873 0.293620 0.674228
O O4 0.956495 0.447366 0.787957
O O5 0.043232 0.271465 0.462317
O O6 0.405855 0.148788 0.247958
O O7 0.985404 0.085328 0.447598
O O8 0.732385 0.100531 0.186088
O O9 0.631217 0.284157 0.254117
O O10 0.817723 0.430486 0.233716
O O11 0.286153 0.441358 0.964858
O O12 0.485550 0.460716 0.283681
#
# Coordination Sequence:
#
# PCOD8128109 Si02
#       6
#     4   4   4   4   4   4
#     4  10  24  38  63  99 122 168 222 268 314 378
#     4   9  20  43  59  91 124 165 217 252 320 381
#     4  12  23  39  66  97 131 165 217 270 319 373
#     4   9  19  42  64  88 121 175 210 260 310 390
#     4  11  21  39  71  87 128 182 205 261 327 390
#     4  11  20  41  67  89 128 174 217 251 321 393
#
# _framework density 20.870871999999999
#
# number of rings (size 3 to 8) (size 9 to 14) (size 15 to 20)
#    1.000    0.667    3.333    2.500    0.000    2.667 
#    0.000    0.000    0.000    0.000    0.000    0.000 
#    0.000    0.000    0.000    0.000    0.000    0.000 
#
# Total GULP energy -297445.426728 kJ/mol
# GULP energy per Si atom -12393.559447 kJ/mol
# Density = 2.082337 g / cm^3
# Si number density = 20.870872 Si / 1000 Ang^3
#
#
#
# Elastic Constant Matrix: (Units=GPa)
#
#
# Indices 1 2 3 4 5 6 
#
# 1 89.5512 30.4895 47.1519 0.0000 21.3170 0.0000
# 2 30.4895 69.6477 30.5269 0.0000 7.7288 0.0000
# 3 47.1519 30.5269 99.5455 0.0000 20.8406 0.0000
# 4 0.0000 0.0000 0.0000 30.5536 0.0000 1.7832
# 5 21.3170 7.7288 20.8406 0.0000 24.6722 0.0000
# 6 0.0000 0.0000 0.0000 1.7832 0.0000 33.4878
#
#
#
# Elastic Compliance Matrix: (Units=1/GPa)
#
#
# Indices 1 2 3 4 5 6 
#
# 1 0.017578 -0.004461 -0.004946 0.000000 -0.009612 0.000000
# 2 -0.004461 0.017744 -0.003610 0.000000 0.001345 0.000000
# 3 -0.004946 -0.003610 0.015020 0.000000 -0.007284 0.000000
# 4 0.000000 0.000000 0.000000 0.032831 0.000000 -0.001748
# 5 -0.009612 0.001345 -0.007284 0.000000 0.054568 0.000000
# 6 0.000000 0.000000 0.000000 -0.001748 0.000000 0.029955
#
#
# Mechanical properties :
#
#
# Convention : Reuss Voigt Hill
#
# Bulk Modulus (GPa) = 41.13715 52.78677 46.96196
# Shear Modulus (GPa) = 24.77318 27.78114 26.27716
#
# Velocity S-wave (km/s) = 3.44899 3.65238 3.55214
# Velocity P-wave (km/s) = 5.96773 6.56761 6.27484
#
# Compressibility (1/GPa) = 0.02430893
#
# Stress axis : x y z
#
# Youngs Moduli (GPa) = 56.89014 56.35800 66.57656
#
# Poissons Ratio (x) = 0.25139 0.32927
# Poissons Ratio (y) = 0.25376 0.24035
# Poissons Ratio (z) = 0.28137 0.20346
#
# Static dielectric constant tensor:
#      x y z
#    x 3.455060 0.000000 0.111740 
#    y 0.000000 3.568720 0.000000 
#    z 0.111740 0.000000 3.624940 
# 
# 
# High freq. dielectric constant tensor:
#      x y z
#    x 1.793720 0.000000 0.006530 
#    y 0.000000 1.801240 0.000000 
#    z 0.006530 0.000000 1.816130 
# 
# From -- ./inp_files/41068.got.cif
#   From: 2010.03.12/outbox.cif.g09.slc.cpg/sg14_21_cif.got.tgz:41068.got - 2010.03.31 13:35:05.
