data_PCOD8128891
_publ_section_title
;
Structure prediction by ZEFSAII (Michael W. Deem and Ramdas Pophale) SiO2 
 PCOD8128891
Probable space group: P 21/C
;
_chemical_formula_sum "Si O2"
_cell_formula_units_Z 32
_cell_length_a 14.258335
_cell_length_b 15.715732
_cell_length_c 10.815228
_cell_angle_alpha 90.000000
_cell_angle_beta 142.731195
_cell_angle_gamma 90.000000
_cell_volume 1467.549819
_symmetry_space_group_name_H-M "P 21/C"
_symmetry_group_IT_number 14
_symmetry_cell_setting 'monoclinic'
loop_
_space_group_symop_operation_xyz
x,y,z
-x,1/2+y,1/2-z
-x,-y,-z
x,1/2-y,1/2+z
loop_
_atom_site_type_symbol
_atom_site_label
_atom_site_fract_x
_atom_site_fract_y
_atom_site_fract_z
Si Si1 0.403286 0.950015 0.801926
Si Si2 0.635050 0.868290 0.874488
Si Si3 0.091601 0.455367 0.984965
Si Si4 0.840604 0.606082 0.366282
Si Si5 0.227556 0.718610 0.142722
Si Si6 0.870553 0.031097 0.711757
Si Si7 0.675307 0.304396 0.008267
Si Si8 0.878310 0.702600 0.827406
O O1 0.526865 0.939152 0.821711
O O2 0.338530 0.861095 0.789901
O O3 0.260249 0.010698 0.622158
O O4 0.500000 0.000000 0.000000
O O5 0.731154 0.911744 0.867240
O O6 0.512210 0.800796 0.685548
O O7 0.750078 0.827974 0.096048
O O8 0.017654 0.483955 0.775871
O O9 0.111971 0.356116 0.038278
O O10 0.000000 0.500000 0.000000
O O11 0.785230 0.543865 0.198525
O O12 0.830186 0.704012 0.317090
O O13 0.017809 0.585487 0.583462
O O14 0.254008 0.783062 0.284275
O O15 0.271218 0.756139 0.051490
O O16 0.046579 0.695763 0.941442
O O17 0.740140 0.101132 0.531512
#
# Coordination Sequence:
#
# PCOD8128891 Si02
#       8
#     4   4   4   4   4   4   4   4
#     4  11  23  43  64 102 140 182 232 294 360 433
#     4  11  25  43  70 101 149 181 236 302 360 431
#     4  12  22  42  73 102 139 186 237 287 358 430
#     4  11  27  44  69 104 145 186 242 299 360 428
#     4  11  24  45  71 102 144 192 240 303 357 445
#     4  11  24  49  69 101 145 191 241 290 359 447
#     4  11  24  47  70 102 149 191 239 295 374 433
#     4  12  25  43  74 106 138 189 246 299 361 428
#
# _framework density 21.805052
#
# number of rings (size 3 to 8) (size 9 to 14) (size 15 to 20)
#    0.000    0.750    6.250    1.500    5.250    0.500 
#    2.250    0.000    0.000    0.000    0.000    0.000 
#    0.000    0.000    0.000    0.000    0.000    0.000 
#
# Total GULP energy -396432.806562 kJ/mol
# GULP energy per Si atom -12388.525205 kJ/mol
# Density = 2.175542 g / cm^3
# Si number density = 21.805052 Si / 1000 Ang^3
#
#
#
# Elastic Constant Matrix: (Units=GPa)
#
#
# Indices 1 2 3 4 5 6 
#
# 1 142.2568 53.2690 43.5468 0.0000 -6.5049 0.0000
# 2 53.2690 87.4463 22.0444 0.0000 -7.1407 0.0000
# 3 43.5468 22.0444 101.0066 0.0000 -1.5828 0.0000
# 4 0.0000 0.0000 0.0000 35.6786 0.0000 -5.6095
# 5 -6.5049 -7.1407 -1.5828 0.0000 42.7691 0.0000
# 6 0.0000 0.0000 0.0000 -5.6095 0.0000 27.5085
#
#
#
# Elastic Compliance Matrix: (Units=1/GPa)
#
#
# Indices 1 2 3 4 5 6 
#
# 1 0.009981 -0.005243 -0.003151 0.000000 0.000526 0.000000
# 2 -0.005243 0.015016 -0.000991 0.000000 0.001673 0.000000
# 3 -0.003151 -0.000991 0.011471 0.000000 -0.000220 0.000000
# 4 0.000000 0.000000 0.000000 0.028956 0.000000 0.005905
# 5 0.000526 0.001673 -0.000220 0.000000 0.023733 0.000000
# 6 0.000000 0.000000 0.000000 0.005905 0.000000 0.037556
#
#
# Mechanical properties :
#
#
# Convention : Reuss Voigt Hill
#
# Bulk Modulus (GPa) = 56.49715 63.15892 59.82804
# Shear Modulus (GPa) = 33.02890 35.31453 34.17172
#
# Velocity S-wave (km/s) = 3.89618 4.02874 3.96302
# Velocity P-wave (km/s) = 6.79755 7.11823 6.95974
#
# Compressibility (1/GPa) = 0.01770001
#
# Stress axis : x y z
#
# Youngs Moduli (GPa) = 100.18655 66.59671 87.17301
#
# Poissons Ratio (x) = 0.34917 0.27466
# Poissons Ratio (y) = 0.52528 0.08635
# Poissons Ratio (z) = 0.31566 0.06596
#
# Static dielectric constant tensor:
#      x y z
#    x 4.422760 0.000000 -0.787780 
#    y 0.000000 3.874400 0.000000 
#    z -0.787780 0.000000 6.034710 
# 
# 
# High freq. dielectric constant tensor:
#      x y z
#    x 1.869330 0.000000 -0.002110 
#    y 0.000000 1.837090 0.000000 
#    z -0.002110 0.000000 1.872470 
# 
# From -- ./inp_files/32783.got.cif
#   From: 2010.03.12/outbox.cif.g09.slc.cpg/sg14_17_cif.got.tgz:32783.got - 2010.03.31 13:35:05.
