data_PCOD8128728
_publ_section_title
;
Structure prediction by ZEFSAII (Michael W. Deem and Ramdas Pophale) SiO2 
 PCOD8128728
Probable space group: P 21/C
;
_chemical_formula_sum "Si O2"
_cell_formula_units_Z 32
_cell_length_a 10.495517
_cell_length_b 12.446819
_cell_length_c 11.639992
_cell_angle_alpha 90.000000
_cell_angle_beta 70.286739
_cell_angle_gamma 90.000000
_cell_volume 1431.481126
_symmetry_space_group_name_H-M "P 21/C"
_symmetry_group_IT_number 14
_symmetry_cell_setting 'monoclinic'
loop_
_space_group_symop_operation_xyz
x,y,z
-x,1/2+y,1/2-z
-x,-y,-z
x,1/2-y,1/2+z
loop_
_atom_site_type_symbol
_atom_site_label
_atom_site_fract_x
_atom_site_fract_y
_atom_site_fract_z
Si Si1 0.594042 0.899280 0.994036
Si Si2 0.754595 0.354725 0.159385
Si Si3 0.159859 0.452963 0.731087
Si Si4 0.686582 0.926694 0.216236
Si Si5 0.486248 0.678047 0.942557
Si Si6 0.056926 0.681440 0.088665
Si Si7 0.711953 0.145166 0.311425
Si Si8 0.988343 0.920394 0.111874
O O1 0.606023 0.885991 0.128411
O O2 0.745818 0.906860 0.898322
O O3 0.524339 0.801134 0.950859
O O4 0.500000 0.000000 0.000000
O O5 0.743023 0.471374 0.221509
O O6 0.636122 0.331551 0.107529
O O7 0.740537 0.264112 0.259025
O O8 0.901871 0.354104 0.052798
O O9 0.093237 0.359483 0.830301
O O10 0.038752 0.519676 0.710319
O O11 0.613218 0.887895 0.355099
O O12 0.835874 0.877932 0.172284
O O13 0.705724 0.056492 0.212345
O O14 0.433351 0.633595 0.080558
O O15 0.162984 0.624037 0.141761
O O16 0.073224 0.810552 0.077373
O O17 0.000000 0.000000 0.000000
#
# Coordination Sequence:
#
# PCOD8128728 Si02
#       8
#     4   4   4   4   4   4   4   4
#     4  12  26  43  72 101 140 186 242 301 362 443
#     4  11  24  43  72  96 143 191 240 293 367 438
#     4  12  24  46  68 107 144 186 242 305 363 437
#     4  12  24  44  69 100 141 185 233 301 363 430
#     4  11  25  44  65 105 138 187 238 301 365 428
#     4  11  25  42  68 106 140 185 236 299 358 437
#     4  11  22  42  70  99 137 189 237 290 362 446
#     4  12  24  43  72 104 143 189 240 291 368 434
#
# _framework density 22.354468000000001
#
# number of rings (size 3 to 8) (size 9 to 14) (size 15 to 20)
#    0.000    0.500    3.750    5.250    1.750    0.000 
#    2.250    3.750    0.000    0.000    0.000    0.000 
#    0.000    0.000    0.000    0.000    0.000    0.000 
#
# Total GULP energy -396766.982382 kJ/mol
# GULP energy per Si atom -12398.968199 kJ/mol
# Density = 2.230359 g / cm^3
# Si number density = 22.354468 Si / 1000 Ang^3
#
#
#
# Elastic Constant Matrix: (Units=GPa)
#
#
# Indices 1 2 3 4 5 6 
#
# 1 89.3307 24.7480 30.3048 0.0000 -2.3855 0.0000
# 2 24.7480 116.1544 29.7603 0.0000 5.8521 0.0000
# 3 30.3048 29.7603 114.6154 0.0000 -16.2984 0.0000
# 4 0.0000 0.0000 0.0000 42.3688 0.0000 2.1480
# 5 -2.3855 5.8521 -16.2984 0.0000 43.0750 0.0000
# 6 0.0000 0.0000 0.0000 2.1480 0.0000 31.9718
#
#
#
# Elastic Compliance Matrix: (Units=1/GPa)
#
#
# Indices 1 2 3 4 5 6 
#
# 1 0.012709 -0.001968 -0.002865 0.000000 -0.000113 0.000000
# 2 -0.001968 0.009745 -0.002340 0.000000 -0.002318 0.000000
# 3 -0.002865 -0.002340 0.010688 0.000000 0.004203 0.000000
# 4 0.000000 0.000000 0.000000 0.023683 0.000000 -0.001591
# 5 -0.000113 -0.002318 0.004203 0.000000 0.025114 0.000000
# 6 0.000000 0.000000 0.000000 -0.001591 0.000000 0.031384
#
#
# Mechanical properties :
#
#
# Convention : Reuss Voigt Hill
#
# Bulk Modulus (GPa) = 53.20461 54.41408 53.80935
# Shear Modulus (GPa) = 37.33205 39.16896 38.25050
#
# Velocity S-wave (km/s) = 4.09100 4.19044 4.14102
# Velocity P-wave (km/s) = 6.79464 6.91429 6.85473
#
# Compressibility (1/GPa) = 0.01879536
#
# Stress axis : x y z
#
# Youngs Moduli (GPa) = 78.68713 102.61951 93.56650
#
# Poissons Ratio (x) = 0.20194 0.26810
# Poissons Ratio (y) = 0.15485 0.21891
# Poissons Ratio (z) = 0.22546 0.24009
#
# Static dielectric constant tensor:
#      x y z
#    x 3.988710 0.000000 -0.219140 
#    y 0.000000 3.942600 0.000000 
#    z -0.219140 0.000000 4.397860 
# 
# 
# High freq. dielectric constant tensor:
#      x y z
#    x 1.877590 0.000000 -0.013790 
#    y 0.000000 1.879230 0.000000 
#    z -0.013790 0.000000 1.894450 
# 
# From -- ./inp_files/29354.got.cif
#   From: 2010.03.12/outbox.cif.g09.slc.cpg/sg14_15_cif.got.tgz:29354.got - 2010.03.31 13:35:05.
