data_PCOD8128594
_publ_section_title
;
Structure prediction by ZEFSAII (Michael W. Deem and Ramdas Pophale) SiO2 
 PCOD8128594
Probable space group: P 21/C
;
_chemical_formula_sum "Si O2"
_cell_formula_units_Z 24
_cell_length_a 10.843889
_cell_length_b 5.318264
_cell_length_c 21.879236
_cell_angle_alpha 90.000000
_cell_angle_beta 132.042759
_cell_angle_gamma 90.000000
_cell_volume 937.062416
_symmetry_space_group_name_H-M "P 21/C"
_symmetry_group_IT_number 14
_symmetry_cell_setting 'monoclinic'
loop_
_space_group_symop_operation_xyz
x,y,z
-x,1/2+y,1/2-z
-x,-y,-z
x,1/2-y,1/2+z
loop_
_atom_site_type_symbol
_atom_site_label
_atom_site_fract_x
_atom_site_fract_y
_atom_site_fract_z
Si Si1 0.384136 0.845824 0.601607
Si Si2 0.113120 0.157435 0.214175
Si Si3 0.578084 0.359676 0.642261
Si Si4 0.237398 0.745495 0.679178
Si Si5 0.104972 0.040410 0.427988
Si Si6 0.802348 0.614605 0.638890
O O1 0.443675 0.582279 0.593434
O O2 0.366530 0.799249 0.668240
O O3 0.499241 0.085872 0.625695
O O4 0.203185 0.895742 0.513043
O O5 0.233594 0.233648 0.309658
O O6 0.972515 0.349159 0.146213
O O7 0.229232 0.049583 0.197478
O O8 0.000645 0.928252 0.202843
O O9 0.703857 0.409482 0.742120
O O10 0.681273 0.373177 0.611393
O O11 0.051785 0.815175 0.594620
O O12 0.235867 0.225332 0.435235
#
# Coordination Sequence:
#
# PCOD8128594 Si02
#       6
#     4   4   4   4   4   4
#     4  12  30  47  69 110 152 191 240 302 378 436
#     4  11  21  41  77 107 136 188 254 317 351 433
#     4  12  27  47  73 104 150 198 235 298 370 449
#     4  11  25  47  75 102 139 197 256 296 356 446
#     4  11  26  44  75 107 143 190 244 318 361 429
#     4  11  22  42  73 109 142 189 251 301 371 440
#
# _framework density 25.611954000000001
#
# number of rings (size 3 to 8) (size 9 to 14) (size 15 to 20)
#    0.000    0.667    3.333    3.500    9.333    2.000 
#    0.000    0.000    0.000    0.000    0.000    0.000 
#    0.000    0.000    0.000    0.000    0.000    0.000 
#
# Total GULP energy -297412.108715 kJ/mol
# GULP energy per Si atom -12392.171196 kJ/mol
# Density = 2.555366 g / cm^3
# Si number density = 25.611954 Si / 1000 Ang^3
#
#
#
# Elastic Constant Matrix: (Units=GPa)
#
#
# Indices 1 2 3 4 5 6 
#
# 1 106.4833 45.7653 -1.8524 0.0000 -8.7799 0.0000
# 2 45.7653 104.2336 -3.4506 0.0000 -3.3638 0.0000
# 3 -1.8524 -3.4506 47.4181 0.0000 5.8088 0.0000
# 4 0.0000 0.0000 0.0000 29.6237 0.0000 2.9643
# 5 -8.7799 -3.3638 5.8088 0.0000 32.6373 0.0000
# 6 0.0000 0.0000 0.0000 2.9643 0.0000 47.6921
#
#
#
# Elastic Compliance Matrix: (Units=1/GPa)
#
#
# Indices 1 2 3 4 5 6 
#
# 1 0.011802 -0.005103 -0.000240 0.000000 0.002692 0.000000
# 2 -0.005103 0.011849 0.000697 0.000000 -0.000276 0.000000
# 3 -0.000240 0.000697 0.021600 0.000000 -0.003837 0.000000
# 4 0.000000 0.000000 0.000000 0.033968 0.000000 -0.002111
# 5 0.002692 -0.000276 -0.003837 0.000000 0.032018 0.000000
# 6 0.000000 0.000000 0.000000 -0.002111 0.000000 0.021099
#
#
# Mechanical properties :
#
#
# Convention : Reuss Voigt Hill
#
# Bulk Modulus (GPa) = 27.81002 37.67329 32.74165
# Shear Modulus (GPa) = 32.54883 36.50213 34.52548
#
# Velocity S-wave (km/s) = 3.56876 3.77928 3.67553
# Velocity P-wave (km/s) = 5.27856 5.81250 5.55195
#
# Compressibility (1/GPa) = 0.03595826
#
# Stress axis : x y z
#
# Youngs Moduli (GPa) = 84.73063 84.39865 46.29552
#
# Poissons Ratio (x) = 0.43068 0.01111
# Poissons Ratio (y) = 0.43238 -0.03225
# Poissons Ratio (z) = 0.02034 -0.05879
#
# Static dielectric constant tensor:
#      x y z
#    x 4.640240 0.000000 0.141020 
#    y 0.000000 4.731330 0.000000 
#    z 0.141020 0.000000 4.412890 
# 
# 
# High freq. dielectric constant tensor:
#      x y z
#    x 2.029160 0.000000 0.009900 
#    y 0.000000 2.030700 0.000000 
#    z 0.009900 0.000000 2.001420 
# 
# From -- ./inp_files/72789.got.cif
#   From: 2010.03.12/outbox.cif.g09.slc.cpg/sg14_37_cif.got.tgz:72789.got - 2010.03.31 13:35:05.
