data_PCOD8128376
_publ_section_title
;
Structure prediction by ZEFSAII (Michael W. Deem and Ramdas Pophale) SiO2 
 PCOD8128376
Probable space group: P 21/C
;
_chemical_formula_sum "Si O2"
_cell_formula_units_Z 32
_cell_length_a 5.212160
_cell_length_b 29.420946
_cell_length_c 8.679706
_cell_angle_alpha 90.000000
_cell_angle_beta 96.526095
_cell_angle_gamma 90.000000
_cell_volume 1322.379433
_symmetry_space_group_name_H-M "P 21/C"
_symmetry_group_IT_number 14
_symmetry_cell_setting 'monoclinic'
loop_
_space_group_symop_operation_xyz
x,y,z
-x,1/2+y,1/2-z
-x,-y,-z
x,1/2-y,1/2+z
loop_
_atom_site_type_symbol
_atom_site_label
_atom_site_fract_x
_atom_site_fract_y
_atom_site_fract_z
Si Si1 0.688622 0.322700 0.855214
Si Si2 0.684618 0.078678 0.213240
Si Si3 0.618275 0.601480 0.598401
Si Si4 0.031181 0.058799 0.664049
Si Si5 0.793981 0.966142 0.651597
Si Si6 0.832811 0.775345 0.753232
Si Si7 0.709346 0.144454 0.681061
Si Si8 0.911168 0.690476 0.582583
O O1 0.718247 0.371924 0.784612
O O2 0.445012 0.298797 0.761052
O O3 0.957581 0.296249 0.850032
O O4 0.624019 0.324331 0.032842
O O5 0.961251 0.054576 0.240429
O O6 0.472916 0.050409 0.293688
O O7 0.601264 0.081800 0.028482
O O8 0.813568 0.561076 0.661971
O O9 0.523840 0.616866 0.760907
O O10 0.751217 0.645161 0.528060
O O11 0.207421 0.047069 0.528282
O O12 0.914243 0.108621 0.626640
O O13 0.808877 0.020736 0.667726
O O14 0.779492 0.722865 0.702847
O O15 0.955811 0.780328 0.931402
O O16 0.816135 0.175286 0.828074
#
# Coordination Sequence:
#
# PCOD8128376 Si02
#       8
#     4   4   4   4   4   4   4   4
#     4  12  26  46  75 101 140 184 235 282 350 414
#     4  12  25  46  71 101 141 186 232 288 347 418
#     4  11  26  44  72  98 147 183 231 287 355 416
#     4  10  25  44  69 105 139 184 233 295 344 420
#     4  11  26  45  73 103 139 184 241 286 348 413
#     4  12  28  47  73 104 138 180 233 288 343 414
#     4  11  25  45  72 100 143 185 232 283 356 410
#     4  11  27  46  69 104 138 180 230 287 347 412
#
# _framework density 24.198806000000001
#
# number of rings (size 3 to 8) (size 9 to 14) (size 15 to 20)
#    0.000    0.750    2.500    3.000   12.250    2.000 
#    0.000    0.000    0.000    0.000    0.000    0.000 
#    0.000    0.000    0.000    0.000    0.000    0.000 
#
# Total GULP energy -396836.323108 kJ/mol
# GULP energy per Si atom -12401.135097 kJ/mol
# Density = 2.414373 g / cm^3
# Si number density = 24.198806 Si / 1000 Ang^3
#
#
#
# Elastic Constant Matrix: (Units=GPa)
#
#
# Indices 1 2 3 4 5 6 
#
# 1 53.6205 -4.3086 -9.9194 0.0000 6.6557 0.0000
# 2 -4.3086 68.8806 44.9034 0.0000 11.3986 0.0000
# 3 -9.9194 44.9034 66.5824 0.0000 9.1341 0.0000
# 4 0.0000 0.0000 0.0000 34.2212 0.0000 -1.8508
# 5 6.6557 11.3986 9.1341 0.0000 34.6832 0.0000
# 6 0.0000 0.0000 0.0000 -1.8508 0.0000 20.0984
#
#
#
# Elastic Compliance Matrix: (Units=1/GPa)
#
#
# Indices 1 2 3 4 5 6 
#
# 1 0.019926 -0.000593 0.004011 0.000000 -0.004685 0.000000
# 2 -0.000593 0.026489 -0.017403 0.000000 -0.004009 0.000000
# 3 0.004011 -0.017403 0.027674 0.000000 -0.002339 0.000000
# 4 0.000000 0.000000 0.000000 0.029368 0.000000 0.002704
# 5 -0.004685 -0.004009 -0.002339 0.000000 0.031665 0.000000
# 6 0.000000 0.000000 0.000000 0.002704 0.000000 0.050004
#
#
# Mechanical properties :
#
#
# Convention : Reuss Voigt Hill
#
# Bulk Modulus (GPa) = 21.68305 27.82603 24.75454
# Shear Modulus (GPa) = 21.88493 28.36110 25.12301
#
# Velocity S-wave (km/s) = 3.01055 3.42717 3.22559
# Velocity P-wave (km/s) = 4.58960 5.21388 4.91167
#
# Compressibility (1/GPa) = 0.04611897
#
# Stress axis : x y z
#
# Youngs Moduli (GPa) = 50.18691 37.75158 36.13519
#
# Poissons Ratio (x) = 0.02240 -0.14495
# Poissons Ratio (y) = 0.02978 0.62885
# Poissons Ratio (z) = -0.20132 0.65698
#
# Static dielectric constant tensor:
#      x y z
#    x 4.113970 0.000000 0.156220 
#    y 0.000000 4.559290 0.000000 
#    z 0.156220 0.000000 4.441250 
# 
# 
# High freq. dielectric constant tensor:
#      x y z
#    x 1.950050 0.000000 0.010560 
#    y 0.000000 1.968450 0.000000 
#    z 0.010560 0.000000 1.972280 
# 
# From -- ./inp_files/6991.got.cif
#   From: 2010.03.12/outbox.cif.g09.slc.cpg/sg14_4_cif.got.tgz:6991.got - 2010.03.31 13:35:05.
