data_PCOD8128715
_publ_section_title
;
Structure prediction by ZEFSAII (Michael W. Deem and Ramdas Pophale) SiO2 
 PCOD8128715
Probable space group: P 21/C
;
_chemical_formula_sum "Si O2"
_cell_formula_units_Z 28
_cell_length_a 7.917716
_cell_length_b 15.976820
_cell_length_c 18.559258
_cell_angle_alpha 90.000000
_cell_angle_beta 151.396420
_cell_angle_gamma 90.000000
_cell_volume 1123.975072
_symmetry_space_group_name_H-M "P 21/C"
_symmetry_group_IT_number 14
_symmetry_cell_setting 'monoclinic'
loop_
_space_group_symop_operation_xyz
x,y,z
-x,1/2+y,1/2-z
-x,-y,-z
x,1/2-y,1/2+z
loop_
_atom_site_type_symbol
_atom_site_label
_atom_site_fract_x
_atom_site_fract_y
_atom_site_fract_z
Si Si1 0.923040 0.234646 0.712974
Si Si2 0.487711 0.029692 0.854127
Si Si3 0.565419 0.839565 0.874449
Si Si4 0.314221 0.694593 0.510990
Si Si5 0.739140 0.447342 0.143343
Si Si6 0.330235 0.059129 0.630149
Si Si7 0.868669 0.287707 0.920972
O O1 0.766034 0.304623 0.706138
O O2 0.976752 0.280408 0.656283
O O3 0.676738 0.152464 0.610074
O O4 0.301457 0.203107 0.883402
O O5 0.751529 0.099212 0.986705
O O6 0.449726 0.057965 0.757348
O O7 0.135784 0.029037 0.770469
O O8 0.645673 0.937037 0.918247
O O9 0.444565 0.824027 0.746300
O O10 0.931868 0.795332 0.034478
O O11 0.315627 0.762883 0.574226
O O12 0.637588 0.468916 0.188728
O O13 0.500000 0.500000 0.000000
O O14 0.194972 0.150444 0.557323
O O15 0.000000 0.000000 0.500000
#
# Coordination Sequence:
#
# PCOD8128715 Si02
#       7
#     4   4   4   4   4   4   4
#     4  11  25  44  71 101 142 186 231 295 358 424
#     4  11  26  45  68 105 144 187 237 293 355 426
#     4  12  25  45  73 100 144 188 234 287 365 418
#     4  11  26  46  70 103 141 183 242 293 353 425
#     4  11  22  41  70 103 137 180 242 292 339 418
#     4  12  22  41  73 104 137 183 241 290 346 417
#     4  12  24  45  72 105 139 186 235 297 349 426
#
# _framework density 24.911586
#
# number of rings (size 3 to 8) (size 9 to 14) (size 15 to 20)
#    0.000    0.571    4.286    4.286    2.000    1.143 
#    2.571    0.000    0.000    0.000    0.000    0.000 
#    0.000    0.000    0.000    0.000    0.000    0.000 
#
# Total GULP energy -347116.120540 kJ/mol
# GULP energy per Si atom -12397.004305 kJ/mol
# Density = 2.485489 g / cm^3
# Si number density = 24.911586 Si / 1000 Ang^3
#
#
#
# Elastic Constant Matrix: (Units=GPa)
#
#
# Indices 1 2 3 4 5 6 
#
# 1 126.4932 4.9674 -12.7801 0.0000 -0.6626 0.0000
# 2 4.9674 116.4897 9.2433 0.0000 -17.9009 0.0000
# 3 -12.7801 9.2433 20.2682 0.0000 4.7010 0.0000
# 4 0.0000 0.0000 0.0000 29.2990 0.0000 -1.0068
# 5 -0.6626 -17.9009 4.7010 0.0000 16.5902 0.0000
# 6 0.0000 0.0000 0.0000 -1.0068 0.0000 38.7729
#
#
#
# Elastic Compliance Matrix: (Units=1/GPa)
#
#
# Indices 1 2 3 4 5 6 
#
# 1 0.008628 -0.001376 0.006778 0.000000 -0.003061 0.000000
# 2 -0.001376 0.011800 -0.009836 0.000000 0.015464 0.000000
# 3 0.006778 -0.009836 0.064752 0.000000 -0.028691 0.000000
# 4 0.000000 0.000000 0.000000 0.034161 0.000000 0.000887
# 5 -0.003061 0.015464 -0.028691 0.000000 0.084970 0.000000
# 6 0.000000 0.000000 0.000000 0.000887 0.000000 0.025814
#
#
# Mechanical properties :
#
#
# Convention : Reuss Voigt Hill
#
# Bulk Modulus (GPa) = 13.10391 29.56802 21.33597
# Shear Modulus (GPa) = 18.90843 34.38712 26.64777
#
# Velocity S-wave (km/s) = 2.75802 3.71936 3.27417
# Velocity P-wave (km/s) = 3.92605 5.50816 4.78297
#
# Compressibility (1/GPa) = 0.07631310
#
# Stress axis : x y z
#
# Youngs Moduli (GPa) = 115.89642 84.74567 15.44343
#
# Poissons Ratio (x) = 0.11662 -0.10468
# Poissons Ratio (y) = 0.15949 0.15190
# Poissons Ratio (z) = -0.78556 0.83355
#
# Static dielectric constant tensor:
#      x y z
#    x 4.777110 0.000000 -0.014870 
#    y 0.000000 4.707540 0.000000 
#    z -0.014870 0.000000 4.139500 
# 
# 
# High freq. dielectric constant tensor:
#      x y z
#    x 2.011170 0.000000 0.005740 
#    y 0.000000 2.005020 0.000000 
#    z 0.005740 0.000000 1.968950 
# 
# From -- ./inp_files/65946.got.cif
#   From: 2010.03.12/outbox.cif.g09.slc.cpg/sg14_33_cif.got.tgz:65946.got - 2010.03.31 13:35:05.
