data_PCOD8128814
_publ_section_title
;
Structure prediction by ZEFSAII (Michael W. Deem and Ramdas Pophale) SiO2 
 PCOD8128814
Probable space group: P 21/C
;
_chemical_formula_sum "Si O2"
_cell_formula_units_Z 28
_cell_length_a 27.133246
_cell_length_b 5.115453
_cell_length_c 8.918457
_cell_angle_alpha 90.000000
_cell_angle_beta 82.219824
_cell_angle_gamma 90.000000
_cell_volume 1226.476596
_symmetry_space_group_name_H-M "P 21/C"
_symmetry_group_IT_number 14
_symmetry_cell_setting 'monoclinic'
loop_
_space_group_symop_operation_xyz
x,y,z
-x,1/2+y,1/2-z
-x,-y,-z
x,1/2-y,1/2+z
loop_
_atom_site_type_symbol
_atom_site_label
_atom_site_fract_x
_atom_site_fract_y
_atom_site_fract_z
Si Si1 0.181543 0.935715 0.313675
Si Si2 0.976393 0.781510 0.908667
Si Si3 0.632866 0.020563 0.093124
Si Si4 0.217063 0.447016 0.130242
Si Si5 0.481371 0.986884 0.839237
Si Si6 0.669162 0.970143 0.411949
Si Si7 0.070117 0.539775 0.816471
O O1 0.214933 0.697444 0.240910
O O2 0.191645 0.987404 0.483259
O O3 0.190733 0.198036 0.215544
O O4 0.124509 0.839534 0.318045
O O5 0.928523 0.838892 0.822297
O O6 0.024554 0.725911 0.781219
O O7 0.951385 0.555481 0.016578
O O8 0.000000 0.000000 0.000000
O O9 0.575923 0.097406 0.144380
O O10 0.660651 0.984718 0.238457
O O11 0.659013 0.249942 0.989649
O O12 0.634263 0.751812 0.998549
O O13 0.274605 0.381412 0.079241
O O14 0.512760 0.769321 0.738733
O O15 0.500000 0.000000 0.000000
#
# Coordination Sequence:
#
# PCOD8128814 Si02
#       7
#     4   4   4   4   4   4   4
#     4  12  27  44  72  96 137 168 222 260 347 385
#     4  11  23  40  61  88 121 155 204 245 307 354
#     4  12  24  42  69  99 130 183 221 277 328 394
#     4  12  26  47  68 102 130 177 212 286 325 397
#     4  12  24  42  64  97 140 177 224 274 331 391
#     4  12  24  44  69  96 134 168 233 271 334 388
#     4  11  25  40  65  90 122 164 202 259 301 395
#
# _framework density 22.829623000000002
#
# number of rings (size 3 to 8) (size 9 to 14) (size 15 to 20)
#    0.000    0.286    1.429    8.143    4.000    0.000 
#    0.000    0.000    0.000    0.000    0.000    0.000 
#    0.000    0.000    0.000    0.000    0.000    0.000 
#
# Total GULP energy -347153.338529 kJ/mol
# GULP energy per Si atom -12398.333519 kJ/mol
# Density = 2.277766 g / cm^3
# Si number density = 22.829623 Si / 1000 Ang^3
#
#
#
# Elastic Constant Matrix: (Units=GPa)
#
#
# Indices 1 2 3 4 5 6 
#
# 1 112.5907 -2.7234 8.5836 0.0000 0.5078 0.0000
# 2 -2.7234 102.2598 37.2171 0.0000 -3.5160 0.0000
# 3 8.5836 37.2171 108.2352 0.0000 7.6151 0.0000
# 4 0.0000 0.0000 0.0000 40.2213 0.0000 -3.4751
# 5 0.5078 -3.5160 7.6151 0.0000 33.8548 0.0000
# 6 0.0000 0.0000 0.0000 -3.4751 0.0000 31.5489
#
#
#
# Elastic Compliance Matrix: (Units=1/GPa)
#
#
# Indices 1 2 3 4 5 6 
#
# 1 0.008965 0.000578 -0.000919 0.000000 0.000132 0.000000
# 2 0.000578 0.011358 -0.004099 0.000000 0.002093 0.000000
# 3 -0.000919 -0.004099 0.010923 0.000000 -0.002869 0.000000
# 4 0.000000 0.000000 0.000000 0.025101 0.000000 0.002765
# 5 0.000132 0.002093 -0.002869 0.000000 0.030399 0.000000
# 6 0.000000 0.000000 0.000000 0.002765 0.000000 0.032001
#
#
# Mechanical properties :
#
#
# Convention : Reuss Voigt Hill
#
# Bulk Modulus (GPa) = 44.70907 45.47116 45.09012
# Shear Modulus (GPa) = 37.01434 39.79222 38.40328
#
# Velocity S-wave (km/s) = 4.03094 4.17946 4.10587
# Velocity P-wave (km/s) = 6.42580 6.57658 6.50163
#
# Compressibility (1/GPa) = 0.02236683
#
# Stress axis : x y z
#
# Youngs Moduli (GPa) = 111.54289 88.04357 91.54856
#
# Poissons Ratio (x) = -0.05087 0.08413
# Poissons Ratio (y) = -0.06444 0.37522
# Poissons Ratio (z) = 0.10250 0.36085
#
# Static dielectric constant tensor:
#      x y z
#    x 4.384550 0.000000 0.035900 
#    y 0.000000 7.702810 0.000000 
#    z 0.035900 0.000000 3.990830 
# 
# 
# High freq. dielectric constant tensor:
#      x y z
#    x 1.910700 0.000000 0.004940 
#    y 0.000000 1.906450 0.000000 
#    z 0.004940 0.000000 1.925040 
# 
# From -- ./inp_files/19593.got.cif
#   From: 2010.03.12/outbox.cif.g09.slc.cpg/sg14_10_cif.got.tgz:19593.got - 2010.03.31 13:35:05.
