data_PCOD8128995
_publ_section_title
;
Structure prediction by ZEFSAII (Michael W. Deem and Ramdas Pophale) SiO2 
 PCOD8128995
Probable space group: P 21/C
;
_chemical_formula_sum "Si O2"
_cell_formula_units_Z 24
_cell_length_a 22.406386
_cell_length_b 10.451459
_cell_length_c 15.383564
_cell_angle_alpha 90.000000
_cell_angle_beta 162.691016
_cell_angle_gamma 90.000000
_cell_volume 1071.836504
_symmetry_space_group_name_H-M "P 21/C"
_symmetry_group_IT_number 14
_symmetry_cell_setting 'monoclinic'
loop_
_space_group_symop_operation_xyz
x,y,z
-x,1/2+y,1/2-z
-x,-y,-z
x,1/2-y,1/2+z
loop_
_atom_site_type_symbol
_atom_site_label
_atom_site_fract_x
_atom_site_fract_y
_atom_site_fract_z
Si Si1 0.794636 0.749721 0.860392
Si Si2 0.708994 0.826557 0.558113
Si Si3 0.577334 0.137932 0.583383
Si Si4 0.551288 0.572711 0.276523
Si Si5 0.995168 0.994112 0.391354
Si Si6 0.011419 0.744976 0.332347
O O1 0.829907 0.828540 0.819031
O O2 0.558864 0.756114 0.557036
O O3 0.875022 0.606212 0.968554
O O4 0.916335 0.805212 0.112178
O O5 0.587275 0.690157 0.394643
O O6 0.850464 0.826537 0.670361
O O7 0.575420 0.954070 0.361538
O O8 0.564592 0.146140 0.461637
O O9 0.500000 0.000000 0.500000
O O10 0.805448 0.150408 0.933148
O O11 0.762339 0.512426 0.537166
O O12 0.104885 0.864534 0.514289
O O13 0.000000 0.000000 0.500000
#
# Coordination Sequence:
#
# PCOD8128995 Si02
#       6
#     4   4   4   4   4   4
#     4  12  24  46  73 106 141 192 243 292 378 427
#     4  11  25  47  72 108 144 198 242 301 371 436
#     4  12  25  48  71 102 147 186 240 303 358 430
#     4  11  24  46  73 105 149 186 241 304 361 433
#     4  11  23  46  72 104 148 187 239 303 361 433
#     4  11  27  47  72 106 146 189 242 304 359 445
#
# _framework density 22.391475
#
# number of rings (size 3 to 8) (size 9 to 14) (size 15 to 20)
#    0.000    0.667    8.333    1.000    2.333    1.333 
#    6.000    0.000    0.000    0.000    0.000    0.000 
#    0.000    0.000    0.000    0.000    0.000    0.000 
#
# Total GULP energy -297417.058662 kJ/mol
# GULP energy per Si atom -12392.377444 kJ/mol
# Density = 2.234051 g / cm^3
# Si number density = 22.391475 Si / 1000 Ang^3
#
#
#
# Elastic Constant Matrix: (Units=GPa)
#
#
# Indices 1 2 3 4 5 6 
#
# 1 107.0937 29.3232 39.5415 0.0000 -15.4745 0.0000
# 2 29.3232 105.7689 35.8203 0.0000 23.1436 0.0000
# 3 39.5415 35.8203 112.6020 0.0000 4.0689 0.0000
# 4 0.0000 0.0000 0.0000 41.1858 0.0000 9.7849
# 5 -15.4745 23.1436 4.0689 0.0000 36.8614 0.0000
# 6 0.0000 0.0000 0.0000 9.7849 0.0000 43.6208
#
#
#
# Elastic Compliance Matrix: (Units=1/GPa)
#
#
# Indices 1 2 3 4 5 6 
#
# 1 0.013055 -0.004300 -0.003526 0.000000 0.008570 0.000000
# 2 -0.004300 0.013706 -0.002484 0.000000 -0.010137 0.000000
# 3 -0.003526 -0.002484 0.010950 0.000000 -0.001130 0.000000
# 4 0.000000 0.000000 0.000000 0.025647 0.000000 -0.005753
# 5 0.008570 -0.010137 -0.001130 0.000000 0.037215 0.000000
# 6 0.000000 0.000000 0.000000 -0.005753 0.000000 0.024215
#
#
# Mechanical properties :
#
#
# Convention : Reuss Voigt Hill
#
# Bulk Modulus (GPa) = 58.51105 59.42606 58.96856
# Shear Modulus (GPa) = 33.08924 39.05223 36.07074
#
# Velocity S-wave (km/s) = 3.84834 4.18073 4.01797
# Velocity P-wave (km/s) = 6.77746 7.06413 6.92228
#
# Compressibility (1/GPa) = 0.01709079
#
# Stress axis : x y z
#
# Youngs Moduli (GPa) = 76.59667 72.96098 91.32433
#
# Poissons Ratio (x) = 0.31377 0.32203
# Poissons Ratio (y) = 0.32940 0.22681
# Poissons Ratio (z) = 0.27009 0.18121
#
# Static dielectric constant tensor:
#      x y z
#    x 4.637290 0.000000 -0.344670 
#    y 0.000000 3.713390 0.000000 
#    z -0.344670 0.000000 4.541110 
# 
# 
# High freq. dielectric constant tensor:
#      x y z
#    x 1.891860 0.000000 -0.016990 
#    y 0.000000 1.878490 0.000000 
#    z -0.016990 0.000000 1.875580 
# 
# From -- ./inp_files/50461.got.cif
#   From: 2010.03.12/outbox.cif.g09.slc.cpg/sg14_26_cif.got.tgz:50461.got - 2010.03.31 13:35:05.
