data_PCOD8128348
_publ_section_title
;
Structure prediction by ZEFSAII (Michael W. Deem and Ramdas Pophale) SiO2 
 PCOD8128348
Probable space group: P 21/C
;
_chemical_formula_sum "Si O2"
_cell_formula_units_Z 32
_cell_length_a 14.396485
_cell_length_b 8.800714
_cell_length_c 23.715247
_cell_angle_alpha 90.000000
_cell_angle_beta 150.769990
_cell_angle_gamma 90.000000
_cell_volume 1467.248587
_symmetry_space_group_name_H-M "P 21/C"
_symmetry_group_IT_number 14
_symmetry_cell_setting 'monoclinic'
loop_
_space_group_symop_operation_xyz
x,y,z
-x,1/2+y,1/2-z
-x,-y,-z
x,1/2-y,1/2+z
loop_
_atom_site_type_symbol
_atom_site_label
_atom_site_fract_x
_atom_site_fract_y
_atom_site_fract_z
Si Si1 0.930798 0.944300 0.767638
Si Si2 0.237177 0.649372 0.735003
Si Si3 0.057271 0.207950 0.492932
Si Si4 0.263852 0.912946 0.595888
Si Si5 0.684457 0.957503 0.830420
Si Si6 0.777259 0.622789 0.649617
Si Si7 0.747331 0.126628 0.973733
Si Si8 0.541333 0.438854 0.609100
O O1 0.827543 0.797114 0.688260
O O2 0.039467 0.031751 0.775438
O O3 0.070802 0.895250 0.891468
O O4 0.776704 0.059817 0.712990
O O5 0.325526 0.538641 0.735060
O O6 0.370779 0.795541 0.812201
O O7 0.022674 0.696665 0.602532
O O8 0.189253 0.305326 0.605165
O O9 0.876653 0.147102 0.430697
O O10 0.188233 0.076359 0.535770
O O11 0.469379 0.919968 0.734352
O O12 0.279260 0.807493 0.548441
O O13 0.782789 0.063339 0.929529
O O14 0.709155 0.536646 0.669708
O O15 0.607789 0.624379 0.514986
O O16 0.560368 0.050379 0.900683
#
# Coordination Sequence:
#
# PCOD8128348 Si02
#       8
#     4   4   4   4   4   4   4   4
#     4  11  24  44  74  94 135 175 232 288 360 402
#     4  12  24  41  70 105 137 194 220 285 345 426
#     4  11  24  43  63  97 144 189 238 279 328 409
#     4  11  25  40  66  97 140 196 234 276 332 413
#     4  12  24  44  65 101 157 183 227 281 340 417
#     4  10  24  49  69  99 129 174 229 313 345 409
#     4  11  23  43  65 102 134 186 221 280 346 411
#     4  10  25  45  72  96 138 174 235 289 357 403
#
# _framework density 21.809529000000001
#
# number of rings (size 3 to 8) (size 9 to 14) (size 15 to 20)
#    0.000    1.000    2.500    3.375    5.250    1.500 
#    2.250    0.000    0.000    0.000    0.000    0.000 
#    0.000    0.000    0.000    0.000    0.000    0.000 
#
# Total GULP energy -396918.976548 kJ/mol
# GULP energy per Si atom -12403.718017 kJ/mol
# Density = 2.175989 g / cm^3
# Si number density = 21.809529 Si / 1000 Ang^3
#
#
#
# Elastic Constant Matrix: (Units=GPa)
#
#
# Indices 1 2 3 4 5 6 
#
# 1 94.0678 56.6394 20.3852 0.0000 9.6050 0.0000
# 2 56.6394 157.3903 49.3318 0.0000 10.2262 0.0000
# 3 20.3852 49.3318 74.9037 0.0000 18.6389 0.0000
# 4 0.0000 0.0000 0.0000 45.9468 0.0000 2.5348
# 5 9.6050 10.2262 18.6389 0.0000 27.9323 0.0000
# 6 0.0000 0.0000 0.0000 2.5348 0.0000 38.3691
#
#
#
# Elastic Compliance Matrix: (Units=1/GPa)
#
#
# Indices 1 2 3 4 5 6 
#
# 1 0.013815 -0.004831 0.000196 0.000000 -0.003113 0.000000
# 2 -0.004831 0.009707 -0.005525 0.000000 0.001794 0.000000
# 3 0.000196 -0.005525 0.019724 0.000000 -0.011207 0.000000
# 4 0.000000 0.000000 0.000000 0.021844 0.000000 -0.001443
# 5 -0.003113 0.001794 -0.011207 0.000000 0.043693 0.000000
# 6 0.000000 0.000000 0.000000 -0.001443 0.000000 0.026158
#
#
# Mechanical properties :
#
#
# Convention : Reuss Voigt Hill
#
# Bulk Modulus (GPa) = 43.61511 64.34162 53.97836
# Shear Modulus (GPa) = 30.69341 35.78333 33.23837
#
# Velocity S-wave (km/s) = 3.75552 4.05497 3.90812
# Velocity P-wave (km/s) = 6.23273 7.17561 6.72072
#
# Compressibility (1/GPa) = 0.02292784
#
# Stress axis : x y z
#
# Youngs Moduli (GPa) = 72.38755 103.01656 50.69872
#
# Poissons Ratio (x) = 0.49764 -0.00996
# Poissons Ratio (y) = 0.34968 0.28010
# Poissons Ratio (z) = -0.01422 0.56915
#
# Static dielectric constant tensor:
#      x y z
#    x 3.895270 0.000000 0.092900 
#    y 0.000000 4.240800 0.000000 
#    z 0.092900 0.000000 3.854340 
# 
# 
# High freq. dielectric constant tensor:
#      x y z
#    x 1.855360 0.000000 0.010420 
#    y 0.000000 1.873720 0.000000 
#    z 0.010420 0.000000 1.853410 
# 
# From -- ./inp_files/73771.got.cif
#   From: 2010.03.12/outbox.cif.g09.slc.cpg/sg14_37_cif.got.tgz:73771.got - 2010.03.31 13:35:05.
