data_PCOD8128796
_publ_section_title
;
Structure prediction by ZEFSAII (Michael W. Deem and Ramdas Pophale) SiO2 
 PCOD8128796
Probable space group: P 21/C
;
_chemical_formula_sum "Si O2"
_cell_formula_units_Z 20
_cell_length_a 5.458737
_cell_length_b 8.940171
_cell_length_c 18.575656
_cell_angle_alpha 90.000000
_cell_angle_beta 103.902094
_cell_angle_gamma 90.000000
_cell_volume 879.975602
_symmetry_space_group_name_H-M "P 21/C"
_symmetry_group_IT_number 14
_symmetry_cell_setting 'monoclinic'
loop_
_space_group_symop_operation_xyz
x,y,z
-x,1/2+y,1/2-z
-x,-y,-z
x,1/2-y,1/2+z
loop_
_atom_site_type_symbol
_atom_site_label
_atom_site_fract_x
_atom_site_fract_y
_atom_site_fract_z
Si Si1 0.546261 0.173592 0.007455
Si Si2 0.904534 0.276704 0.151879
Si Si3 0.615124 0.160812 0.378189
Si Si4 0.068138 0.387241 0.799881
Si Si5 0.796309 0.885544 0.454792
O O1 0.654685 0.220588 0.092979
O O2 0.290658 0.274659 0.987255
O O3 0.701850 0.223067 0.947566
O O4 0.500000 0.000000 0.000000
O O5 0.880880 0.435713 0.190460
O O6 0.978237 0.147837 0.212985
O O7 0.112757 0.283757 0.104449
O O8 0.335360 0.201610 0.328653
O O9 0.841798 0.166166 0.336425
O O10 0.577332 0.994905 0.409291
O O11 0.000000 0.000000 0.500000
#
# Coordination Sequence:
#
# PCOD8128796 Si02
#       5
#     4   4   4   4   4
#     4  12  26  43  74 110 146 187 255 318 361 441
#     4  11  26  46  70 107 147 194 245 306 375 445
#     4  11  24  47  71 102 143 201 240 295 375 449
#     4  11  27  44  73 102 149 192 244 300 377 449
#     4  11  22  47  77 102 143 198 248 304 375 452
#
# _framework density 22.727903999999999
#
# number of rings (size 3 to 8) (size 9 to 14) (size 15 to 20)
#    0.000    0.800    4.000    3.000    5.600    2.400 
#    0.000    0.000    0.000    0.000    0.000    0.000 
#    0.000    0.000    0.000    0.000    0.000    0.000 
#
# Total GULP energy -247854.817216 kJ/mol
# GULP energy per Si atom -12392.740861 kJ/mol
# Density = 2.267617 g / cm^3
# Si number density = 22.727904 Si / 1000 Ang^3
#
#
#
# Elastic Constant Matrix: (Units=GPa)
#
#
# Indices 1 2 3 4 5 6 
#
# 1 122.3160 57.6720 44.2298 0.0000 4.4663 0.0000
# 2 57.6720 134.0717 66.2247 0.0000 -16.5017 0.0000
# 3 44.2298 66.2247 138.7704 0.0000 7.1830 0.0000
# 4 0.0000 0.0000 0.0000 50.7475 0.0000 -0.0701
# 5 4.4663 -16.5017 7.1830 0.0000 28.6743 0.0000
# 6 0.0000 0.0000 0.0000 -0.0701 0.0000 24.1830
#
#
#
# Elastic Compliance Matrix: (Units=1/GPa)
#
#
# Indices 1 2 3 4 5 6 
#
# 1 0.010912 -0.004701 -0.001020 0.000000 -0.004150 0.000000
# 2 -0.004701 0.013333 -0.005369 0.000000 0.009750 0.000000
# 3 -0.001020 -0.005369 0.010380 0.000000 -0.005531 0.000000
# 4 0.000000 0.000000 0.000000 0.019705 0.000000 0.000057
# 5 -0.004150 0.009750 -0.005531 0.000000 0.042517 0.000000
# 6 0.000000 0.000000 0.000000 0.000057 0.000000 0.041352
#
#
# Mechanical properties :
#
#
# Convention : Reuss Voigt Hill
#
# Bulk Modulus (GPa) = 80.35280 81.26789 80.81034
# Shear Modulus (GPa) = 30.38992 35.85641 33.12316
#
# Velocity S-wave (km/s) = 3.66063 3.97626 3.82170
# Velocity P-wave (km/s) = 7.30055 7.54423 7.42339
#
# Compressibility (1/GPa) = 0.01244512
#
# Stress axis : x y z
#
# Youngs Moduli (GPa) = 91.63907 75.00149 96.34084
#
# Poissons Ratio (x) = 0.35259 0.09825
# Poissons Ratio (y) = 0.43080 0.51727
# Poissons Ratio (z) = 0.09346 0.40270
#
# Static dielectric constant tensor:
#      x y z
#    x 4.207500 0.000000 -0.040210 
#    y 0.000000 3.946640 0.000000 
#    z -0.040210 0.000000 4.446000 
# 
# 
# High freq. dielectric constant tensor:
#      x y z
#    x 1.904460 0.000000 0.001780 
#    y 0.000000 1.880100 0.000000 
#    z 0.001780 0.000000 1.903180 
# 
# From -- ./inp_files/52653.got.cif
#   From: 2010.03.12/outbox.cif.g09.slc.cpg/sg14_27_cif.got.tgz:52653.got - 2010.03.31 13:35:05.
