data_PCOD8128585
_publ_section_title
;
Structure prediction by ZEFSAII (Michael W. Deem and Ramdas Pophale) SiO2 
 PCOD8128585
Probable space group: P 21/C
;
_chemical_formula_sum "Si O2"
_cell_formula_units_Z 28
_cell_length_a 26.088576
_cell_length_b 5.267569
_cell_length_c 18.002173
_cell_angle_alpha 90.000000
_cell_angle_beta 150.642132
_cell_angle_gamma 90.000000
_cell_volume 1212.871078
_symmetry_space_group_name_H-M "P 21/C"
_symmetry_group_IT_number 14
_symmetry_cell_setting 'monoclinic'
loop_
_space_group_symop_operation_xyz
x,y,z
-x,1/2+y,1/2-z
-x,-y,-z
x,1/2-y,1/2+z
loop_
_atom_site_type_symbol
_atom_site_label
_atom_site_fract_x
_atom_site_fract_y
_atom_site_fract_z
Si Si1 0.312941 0.051625 0.891796
Si Si2 0.238623 0.856284 0.646052
Si Si3 0.797155 0.777578 0.616837
Si Si4 0.991091 0.289047 0.192173
Si Si5 0.678055 0.639964 0.324333
Si Si6 0.489364 0.393554 0.129311
Si Si7 0.360461 0.672064 0.076621
O O1 0.264788 0.886024 0.765734
O O2 0.220386 0.192719 0.819921
O O3 0.370841 0.876942 0.024729
O O4 0.402986 0.241696 0.971369
O O5 0.114123 0.870987 0.481619
O O6 0.278646 0.579813 0.674056
O O7 0.289175 0.085293 0.663719
O O8 0.728009 0.607724 0.471047
O O9 0.919512 0.764338 0.755475
O O10 0.757947 0.070419 0.560153
O O11 0.028348 0.526575 0.288786
O O12 0.549042 0.625414 0.162349
O O13 0.431096 0.442667 0.133748
O O14 0.593487 0.234936 0.284241
#
# Coordination Sequence:
#
# PCOD8128585 Si02
#       7
#     4   4   4   4   4   4   4
#     4  11  27  43  69 107 151 184 239 308 358 428
#     4  12  28  48  68 110 149 182 239 311 370 414
#     4  11  24  43  76 102 134 192 250 294 352 441
#     4  12  25  48  77 104 138 190 244 305 363 438
#     4  12  25  45  74 100 146 193 243 289 354 439
#     4  11  22  40  71 100 142 198 239 288 345 440
#     4  11  21  41  68 105 138 187 247 293 350 429
#
# _framework density 23.085716999999999
#
# number of rings (size 3 to 8) (size 9 to 14) (size 15 to 20)
#    0.000    0.571    5.714    1.714    8.000    1.714 
#    0.000    0.714    0.000    0.000    0.000    0.000 
#    0.000    0.000    0.000    0.000    0.000    0.000 
#
# Total GULP energy -347047.569430 kJ/mol
# GULP energy per Si atom -12394.556051 kJ/mol
# Density = 2.303317 g / cm^3
# Si number density = 23.085717 Si / 1000 Ang^3
#
#
#
# Elastic Constant Matrix: (Units=GPa)
#
#
# Indices 1 2 3 4 5 6 
#
# 1 92.6915 21.6737 34.6055 0.0000 25.0657 0.0000
# 2 21.6737 86.9759 12.1107 0.0000 14.8863 0.0000
# 3 34.6055 12.1107 72.1245 0.0000 23.0990 0.0000
# 4 0.0000 0.0000 0.0000 26.1641 0.0000 8.4083
# 5 25.0657 14.8863 23.0990 0.0000 46.3041 0.0000
# 6 0.0000 0.0000 0.0000 8.4083 0.0000 34.7329
#
#
#
# Elastic Compliance Matrix: (Units=1/GPa)
#
#
# Indices 1 2 3 4 5 6 
#
# 1 0.014424 -0.002099 -0.005098 0.000000 -0.004590 0.000000
# 2 -0.002099 0.012526 -0.000203 0.000000 -0.002790 0.000000
# 3 -0.005098 -0.000203 0.018376 0.000000 -0.006342 0.000000
# 4 0.000000 0.000000 0.000000 0.041445 0.000000 -0.010033
# 5 -0.004590 -0.002790 -0.006342 0.000000 0.028142 0.000000
# 6 0.000000 0.000000 0.000000 -0.010033 0.000000 0.031220
#
#
# Mechanical properties :
#
#
# Convention : Reuss Voigt Hill
#
# Bulk Modulus (GPa) = 32.75833 43.17462 37.96648
# Shear Modulus (GPa) = 29.22137 33.66703 31.44420
#
# Velocity S-wave (km/s) = 3.56164 3.82298 3.69462
# Velocity P-wave (km/s) = 5.57982 6.18299 5.88913
#
# Compressibility (1/GPa) = 0.03052658
#
# Stress axis : x y z
#
# Youngs Moduli (GPa) = 69.32976 79.83298 54.41813
#
# Poissons Ratio (x) = 0.16755 0.27743
# Poissons Ratio (y) = 0.14551 0.01104
# Poissons Ratio (z) = 0.35345 0.01620
#
# Static dielectric constant tensor:
#      x y z
#    x 4.214290 0.000000 0.176270 
#    y 0.000000 4.375770 0.000000 
#    z 0.176270 0.000000 3.952090 
# 
# 
# High freq. dielectric constant tensor:
#      x y z
#    x 1.914520 0.000000 0.018860 
#    y 0.000000 1.928090 0.000000 
#    z 0.018860 0.000000 1.886670 
# 
# From -- ./inp_files/62157.got.cif
#   From: 2010.03.12/outbox.cif.g09.slc.cpg/sg14_32_cif.got.tgz:62157.got - 2010.03.31 13:35:05.
