data_PCOD8128306
_publ_section_title
;
Structure prediction by ZEFSAII (Michael W. Deem and Ramdas Pophale) SiO2 
 PCOD8128306
Probable space group: P 21/C
;
_chemical_formula_sum "Si O2"
_cell_formula_units_Z 20
_cell_length_a 4.966145
_cell_length_b 10.769255
_cell_length_c 16.155400
_cell_angle_alpha 90.000000
_cell_angle_beta 72.935105
_cell_angle_gamma 90.000000
_cell_volume 825.977839
_symmetry_space_group_name_H-M "P 21/C"
_symmetry_group_IT_number 14
_symmetry_cell_setting 'monoclinic'
loop_
_space_group_symop_operation_xyz
x,y,z
-x,1/2+y,1/2-z
-x,-y,-z
x,1/2-y,1/2+z
loop_
_atom_site_type_symbol
_atom_site_label
_atom_site_fract_x
_atom_site_fract_y
_atom_site_fract_z
Si Si1 0.878086 0.083838 0.631856
Si Si2 0.384483 0.841449 0.860664
Si Si3 0.068921 0.016798 0.195297
Si Si4 0.291097 0.353707 0.952479
Si Si5 0.807290 0.308018 0.441936
O O1 0.671028 0.200672 0.662206
O O2 0.150226 0.123331 0.554411
O O3 0.990939 0.036280 0.708973
O O4 0.697689 0.979271 0.601052
O O5 0.716619 0.866833 0.821496
O O6 0.225554 0.937480 0.814908
O O7 0.284823 0.868700 0.963107
O O8 0.210834 0.911159 0.126415
O O9 0.608443 0.308694 0.937799
O O10 0.121562 0.246554 0.919121
#
# Coordination Sequence:
#
# PCOD8128306 Si02
#       5
#     4   4   4   4   4
#     4  10  26  44  68 100 134 177 225 274 326 394
#     4  11  25  44  65  99 136 175 218 278 330 393
#     4  12  26  40  72  97 138 170 227 273 332 389
#     4  10  24  45  71  96 136 177 219 270 335 396
#     4  11  23  45  71  99 133 177 217 270 339 398
#
# _framework density 24.213723999999999
#
# number of rings (size 3 to 8) (size 9 to 14) (size 15 to 20)
#    0.000    1.200    0.000    4.800    5.600   13.600 
#    0.000    0.000    0.000    0.000    0.000    0.000 
#    0.000    0.000    0.000    0.000    0.000    0.000 
#
# Total GULP energy -248203.335235 kJ/mol
# GULP energy per Si atom -12410.166762 kJ/mol
# Density = 2.415861 g / cm^3
# Si number density = 24.213724 Si / 1000 Ang^3
#
#
#
# Elastic Constant Matrix: (Units=GPa)
#
#
# Indices 1 2 3 4 5 6 
#
# 1 66.1861 9.4567 20.1578 0.0000 17.3159 0.0000
# 2 9.4567 102.5687 50.8060 0.0000 14.4571 0.0000
# 3 20.1578 50.8060 104.9373 0.0000 26.8316 0.0000
# 4 0.0000 0.0000 0.0000 27.6794 0.0000 12.6289
# 5 17.3159 14.4571 26.8316 0.0000 22.4495 0.0000
# 6 0.0000 0.0000 0.0000 12.6289 0.0000 26.0491
#
#
#
# Elastic Compliance Matrix: (Units=1/GPa)
#
#
# Indices 1 2 3 4 5 6 
#
# 1 0.018940 0.000352 -0.000022 0.000000 -0.014809 0.000000
# 2 0.000352 0.012855 -0.005912 0.000000 -0.001484 0.000000
# 3 -0.000022 -0.005912 0.016443 0.000000 -0.015829 0.000000
# 4 0.000000 0.000000 0.000000 0.046389 0.000000 -0.022490
# 5 -0.014809 -0.001484 -0.015829 0.000000 0.075841 0.000000
# 6 0.000000 0.000000 0.000000 -0.022490 0.000000 0.049292
#
#
# Mechanical properties :
#
#
# Convention : Reuss Voigt Hill
#
# Bulk Modulus (GPa) = 26.97317 48.28147 37.62732
# Shear Modulus (GPa) = 20.55227 28.12037 24.33632
#
# Velocity S-wave (km/s) = 2.91655 3.41154 3.17371
# Velocity P-wave (km/s) = 4.74400 5.95828 5.38547
#
# Compressibility (1/GPa) = 0.03707387
#
# Stress axis : x y z
#
# Youngs Moduli (GPa) = 52.79908 77.79312 60.81500
#
# Poissons Ratio (x) = -0.02739 0.00135
# Poissons Ratio (y) = -0.01859 0.35953
# Poissons Ratio (z) = 0.00117 0.45990
#
# Static dielectric constant tensor:
#      x y z
#    x 4.126040 0.000000 0.217740 
#    y 0.000000 4.403780 0.000000 
#    z 0.217740 0.000000 4.405970 
# 
# 
# High freq. dielectric constant tensor:
#      x y z
#    x 1.960380 0.000000 0.015800 
#    y 0.000000 1.972350 0.000000 
#    z 0.015800 0.000000 1.963450 
# 
# From -- ./inp_files/36955.got.cif
#   From: 2010.03.12/outbox.cif.g09.slc.cpg/sg14_19_cif.got.tgz:36955.got - 2010.03.31 13:35:05.
