data_PCOD8128180
_publ_section_title
;
Structure prediction by ZEFSAII (Michael W. Deem and Ramdas Pophale) SiO2 
 PCOD8128180
Probable space group: P 21/C
;
_chemical_formula_sum "Si O2"
_cell_formula_units_Z 28
_cell_length_a 29.157295
_cell_length_b 5.135665
_cell_length_c 8.868335
_cell_angle_alpha 90.000000
_cell_angle_beta 114.090753
_cell_angle_gamma 90.000000
_cell_volume 1212.297603
_symmetry_space_group_name_H-M "P 21/C"
_symmetry_group_IT_number 14
_symmetry_cell_setting 'monoclinic'
loop_
_space_group_symop_operation_xyz
x,y,z
-x,1/2+y,1/2-z
-x,-y,-z
x,1/2-y,1/2+z
loop_
_atom_site_type_symbol
_atom_site_label
_atom_site_fract_x
_atom_site_fract_y
_atom_site_fract_z
Si Si1 0.633677 0.941360 0.529674
Si Si2 0.330769 0.930512 0.755224
Si Si3 0.174127 0.254158 0.318653
Si Si4 0.781987 0.437329 0.885254
Si Si5 0.869737 0.063760 0.001926
Si Si6 0.017214 0.912983 0.857659
Si Si7 0.481520 0.453863 0.143069
O O1 0.661983 0.693743 0.638971
O O2 0.575997 0.862069 0.430475
O O3 0.634942 0.193477 0.640361
O O4 0.658236 0.012928 0.403697
O O5 0.273878 0.822629 0.699490
O O6 0.201028 0.471974 0.256195
O O7 0.128264 0.348082 0.363711
O O8 0.219170 0.160120 0.488581
O O9 0.147894 0.036710 0.183238
O O10 0.825851 0.250151 0.003966
O O11 0.924907 0.184891 0.058687
O O12 0.986823 0.661650 0.758919
O O13 0.000000 0.000000 0.000000
O O14 0.486307 0.719944 0.243126
O O15 0.500000 0.500000 0.000000
#
# Coordination Sequence:
#
# PCOD8128180 Si02
#       7
#     4   4   4   4   4   4   4
#     4  12  26  47  69 106 145 189 234 298 353 418
#     4  12  27  44  71  99 148 185 237 286 361 417
#     4  10  24  42  67  98 132 172 230 278 335 399
#     4  11  25  41  69  96 134 181 230 277 341 412
#     4  11  25  43  72  97 137 173 233 276 343 414
#     4  12  29  49  76 106 143 183 230 289 362 419
#     4  12  24  44  74 104 141 187 244 294 353 417
#
# _framework density 23.096636
#
# number of rings (size 3 to 8) (size 9 to 14) (size 15 to 20)
#    0.000    0.571    0.000    6.857   16.000    0.000 
#    0.000    0.000    0.000    0.000    0.000    0.000 
#    0.000    0.000    0.000    0.000    0.000    0.000 
#
# Total GULP energy -347202.987609 kJ/mol
# GULP energy per Si atom -12400.106700 kJ/mol
# Density = 2.304407 g / cm^3
# Si number density = 23.096636 Si / 1000 Ang^3
#
#
#
# Elastic Constant Matrix: (Units=GPa)
#
#
# Indices 1 2 3 4 5 6 
#
# 1 127.9613 15.1791 49.4843 0.0000 19.3067 0.0000
# 2 15.1791 102.5305 30.4673 0.0000 -2.4915 0.0000
# 3 49.4843 30.4673 101.8866 0.0000 -20.2060 0.0000
# 4 0.0000 0.0000 0.0000 16.7672 0.0000 13.6934
# 5 19.3067 -2.4915 -20.2060 0.0000 38.7629 0.0000
# 6 0.0000 0.0000 0.0000 13.6934 0.0000 27.6063
#
#
#
# Elastic Compliance Matrix: (Units=1/GPa)
#
#
# Indices 1 2 3 4 5 6 
#
# 1 0.012585 0.000351 -0.008316 0.000000 -0.010581 0.000000
# 2 0.000351 0.010756 -0.003663 0.000000 -0.001393 0.000000
# 3 -0.008316 -0.003663 0.017537 0.000000 0.013048 0.000000
# 4 0.000000 0.000000 0.000000 0.100251 0.000000 -0.049727
# 5 -0.010581 -0.001393 0.013048 0.000000 0.037780 0.000000
# 6 0.000000 0.000000 0.000000 -0.049727 0.000000 0.060889
#
#
# Mechanical properties :
#
#
# Convention : Reuss Voigt Hill
#
# Bulk Modulus (GPa) = 56.74695 58.07109 57.40902
# Shear Modulus (GPa) = 18.59237 32.44381 25.51809
#
# Velocity S-wave (km/s) = 2.84030 3.75200 3.32752
# Velocity P-wave (km/s) = 5.94803 6.63078 6.29866
#
# Compressibility (1/GPa) = 0.01762209
#
# Stress axis : x y z
#
# Youngs Moduli (GPa) = 79.45675 92.97248 57.02378
#
# Poissons Ratio (x) = -0.03261 0.47419
# Poissons Ratio (y) = -0.02787 0.20887
# Poissons Ratio (z) = 0.66074 0.34055
#
# Static dielectric constant tensor:
#      x y z
#    x 4.105610 0.000000 -0.043200 
#    y 0.000000 2.089110 0.000000 
#    z -0.043200 0.000000 4.292490 
# 
# 
# High freq. dielectric constant tensor:
#      x y z
#    x 1.918840 0.000000 -0.009560 
#    y 0.000000 1.913700 0.000000 
#    z -0.009560 0.000000 1.935480 
# 
# From -- ./inp_files/19861.got.cif
#   From: 2010.03.12/outbox.cif.g09.slc.cpg/sg14_10_cif.got.tgz:19861.got - 2010.03.31 13:35:05.
