data_PCOD8128047
_publ_section_title
;
Structure prediction by ZEFSAII (Michael W. Deem and Ramdas Pophale) SiO2 
 PCOD8128047
Probable space group: P 21/C
;
_chemical_formula_sum "Si O2"
_cell_formula_units_Z 16
_cell_length_a 10.329237
_cell_length_b 7.542037
_cell_length_c 17.556563
_cell_angle_alpha 90.000000
_cell_angle_beta 28.558391
_cell_angle_gamma 90.000000
_cell_volume 653.842992
_symmetry_space_group_name_H-M "P 21/C"
_symmetry_group_IT_number 14
_symmetry_cell_setting 'monoclinic'
loop_
_space_group_symop_operation_xyz
x,y,z
-x,1/2+y,1/2-z
-x,-y,-z
x,1/2-y,1/2+z
loop_
_atom_site_type_symbol
_atom_site_label
_atom_site_fract_x
_atom_site_fract_y
_atom_site_fract_z
Si Si1 0.680349 0.912553 0.571228
Si Si2 0.194343 0.143461 0.865587
Si Si3 0.969859 0.674420 0.197237
Si Si4 0.463269 0.792718 0.538389
O O1 0.799440 0.812410 0.582242
O O2 0.498161 0.779840 0.612299
O O3 0.499379 0.075379 0.695076
O O4 0.925261 0.988336 0.392045
O O5 0.055006 0.186979 0.858032
O O6 0.000000 0.000000 0.000000
O O7 0.675278 0.658738 0.388215
O O8 0.168105 0.759419 0.159018
O O9 0.500000 0.000000 0.500000
#
# Coordination Sequence:
#
# PCOD8128047 Si02
#       4
#     4   4   4   4
#     4  11  26  48  72 110 147 195 250 303 369 441
#     4  12  26  46  74 105 152 194 247 301 373 449
#     4  11  22  48  75 104 146 192 249 308 362 437
#     4  10  23  45  73 106 147 186 245 306 365 429
#
# _framework density 24.470707999999998
#
# number of rings (size 3 to 8) (size 9 to 14) (size 15 to 20)
#    0.000    1.000    5.000    2.250    3.500    0.000 
#    4.500    6.250    0.000    0.000    0.000    0.000 
#    0.000    0.000    0.000    0.000    0.000    0.000 
#
# Total GULP energy -198378.122152 kJ/mol
# GULP energy per Si atom -12398.632634 kJ/mol
# Density = 2.441501 g / cm^3
# Si number density = 24.470708 Si / 1000 Ang^3
#
#
#
# Elastic Constant Matrix: (Units=GPa)
#
#
# Indices 1 2 3 4 5 6 
#
# 1 85.7780 22.6180 24.3494 0.0000 -8.9418 0.0000
# 2 22.6180 60.6879 31.4594 0.0000 -1.9260 0.0000
# 3 24.3494 31.4594 99.7835 0.0000 -6.2281 0.0000
# 4 0.0000 0.0000 0.0000 48.9662 0.0000 4.3581
# 5 -8.9418 -1.9260 -6.2281 0.0000 40.1518 0.0000
# 6 0.0000 0.0000 0.0000 4.3581 0.0000 45.1737
#
#
#
# Elastic Compliance Matrix: (Units=1/GPa)
#
#
# Indices 1 2 3 4 5 6 
#
# 1 0.013504 -0.003976 -0.001884 0.000000 0.002524 0.000000
# 2 -0.003976 0.020868 -0.005656 0.000000 -0.000762 0.000000
# 3 -0.001884 -0.005656 0.012341 0.000000 0.001223 0.000000
# 4 0.000000 0.000000 0.000000 0.020599 0.000000 -0.001987
# 5 0.002524 -0.000762 0.001223 0.000000 0.025621 0.000000
# 6 0.000000 0.000000 0.000000 -0.001987 0.000000 0.022328
#
#
# Mechanical properties :
#
#
# Convention : Reuss Voigt Hill
#
# Bulk Modulus (GPa) = 42.23020 44.78923 43.50972
# Shear Modulus (GPa) = 34.20243 38.04652 36.12448
#
# Velocity S-wave (km/s) = 3.74262 3.94735 3.84635
# Velocity P-wave (km/s) = 5.99760 6.25446 6.12738
#
# Compressibility (1/GPa) = 0.02367973
#
# Stress axis : x y z
#
# Youngs Moduli (GPa) = 74.04958 47.92121 81.02971
#
# Poissons Ratio (x) = 0.19054 0.15268
# Poissons Ratio (y) = 0.29443 0.45833
# Poissons Ratio (z) = 0.13953 0.27106
#
# Static dielectric constant tensor:
#      x y z
#    x 5.161040 0.000000 -0.126910 
#    y 0.000000 3.963540 0.000000 
#    z -0.126910 0.000000 4.505710 
# 
# 
# High freq. dielectric constant tensor:
#      x y z
#    x 1.999590 0.000000 -0.001640 
#    y 0.000000 1.949720 0.000000 
#    z -0.001640 0.000000 1.971760 
# 
# From -- ./inp_files/11565.got.cif
#   From: 2010.03.12/outbox.cif.g09.slc.cpg/sg14_6_cif.got.tgz:11565.got - 2010.03.31 13:35:05.
