data_PCOD8128264
_publ_section_title
;
Structure prediction by ZEFSAII (Michael W. Deem and Ramdas Pophale) SiO2 
 PCOD8128264
Probable space group: P 21/C
;
_chemical_formula_sum "Si O2"
_cell_formula_units_Z 32
_cell_length_a 13.838076
_cell_length_b 8.899266
_cell_length_c 22.414715
_cell_angle_alpha 90.000000
_cell_angle_beta 148.334331
_cell_angle_gamma 90.000000
_cell_volume 1449.074753
_symmetry_space_group_name_H-M "P 21/C"
_symmetry_group_IT_number 14
_symmetry_cell_setting 'monoclinic'
loop_
_space_group_symop_operation_xyz
x,y,z
-x,1/2+y,1/2-z
-x,-y,-z
x,1/2-y,1/2+z
loop_
_atom_site_type_symbol
_atom_site_label
_atom_site_fract_x
_atom_site_fract_y
_atom_site_fract_z
Si Si1 0.808815 0.132470 0.995277
Si Si2 0.923600 0.265152 0.786991
Si Si3 0.611268 0.646938 0.077039
Si Si4 0.978316 0.445639 0.704088
Si Si5 0.570884 0.858911 0.161135
Si Si6 0.084633 0.354821 0.076719
Si Si7 0.210395 0.292151 0.529450
Si Si8 0.521121 0.313895 0.602207
O O1 0.855793 0.140846 0.090587
O O2 0.917446 0.252496 0.012583
O O3 0.589218 0.161540 0.872989
O O4 0.858120 0.963944 0.000953
O O5 0.904167 0.404591 0.731038
O O6 0.720050 0.231379 0.706389
O O7 0.016858 0.125117 0.801428
O O8 0.058938 0.304746 0.912718
O O9 0.544470 0.715774 0.104409
O O10 0.819180 0.612126 0.198074
O O11 0.500000 0.500000 0.000000
O O12 0.599183 0.765736 0.017389
O O13 0.773894 0.886149 0.295257
O O14 0.534879 0.007621 0.103633
O O15 0.214303 0.269395 0.097976
O O16 0.000000 0.500000 0.000000
O O17 0.411902 0.272328 0.605690
#
# Coordination Sequence:
#
# PCOD8128264 Si02
#       8
#     4   4   4   4   4   4   4   4
#     4  10  24  46  67  95 132 179 225 273 349 402
#     4  11  23  39  66 100 136 175 222 273 341 404
#     4  12  23  42  66 103 137 173 226 276 339 409
#     4  11  23  40  66 101 136 177 220 280 339 409
#     4  11  26  45  69  98 138 180 221 284 343 408
#     4  12  26  46  70 101 131 173 234 288 338 398
#     4  10  24  44  67  91 129 178 224 271 335 406
#     4  11  23  43  67  98 137 176 220 274 345 408
#
# _framework density 22.083057
#
# number of rings (size 3 to 8) (size 9 to 14) (size 15 to 20)
#    0.000    1.000    3.750    2.250    1.750    5.000 
#    0.000    1.250    0.000    0.000    0.000    0.000 
#    0.000    0.000    0.000    0.000    0.000    0.000 
#
# Total GULP energy -396781.184524 kJ/mol
# GULP energy per Si atom -12399.412016 kJ/mol
# Density = 2.203279 g / cm^3
# Si number density = 22.083057 Si / 1000 Ang^3
#
#
#
# Elastic Constant Matrix: (Units=GPa)
#
#
# Indices 1 2 3 4 5 6 
#
# 1 91.0854 43.0591 15.5273 0.0000 8.3360 0.0000
# 2 43.0591 87.5620 42.1650 0.0000 -6.7738 0.0000
# 3 15.5273 42.1650 62.1300 0.0000 10.3201 0.0000
# 4 0.0000 0.0000 0.0000 34.2381 0.0000 -1.2902
# 5 8.3360 -6.7738 10.3201 0.0000 38.7569 0.0000
# 6 0.0000 0.0000 0.0000 -1.2902 0.0000 35.1245
#
#
#
# Elastic Compliance Matrix: (Units=1/GPa)
#
#
# Indices 1 2 3 4 5 6 
#
# 1 0.015628 -0.010065 0.003950 0.000000 -0.006172 0.000000
# 2 -0.010065 0.025062 -0.016301 0.000000 0.010886 0.000000
# 3 0.003950 -0.016301 0.028025 0.000000 -0.011161 0.000000
# 4 0.000000 0.000000 0.000000 0.029248 0.000000 0.001074
# 5 -0.006172 0.010886 -0.011161 0.000000 0.032004 0.000000
# 6 0.000000 0.000000 0.000000 0.001074 0.000000 0.028510
#
#
# Mechanical properties :
#
#
# Convention : Reuss Voigt Hill
#
# Bulk Modulus (GPa) = 41.87066 49.14222 45.50644
# Shear Modulus (GPa) = 23.66647 30.95895 27.31271
#
# Velocity S-wave (km/s) = 3.27724 3.74830 3.52066
# Velocity P-wave (km/s) = 5.77253 6.40583 6.09741
#
# Compressibility (1/GPa) = 0.02388307
#
# Stress axis : x y z
#
# Youngs Moduli (GPa) = 63.98673 39.90127 35.68249
#
# Poissons Ratio (x) = 0.40160 -0.14095
# Poissons Ratio (y) = 0.64402 0.58167
# Poissons Ratio (z) = -0.25276 0.65044
#
# Static dielectric constant tensor:
#      x y z
#    x 3.847570 0.000000 -0.039310 
#    y 0.000000 3.856770 0.000000 
#    z -0.039310 0.000000 3.888900 
# 
# 
# High freq. dielectric constant tensor:
#      x y z
#    x 1.868430 0.000000 0.014160 
#    y 0.000000 1.864930 0.000000 
#    z 0.014160 0.000000 1.876420 
# 
# From -- ./inp_files/73882.got.cif
#   From: 2010.03.12/outbox.cif.g09.slc.cpg/sg14_37_cif.got.tgz:73882.got - 2010.03.31 13:35:05.
