data_PCOD8128174
_publ_section_title
;
Structure prediction by ZEFSAII (Michael W. Deem and Ramdas Pophale) SiO2 
 PCOD8128174
Probable space group: P 21/C
;
_chemical_formula_sum "Si O2"
_cell_formula_units_Z 32
_cell_length_a 15.124704
_cell_length_b 11.206151
_cell_length_c 8.920776
_cell_angle_alpha 90.000000
_cell_angle_beta 109.287619
_cell_angle_gamma 90.000000
_cell_volume 1427.115926
_symmetry_space_group_name_H-M "P 21/C"
_symmetry_group_IT_number 14
_symmetry_cell_setting 'monoclinic'
loop_
_space_group_symop_operation_xyz
x,y,z
-x,1/2+y,1/2-z
-x,-y,-z
x,1/2-y,1/2+z
loop_
_atom_site_type_symbol
_atom_site_label
_atom_site_fract_x
_atom_site_fract_y
_atom_site_fract_z
Si Si1 0.432342 0.105872 0.785236
Si Si2 0.073144 0.101232 0.036260
Si Si3 0.299941 0.887007 0.732679
Si Si4 0.352939 0.640637 0.594897
Si Si5 0.087040 0.593929 0.054518
Si Si6 0.726504 0.914783 0.809124
Si Si7 0.991378 0.258126 0.238392
Si Si8 0.658494 0.760240 0.513765
O O1 0.539819 0.117455 0.891222
O O2 0.377688 0.163014 0.892144
O O3 0.425111 0.177473 0.625071
O O4 0.385573 0.975629 0.737455
O O5 0.169970 0.034281 0.115131
O O6 0.059358 0.192095 0.163105
O O7 0.065777 0.164160 0.871939
O O8 0.000000 0.000000 0.000000
O O9 0.324990 0.763011 0.662677
O O10 0.197431 0.945048 0.629038
O O11 0.294660 0.865385 0.908302
O O12 0.338017 0.528261 0.697045
O O13 0.070178 0.675765 0.189111
O O14 0.083308 0.664460 0.896170
O O15 0.000000 0.500000 0.000000
O O16 0.711893 0.864683 0.633516
O O17 0.721430 0.806923 0.926432
#
# Coordination Sequence:
#
# PCOD8128174 Si02
#       8
#     4   4   4   4   4   4   4   4
#     4  11  25  47  73 104 138 184 238 294 357 417
#     4  11  24  40  66  92 132 177 225 280 337 410
#     4  12  28  46  73 104 148 187 239 294 360 427
#     4  12  28  46  73 103 145 187 236 295 359 430
#     4  11  25  45  71 101 140 184 233 284 348 416
#     4  11  25  43  70 101 137 182 236 288 362 419
#     4  10  24  42  66  95 135 178 228 279 343 405
#     4  10  24  45  73  99 138 175 235 295 352 421
#
# _framework density 22.422846
#
# number of rings (size 3 to 8) (size 9 to 14) (size 15 to 20)
#    0.000    1.000    1.250    3.375   12.250    6.500 
#    0.000    0.000    0.000    0.000    0.000    0.000 
#    0.000    0.000    0.000    0.000    0.000    0.000 
#
# Total GULP energy -396561.509356 kJ/mol
# GULP energy per Si atom -12392.547167 kJ/mol
# Density = 2.237181 g / cm^3
# Si number density = 22.422846 Si / 1000 Ang^3
#
#
#
# Elastic Constant Matrix: (Units=GPa)
#
#
# Indices 1 2 3 4 5 6 
#
# 1 84.9040 19.8687 32.1682 0.0000 29.7621 0.0000
# 2 19.8687 108.6137 39.1395 0.0000 2.4050 0.0000
# 3 32.1682 39.1395 123.3202 0.0000 -2.4164 0.0000
# 4 0.0000 0.0000 0.0000 110.9892 0.0000 -45.6197
# 5 29.7621 2.4050 -2.4164 0.0000 35.5273 0.0000
# 6 0.0000 0.0000 0.0000 -45.6197 0.0000 63.6914
#
#
#
# Elastic Compliance Matrix: (Units=1/GPa)
#
#
# Indices 1 2 3 4 5 6 
#
# 1 0.020010 -0.001448 -0.005093 0.000000 -0.017011 0.000000
# 2 -0.001448 0.010531 -0.002959 0.000000 0.000299 0.000000
# 3 -0.005093 -0.002959 0.010478 0.000000 0.005180 0.000000
# 4 0.000000 0.000000 0.000000 0.012769 0.000000 0.009146
# 5 -0.017011 0.000299 0.005180 0.000000 0.042730 0.000000
# 6 0.000000 0.000000 0.000000 0.009146 0.000000 0.022252
#
#
# Mechanical properties :
#
#
# Convention : Reuss Voigt Hill
#
# Bulk Modulus (GPa) = 45.41637 55.46565 50.44101
# Shear Modulus (GPa) = 34.45664 57.08568 45.77116
#
# Velocity S-wave (km/s) = 3.92430 5.05114 4.52295
# Velocity P-wave (km/s) = 6.38999 7.66867 7.05835
#
# Compressibility (1/GPa) = 0.02201849
#
# Stress axis : x y z
#
# Youngs Moduli (GPa) = 49.97611 94.95331 95.43720
#
# Poissons Ratio (x) = 0.13752 0.48608
# Poissons Ratio (y) = 0.07238 0.28238
# Poissons Ratio (z) = 0.25454 0.28095
#
# Static dielectric constant tensor:
#      x y z
#    x 3.690440 0.000000 -0.541420 
#    y 0.000000 4.062830 0.000000 
#    z -0.541420 0.000000 2.949220 
# 
# 
# High freq. dielectric constant tensor:
#      x y z
#    x 1.879220 0.000000 0.001590 
#    y 0.000000 1.886290 0.000000 
#    z 0.001590 0.000000 1.909900 
# 
# From -- ./inp_files/15845.got.cif
#   From: 2010.03.12/outbox.cif.g09.slc.cpg/sg14_8_cif.got.tgz:15845.got - 2010.03.31 13:35:05.
