data_PCOD8128869
_publ_section_title
;
Structure prediction by ZEFSAII (Michael W. Deem and Ramdas Pophale) SiO2 
 PCOD8128869
Probable space group: P 21/C
;
_chemical_formula_sum "Si O2"
_cell_formula_units_Z 20
_cell_length_a 14.543047
_cell_length_b 11.765005
_cell_length_c 11.304208
_cell_angle_alpha 90.000000
_cell_angle_beta 30.755537
_cell_angle_gamma 90.000000
_cell_volume 989.072486
_symmetry_space_group_name_H-M "P 21/C"
_symmetry_group_IT_number 14
_symmetry_cell_setting 'monoclinic'
loop_
_space_group_symop_operation_xyz
x,y,z
-x,1/2+y,1/2-z
-x,-y,-z
x,1/2-y,1/2+z
loop_
_atom_site_type_symbol
_atom_site_label
_atom_site_fract_x
_atom_site_fract_y
_atom_site_fract_z
Si Si1 0.306935 0.566006 0.429874
Si Si2 0.269171 0.815137 0.549914
Si Si3 0.485188 0.408577 0.412997
Si Si4 0.082966 0.437579 0.517550
Si Si5 0.464774 0.337820 0.028146
O O1 0.284026 0.679802 0.529459
O O2 0.348531 0.459701 0.468580
O O3 0.116568 0.533731 0.580143
O O4 0.466596 0.586484 0.157625
O O5 0.332218 0.879159 0.360426
O O6 0.384523 0.850854 0.536774
O O7 0.058315 0.841737 0.789614
O O8 0.500000 0.500000 0.500000
O O9 0.418570 0.290955 0.542542
O O10 0.276615 0.383959 0.280941
O O11 0.000000 0.500000 0.500000
#
# Coordination Sequence:
#
# PCOD8128869 Si02
#       5
#     4   4   4   4   4
#     4  11  23  43  67  95 133 169 214 271 321 380
#     4  11  24  43  67  97 130 168 222 263 316 393
#     4  11  23  42  69  95 130 172 211 268 326 373
#     4  12  24  41  68  97 127 170 218 267 320 382
#     4  11  23  44  69  93 127 175 219 261 326 386
#
# _framework density 20.220965
#
# number of rings (size 3 to 8) (size 9 to 14) (size 15 to 20)
#    0.000    0.800    6.000    1.800    0.000    3.200 
#    0.000    2.000    0.000    0.000    0.000    0.000 
#    0.000    0.000    0.000    0.000    0.000    0.000 
#
# Total GULP energy -247918.405434 kJ/mol
# GULP energy per Si atom -12395.920272 kJ/mol
# Density = 2.017494 g / cm^3
# Si number density = 20.220965 Si / 1000 Ang^3
#
#
#
# Elastic Constant Matrix: (Units=GPa)
#
#
# Indices 1 2 3 4 5 6 
#
# 1 116.1641 48.1850 28.1432 0.0000 -9.5018 0.0000
# 2 48.1850 108.6417 37.2779 0.0000 -4.6832 0.0000
# 3 28.1432 37.2779 85.3999 0.0000 -20.0173 0.0000
# 4 0.0000 0.0000 0.0000 19.5188 0.0000 1.7386
# 5 -9.5018 -4.6832 -20.0173 0.0000 34.3865 0.0000
# 6 0.0000 0.0000 0.0000 1.7386 0.0000 48.5775
#
#
#
# Elastic Compliance Matrix: (Units=1/GPa)
#
#
# Indices 1 2 3 4 5 6 
#
# 1 0.010839 -0.004285 -0.001316 0.000000 0.001646 0.000000
# 2 -0.004285 0.012585 -0.004583 0.000000 -0.002138 0.000000
# 3 -0.001316 -0.004583 0.016110 0.000000 0.008391 0.000000
# 4 0.000000 0.000000 0.000000 0.051397 0.000000 -0.001840
# 5 0.001646 -0.002138 0.008391 0.000000 0.034129 0.000000
# 6 0.000000 0.000000 0.000000 -0.001840 0.000000 0.020652
#
#
# Mechanical properties :
#
#
# Convention : Reuss Voigt Hill
#
# Bulk Modulus (GPa) = 52.17030 59.71309 55.94169
# Shear Modulus (GPa) = 28.99080 33.60319 31.29700
#
# Velocity S-wave (km/s) = 3.79053 4.08094 3.93841
# Velocity P-wave (km/s) = 6.70922 7.19721 6.95749
#
# Compressibility (1/GPa) = 0.01916799
#
# Stress axis : x y z
#
# Youngs Moduli (GPa) = 92.25633 79.45752 62.07219
#
# Poissons Ratio (x) = 0.34048 0.08168
# Poissons Ratio (y) = 0.39532 0.28445
# Poissons Ratio (z) = 0.12140 0.36412
#
# Static dielectric constant tensor:
#      x y z
#    x 3.945820 0.000000 0.074180 
#    y 0.000000 4.168650 0.000000 
#    z 0.074180 0.000000 3.883850 
# 
# 
# High freq. dielectric constant tensor:
#      x y z
#    x 1.802460 0.000000 0.010860 
#    y 0.000000 1.812750 0.000000 
#    z 0.010860 0.000000 1.773230 
# 
# From -- ./inp_files/28873.got.cif
#   From: 2010.03.12/outbox.cif.g09.slc.cpg/sg14_15_cif.got.tgz:28873.got - 2010.03.31 13:35:05.
