data_PCOD8128949
_publ_section_title
;
Structure prediction by ZEFSAII (Michael W. Deem and Ramdas Pophale) SiO2 
 PCOD8128949
Probable space group: P 21/C
;
_chemical_formula_sum "Si O2"
_cell_formula_units_Z 28
_cell_length_a 8.266218
_cell_length_b 11.103682
_cell_length_c 14.005392
_cell_angle_alpha 90.000000
_cell_angle_beta 54.183341
_cell_angle_gamma 90.000000
_cell_volume 1042.396797
_symmetry_space_group_name_H-M "P 21/C"
_symmetry_group_IT_number 14
_symmetry_cell_setting 'monoclinic'
loop_
_space_group_symop_operation_xyz
x,y,z
-x,1/2+y,1/2-z
-x,-y,-z
x,1/2-y,1/2+z
loop_
_atom_site_type_symbol
_atom_site_label
_atom_site_fract_x
_atom_site_fract_y
_atom_site_fract_z
Si Si1 0.741843 0.542000 0.692878
Si Si2 0.195489 0.586423 0.054973
Si Si3 0.206883 0.479004 0.732393
Si Si4 0.152840 0.072325 0.048076
Si Si5 0.482002 0.376686 0.922671
Si Si6 0.561629 0.783524 0.743990
Si Si7 0.866342 0.294478 0.118917
O O1 0.704169 0.539304 0.590618
O O2 0.616420 0.448394 0.797866
O O3 0.674787 0.673486 0.755792
O O4 0.978690 0.527953 0.620692
O O5 0.375571 0.667415 0.038929
O O6 0.012114 0.582502 0.190503
O O7 0.291890 0.452443 0.022436
O O8 0.101835 0.622909 0.985912
O O9 0.283647 0.450202 0.598528
O O10 0.356057 0.413002 0.753016
O O11 0.184796 0.618600 0.773261
O O12 0.051809 0.206214 0.075008
O O13 0.402841 0.266982 0.884810
O O14 0.324982 0.784229 0.844768
#
# Coordination Sequence:
#
# PCOD8128949 Si02
#       7
#     4   4   4   4   4   4   4
#     4  11  23  48  67  98 147 183 233 289 358 424
#     4  11  23  44  75 102 141 183 243 306 348 421
#     4  12  26  45  73 110 137 190 252 291 360 430
#     4  11  27  46  73 100 147 194 235 292 365 426
#     4  11  23  45  70 106 140 189 235 296 362 416
#     4  12  24  44  71 102 150 185 240 300 351 431
#     4  12  25  46  72 108 146 186 243 299 356 429
#
# _framework density 26.861170000000001
#
# number of rings (size 3 to 8) (size 9 to 14) (size 15 to 20)
#    0.000    0.571    5.714    1.286    4.000    1.143 
#    5.143    2.857    0.000    0.000    0.000    0.000 
#    0.000    0.000    0.000    0.000    0.000    0.000 
#
# Total GULP energy -346899.580554 kJ/mol
# GULP energy per Si atom -12389.270734 kJ/mol
# Density = 2.680003 g / cm^3
# Si number density = 26.861170 Si / 1000 Ang^3
#
#
#
# Elastic Constant Matrix: (Units=GPa)
#
#
# Indices 1 2 3 4 5 6 
#
# 1 70.7992 20.5067 13.9503 0.0000 22.3602 0.0000
# 2 20.5067 81.9088 2.1470 0.0000 3.9548 0.0000
# 3 13.9503 2.1470 80.8106 0.0000 11.1010 0.0000
# 4 0.0000 0.0000 0.0000 28.8259 0.0000 2.6898
# 5 22.3602 3.9548 11.1010 0.0000 48.0070 0.0000
# 6 0.0000 0.0000 0.0000 2.6898 0.0000 37.8619
#
#
#
# Elastic Compliance Matrix: (Units=1/GPa)
#
#
# Indices 1 2 3 4 5 6 
#
# 1 0.018119 -0.004116 -0.001968 0.000000 -0.007645 0.000000
# 2 -0.004116 0.013195 0.000254 0.000000 0.000771 0.000000
# 3 -0.001968 0.000254 0.012997 0.000000 -0.002110 0.000000
# 4 0.000000 0.000000 0.000000 0.034923 0.000000 -0.002481
# 5 -0.007645 0.000771 -0.002110 0.000000 0.024815 0.000000
# 6 0.000000 0.000000 0.000000 -0.002481 0.000000 0.026588
#
#
# Mechanical properties :
#
#
# Convention : Reuss Voigt Hill
#
# Bulk Modulus (GPa) = 30.62626 34.08074 32.35350
# Shear Modulus (GPa) = 32.64113 36.06661 34.35387
#
# Velocity S-wave (km/s) = 3.48972 3.66827 3.58011
# Velocity P-wave (km/s) = 5.25966 5.53686 5.40004
#
# Compressibility (1/GPa) = 0.03265172
#
# Stress axis : x y z
#
# Youngs Moduli (GPa) = 55.19131 75.78529 76.93817
#
# Poissons Ratio (x) = 0.31190 0.15144
# Poissons Ratio (y) = 0.22714 -0.01954
# Poissons Ratio (z) = 0.10863 -0.01925
#
# Static dielectric constant tensor:
#      x y z
#    x 5.016110 0.000000 0.272950 
#    y 0.000000 4.942650 0.000000 
#    z 0.272950 0.000000 5.158940 
# 
# 
# High freq. dielectric constant tensor:
#      x y z
#    x 2.084250 0.000000 0.000520 
#    y 0.000000 2.062260 0.000000 
#    z 0.000520 0.000000 2.085880 
# 
# From -- ./inp_files/40229.got.cif
#   From: 2010.03.12/outbox.cif.g09.slc.cpg/sg14_21_cif.got.tgz:40229.got - 2010.03.31 13:35:05.
