data_PCOD8128219
_publ_section_title
;
Structure prediction by ZEFSAII (Michael W. Deem and Ramdas Pophale) SiO2 
 PCOD8128219
Probable space group: P 21/C
;
_chemical_formula_sum "Si O2"
_cell_formula_units_Z 28
_cell_length_a 8.101041
_cell_length_b 16.226833
_cell_length_c 9.823972
_cell_angle_alpha 90.000000
_cell_angle_beta 107.980285
_cell_angle_gamma 90.000000
_cell_volume 1228.334260
_symmetry_space_group_name_H-M "P 21/C"
_symmetry_group_IT_number 14
_symmetry_cell_setting 'monoclinic'
loop_
_space_group_symop_operation_xyz
x,y,z
-x,1/2+y,1/2-z
-x,-y,-z
x,1/2-y,1/2+z
loop_
_atom_site_type_symbol
_atom_site_label
_atom_site_fract_x
_atom_site_fract_y
_atom_site_fract_z
Si Si1 0.572323 0.884201 0.622876
Si Si2 0.104939 0.293149 0.908586
Si Si3 0.286996 0.668742 0.247692
Si Si4 0.639930 0.029299 0.841576
Si Si5 0.718600 0.511514 0.639445
Si Si6 0.305186 0.655101 0.850449
Si Si7 0.926726 0.847205 0.307257
O O1 0.760753 0.845115 0.647699
O O2 0.433185 0.827591 0.667894
O O3 0.471741 0.893486 0.453697
O O4 0.605210 0.969713 0.705559
O O5 0.109037 0.201971 0.843260
O O6 0.910777 0.327270 0.851967
O O7 0.157535 0.299868 0.082811
O O8 0.299446 0.584472 0.332096
O O9 0.335889 0.746915 0.352990
O O10 0.463789 0.055287 0.874195
O O11 0.724416 0.113679 0.806253
O O12 0.760688 0.985020 0.987374
O O13 0.858259 0.559945 0.766158
O O14 0.129969 0.641394 0.891590
#
# Coordination Sequence:
#
# PCOD8128219 Si02
#       7
#     4   4   4   4   4   4   4
#     4  11  24  43  71  99 142 181 231 288 356 418
#     4  11  26  44  70 105 143 182 243 287 353 428
#     4  10  25  45  67 103 138 187 230 290 350 421
#     4  10  24  43  67 106 134 187 237 289 355 432
#     4  10  24  45  71 100 149 178 242 297 354 416
#     4  11  24  43  72 100 142 184 235 290 354 423
#     4  11  26  45  71 106 142 189 239 297 355 419
#
# _framework density 22.795096000000001
#
# number of rings (size 3 to 8) (size 9 to 14) (size 15 to 20)
#    0.000    1.429    1.429    1.286   10.000    4.571 
#    0.000    0.000    0.000    0.000    0.000    0.000 
#    0.000    0.000    0.000    0.000    0.000    0.000 
#
# Total GULP energy -346957.182772 kJ/mol
# GULP energy per Si atom -12391.327956 kJ/mol
# Density = 2.274321 g / cm^3
# Si number density = 22.795096 Si / 1000 Ang^3
#
#
#
# Elastic Constant Matrix: (Units=GPa)
#
#
# Indices 1 2 3 4 5 6 
#
# 1 92.2483 39.4355 33.9437 0.0000 -20.3540 0.0000
# 2 39.4355 106.3389 54.9761 0.0000 -8.4447 0.0000
# 3 33.9437 54.9761 110.0959 0.0000 -6.6528 0.0000
# 4 0.0000 0.0000 0.0000 25.9346 0.0000 -3.1832
# 5 -20.3540 -8.4447 -6.6528 0.0000 26.7473 0.0000
# 6 0.0000 0.0000 0.0000 -3.1832 0.0000 28.1870
#
#
#
# Elastic Compliance Matrix: (Units=1/GPa)
#
#
# Indices 1 2 3 4 5 6 
#
# 1 0.015511 -0.003769 -0.002293 0.000000 0.010043 0.000000
# 2 -0.003769 0.013754 -0.005703 0.000000 0.000056 0.000000
# 3 -0.002293 -0.005703 0.012613 0.000000 -0.000408 0.000000
# 4 0.000000 0.000000 0.000000 0.039100 0.000000 0.004416
# 5 0.010043 0.000056 -0.000408 0.000000 0.044946 0.000000
# 6 0.000000 0.000000 0.000000 0.004416 0.000000 0.035976
#
#
# Mechanical properties :
#
#
# Convention : Reuss Voigt Hill
#
# Bulk Modulus (GPa) = 54.50082 62.82152 58.66117
# Shear Modulus (GPa) = 26.10316 28.19564 27.14940
#
# Velocity S-wave (km/s) = 3.38764 3.52080 3.45486
# Velocity P-wave (km/s) = 6.26597 6.64433 6.45792
#
# Compressibility (1/GPa) = 0.01834835
#
# Stress axis : x y z
#
# Youngs Moduli (GPa) = 64.46842 72.70407 79.28315
#
# Poissons Ratio (x) = 0.27404 0.18182
# Poissons Ratio (y) = 0.24299 0.45213
# Poissons Ratio (z) = 0.14785 0.41461
#
# Static dielectric constant tensor:
#      x y z
#    x 4.205050 0.000000 -0.152830 
#    y 0.000000 3.836520 0.000000 
#    z -0.152830 0.000000 4.152090 
# 
# 
# High freq. dielectric constant tensor:
#      x y z
#    x 1.903070 0.000000 -0.009880 
#    y 0.000000 1.889410 0.000000 
#    z -0.009880 0.000000 1.902940 
# 
# From -- ./inp_files/9509.got.cif
#   From: 2010.03.12/outbox.cif.g09.slc.cpg/sg14_5_cif.got.tgz:9509.got - 2010.03.31 13:35:05.
