data_PCOD8128110
_publ_section_title
;
Structure prediction by ZEFSAII (Michael W. Deem and Ramdas Pophale) SiO2 
 PCOD8128110
Probable space group: P 21/C
;
_chemical_formula_sum "Si O2"
_cell_formula_units_Z 28
_cell_length_a 15.115346
_cell_length_b 8.773812
_cell_length_c 9.784256
_cell_angle_alpha 90.000000
_cell_angle_beta 71.115993
_cell_angle_gamma 90.000000
_cell_volume 1227.738944
_symmetry_space_group_name_H-M "P 21/C"
_symmetry_group_IT_number 14
_symmetry_cell_setting 'monoclinic'
loop_
_space_group_symop_operation_xyz
x,y,z
-x,1/2+y,1/2-z
-x,-y,-z
x,1/2-y,1/2+z
loop_
_atom_site_type_symbol
_atom_site_label
_atom_site_fract_x
_atom_site_fract_y
_atom_site_fract_z
Si Si1 0.607365 0.286287 0.885048
Si Si2 0.676619 0.919125 0.206604
Si Si3 0.676619 0.419124 0.116776
Si Si4 0.872722 0.005988 0.164982
Si Si5 0.872722 0.505988 0.962296
Si Si6 0.000000 0.250000 0.491348
Si Si7 0.607366 0.786287 0.507587
O O1 0.619367 0.433505 0.782673
O O2 0.637166 0.141022 0.780088
O O3 0.500000 0.270666 0.982480
O O4 0.667566 0.296430 0.996062
O O5 0.784334 0.964293 0.115116
O O6 0.667566 0.796430 0.336372
O O7 0.637166 0.858978 0.082746
O O8 0.619367 0.566495 0.097960
O O9 0.784334 0.464292 0.100549
O O10 0.827145 0.000000 0.336428
O O11 0.956713 0.883987 0.120967
O O12 0.915577 0.174212 0.119392
O O13 0.915577 0.674211 0.965031
O O14 0.956713 0.383987 0.922321
#
# Coordination Sequence:
#
# PCOD8128110 Si02
#       7
#     4   4   4   4   4   4   4
#     4  11  22  41  63  92 127 166 213 262 318 373
#     4  11  23  40  65  93 126 169 209 265 313 376
#     4  11  23  40  65  93 126 169 209 265 313 376
#     4  11  21  41  61  91 124 160 209 256 316 372
#     4  11  21  41  61  91 124 160 209 256 316 372
#     4  10  24  38  64  90 124 162 202 262 314 382
#     4  11  22  41  63  92 127 166 213 262 318 373
#
# _framework density 22.806149999999999
#
# number of rings (size 3 to 8) (size 9 to 14) (size 15 to 20)
#    0.000    1.143    2.857    6.000    0.000    1.143 
#    0.000    2.857    0.000    0.000    0.000    0.000 
#    0.000    0.000    0.000    0.000    0.000    0.000 
#
# Total GULP energy -347098.972151 kJ/mol
# GULP energy per Si atom -12396.391863 kJ/mol
# Density = 2.275424 g / cm^3
# Si number density = 22.806150 Si / 1000 Ang^3
#
#
#
# Elastic Constant Matrix: (Units=GPa)
#
#
# Indices 1 2 3 4 5 6 
#
# 1 124.7605 28.1534 25.5791 0.0000 -23.9370 0.0000
# 2 28.1534 68.3911 12.7428 0.0000 -7.2228 0.0000
# 3 25.5791 12.7428 55.5104 0.0000 -8.5203 0.0000
# 4 0.0000 0.0000 0.0000 36.2256 0.0000 -2.8483
# 5 -23.9370 -7.2228 -8.5203 0.0000 31.2808 0.0000
# 6 0.0000 0.0000 0.0000 -2.8483 0.0000 42.3027
#
#
#
# Elastic Compliance Matrix: (Units=1/GPa)
#
#
# Indices 1 2 3 4 5 6 
#
# 1 0.010620 -0.003088 -0.003180 0.000000 0.006548 0.000000
# 2 -0.003088 0.016392 -0.002214 0.000000 0.000819 0.000000
# 3 -0.003180 -0.002214 0.020389 0.000000 0.002609 0.000000
# 4 0.000000 0.000000 0.000000 0.027752 0.000000 0.001869
# 5 0.006548 0.000819 0.002609 0.000000 0.037879 0.000000
# 6 0.000000 0.000000 0.000000 0.001869 0.000000 0.023765
#
#
# Mechanical properties :
#
#
# Convention : Reuss Voigt Hill
#
# Bulk Modulus (GPa) = 32.85503 42.40139 37.62821
# Shear Modulus (GPa) = 30.50515 34.10758 32.30637
#
# Velocity S-wave (km/s) = 3.66127 3.87142 3.76781
# Velocity P-wave (km/s) = 5.68425 6.21420 5.95512
#
# Compressibility (1/GPa) = 0.03043674
#
# Stress axis : x y z
#
# Youngs Moduli (GPa) = 94.15787 61.00542 49.04673
#
# Poissons Ratio (x) = 0.18838 0.15597
# Poissons Ratio (y) = 0.29075 0.10860
# Poissons Ratio (z) = 0.29942 0.13508
#
# Static dielectric constant tensor:
#      x y z
#    x 4.056310 0.000000 -0.051430 
#    y 0.000000 4.142690 0.000000 
#    z -0.051430 0.000000 3.946570 
# 
# 
# High freq. dielectric constant tensor:
#      x y z
#    x 1.909100 0.000000 -0.012110 
#    y 0.000000 1.896260 0.000000 
#    z -0.012110 0.000000 1.883270 
# 
# From -- ./inp_files/31531.got.cif
#   From: 2010.03.12/outbox.cif.g09.slc.cpg/sg14_16_cif.got.tgz:31531.got - 2010.03.31 13:35:05.
