data_PCOD8128750
_publ_section_title
;
Structure prediction by ZEFSAII (Michael W. Deem and Ramdas Pophale) SiO2 
 PCOD8128750
Probable space group: P 21/C
;
_chemical_formula_sum "Si O2"
_cell_formula_units_Z 28
_cell_length_a 11.942001
_cell_length_b 7.713474
_cell_length_c 14.438886
_cell_angle_alpha 90.000000
_cell_angle_beta 74.388550
_cell_angle_gamma 90.000000
_cell_volume 1280.961759
_symmetry_space_group_name_H-M "P 21/C"
_symmetry_group_IT_number 14
_symmetry_cell_setting 'monoclinic'
loop_
_space_group_symop_operation_xyz
x,y,z
-x,1/2+y,1/2-z
-x,-y,-z
x,1/2-y,1/2+z
loop_
_atom_site_type_symbol
_atom_site_label
_atom_site_fract_x
_atom_site_fract_y
_atom_site_fract_z
Si Si1 0.648557 0.346837 0.423267
Si Si2 0.612909 0.846540 0.063302
Si Si3 0.705785 0.972442 0.427471
Si Si4 0.154330 0.009505 0.222042
Si Si5 0.743544 0.640203 0.724938
Si Si6 0.967438 0.462074 0.903881
Si Si7 0.009768 0.440430 0.393356
O O1 0.525143 0.372640 0.401472
O O2 0.670577 0.492208 0.496681
O O3 0.749657 0.363670 0.323357
O O4 0.658309 0.159557 0.470090
O O5 0.657519 0.840036 0.157927
O O6 0.642143 0.669800 0.003483
O O7 0.676919 0.954152 0.324269
O O8 0.843630 0.954414 0.409718
O O9 0.223647 0.172717 0.243906
O O10 0.064088 0.940922 0.319530
O O11 0.076798 0.058186 0.148738
O O12 0.857824 0.534372 0.669007
O O13 0.968275 0.256732 0.886346
O O14 0.000000 0.500000 0.000000
O O15 0.000000 0.500000 0.500000
#
# Coordination Sequence:
#
# PCOD8128750 Si02
#       7
#     4   4   4   4   4   4   4
#     4  11  25  47  76  98 141 190 234 302 351 424
#     4  11  26  51  69 103 143 186 245 294 359 414
#     4  12  23  46  70 105 142 180 242 290 357 431
#     4  11  22  44  65 100 143 179 228 292 354 422
#     4  11  25  42  70 101 141 191 229 297 358 423
#     4  11  25  39  66 104 137 185 226 284 365 427
#     4  11  23  39  67  99 139 179 228 286 360 427
#
# _framework density 21.858574999999998
#
# number of rings (size 3 to 8) (size 9 to 14) (size 15 to 20)
#    0.000    0.857    4.286    3.000    2.000    2.286 
#    2.571    0.000    0.000    0.000    0.000    0.000 
#    0.000    0.000    0.000    0.000    0.000    0.000 
#
# Total GULP energy -347295.254653 kJ/mol
# GULP energy per Si atom -12403.401952 kJ/mol
# Density = 2.180882 g / cm^3
# Si number density = 21.858575 Si / 1000 Ang^3
#
#
#
# Elastic Constant Matrix: (Units=GPa)
#
#
# Indices 1 2 3 4 5 6 
#
# 1 114.0188 27.2834 64.4342 0.0000 13.4491 0.0000
# 2 27.2834 100.3835 34.4498 0.0000 10.1237 0.0000
# 3 64.4342 34.4498 147.8299 0.0000 24.6654 0.0000
# 4 0.0000 0.0000 0.0000 23.5967 0.0000 3.5605
# 5 13.4491 10.1237 24.6654 0.0000 42.8026 0.0000
# 6 0.0000 0.0000 0.0000 3.5605 0.0000 31.2220
#
#
#
# Elastic Compliance Matrix: (Units=1/GPa)
#
#
# Indices 1 2 3 4 5 6 
#
# 1 0.011878 -0.001547 -0.004708 0.000000 -0.000654 0.000000
# 2 -0.001547 0.011088 -0.001718 0.000000 -0.001146 0.000000
# 3 -0.004708 -0.001718 0.009849 0.000000 -0.003790 0.000000
# 4 0.000000 0.000000 0.000000 0.043121 0.000000 -0.004917
# 5 -0.000654 -0.001146 -0.003790 0.000000 0.026024 0.000000
# 6 0.000000 0.000000 0.000000 -0.004917 0.000000 0.032589
#
#
# Mechanical properties :
#
#
# Convention : Reuss Voigt Hill
#
# Bulk Modulus (GPa) = 59.28025 68.28525 63.78275
# Shear Modulus (GPa) = 32.02710 35.26192 33.64451
#
# Velocity S-wave (km/s) = 3.83194 4.02080 3.92751
# Velocity P-wave (km/s) = 6.83792 7.27071 7.05763
#
# Compressibility (1/GPa) = 0.01686902
#
# Stress axis : x y z
#
# Youngs Moduli (GPa) = 84.18794 90.19150 101.52986
#
# Poissons Ratio (x) = 0.13951 0.47798
# Poissons Ratio (y) = 0.13023 0.17446
# Poissons Ratio (z) = 0.39634 0.15498
#
# Static dielectric constant tensor:
#      x y z
#    x 4.030570 0.000000 -0.085150 
#    y 0.000000 2.253920 0.000000 
#    z -0.085150 0.000000 4.145700 
# 
# 
# High freq. dielectric constant tensor:
#      x y z
#    x 1.866230 0.000000 -0.002630 
#    y 0.000000 1.858480 0.000000 
#    z -0.002630 0.000000 1.862460 
# 
# From -- ./inp_files/43087.got.cif
#   From: 2010.03.12/outbox.cif.g09.slc.cpg/sg14_22_cif.got.tgz:43087.got - 2010.03.31 13:35:05.
