data_PCOD8128797
_publ_section_title
;
Structure prediction by ZEFSAII (Michael W. Deem and Ramdas Pophale) SiO2 
 PCOD8128797
Probable space group: P 21/C
;
_chemical_formula_sum "Si O2"
_cell_formula_units_Z 20
_cell_length_a 7.690767
_cell_length_b 10.757440
_cell_length_c 10.899933
_cell_angle_alpha 90.000000
_cell_angle_beta 80.434700
_cell_angle_gamma 90.000000
_cell_volume 889.246141
_symmetry_space_group_name_H-M "P 21/C"
_symmetry_group_IT_number 14
_symmetry_cell_setting 'monoclinic'
loop_
_space_group_symop_operation_xyz
x,y,z
-x,1/2+y,1/2-z
-x,-y,-z
x,1/2-y,1/2+z
loop_
_atom_site_type_symbol
_atom_site_label
_atom_site_fract_x
_atom_site_fract_y
_atom_site_fract_z
Si Si1 0.400903 0.874133 0.539956
Si Si2 0.536383 0.109893 0.901538
Si Si3 0.057178 0.650876 0.697655
Si Si4 0.253796 0.525119 0.297994
Si Si5 0.880847 0.246681 0.057914
O O1 0.515430 0.746216 0.536343
O O2 0.305651 0.884087 0.681677
O O3 0.257404 0.858102 0.449000
O O4 0.500000 0.000000 0.500000
O O5 0.737442 0.111631 0.829830
O O6 0.402489 0.080057 0.804382
O O7 0.500000 0.000000 0.000000
O O8 0.004732 0.730587 0.580997
O O9 0.012708 0.726002 0.829419
O O10 0.934292 0.531553 0.715227
O O11 0.225955 0.615608 0.418411
#
# Coordination Sequence:
#
# PCOD8128797 Si02
#       5
#     4   4   4   4   4
#     4  11  25  45  73 110 150 186 248 309 363 436
#     4  11  23  45  75 102 143 197 242 297 365 445
#     4  11  25  45  74 103 147 187 245 299 365 432
#     4  12  24  46  74 105 142 196 242 303 365 432
#     4  11  22  48  68 105 145 185 244 307 345 443
#
# _framework density 22.490960999999999
#
# number of rings (size 3 to 8) (size 9 to 14) (size 15 to 20)
#    0.000    0.800    8.000    1.800    0.000    2.400 
#    7.200    0.000    0.000    0.000    0.000    0.000 
#    0.000    0.000    0.000    0.000    0.000    0.000 
#
# Total GULP energy -247819.871498 kJ/mol
# GULP energy per Si atom -12390.993575 kJ/mol
# Density = 2.243977 g / cm^3
# Si number density = 22.490961 Si / 1000 Ang^3
#
#
#
# Elastic Constant Matrix: (Units=GPa)
#
#
# Indices 1 2 3 4 5 6 
#
# 1 69.9990 41.4571 17.8749 0.0000 5.4826 0.0000
# 2 41.4571 163.8608 48.9953 0.0000 7.2581 0.0000
# 3 17.8749 48.9953 146.9219 0.0000 23.7356 0.0000
# 4 0.0000 0.0000 0.0000 43.4302 0.0000 7.8564
# 5 5.4826 7.2581 23.7356 0.0000 15.2044 0.0000
# 6 0.0000 0.0000 0.0000 7.8564 0.0000 44.3671
#
#
#
# Elastic Compliance Matrix: (Units=1/GPa)
#
#
# Indices 1 2 3 4 5 6 
#
# 1 0.017060 -0.004123 -0.000033 0.000000 -0.004132 0.000000
# 2 -0.004123 0.007777 -0.002316 0.000000 0.001391 0.000000
# 3 -0.000033 -0.002316 0.009899 0.000000 -0.014335 0.000000
# 4 0.000000 0.000000 0.000000 0.023787 0.000000 -0.004212
# 5 -0.004132 0.001391 -0.014335 0.000000 0.088975 0.000000
# 6 0.000000 0.000000 0.000000 -0.004212 0.000000 0.023285
#
#
# Mechanical properties :
#
#
# Convention : Reuss Voigt Hill
#
# Bulk Modulus (GPa) = 45.89228 66.38179 56.13704
# Shear Modulus (GPa) = 26.17904 38.76397 32.47150
#
# Velocity S-wave (km/s) = 3.41542 4.15605 3.80380
# Velocity P-wave (km/s) = 6.00021 7.25323 6.65627
#
# Compressibility (1/GPa) = 0.02179016
#
# Stress axis : x y z
#
# Youngs Moduli (GPa) = 58.61662 128.58448 101.02300
#
# Poissons Ratio (x) = 0.53020 0.00333
# Poissons Ratio (y) = 0.24170 0.23402
# Poissons Ratio (z) = 0.00193 0.29786
#
# Static dielectric constant tensor:
#      x y z
#    x 3.868450 0.000000 0.179140 
#    y 0.000000 4.098670 0.000000 
#    z 0.179140 0.000000 4.337920 
# 
# 
# High freq. dielectric constant tensor:
#      x y z
#    x 1.855600 0.000000 0.017620 
#    y 0.000000 1.892390 0.000000 
#    z 0.017620 0.000000 1.905290 
# 
# From -- ./inp_files/23462.got.cif
#   From: 2010.03.12/outbox.cif.g09.slc.cpg/sg14_12_cif.got.tgz:23462.got - 2010.03.31 13:35:05.
