data_PCOD8128141
_publ_section_title
;
Structure prediction by ZEFSAII (Michael W. Deem and Ramdas Pophale) SiO2 
 PCOD8128141
Probable space group: P 21/C
;
_chemical_formula_sum "Si O2"
_cell_formula_units_Z 32
_cell_length_a 16.516459
_cell_length_b 8.897765
_cell_length_c 29.138185
_cell_angle_alpha 90.000000
_cell_angle_beta 18.954754
_cell_angle_gamma 90.000000
_cell_volume 1390.929074
_symmetry_space_group_name_H-M "P 21/C"
_symmetry_group_IT_number 14
_symmetry_cell_setting 'monoclinic'
loop_
_space_group_symop_operation_xyz
x,y,z
-x,1/2+y,1/2-z
-x,-y,-z
x,1/2-y,1/2+z
loop_
_atom_site_type_symbol
_atom_site_label
_atom_site_fract_x
_atom_site_fract_y
_atom_site_fract_z
Si Si1 0.657212 0.518112 0.323333
Si Si2 0.776145 0.825164 0.089470
Si Si3 0.135606 0.757121 0.734811
Si Si4 0.571676 0.016593 0.362652
Si Si5 0.680310 0.787919 0.039979
Si Si6 0.026438 0.216716 0.869791
Si Si7 0.749459 0.328918 0.607817
Si Si8 0.266278 0.752108 0.061834
O O1 0.791349 0.407321 0.286590
O O2 0.508996 0.426723 0.363831
O O3 0.493387 0.630763 0.442210
O O4 0.855523 0.617649 0.188844
O O5 0.836150 0.808251 0.003122
O O6 0.518073 0.740080 0.237549
O O7 0.731612 0.995641 0.128035
O O8 0.017938 0.760322 0.987075
O O9 0.324576 0.883740 0.651199
O O10 0.127189 0.756950 0.684637
O O11 0.859933 0.795498 0.899812
O O12 0.462142 0.128172 0.382661
O O13 0.356600 0.913349 0.499186
O O14 0.774226 0.915194 0.227515
O O15 0.929909 0.188543 0.870182
O O16 0.802451 0.203782 0.025900
#
# Coordination Sequence:
#
# PCOD8128141 Si02
#       8
#     4   4   4   4   4   4   4   4
#     4  10  24  41  66  95 139 176 233 284 351 414
#     4  11  28  48  77 110 146 189 243 301 363 432
#     4  11  23  41  66  99 137 180 231 284 349 420
#     4  10  24  41  67  94 142 177 231 285 353 412
#     4  11  25  44  67  99 136 182 229 292 351 421
#     4  11  25  45  68  98 136 183 228 291 352 425
#     4  11  28  49  76 110 146 189 243 300 364 433
#     4  11  23  41  66  98 137 182 230 283 349 420
#
# _framework density 23.006207
#
# number of rings (size 3 to 8) (size 9 to 14) (size 15 to 20)
#    0.000    1.250    0.000    3.750   12.250    9.500 
#    0.000    0.000    0.000    0.000    0.000    0.000 
#    0.000    0.000    0.000    0.000    0.000    0.000 
#
# Total GULP energy -396969.497301 kJ/mol
# GULP energy per Si atom -12405.296791 kJ/mol
# Density = 2.295384 g / cm^3
# Si number density = 23.006207 Si / 1000 Ang^3
#
#
#
# Elastic Constant Matrix: (Units=GPa)
#
#
# Indices 1 2 3 4 5 6 
#
# 1 102.4300 8.4951 11.6836 0.0000 -2.6397 0.0000
# 2 8.4951 108.8077 13.8234 0.0000 -10.0352 0.0000
# 3 11.6836 13.8234 79.2117 0.0000 -3.0053 0.0000
# 4 0.0000 0.0000 0.0000 27.2082 0.0000 -1.6893
# 5 -2.6397 -10.0352 -3.0053 0.0000 40.2396 0.0000
# 6 0.0000 0.0000 0.0000 -1.6893 0.0000 21.0352
#
#
#
# Elastic Compliance Matrix: (Units=1/GPa)
#
#
# Indices 1 2 3 4 5 6 
#
# 1 0.009975 -0.000569 -0.001357 0.000000 0.000411 0.000000
# 2 -0.000569 0.009635 -0.001512 0.000000 0.002253 0.000000
# 3 -0.001357 -0.001512 0.013108 0.000000 0.000513 0.000000
# 4 0.000000 0.000000 0.000000 0.036938 0.000000 0.002966
# 5 0.000411 0.002253 0.000513 0.000000 0.025478 0.000000
# 6 0.000000 0.000000 0.000000 0.002966 0.000000 0.047777
#
#
# Mechanical properties :
#
#
# Convention : Reuss Voigt Hill
#
# Bulk Modulus (GPa) = 38.69431 39.82818 39.26125
# Shear Modulus (GPa) = 31.56565 34.79311 33.17938
#
# Velocity S-wave (km/s) = 3.70814 3.89310 3.80174
# Velocity P-wave (km/s) = 5.93206 6.12844 6.03105
#
# Compressibility (1/GPa) = 0.02584359
#
# Stress axis : x y z
#
# Youngs Moduli (GPa) = 100.24819 103.79086 76.29038
#
# Poissons Ratio (x) = 0.05901 0.10349
# Poissons Ratio (y) = 0.05700 0.11536
# Poissons Ratio (z) = 0.13599 0.15694
#
# Static dielectric constant tensor:
#      x y z
#    x 4.102550 0.000000 -0.194590 
#    y 0.000000 4.372500 0.000000 
#    z -0.194590 0.000000 4.090520 
# 
# 
# High freq. dielectric constant tensor:
#      x y z
#    x 1.903110 0.000000 -0.010210 
#    y 0.000000 1.924960 0.000000 
#    z -0.010210 0.000000 1.909330 
# 
# From -- ./inp_files/80400.got.cif
#   From: 2010.03.12/outbox.cif.g09.slc.cpg/sg14_41_cif.got.tgz:80400.got - 2010.03.31 13:35:05.
