data_PCOD8128463
_publ_section_title
;
Structure prediction by ZEFSAII (Michael W. Deem and Ramdas Pophale) SiO2 
 PCOD8128463
Probable space group: P 21/C
;
_chemical_formula_sum "Si O2"
_cell_formula_units_Z 24
_cell_length_a 6.442813
_cell_length_b 15.388342
_cell_length_c 14.022218
_cell_angle_alpha 90.000000
_cell_angle_beta 58.136171
_cell_angle_gamma 90.000000
_cell_volume 1180.722433
_symmetry_space_group_name_H-M "P 21/C"
_symmetry_group_IT_number 14
_symmetry_cell_setting 'monoclinic'
loop_
_space_group_symop_operation_xyz
x,y,z
-x,1/2+y,1/2-z
-x,-y,-z
x,1/2-y,1/2+z
loop_
_atom_site_type_symbol
_atom_site_label
_atom_site_fract_x
_atom_site_fract_y
_atom_site_fract_z
Si Si1 0.285436 0.515837 0.919460
Si Si2 0.377265 0.873518 0.577471
Si Si3 0.816685 0.421703 0.562237
Si Si4 0.365768 0.538945 0.686020
Si Si5 0.934118 0.606331 0.311583
Si Si6 0.461918 0.678920 0.510669
O O1 0.444387 0.427174 0.894013
O O2 0.317926 0.560489 0.808056
O O3 0.383969 0.584264 0.971747
O O4 0.000000 0.500000 0.000000
O O5 0.474152 0.776667 0.542959
O O6 0.096863 0.866853 0.681320
O O7 0.551075 0.460087 0.638754
O O8 0.787164 0.348855 0.485643
O O9 0.000000 0.500000 0.500000
O O10 0.897252 0.374775 0.638460
O O11 0.131543 0.496550 0.687899
O O12 0.474023 0.621146 0.604033
O O13 0.694735 0.665185 0.384983
#
# Coordination Sequence:
#
# PCOD8128463 Si02
#       6
#     4   4   4   4   4   4
#     4  11  24  45  67  88 132 181 216 254 334 398
#     4  11  26  44  63  97 133 174 217 269 325 393
#     4  11  19  39  67  94 127 169 208 266 333 380
#     4  11  21  40  68  93 124 173 219 264 320 393
#     4  11  21  43  66  92 131 169 214 267 324 385
#     4  11  25  39  65 105 127 162 227 274 320 383
#
# _framework density 20.326536000000001
#
# number of rings (size 3 to 8) (size 9 to 14) (size 15 to 20)
#    0.000    1.000    6.667    1.000    0.000    4.000 
#    3.000    0.000    0.000    0.000    0.000    0.000 
#    0.000    0.000    0.000    0.000    0.000    0.000 
#
# Total GULP energy -297440.663946 kJ/mol
# GULP energy per Si atom -12393.360998 kJ/mol
# Density = 2.028027 g / cm^3
# Si number density = 20.326536 Si / 1000 Ang^3
#
#
#
# Elastic Constant Matrix: (Units=GPa)
#
#
# Indices 1 2 3 4 5 6 
#
# 1 93.2069 27.9100 30.0058 0.0000 5.1439 0.0000
# 2 27.9100 104.3954 41.1573 0.0000 -12.2835 0.0000
# 3 30.0058 41.1573 120.1541 0.0000 -4.8973 0.0000
# 4 0.0000 0.0000 0.0000 16.7193 0.0000 -2.7608
# 5 5.1439 -12.2835 -4.8973 0.0000 34.3235 0.0000
# 6 0.0000 0.0000 0.0000 -2.7608 0.0000 20.7019
#
#
#
# Elastic Compliance Matrix: (Units=1/GPa)
#
#
# Indices 1 2 3 4 5 6 
#
# 1 0.012484 -0.002814 -0.002284 0.000000 -0.003204 0.000000
# 2 -0.002814 0.012128 -0.003277 0.000000 0.004295 0.000000
# 3 -0.002284 -0.003277 0.010040 0.000000 0.000602 0.000000
# 4 0.000000 0.000000 0.000000 0.061158 0.000000 0.008156
# 5 -0.003204 0.004295 0.000602 0.000000 0.031238 0.000000
# 6 0.000000 0.000000 0.000000 0.008156 0.000000 0.049392
#
#
# Mechanical properties :
#
#
# Convention : Reuss Voigt Hill
#
# Bulk Modulus (GPa) = 55.85846 57.32253 56.59049
# Shear Modulus (GPa) = 25.10585 28.92783 27.01684
#
# Velocity S-wave (km/s) = 3.51825 3.77657 3.64969
# Velocity P-wave (km/s) = 6.63659 6.87595 6.75733
#
# Compressibility (1/GPa) = 0.01790239
#
# Stress axis : x y z
#
# Youngs Moduli (GPa) = 80.10521 82.45118 99.60159
#
# Poissons Ratio (x) = 0.23201 0.22751
# Poissons Ratio (y) = 0.22541 0.32636
# Poissons Ratio (z) = 0.18298 0.27017
#
# Static dielectric constant tensor:
#      x y z
#    x 4.196600 0.000000 0.106480 
#    y 0.000000 3.269410 0.000000 
#    z 0.106480 0.000000 3.649280 
# 
# 
# High freq. dielectric constant tensor:
#      x y z
#    x 1.806300 0.000000 0.004580 
#    y 0.000000 1.763690 0.000000 
#    z 0.004580 0.000000 1.803440 
# 
# From -- ./inp_files/37240.got.cif
#   From: 2010.03.12/outbox.cif.g09.slc.cpg/sg14_19_cif.got.tgz:37240.got - 2010.03.31 13:35:05.
