data_PCOD8128040
_publ_section_title
;
Structure prediction by ZEFSAII (Michael W. Deem and Ramdas Pophale) SiO2 
 PCOD8128040
Probable space group: P 21/C
;
_chemical_formula_sum "Si O2"
_cell_formula_units_Z 24
_cell_length_a 7.384420
_cell_length_b 14.083372
_cell_length_c 9.436818
_cell_angle_alpha 90.000000
_cell_angle_beta 87.335698
_cell_angle_gamma 90.000000
_cell_volume 980.344930
_symmetry_space_group_name_H-M "P 21/C"
_symmetry_group_IT_number 14
_symmetry_cell_setting 'monoclinic'
loop_
_space_group_symop_operation_xyz
x,y,z
-x,1/2+y,1/2-z
-x,-y,-z
x,1/2-y,1/2+z
loop_
_atom_site_type_symbol
_atom_site_label
_atom_site_fract_x
_atom_site_fract_y
_atom_site_fract_z
Si Si1 0.651879 0.610094 0.955507
Si Si2 0.825523 0.957707 0.175792
Si Si3 0.282840 0.674700 0.079290
Si Si4 0.347373 0.850898 0.894350
Si Si5 0.248694 0.325998 0.565930
Si Si6 0.076058 0.423198 0.827989
O O1 0.672942 0.566205 0.798749
O O2 0.737720 0.714658 0.958980
O O3 0.439132 0.610384 0.999505
O O4 0.764615 0.550423 0.068471
O O5 0.764991 0.051995 0.093458
O O6 0.016431 0.980342 0.247656
O O7 0.853159 0.872324 0.065106
O O8 0.344691 0.694578 0.237858
O O9 0.096335 0.616903 0.079450
O O10 0.256615 0.775202 0.003345
O O11 0.553031 0.872841 0.931217
O O12 0.137133 0.343903 0.712779
#
# Coordination Sequence:
#
# PCOD8128040 Si02
#       6
#     4   4   4   4   4   4
#     4  11  24  46  72  96 142 184 227 277 344 406
#     4  11  25  44  70 105 136 180 230 287 334 406
#     4  10  24  44  70 102 137 182 224 280 339 411
#     4  10  23  45  70 105 137 179 233 274 347 399
#     4  11  23  46  70 101 139 182 228 280 344 405
#     4  11  24  44  68 103 139 176 231 279 344 397
#
# _framework density 24.481180999999999
#
# number of rings (size 3 to 8) (size 9 to 14) (size 15 to 20)
#    0.000    1.333    1.667    2.500   11.667    2.667 
#    6.000    0.000    0.000    0.000    0.000    0.000 
#    0.000    0.000    0.000    0.000    0.000    0.000 
#
# Total GULP energy -297720.570528 kJ/mol
# GULP energy per Si atom -12405.023772 kJ/mol
# Density = 2.442546 g / cm^3
# Si number density = 24.481181 Si / 1000 Ang^3
#
#
#
# Elastic Constant Matrix: (Units=GPa)
#
#
# Indices 1 2 3 4 5 6 
#
# 1 71.5681 16.0864 7.9925 0.0000 -7.0115 0.0000
# 2 16.0864 40.7272 11.3593 0.0000 12.7778 0.0000
# 3 7.9925 11.3593 97.3929 0.0000 -2.2206 0.0000
# 4 0.0000 0.0000 0.0000 54.6981 0.0000 -0.0755
# 5 -7.0115 12.7778 -2.2206 0.0000 35.9052 0.0000
# 6 0.0000 0.0000 0.0000 -0.0755 0.0000 15.0984
#
#
#
# Elastic Compliance Matrix: (Units=1/GPa)
#
#
# Indices 1 2 3 4 5 6 
#
# 1 0.016492 -0.008392 -0.000233 0.000000 0.006192 0.000000
# 2 -0.008392 0.033120 -0.003485 0.000000 -0.013641 0.000000
# 3 -0.000233 -0.003485 0.010736 0.000000 0.001859 0.000000
# 4 0.000000 0.000000 0.000000 0.018282 0.000000 0.000091
# 5 0.006192 -0.013641 0.001859 0.000000 0.034030 0.000000
# 6 0.000000 0.000000 0.000000 0.000091 0.000000 0.066233
#
#
# Mechanical properties :
#
#
# Convention : Reuss Voigt Hill
#
# Bulk Modulus (GPa) = 27.68037 31.17387 29.42712
# Shear Modulus (GPa) = 23.23905 32.75698 27.99802
#
# Velocity S-wave (km/s) = 3.08435 3.66190 3.38547
# Velocity P-wave (km/s) = 4.90058 5.53541 5.22764
#
# Compressibility (1/GPa) = 0.03612669
#
# Stress axis : x y z
#
# Youngs Moduli (GPa) = 60.63682 30.19330 93.14690
#
# Poissons Ratio (x) = 0.25337 0.02175
# Poissons Ratio (y) = 0.50884 0.32464
# Poissons Ratio (z) = 0.01416 0.10523
#
# Static dielectric constant tensor:
#      x y z
#    x 4.436430 0.000000 0.059910 
#    y 0.000000 4.286330 0.000000 
#    z 0.059910 0.000000 4.528560 
# 
# 
# High freq. dielectric constant tensor:
#      x y z
#    x 1.974570 0.000000 -0.000850 
#    y 0.000000 1.967610 0.000000 
#    z -0.000850 0.000000 1.982200 
# 
# From -- ./inp_files/8525.got.cif
#   From: 2010.03.12/outbox.cif.g09.slc.cpg/sg14_5_cif.got.tgz:8525.got - 2010.03.31 13:35:05.
