data_PCOD8128778
_publ_section_title
;
Structure prediction by ZEFSAII (Michael W. Deem and Ramdas Pophale) SiO2 
 PCOD8128778
Probable space group: P 21/C
;
_chemical_formula_sum "Si O2"
_cell_formula_units_Z 28
_cell_length_a 6.567279
_cell_length_b 16.202671
_cell_length_c 16.265983
_cell_angle_alpha 90.000000
_cell_angle_beta 132.735202
_cell_angle_gamma 90.000000
_cell_volume 1271.284918
_symmetry_space_group_name_H-M "P 21/C"
_symmetry_group_IT_number 14
_symmetry_cell_setting 'monoclinic'
loop_
_space_group_symop_operation_xyz
x,y,z
-x,1/2+y,1/2-z
-x,-y,-z
x,1/2-y,1/2+z
loop_
_atom_site_type_symbol
_atom_site_label
_atom_site_fract_x
_atom_site_fract_y
_atom_site_fract_z
Si Si1 0.597292 0.326432 0.935196
Si Si2 0.516317 0.531137 0.209687
Si Si3 0.113367 0.031948 0.881381
Si Si4 0.478800 0.916140 0.883125
Si Si5 0.213782 0.181535 0.795919
Si Si6 0.209825 0.125797 0.614776
Si Si7 0.609229 0.229594 0.619264
O O1 0.430462 0.401634 0.847312
O O2 0.484537 0.239804 0.869504
O O3 0.552671 0.323550 0.020959
O O4 0.919211 0.340770 0.998624
O O5 0.447908 0.576838 0.276472
O O6 0.268159 0.470767 0.111486
O O7 0.783584 0.473111 0.295860
O O8 0.223183 0.116277 0.871458
O O9 0.211485 0.953104 0.855795
O O10 0.249882 0.033644 0.009986
O O11 0.510184 0.821163 0.917845
O O12 0.209265 0.129025 0.712374
O O13 0.936290 0.236553 0.727551
O O14 0.455581 0.182378 0.649450
#
# Coordination Sequence:
#
# PCOD8128778 Si02
#       7
#     4   4   4   4   4   4   4
#     4  11  26  43  68  99 137 176 223 281 335 408
#     4  12  24  44  68 103 135 179 225 277 340 398
#     4  11  23  43  71  96 137 177 222 280 333 398
#     4  11  24  43  68 103 131 177 228 278 335 402
#     4  11  22  46  67  98 137 177 221 279 332 394
#     4  11  25  43  68  99 137 178 225 279 337 401
#     4  11  24  44  69  99 133 178 226 272 340 403
#
# _framework density 22.024958999999999
#
# number of rings (size 3 to 8) (size 9 to 14) (size 15 to 20)
#    0.000    0.857    4.286    2.571    0.000    6.286 
#    0.000    0.000    0.000    0.000    0.000    0.000 
#    0.000    0.000    0.000    0.000    0.000    0.000 
#
# Total GULP energy -347226.264532 kJ/mol
# GULP energy per Si atom -12400.938019 kJ/mol
# Density = 2.197483 g / cm^3
# Si number density = 22.024959 Si / 1000 Ang^3
#
#
#
# Elastic Constant Matrix: (Units=GPa)
#
#
# Indices 1 2 3 4 5 6 
#
# 1 77.3886 37.2092 26.7330 0.0000 2.1931 0.0000
# 2 37.2092 120.6042 30.0396 0.0000 -7.8220 0.0000
# 3 26.7330 30.0396 83.4377 0.0000 6.2104 0.0000
# 4 0.0000 0.0000 0.0000 30.1270 0.0000 2.8627
# 5 2.1931 -7.8220 6.2104 0.0000 24.1786 0.0000
# 6 0.0000 0.0000 0.0000 2.8627 0.0000 35.2578
#
#
#
# Elastic Compliance Matrix: (Units=1/GPa)
#
#
# Indices 1 2 3 4 5 6 
#
# 1 0.016243 -0.004259 -0.003526 0.000000 -0.001946 0.000000
# 2 -0.004259 0.010593 -0.002786 0.000000 0.004529 0.000000
# 3 -0.003526 -0.002786 0.014437 0.000000 -0.004290 0.000000
# 4 0.000000 0.000000 0.000000 0.033451 0.000000 -0.002716
# 5 -0.001946 0.004529 -0.004290 0.000000 0.044102 0.000000
# 6 0.000000 0.000000 0.000000 -0.002716 0.000000 0.028583
#
#
# Mechanical properties :
#
#
# Convention : Reuss Voigt Hill
#
# Bulk Modulus (GPa) = 49.67614 52.15490 50.91552
# Shear Modulus (GPa) = 28.52859 30.40925 29.46892
#
# Velocity S-wave (km/s) = 3.60291 3.71977 3.66181
# Velocity P-wave (km/s) = 6.31755 6.49463 6.40670
#
# Compressibility (1/GPa) = 0.02013039
#
# Stress axis : x y z
#
# Youngs Moduli (GPa) = 61.56583 94.39824 69.26592
#
# Poissons Ratio (x) = 0.40207 0.24422
# Poissons Ratio (y) = 0.26222 0.19300
# Poissons Ratio (z) = 0.21707 0.26303
#
# Static dielectric constant tensor:
#      x y z
#    x 3.859050 0.000000 0.075770 
#    y 0.000000 3.863060 0.000000 
#    z 0.075770 0.000000 4.016460 
# 
# 
# High freq. dielectric constant tensor:
#      x y z
#    x 1.859140 0.000000 0.001510 
#    y 0.000000 1.870710 0.000000 
#    z 0.001510 0.000000 1.874800 
# 
# From -- ./inp_files/37782.got.cif
#   From: 2010.03.12/outbox.cif.g09.slc.cpg/sg14_19_cif.got.tgz:37782.got - 2010.03.31 13:35:05.
