data_PCOD8128013
_publ_section_title
;
Structure prediction by ZEFSAII (Michael W. Deem and Ramdas Pophale) SiO2 
 PCOD8128013
Probable space group: P 21/C
;
_chemical_formula_sum "Si O2"
_cell_formula_units_Z 20
_cell_length_a 9.192331
_cell_length_b 10.070306
_cell_length_c 12.274085
_cell_angle_alpha 90.000000
_cell_angle_beta 53.113417
_cell_angle_gamma 90.000000
_cell_volume 908.767007
_symmetry_space_group_name_H-M "P 21/C"
_symmetry_group_IT_number 14
_symmetry_cell_setting 'monoclinic'
loop_
_space_group_symop_operation_xyz
x,y,z
-x,1/2+y,1/2-z
-x,-y,-z
x,1/2-y,1/2+z
loop_
_atom_site_type_symbol
_atom_site_label
_atom_site_fract_x
_atom_site_fract_y
_atom_site_fract_z
Si Si1 0.001181 0.488574 0.202759
Si Si2 0.190928 0.184229 0.355605
Si Si3 0.060896 0.710692 0.341699
Si Si4 0.456907 0.624277 0.174366
Si Si5 0.347287 0.372995 0.116967
O O1 0.922249 0.554465 0.128443
O O2 0.915214 0.339716 0.248080
O O3 0.971133 0.583399 0.321088
O O4 0.219184 0.466564 0.096350
O O5 0.396478 0.151504 0.298519
O O6 0.215073 0.270557 0.235760
O O7 0.078461 0.260903 0.497849
O O8 0.260194 0.677639 0.300088
O O9 0.448216 0.464921 0.159917
O O10 0.513384 0.692692 0.032440
#
# Coordination Sequence:
#
# PCOD8128013 Si02
#       5
#     4   4   4   4   4
#     4  11  22  45  67  95 134 176 212 275 333 381
#     4  12  23  43  70  98 129 175 229 263 328 399
#     4  11  25  43  70  97 133 175 219 272 330 390
#     4  10  24  41  67  95 135 175 215 271 334 384
#     4  10  23  45  62  97 137 171 217 277 324 389
#
# _framework density 22.007840000000002
#
# number of rings (size 3 to 8) (size 9 to 14) (size 15 to 20)
#    0.000    1.200    4.000    0.600    2.800    6.400 
#    3.600    2.000    0.000    0.000    0.000    0.000 
#    0.000    0.000    0.000    0.000    0.000    0.000 
#
# Total GULP energy -247786.528799 kJ/mol
# GULP energy per Si atom -12389.326440 kJ/mol
# Density = 2.195775 g / cm^3
# Si number density = 22.007840 Si / 1000 Ang^3
#
#
#
# Elastic Constant Matrix: (Units=GPa)
#
#
# Indices 1 2 3 4 5 6 
#
# 1 132.2020 22.6589 16.7509 0.0000 -17.4587 0.0000
# 2 22.6589 70.0450 7.6537 0.0000 3.0937 0.0000
# 3 16.7509 7.6537 48.0530 0.0000 -10.9047 0.0000
# 4 0.0000 0.0000 0.0000 30.4457 0.0000 1.6474
# 5 -17.4587 3.0937 -10.9047 0.0000 22.8006 0.0000
# 6 0.0000 0.0000 0.0000 1.6474 0.0000 31.0698
#
#
#
# Elastic Compliance Matrix: (Units=1/GPa)
#
#
# Indices 1 2 3 4 5 6 
#
# 1 0.009157 -0.003144 -0.001125 0.000000 0.006900 0.000000
# 2 -0.003144 0.015855 -0.002764 0.000000 -0.005881 0.000000
# 3 -0.001125 -0.002764 0.024154 0.000000 0.011065 0.000000
# 4 0.000000 0.000000 0.000000 0.032940 0.000000 -0.001747
# 5 0.006900 -0.005881 0.011065 0.000000 0.055232 0.000000
# 6 0.000000 0.000000 0.000000 -0.001747 0.000000 0.032278
#
#
# Mechanical properties :
#
#
# Convention : Reuss Voigt Hill
#
# Bulk Modulus (GPa) = 28.49046 38.26967 33.38006
# Shear Modulus (GPa) = 25.59085 30.41231 28.00158
#
# Velocity S-wave (km/s) = 3.41369 3.72140 3.57086
# Velocity P-wave (km/s) = 5.33961 5.99099 5.67466
#
# Compressibility (1/GPa) = 0.03509947
#
# Stress axis : x y z
#
# Youngs Moduli (GPa) = 109.20791 63.07035 41.40113
#
# Poissons Ratio (x) = 0.19829 0.04660
# Poissons Ratio (y) = 0.34334 0.11443
# Poissons Ratio (z) = 0.12291 0.17432
#
# Static dielectric constant tensor:
#      x y z
#    x 4.132310 0.000000 -0.074750 
#    y 0.000000 4.131950 0.000000 
#    z -0.074750 0.000000 3.670380 
# 
# 
# High freq. dielectric constant tensor:
#      x y z
#    x 1.885750 0.000000 -0.007510 
#    y 0.000000 1.858150 0.000000 
#    z -0.007510 0.000000 1.844860 
# 
# From -- ./inp_files/24007.got.cif
#   From: 2010.03.12/outbox.cif.g09.slc.cpg/sg14_13_cif.got.tgz:24007.got - 2010.03.31 13:35:05.
