data_PCOD8128161
_publ_section_title
;
Structure prediction by ZEFSAII (Michael W. Deem and Ramdas Pophale) SiO2 
 PCOD8128161
Probable space group: P 21/C
;
_chemical_formula_sum "Si O2"
_cell_formula_units_Z 20
_cell_length_a 18.431349
_cell_length_b 10.274712
_cell_length_c 13.326500
_cell_angle_alpha 90.000000
_cell_angle_beta 158.224722
_cell_angle_gamma 90.000000
_cell_volume 936.220981
_symmetry_space_group_name_H-M "P 21/C"
_symmetry_group_IT_number 14
_symmetry_cell_setting 'monoclinic'
loop_
_space_group_symop_operation_xyz
x,y,z
-x,1/2+y,1/2-z
-x,-y,-z
x,1/2-y,1/2+z
loop_
_atom_site_type_symbol
_atom_site_label
_atom_site_fract_x
_atom_site_fract_y
_atom_site_fract_z
Si Si1 0.338338 0.327444 0.171494
Si Si2 0.560831 0.961261 0.689089
Si Si3 0.191493 0.433734 0.787326
Si Si4 0.167465 0.335928 0.161570
Si Si5 0.739348 0.417592 0.594195
O O1 0.319273 0.171912 0.152155
O O2 0.272868 0.383707 0.194925
O O3 0.562691 0.358394 0.432488
O O4 0.183657 0.387706 0.893175
O O5 0.500000 0.000000 0.500000
O O6 0.358966 0.956512 0.492945
O O7 0.689584 0.071893 0.911312
O O8 0.244251 0.307114 0.788506
O O9 0.000000 0.500000 0.500000
O O10 0.223589 0.436045 0.320315
O O11 0.931555 0.328827 0.849910
#
# Coordination Sequence:
#
# PCOD8128161 Si02
#       5
#     4   4   4   4   4
#     4  11  23  42  66  95 129 170 218 266 332 387
#     4  11  22  41  66  91 132 168 214 268 327 380
#     4  11  24  41  65  98 130 170 223 268 321 396
#     4  11  22  43  66  90 134 168 216 272 326 382
#     4  10  24  42  62  96 127 170 215 273 319 392
#
# _framework density 21.362476999999998
#
# number of rings (size 3 to 8) (size 9 to 14) (size 15 to 20)
#    0.000    1.200    4.000    1.800    2.800    0.000 
#    0.000    0.000    0.000    0.000    0.000    0.000 
#    0.000    0.000    0.000    0.000    0.000    0.000 
#
# Total GULP energy -247928.234293 kJ/mol
# GULP energy per Si atom -12396.411715 kJ/mol
# Density = 2.131385 g / cm^3
# Si number density = 21.362477 Si / 1000 Ang^3
#
#
#
# Elastic Constant Matrix: (Units=GPa)
#
#
# Indices 1 2 3 4 5 6 
#
# 1 121.4347 9.3532 29.9687 0.0000 -19.4443 0.0000
# 2 9.3532 48.6301 4.4725 0.0000 -4.1866 0.0000
# 3 29.9687 4.4725 88.4485 0.0000 -9.2913 0.0000
# 4 0.0000 0.0000 0.0000 35.6805 0.0000 -3.3360
# 5 -19.4443 -4.1866 -9.2913 0.0000 39.8554 0.0000
# 6 0.0000 0.0000 0.0000 -3.3360 0.0000 27.7862
#
#
#
# Elastic Compliance Matrix: (Units=1/GPa)
#
#
# Indices 1 2 3 4 5 6 
#
# 1 0.009650 -0.001261 -0.002794 0.000000 0.003924 0.000000
# 2 -0.001261 0.020977 -0.000478 0.000000 0.001477 0.000000
# 3 -0.002794 -0.000478 0.012433 0.000000 0.001485 0.000000
# 4 0.000000 0.000000 0.000000 0.028345 0.000000 0.003403
# 5 0.003924 0.001477 0.001485 0.000000 0.027506 0.000000
# 6 0.000000 0.000000 0.000000 0.003403 0.000000 0.036398
#
#
# Mechanical properties :
#
#
# Convention : Reuss Voigt Hill
#
# Bulk Modulus (GPa) = 29.41745 38.45580 33.93663
# Shear Modulus (GPa) = 32.11185 34.97903 33.54544
#
# Velocity S-wave (km/s) = 3.88130 4.05088 3.96700
# Velocity P-wave (km/s) = 5.82122 6.31824 6.07481
#
# Compressibility (1/GPa) = 0.03399343
#
# Stress axis : x y z
#
# Youngs Moduli (GPa) = 103.62924 47.67106 80.43265
#
# Poissons Ratio (x) = 0.06012 0.22470
# Poissons Ratio (y) = 0.13070 0.03847
# Poissons Ratio (z) = 0.28950 0.02280
#
# Static dielectric constant tensor:
#      x y z
#    x 3.923590 0.000000 -0.114930 
#    y 0.000000 3.835510 0.000000 
#    z -0.114930 0.000000 4.048700 
# 
# 
# High freq. dielectric constant tensor:
#      x y z
#    x 1.838320 0.000000 -0.013840 
#    y 0.000000 1.829910 0.000000 
#    z -0.013840 0.000000 1.847530 
# 
# From -- ./inp_files/23762.got.cif
#   From: 2010.03.12/outbox.cif.g09.slc.cpg/sg14_12_cif.got.tgz:23762.got - 2010.03.31 13:35:05.
