data_PCOD8128113
_publ_section_title
;
Structure prediction by ZEFSAII (Michael W. Deem and Ramdas Pophale) SiO2 
 PCOD8128113
Probable space group: P 21/C
;
_chemical_formula_sum "Si O2"
_cell_formula_units_Z 32
_cell_length_a 14.374431
_cell_length_b 9.279096
_cell_length_c 22.206702
_cell_angle_alpha 90.000000
_cell_angle_beta 148.993384
_cell_angle_gamma 90.000000
_cell_volume 1525.819571
_symmetry_space_group_name_H-M "P 21/C"
_symmetry_group_IT_number 14
_symmetry_cell_setting 'monoclinic'
loop_
_space_group_symop_operation_xyz
x,y,z
-x,1/2+y,1/2-z
-x,-y,-z
x,1/2-y,1/2+z
loop_
_atom_site_type_symbol
_atom_site_label
_atom_site_fract_x
_atom_site_fract_y
_atom_site_fract_z
Si Si1 0.463052 0.486497 0.165475
Si Si2 0.555788 0.817430 0.544451
Si Si3 0.768190 0.335159 0.046522
Si Si4 0.330443 0.820996 0.824969
Si Si5 0.453797 0.147204 0.168054
Si Si6 0.840390 0.477322 0.558524
Si Si7 0.164605 0.076404 0.807777
Si Si8 0.239004 0.522533 0.764962
O O1 0.439061 0.318799 0.167162
O O2 0.468423 0.578901 0.228663
O O3 0.643908 0.522256 0.228042
O O4 0.291048 0.538555 0.031552
O O5 0.371423 0.803897 0.478071
O O6 0.503420 0.772394 0.447203
O O7 0.707857 0.701235 0.647763
O O8 0.650743 0.973313 0.611813
O O9 0.959009 0.383600 0.179819
O O10 0.765702 0.183569 0.010754
O O11 0.403548 0.896244 0.805293
O O12 0.189930 0.692339 0.735132
O O13 0.232327 0.931237 0.813816
O O14 0.259371 0.078839 0.045017
O O15 0.816565 0.549035 0.610845
O O16 0.046961 0.448366 0.655411
#
# Coordination Sequence:
#
# PCOD8128113 Si02
#       8
#     4   4   4   4   4   4   4   4
#     4  10  25  48  67  96 125 179 226 279 328 396
#     4  11  20  43  61  98 137 177 208 266 335 396
#     4  11  24  41  68  97 139 175 221 269 328 397
#     4  11  22  40  65  98 136 171 216 271 335 404
#     4  11  24  44  73  90 129 177 226 274 338 388
#     4  12  23  40  65 101 134 178 215 275 329 401
#     4  12  24  38  66 106 140 173 216 272 334 400
#     4  10  24  39  66  95 135 175 217 270 335 395
#
# _framework density 20.972335000000001
#
# number of rings (size 3 to 8) (size 9 to 14) (size 15 to 20)
#    0.000    1.000    3.750    3.000    1.750    3.500 
#    0.000    0.625    0.000    0.000    0.000    0.000 
#    0.000    0.000    0.000    0.000    0.000    0.000 
#
# Total GULP energy -396658.996076 kJ/mol
# GULP energy per Si atom -12395.593627 kJ/mol
# Density = 2.092460 g / cm^3
# Si number density = 20.972335 Si / 1000 Ang^3
#
#
#
# Elastic Constant Matrix: (Units=GPa)
#
#
# Indices 1 2 3 4 5 6 
#
# 1 54.8258 29.7244 19.8567 0.0000 8.2192 0.0000
# 2 29.7244 95.0120 18.4624 0.0000 5.7240 0.0000
# 3 19.8567 18.4624 64.1069 0.0000 11.1679 0.0000
# 4 0.0000 0.0000 0.0000 35.5793 0.0000 -4.8134
# 5 8.2192 5.7240 11.1679 0.0000 34.0778 0.0000
# 6 0.0000 0.0000 0.0000 -4.8134 0.0000 32.3119
#
#
#
# Elastic Compliance Matrix: (Units=1/GPa)
#
#
# Indices 1 2 3 4 5 6 
#
# 1 0.023964 -0.006328 -0.005068 0.000000 -0.003056 0.000000
# 2 -0.006328 0.012844 -0.001728 0.000000 -0.000065 0.000000
# 3 -0.005068 -0.001728 0.018456 0.000000 -0.004536 0.000000
# 4 0.000000 0.000000 0.000000 0.028684 0.000000 0.004273
# 5 -0.003056 -0.000065 -0.004536 0.000000 0.031579 0.000000
# 6 0.000000 0.000000 0.000000 0.004273 0.000000 0.031585
#
#
# Mechanical properties :
#
#
# Convention : Reuss Voigt Hill
#
# Bulk Modulus (GPa) = 34.46203 38.89242 36.67722
# Shear Modulus (GPa) = 27.31744 30.12055 28.71900
#
# Velocity S-wave (km/s) = 3.61300 3.79384 3.70452
# Velocity P-wave (km/s) = 5.82003 6.14621 5.98534
#
# Compressibility (1/GPa) = 0.02901745
#
# Stress axis : x y z
#
# Youngs Moduli (GPa) = 41.72903 77.85492 54.18168
#
# Poissons Ratio (x) = 0.49269 0.27458
# Poissons Ratio (y) = 0.26407 0.09361
# Poissons Ratio (z) = 0.21148 0.13451
#
# Static dielectric constant tensor:
#      x y z
#    x 3.741450 0.000000 0.082220 
#    y 0.000000 4.072030 0.000000 
#    z 0.082220 0.000000 3.784240 
# 
# 
# High freq. dielectric constant tensor:
#      x y z
#    x 1.811260 0.000000 0.009340 
#    y 0.000000 1.845050 0.000000 
#    z 0.009340 0.000000 1.815560 
# 
# From -- ./inp_files/43686.got.cif
#   From: 2010.03.12/outbox.cif.g09.slc.cpg/sg14_22_cif.got.tgz:43686.got - 2010.03.31 13:35:05.
