data_PCOD8128407
_publ_section_title
;
Structure prediction by ZEFSAII (Michael W. Deem and Ramdas Pophale) SiO2 
 PCOD8128407
Probable space group: P 21/C
;
_chemical_formula_sum "Si O2"
_cell_formula_units_Z 20
_cell_length_a 15.682609
_cell_length_b 4.845390
_cell_length_c 9.047342
_cell_angle_alpha 90.000000
_cell_angle_beta 91.696388
_cell_angle_gamma 90.000000
_cell_volume 687.191344
_symmetry_space_group_name_H-M "P 21/C"
_symmetry_group_IT_number 14
_symmetry_cell_setting 'monoclinic'
loop_
_space_group_symop_operation_xyz
x,y,z
-x,1/2+y,1/2-z
-x,-y,-z
x,1/2-y,1/2+z
loop_
_atom_site_type_symbol
_atom_site_label
_atom_site_fract_x
_atom_site_fract_y
_atom_site_fract_z
Si Si1 0.296364 0.819238 0.234231
Si Si2 0.444982 0.302766 0.783325
Si Si3 0.323683 0.105118 0.512997
Si Si4 0.056896 0.017381 0.769570
Si Si5 0.840229 0.595485 0.438704
O O1 0.362619 0.071879 0.180877
O O2 0.302545 0.827392 0.411652
O O3 0.197897 0.865270 0.176749
O O4 0.329721 0.522280 0.179884
O O5 0.524158 0.512395 0.779510
O O6 0.413121 0.273117 0.951991
O O7 0.242745 0.296732 0.478949
O O8 0.116370 0.156402 0.649846
O O9 0.973363 0.215243 0.788628
O O10 0.098756 0.973583 0.932385
#
# Coordination Sequence:
#
# PCOD8128407 Si02
#       5
#     4   4   4   4   4
#     4  10  26  44  74 105 143 202 248 298 370 430
#     4  10  25  47  70 108 150 194 248 316 361 426
#     4  10  26  44  74 105 143 202 248 298 370 430
#     4  12  29  49  76 112 146 192 238 304 379 434
#     4  12  26  48  74 104 156 186 252 298 358 464
#
# _framework density 29.103974999999998
#
# number of rings (size 3 to 8) (size 9 to 14) (size 15 to 20)
#    1.200    0.000    2.000    1.200   14.000    1.600 
#    0.000    0.000    0.000    0.000    0.000    0.000 
#    0.000    0.000    0.000    0.000    0.000    0.000 
#
# Total GULP energy -247945.487147 kJ/mol
# GULP energy per Si atom -12397.274357 kJ/mol
# Density = 2.903773 g / cm^3
# Si number density = 29.103975 Si / 1000 Ang^3
#
#
#
# Elastic Constant Matrix: (Units=GPa)
#
#
# Indices 1 2 3 4 5 6 
#
# 1 113.0438 -26.6971 3.5394 0.0000 22.7353 0.0000
# 2 -26.6971 63.3672 -28.6491 0.0000 11.5813 0.0000
# 3 3.5394 -28.6491 61.7512 0.0000 22.3043 0.0000
# 4 0.0000 0.0000 0.0000 38.0684 0.0000 -0.0577
# 5 22.7353 11.5813 22.3043 0.0000 61.1165 0.0000
# 6 0.0000 0.0000 0.0000 -0.0577 0.0000 28.8659
#
#
#
# Elastic Compliance Matrix: (Units=1/GPa)
#
#
# Indices 1 2 3 4 5 6 
#
# 1 0.013140 0.010868 0.007831 0.000000 -0.009805 0.000000
# 2 0.010868 0.033372 0.021429 0.000000 -0.018187 0.000000
# 3 0.007831 0.021429 0.032489 0.000000 -0.018830 0.000000
# 4 0.000000 0.000000 0.000000 0.026269 0.000000 0.000052
# 5 -0.009805 -0.018187 -0.018830 0.000000 0.030328 0.000000
# 6 0.000000 0.000000 0.000000 0.000052 0.000000 0.034643
#
#
# Mechanical properties :
#
#
# Convention : Reuss Voigt Hill
#
# Bulk Modulus (GPa) = 6.27915 14.94985 10.61450
# Shear Modulus (GPa) = 34.94798 44.94141 39.94469
#
# Velocity S-wave (km/s) = 3.46901 3.93385 3.70872
# Velocity P-wave (km/s) = 4.26703 5.07754 4.68983
#
# Compressibility (1/GPa) = 0.15925733
#
# Stress axis : x y z
#
# Youngs Moduli (GPa) = 76.10522 29.96490 30.78000
#
# Poissons Ratio (x) = -0.32567 -0.24103
# Poissons Ratio (y) = -0.82714 -0.65959
# Poissons Ratio (z) = -0.59596 -0.64212
#
# Static dielectric constant tensor:
#      x y z
#    x 5.628120 0.000000 -0.055650 
#    y 0.000000 5.092530 0.000000 
#    z -0.055650 0.000000 5.342870 
# 
# 
# High freq. dielectric constant tensor:
#      x y z
#    x 2.211830 0.000000 -0.000830 
#    y 0.000000 2.191130 0.000000 
#    z -0.000830 0.000000 2.186720 
# 
# From -- ./inp_files/18409.got.cif
#   From: 2010.03.12/outbox.cif.g09.slc.cpg/sg14_10_cif.got.tgz:18409.got - 2010.03.31 13:35:05.
