data_PCOD8128226
_publ_section_title
;
Structure prediction by ZEFSAII (Michael W. Deem and Ramdas Pophale) SiO2 
 PCOD8128226
Probable space group: P 21/C
;
_chemical_formula_sum "Si O2"
_cell_formula_units_Z 24
_cell_length_a 11.670580
_cell_length_b 11.675048
_cell_length_c 23.122358
_cell_angle_alpha 90.000000
_cell_angle_beta 20.784779
_cell_angle_gamma 90.000000
_cell_volume 1117.991700
_symmetry_space_group_name_H-M "P 21/C"
_symmetry_group_IT_number 14
_symmetry_cell_setting 'monoclinic'
loop_
_space_group_symop_operation_xyz
x,y,z
-x,1/2+y,1/2-z
-x,-y,-z
x,1/2-y,1/2+z
loop_
_atom_site_type_symbol
_atom_site_label
_atom_site_fract_x
_atom_site_fract_y
_atom_site_fract_z
Si Si1 0.243047 0.550134 0.664923
Si Si2 0.272601 0.912406 0.774778
Si Si3 0.558416 0.679151 0.616978
Si Si4 0.368104 0.355844 0.681488
Si Si5 0.926991 0.885120 0.204368
Si Si6 0.668000 0.993036 0.690714
O O1 0.500000 0.500000 0.500000
O O2 0.398688 0.649266 0.630645
O O3 0.131529 0.443032 0.757805
O O4 0.961154 0.604062 0.758082
O O5 0.535846 0.815284 0.636022
O O6 0.370327 0.976385 0.787505
O O7 0.270019 0.004898 0.724595
O O8 0.931342 0.851548 0.942254
O O9 0.379032 0.611154 0.752706
O O10 0.283430 0.225874 0.709422
O O11 0.329486 0.383897 0.767371
O O12 0.735472 0.380259 0.489158
O O13 0.000000 0.000000 0.500000
#
# Coordination Sequence:
#
# PCOD8128226 Si02
#       6
#     4   4   4   4   4   4
#     4   9  19  44  67  93 138 173 218 276 338 385
#     4  12  25  42  69  99 136 175 227 269 341 390
#     4  11  24  43  68  98 135 178 221 280 331 400
#     4  10  24  43  68  97 136 173 225 274 335 393
#     4  11  24  42  71  98 134 179 219 280 333 402
#     4  11  25  45  68  95 138 175 224 277 337 397
#
# _framework density 21.467065999999999
#
# number of rings (size 3 to 8) (size 9 to 14) (size 15 to 20)
#    0.000    1.333    5.000    1.500    7.000    0.000 
#    0.000    0.833    0.000    0.000    0.000    0.000 
#    0.000    0.000    0.000    0.000    0.000    0.000 
#
# Total GULP energy -297622.401321 kJ/mol
# GULP energy per Si atom -12400.933388 kJ/mol
# Density = 2.141821 g / cm^3
# Si number density = 21.467066 Si / 1000 Ang^3
#
#
#
# Elastic Constant Matrix: (Units=GPa)
#
#
# Indices 1 2 3 4 5 6 
#
# 1 169.2522 47.2899 34.1488 0.0000 -13.4155 0.0000
# 2 47.2899 126.8071 26.6987 0.0000 -16.7199 0.0000
# 3 34.1488 26.6987 43.8795 0.0000 -4.3499 0.0000
# 4 0.0000 0.0000 0.0000 35.3169 0.0000 -7.5669
# 5 -13.4155 -16.7199 -4.3499 0.0000 26.4851 0.0000
# 6 0.0000 0.0000 0.0000 -7.5669 0.0000 35.4028
#
#
#
# Elastic Compliance Matrix: (Units=1/GPa)
#
#
# Indices 1 2 3 4 5 6 
#
# 1 0.007435 -0.001523 -0.004657 0.000000 0.002040 0.000000
# 2 -0.001523 0.010025 -0.004435 0.000000 0.004828 0.000000
# 3 -0.004657 -0.004435 0.029075 0.000000 -0.000384 0.000000
# 4 0.000000 0.000000 0.000000 0.029674 0.000000 0.006342
# 5 0.002040 0.004828 -0.000384 0.000000 0.041775 0.000000
# 6 0.000000 0.000000 0.000000 0.006342 0.000000 0.029602
#
#
# Mechanical properties :
#
#
# Convention : Reuss Voigt Hill
#
# Bulk Modulus (GPa) = 39.52151 61.80149 50.66150
# Shear Modulus (GPa) = 28.20838 34.89440 31.55139
#
# Velocity S-wave (km/s) = 3.62889 4.03610 3.83790
# Velocity P-wave (km/s) = 6.00073 7.11138 6.57953
#
# Compressibility (1/GPa) = 0.02530267
#
# Stress axis : x y z
#
# Youngs Moduli (GPa) = 134.49321 99.75502 34.39395
#
# Poissons Ratio (x) = 0.15196 0.16019
# Poissons Ratio (y) = 0.20487 0.15255
# Poissons Ratio (z) = 0.62639 0.44245
#
# Static dielectric constant tensor:
#      x y z
#    x 4.434070 0.000000 -0.029180 
#    y 0.000000 10.065040 0.000000 
#    z -0.029180 0.000000 3.566110 
# 
# 
# High freq. dielectric constant tensor:
#      x y z
#    x 1.862580 0.000000 -0.001000 
#    y 0.000000 1.850730 0.000000 
#    z -0.001000 0.000000 1.820490 
# 
# From -- ./inp_files/12381.got.cif
#   From: 2010.03.12/outbox.cif.g09.slc.cpg/sg14_7_cif.got.tgz:12381.got - 2010.03.31 13:35:05.
