data_PCOD8128175
_publ_section_title
;
Structure prediction by ZEFSAII (Michael W. Deem and Ramdas Pophale) SiO2 
 PCOD8128175
Probable space group: P 21/C
;
_chemical_formula_sum "Si O2"
_cell_formula_units_Z 24
_cell_length_a 5.277068
_cell_length_b 10.344394
_cell_length_c 22.865230
_cell_angle_alpha 90.000000
_cell_angle_beta 62.521310
_cell_angle_gamma 90.000000
_cell_volume 1107.353519
_symmetry_space_group_name_H-M "P 21/C"
_symmetry_group_IT_number 14
_symmetry_cell_setting 'monoclinic'
loop_
_space_group_symop_operation_xyz
x,y,z
-x,1/2+y,1/2-z
-x,-y,-z
x,1/2-y,1/2+z
loop_
_atom_site_type_symbol
_atom_site_label
_atom_site_fract_x
_atom_site_fract_y
_atom_site_fract_z
Si Si1 0.671674 0.569292 0.885830
Si Si2 0.932195 0.169587 0.565968
Si Si3 0.019971 0.802245 0.825103
Si Si4 0.784765 0.430596 0.385844
Si Si5 0.803934 0.830163 0.066050
Si Si6 0.320299 0.802231 0.675032
O O1 0.329760 0.580234 0.926412
O O2 0.764614 0.436016 0.846544
O O3 0.811559 0.578509 0.936125
O O4 0.795333 0.687873 0.833563
O O5 0.833369 0.268796 0.627996
O O6 0.041110 0.249693 0.499903
O O7 0.264378 0.811631 0.750079
O O8 0.848746 0.936021 0.846651
O O9 0.443778 0.421233 0.436132
O O10 0.870326 0.312152 0.333495
O O11 0.964366 0.419546 0.426433
O O12 0.654548 0.731222 0.128190
#
# Coordination Sequence:
#
# PCOD8128175 Si02
#       6
#     4   4   4   4   4   4
#     4  10  24  42  66  96 125 171 215 261 323 379
#     4  10  24  43  66  98 130 169 215 267 321 382
#     4  10  24  43  66  95 132 170 216 268 321 382
#     4  10  24  42  66  96 125 171 215 261 323 379
#     4  10  24  43  66  98 130 169 215 267 321 382
#     4  10  24  43  66  95 132 170 216 268 321 382
#
# _framework density 21.673295
#
# number of rings (size 3 to 8) (size 9 to 14) (size 15 to 20)
#    2.000    0.000    0.000    2.000    4.667    5.333 
#    0.000    0.000    0.000    0.000    0.000    0.000 
#    0.000    0.000    0.000    0.000    0.000    0.000 
#
# Total GULP energy -297394.287921 kJ/mol
# GULP energy per Si atom -12391.428663 kJ/mol
# Density = 2.162397 g / cm^3
# Si number density = 21.673295 Si / 1000 Ang^3
#
#
#
# Elastic Constant Matrix: (Units=GPa)
#
#
# Indices 1 2 3 4 5 6 
#
# 1 130.3448 17.7229 14.0584 0.0000 -0.0027 0.0000
# 2 17.7229 119.8620 -5.7383 0.0000 0.0078 0.0000
# 3 14.0584 -5.7383 54.1662 0.0000 -0.0022 0.0000
# 4 0.0000 0.0000 0.0000 19.6622 0.0000 0.0140
# 5 -0.0027 0.0078 -0.0022 0.0000 12.0967 0.0000
# 6 0.0000 0.0000 0.0000 0.0140 0.0000 16.6215
#
#
#
# Elastic Compliance Matrix: (Units=1/GPa)
#
#
# Indices 1 2 3 4 5 6 
#
# 1 0.008091 -0.001303 -0.002238 0.000000 0.000002 0.000000
# 2 -0.001303 0.008595 0.001249 0.000000 -0.000006 0.000000
# 3 -0.002238 0.001249 0.019175 0.000000 0.000002 0.000000
# 4 0.000000 0.000000 0.000000 0.050859 0.000000 -0.000043
# 5 0.000002 -0.000006 0.000002 0.000000 0.082667 0.000000
# 6 0.000000 0.000000 0.000000 -0.000043 0.000000 0.060163
#
#
# Mechanical properties :
#
#
# Convention : Reuss Voigt Hill
#
# Bulk Modulus (GPa) = 31.97349 39.60657 35.79003
# Shear Modulus (GPa) = 20.44484 28.23141 24.33812
#
# Velocity S-wave (km/s) = 3.07468 3.61306 3.35469
# Velocity P-wave (km/s) = 5.23349 5.97659 5.61734
#
# Compressibility (1/GPa) = 0.03127591
#
# Stress axis : x y z
#
# Youngs Moduli (GPa) = 123.60093 116.34079 52.15167
#
# Poissons Ratio (x) = 0.15164 0.11671
# Poissons Ratio (y) = 0.16110 -0.06513
# Poissons Ratio (z) = 0.27661 -0.14530
#
# Static dielectric constant tensor:
#      x y z
#    x 3.705380 0.000000 -0.000230 
#    y 0.000000 3.829350 0.000000 
#    z -0.000230 0.000000 3.681070 
# 
# 
# High freq. dielectric constant tensor:
#      x y z
#    x 1.838150 0.000000 -0.000030 
#    y 0.000000 1.855610 0.000000 
#    z -0.000030 0.000000 1.839930 
# 
# From -- ./inp_files/71151.got.cif
#   From: 2010.03.12/outbox.cif.g09.slc.cpg/sg14_36_cif.got.tgz:71151.got - 2010.03.31 13:35:05.
