data_PCOD8128853
_publ_section_title
;
Structure prediction by ZEFSAII (Michael W. Deem and Ramdas Pophale) SiO2 
 PCOD8128853
Probable space group: P 21/C
;
_chemical_formula_sum "Si O2"
_cell_formula_units_Z 20
_cell_length_a 18.957522
_cell_length_b 5.153175
_cell_length_c 8.982539
_cell_angle_alpha 90.000000
_cell_angle_beta 97.646325
_cell_angle_gamma 90.000000
_cell_volume 869.714433
_symmetry_space_group_name_H-M "P 21/C"
_symmetry_group_IT_number 14
_symmetry_cell_setting 'monoclinic'
loop_
_space_group_symop_operation_xyz
x,y,z
-x,1/2+y,1/2-z
-x,-y,-z
x,1/2-y,1/2+z
loop_
_atom_site_type_symbol
_atom_site_label
_atom_site_fract_x
_atom_site_fract_y
_atom_site_fract_z
Si Si1 0.260115 0.445111 0.925101
Si Si2 0.474218 0.963868 0.160348
Si Si3 0.966501 0.218423 0.890508
Si Si4 0.900114 0.964564 0.626848
Si Si5 0.310622 0.951623 0.106224
O O1 0.178343 0.348233 0.915300
O O2 0.279990 0.492829 0.760238
O O3 0.306184 0.210257 0.004349
O O4 0.269482 0.710698 0.020114
O O5 0.481083 0.234077 0.250612
O O6 0.392756 0.873080 0.140884
O O7 0.500000 0.000000 0.000000
O O8 0.898727 0.163018 0.764236
O O9 0.035304 0.275854 0.803419
O O10 0.930419 0.441731 0.977797
O O11 0.000000 0.000000 0.000000
#
# Coordination Sequence:
#
# PCOD8128853 Si02
#       5
#     4   4   4   4   4
#     4  12  27  44  71  98 144 184 227 282 349 412
#     4  12  24  44  75 105 140 183 228 281 336 399
#     4  11  23  42  61  92 121 161 225 277 325 393
#     4  11  25  39  67  88 126 170 220 277 337 392
#     4  12  26  48  68 107 141 182 229 280 337 418
#
# _framework density 22.996054999999998
#
# number of rings (size 3 to 8) (size 9 to 14) (size 15 to 20)
#    0.000    0.400    2.000    6.600    5.600    0.000 
#    0.000    0.000    0.000    0.000    0.000    0.000 
#    0.000    0.000    0.000    0.000    0.000    0.000 
#
# Total GULP energy -247862.920438 kJ/mol
# GULP energy per Si atom -12393.146022 kJ/mol
# Density = 2.294371 g / cm^3
# Si number density = 22.996055 Si / 1000 Ang^3
#
#
#
# Elastic Constant Matrix: (Units=GPa)
#
#
# Indices 1 2 3 4 5 6 
#
# 1 126.0598 -7.2486 19.0501 0.0000 0.9247 0.0000
# 2 -7.2486 92.5943 27.9883 0.0000 3.7852 0.0000
# 3 19.0501 27.9883 123.5080 0.0000 -7.1491 0.0000
# 4 0.0000 0.0000 0.0000 37.5915 0.0000 2.9930
# 5 0.9247 3.7852 -7.1491 0.0000 35.6697 0.0000
# 6 0.0000 0.0000 0.0000 2.9930 0.0000 28.5618
#
#
#
# Elastic Compliance Matrix: (Units=1/GPa)
#
#
# Indices 1 2 3 4 5 6 
#
# 1 0.008240 0.001146 -0.001568 0.000000 -0.000650 0.000000
# 2 0.001146 0.011866 -0.002975 0.000000 -0.001885 0.000000
# 3 -0.001568 -0.002975 0.009139 0.000000 0.002188 0.000000
# 4 0.000000 0.000000 0.000000 0.026826 0.000000 -0.002811
# 5 -0.000650 -0.001885 0.002188 0.000000 0.028690 0.000000
# 6 0.000000 0.000000 0.000000 -0.002811 0.000000 0.035306
#
#
# Mechanical properties :
#
#
# Convention : Reuss Voigt Hill
#
# Bulk Modulus (GPa) = 44.54185 46.86017 45.70101
# Shear Modulus (GPa) = 37.21737 40.52276 38.87007
#
# Velocity S-wave (km/s) = 4.02733 4.20236 4.11578
# Velocity P-wave (km/s) = 6.40603 6.63085 6.51941
#
# Compressibility (1/GPa) = 0.02245079
#
# Stress axis : x y z
#
# Youngs Moduli (GPa) = 121.35373 84.27645 109.41771
#
# Poissons Ratio (x) = -0.09655 0.17159
# Poissons Ratio (y) = -0.13903 0.32549
# Poissons Ratio (z) = 0.19031 0.25070
#
# Static dielectric constant tensor:
#      x y z
#    x 5.007220 0.000000 0.354660 
#    y 0.000000 5.253030 0.000000 
#    z 0.354660 0.000000 4.083190 
# 
# 
# High freq. dielectric constant tensor:
#      x y z
#    x 1.915030 0.000000 0.001070 
#    y 0.000000 1.908650 0.000000 
#    z 0.001070 0.000000 1.937520 
# 
# From -- ./inp_files/17226.got.cif
#   From: 2010.03.12/outbox.cif.g09.slc.cpg/sg14_9_cif.got.tgz:17226.got - 2010.03.31 13:35:05.
