data_PCOD8128330
_publ_section_title
;
Structure prediction by ZEFSAII (Michael W. Deem and Ramdas Pophale) SiO2 
 PCOD8128330
Probable space group: P 21/C
;
_chemical_formula_sum "Si O2"
_cell_formula_units_Z 32
_cell_length_a 26.482034
_cell_length_b 11.411682
_cell_length_c 9.021273
_cell_angle_alpha 90.000000
_cell_angle_beta 147.661958
_cell_angle_gamma 90.000000
_cell_volume 1458.318360
_symmetry_space_group_name_H-M "P 21/C"
_symmetry_group_IT_number 14
_symmetry_cell_setting 'monoclinic'
loop_
_space_group_symop_operation_xyz
x,y,z
-x,1/2+y,1/2-z
-x,-y,-z
x,1/2-y,1/2+z
loop_
_atom_site_type_symbol
_atom_site_label
_atom_site_fract_x
_atom_site_fract_y
_atom_site_fract_z
Si Si1 0.744335 0.387256 0.347017
Si Si2 0.040418 0.627620 0.121492
Si Si3 0.297280 0.673451 0.438509
Si Si4 0.465219 0.967348 0.250981
Si Si5 0.995067 0.149698 0.132531
Si Si6 0.647764 0.877867 0.539734
Si Si7 0.331222 0.137428 0.752449
Si Si8 0.157824 0.509637 0.928195
O O1 0.851785 0.372750 0.660202
O O2 0.719433 0.309346 0.141385
O O3 0.684860 0.342200 0.341787
O O4 0.723941 0.520952 0.256978
O O5 0.029084 0.671634 0.258865
O O6 0.985486 0.721946 0.885661
O O7 0.000000 0.500000 0.000000
O O8 0.389454 0.635799 0.576729
O O9 0.208024 0.595032 0.168988
O O10 0.547024 0.920271 0.348660
O O11 0.500000 0.000000 0.500000
O O12 0.417405 0.079713 0.055967
O O13 0.090443 0.075547 0.354292
O O14 0.904459 0.086075 0.837790
O O15 0.685279 0.765876 0.721644
O O16 0.639707 0.849476 0.346327
O O17 0.234354 0.064494 0.525573
#
# Coordination Sequence:
#
# PCOD8128330 Si02
#       8
#     4   4   4   4   4   4   4   4
#     4  12  26  44  71 102 139 179 232 282 352 408
#     4  12  27  43  70 104 139 179 234 285 347 413
#     4  11  25  44  71  98 138 178 229 286 338 416
#     4  11  24  48  71 101 136 182 229 285 351 405
#     4  11  25  45  70  99 140 181 232 286 343 414
#     4  12  27  45  71 103 140 184 231 285 344 413
#     4  11  27  46  70 101 142 182 233 285 344 412
#     4  10  24  46  72  95 140 186 231 283 348 401
#
# _framework density 21.943082
#
# number of rings (size 3 to 8) (size 9 to 14) (size 15 to 20)
#    0.000    0.750    2.500    3.375   12.250    2.000 
#    0.000    0.000    0.000    0.000    0.000    0.000 
#    0.000    0.000    0.000    0.000    0.000    0.000 
#
# Total GULP energy -397016.406492 kJ/mol
# GULP energy per Si atom -12406.762703 kJ/mol
# Density = 2.189314 g / cm^3
# Si number density = 21.943082 Si / 1000 Ang^3
#
#
#
# Elastic Constant Matrix: (Units=GPa)
#
#
# Indices 1 2 3 4 5 6 
#
# 1 128.1035 46.1128 41.4540 0.0000 -18.8554 0.0000
# 2 46.1128 157.8803 36.5542 0.0000 -11.5878 0.0000
# 3 41.4540 36.5542 76.9415 0.0000 -10.8176 0.0000
# 4 0.0000 0.0000 0.0000 27.8975 0.0000 -7.8766
# 5 -18.8554 -11.5878 -10.8176 0.0000 46.8514 0.0000
# 6 0.0000 0.0000 0.0000 -7.8766 0.0000 31.6405
#
#
#
# Elastic Compliance Matrix: (Units=1/GPa)
#
#
# Indices 1 2 3 4 5 6 
#
# 1 0.010235 -0.001801 -0.004281 0.000000 0.002685 0.000000
# 2 -0.001801 0.007480 -0.002507 0.000000 0.000547 0.000000
# 3 -0.004281 -0.002507 0.016707 0.000000 0.001515 0.000000
# 4 0.000000 0.000000 0.000000 0.038555 0.000000 0.009598
# 5 0.002685 0.000547 0.001515 0.000000 0.022910 0.000000
# 6 0.000000 0.000000 0.000000 0.009598 0.000000 0.033994
#
#
# Mechanical properties :
#
#
# Convention : Reuss Voigt Hill
#
# Bulk Modulus (GPa) = 57.98794 67.90748 62.94771
# Shear Modulus (GPa) = 32.72067 37.19817 34.95942
#
# Velocity S-wave (km/s) = 3.86574 4.12176 3.99580
# Velocity P-wave (km/s) = 6.81243 7.32572 7.07373
#
# Compressibility (1/GPa) = 0.01724497
#
# Stress axis : x y z
#
# Youngs Moduli (GPa) = 97.70263 133.68168 59.85395
#
# Poissons Ratio (x) = 0.24078 0.25625
# Poissons Ratio (y) = 0.17597 0.15003
# Poissons Ratio (z) = 0.41829 0.33510
#
# Static dielectric constant tensor:
#      x y z
#    x 4.215630 0.000000 -0.015570 
#    y 0.000000 4.990840 0.000000 
#    z -0.015570 0.000000 4.201570 
# 
# 
# High freq. dielectric constant tensor:
#      x y z
#    x 1.880040 0.000000 0.000350 
#    y 0.000000 1.875600 0.000000 
#    z 0.000350 0.000000 1.862300 
# 
# From -- ./inp_files/19999.got.cif
#   From: 2010.03.12/outbox.cif.g09.slc.cpg/sg14_10_cif.got.tgz:19999.got - 2010.03.31 13:35:05.
