data_PCOD8128099
_publ_section_title
;
Structure prediction by ZEFSAII (Michael W. Deem and Ramdas Pophale) SiO2 
 PCOD8128099
Probable space group: P 21/C
;
_chemical_formula_sum "Si O2"
_cell_formula_units_Z 20
_cell_length_a 11.032323
_cell_length_b 9.987602
_cell_length_c 10.483786
_cell_angle_alpha 90.000000
_cell_angle_beta 132.987245
_cell_angle_gamma 90.000000
_cell_volume 845.014077
_symmetry_space_group_name_H-M "P 21/C"
_symmetry_group_IT_number 14
_symmetry_cell_setting 'monoclinic'
loop_
_space_group_symop_operation_xyz
x,y,z
-x,1/2+y,1/2-z
-x,-y,-z
x,1/2-y,1/2+z
loop_
_atom_site_type_symbol
_atom_site_label
_atom_site_fract_x
_atom_site_fract_y
_atom_site_fract_z
Si Si1 0.854971 0.397019 0.865258
Si Si2 0.371057 0.309979 0.903785
Si Si3 0.930377 0.858605 0.991258
Si Si4 0.305607 0.046355 0.973531
Si Si5 0.417724 0.969756 0.634522
O O1 0.763988 0.432436 0.668139
O O2 0.727184 0.399836 0.890424
O O3 0.920842 0.246989 0.894566
O O4 0.000000 0.500000 0.000000
O O5 0.199753 0.307705 0.705547
O O6 0.410254 0.156427 0.968326
O O7 0.522899 0.363160 0.928361
O O8 0.350185 0.397336 0.017333
O O9 0.846383 0.874751 0.069152
O O10 0.000000 0.000000 0.000000
O O11 0.428207 0.983290 0.166748
#
# Coordination Sequence:
#
# PCOD8128099 Si02
#       5
#     4   4   4   4   4
#     4  12  25  47  78 109 145 192 246 305 367 437
#     4  10  23  49  71 102 151 189 240 309 359 441
#     4  11  27  46  72 110 146 191 239 309 374 430
#     4  11  25  48  75 105 149 192 254 300 364 443
#     4  10  25  45  73 108 145 199 243 298 375 438
#
# _framework density 23.668244000000001
#
# number of rings (size 3 to 8) (size 9 to 14) (size 15 to 20)
#    0.000    1.200    2.000    1.800    8.400    4.800 
#    7.200    0.000    0.000    0.000    0.000    0.000 
#    0.000    0.000    0.000    0.000    0.000    0.000 
#
# Total GULP energy -248151.021357 kJ/mol
# GULP energy per Si atom -12407.551068 kJ/mol
# Density = 2.361437 g / cm^3
# Si number density = 23.668244 Si / 1000 Ang^3
#
#
#
# Elastic Constant Matrix: (Units=GPa)
#
#
# Indices 1 2 3 4 5 6 
#
# 1 140.5873 41.5990 48.9089 0.0000 -5.5870 0.0000
# 2 41.5990 135.9994 53.9759 0.0000 -2.2400 0.0000
# 3 48.9089 53.9759 113.3682 0.0000 -21.5640 0.0000
# 4 0.0000 0.0000 0.0000 42.0247 0.0000 7.6144
# 5 -5.5870 -2.2400 -21.5640 0.0000 27.2309 0.0000
# 6 0.0000 0.0000 0.0000 7.6144 0.0000 30.9464
#
#
#
# Elastic Compliance Matrix: (Units=1/GPa)
#
#
# Indices 1 2 3 4 5 6 
#
# 1 0.008606 -0.001363 -0.003237 0.000000 -0.000910 0.000000
# 2 -0.001363 0.009517 -0.004530 0.000000 -0.003084 0.000000
# 3 -0.003237 -0.004530 0.014336 0.000000 0.010316 0.000000
# 4 0.000000 0.000000 0.000000 0.024906 0.000000 -0.006128
# 5 -0.000910 -0.003084 0.010316 0.000000 0.044452 0.000000
# 6 0.000000 0.000000 0.000000 -0.006128 0.000000 0.033822
#
#
# Mechanical properties :
#
#
# Convention : Reuss Voigt Hill
#
# Bulk Modulus (GPa) = 70.42170 75.43583 72.92876
# Shear Modulus (GPa) = 31.51960 36.40513 33.96237
#
# Velocity S-wave (km/s) = 3.65324 3.92617 3.79216
# Velocity P-wave (km/s) = 6.90023 7.24531 7.07487
#
# Compressibility (1/GPa) = 0.01420017
#
# Stress axis : x y z
#
# Youngs Moduli (GPa) = 116.19479 105.07771 69.75300
#
# Poissons Ratio (x) = 0.14318 0.22580
# Poissons Ratio (y) = 0.15833 0.31596
# Poissons Ratio (z) = 0.37614 0.47598
#
# Static dielectric constant tensor:
#      x y z
#    x 4.663090 0.000000 -0.086840 
#    y 0.000000 4.099000 0.000000 
#    z -0.086840 0.000000 8.710160 
# 
# 
# High freq. dielectric constant tensor:
#      x y z
#    x 1.950230 0.000000 -0.005940 
#    y 0.000000 1.935370 0.000000 
#    z -0.005940 0.000000 1.950220 
# 
# From -- ./inp_files/12534.got.cif
#   From: 2010.03.12/outbox.cif.g09.slc.cpg/sg14_7_cif.got.tgz:12534.got - 2010.03.31 13:35:05.
