data_PCOD8128522
_publ_section_title
;
Structure prediction by ZEFSAII (Michael W. Deem and Ramdas Pophale) SiO2 
 PCOD8128522
Probable space group: P 21/C
;
_chemical_formula_sum "Si O2"
_cell_formula_units_Z 20
_cell_length_a 8.388384
_cell_length_b 10.380236
_cell_length_c 18.877020
_cell_angle_alpha 90.000000
_cell_angle_beta 149.830673
_cell_angle_gamma 90.000000
_cell_volume 826.046427
_symmetry_space_group_name_H-M "P 21/C"
_symmetry_group_IT_number 14
_symmetry_cell_setting 'monoclinic'
loop_
_space_group_symop_operation_xyz
x,y,z
-x,1/2+y,1/2-z
-x,-y,-z
x,1/2-y,1/2+z
loop_
_atom_site_type_symbol
_atom_site_label
_atom_site_fract_x
_atom_site_fract_y
_atom_site_fract_z
Si Si1 0.643024 0.740962 0.446209
Si Si2 0.649659 0.183835 0.301573
Si Si3 0.607191 0.025192 0.421997
Si Si4 0.510366 0.272575 0.456804
Si Si5 0.838727 0.842648 0.306995
O O1 0.454580 0.647625 0.319118
O O2 0.472475 0.882260 0.380314
O O3 0.613370 0.685461 0.513788
O O4 0.002822 0.755777 0.559941
O O5 0.414083 0.300248 0.231793
O O6 0.602583 0.066383 0.337834
O O7 0.021395 0.970829 0.406512
O O8 0.403731 0.126411 0.391486
O O9 0.343116 0.369919 0.337087
O O10 0.894357 0.271905 0.599461
#
# Coordination Sequence:
#
# PCOD8128522 Si02
#       5
#     4   4   4   4   4
#     4  12  21  37  61  89 109 146 199 232 273 335
#     4  11  21  34  60  85 115 150 185 236 274 338
#     4   9  21  38  61  77 119 154 182 222 297 337
#     4   9  19  35  61  82 112 149 188 229 277 336
#     4   9  18  37  56  80 115 155 176 227 291 332
#
# _framework density 24.211714000000001
#
# number of rings (size 3 to 8) (size 9 to 14) (size 15 to 20)
#    1.200    0.800    2.000    2.400    0.000    0.000 
#    0.000    1.000    8.800    2.400    0.000    0.000 
#    0.000    0.000    0.000    0.000    0.000    0.000 
#
# Total GULP energy -247806.542703 kJ/mol
# GULP energy per Si atom -12390.327135 kJ/mol
# Density = 2.415661 g / cm^3
# Si number density = 24.211714 Si / 1000 Ang^3
#
#
#
# Elastic Constant Matrix: (Units=GPa)
#
#
# Indices 1 2 3 4 5 6 
#
# 1 75.2701 2.9123 30.1870 0.0000 -36.5262 0.0000
# 2 2.9123 14.5612 10.1034 0.0000 -10.7933 0.0000
# 3 30.1870 10.1034 139.3332 0.0000 -39.0280 0.0000
# 4 0.0000 0.0000 0.0000 17.8015 0.0000 -0.0132
# 5 -36.5262 -10.7933 -39.0280 0.0000 55.7406 0.0000
# 6 0.0000 0.0000 0.0000 -0.0132 0.0000 20.1836
#
#
#
# Elastic Compliance Matrix: (Units=1/GPa)
#
#
# Indices 1 2 3 4 5 6 
#
# 1 0.020129 0.006917 -0.000986 0.000000 0.013839 0.000000
# 2 0.006917 0.082935 -0.002170 0.000000 0.019072 0.000000
# 3 -0.000986 -0.002170 0.009018 0.000000 0.005248 0.000000
# 4 0.000000 0.000000 0.000000 0.056175 0.000000 0.000037
# 5 0.013839 0.019072 0.005248 0.000000 0.034376 0.000000
# 6 0.000000 0.000000 0.000000 0.000037 0.000000 0.049545
#
#
# Mechanical properties :
#
#
# Convention : Reuss Voigt Hill
#
# Bulk Modulus (GPa) = 8.36101 35.06331 21.71216
# Shear Modulus (GPa) = 17.57310 31.14259 24.35785
#
# Velocity S-wave (km/s) = 2.69701 3.59034 3.17525
# Velocity P-wave (km/s) = 3.62757 5.63034 4.73603
#
# Compressibility (1/GPa) = 0.11960274
#
# Stress axis : x y z
#
# Youngs Moduli (GPa) = 49.67935 12.05761 110.88981
#
# Poissons Ratio (x) = -0.08340 0.10935
# Poissons Ratio (y) = -0.34361 0.24065
# Poissons Ratio (z) = 0.04899 0.02617
#
# Static dielectric constant tensor:
#      x y z
#    x 4.246350 0.000000 -0.169320 
#    y 0.000000 3.634430 0.000000 
#    z -0.169320 0.000000 4.534780 
# 
# 
# High freq. dielectric constant tensor:
#      x y z
#    x 1.962650 0.000000 -0.016340 
#    y 0.000000 1.904900 0.000000 
#    z -0.016340 0.000000 1.972830 
# 
# From -- ./inp_files/12540.got.cif
#   From: 2010.03.12/outbox.cif.g09.slc.cpg/sg14_7_cif.got.tgz:12540.got - 2010.03.31 13:35:05.
