data_PCOD8128101
_publ_section_title
;
Structure prediction by ZEFSAII (Michael W. Deem and Ramdas Pophale) SiO2 
 PCOD8128101
Probable space group: P 21/C
;
_chemical_formula_sum "Si O2"
_cell_formula_units_Z 28
_cell_length_a 13.782472
_cell_length_b 8.741371
_cell_length_c 12.316361
_cell_angle_alpha 90.000000
_cell_angle_beta 55.223572
_cell_angle_gamma 90.000000
_cell_volume 1218.807974
_symmetry_space_group_name_H-M "P 21/C"
_symmetry_group_IT_number 14
_symmetry_cell_setting 'monoclinic'
loop_
_space_group_symop_operation_xyz
x,y,z
-x,1/2+y,1/2-z
-x,-y,-z
x,1/2-y,1/2+z
loop_
_atom_site_type_symbol
_atom_site_label
_atom_site_fract_x
_atom_site_fract_y
_atom_site_fract_z
Si Si1 0.885168 0.590990 0.038923
Si Si2 0.642179 0.321037 0.936551
Si Si3 0.928406 0.565945 0.444254
Si Si4 0.447446 0.028956 0.680850
Si Si5 0.324718 0.503210 0.477398
Si Si6 0.138993 0.001717 0.674778
Si Si7 0.270607 0.270188 0.688630
O O1 0.787064 0.602029 0.195818
O O2 0.915372 0.756871 0.974427
O O3 0.833371 0.498422 0.970547
O O4 0.000000 0.500000 0.000000
O O5 0.573124 0.367821 0.869660
O O6 0.644240 0.142603 0.962396
O O7 0.776113 0.372876 0.830196
O O8 0.581949 0.417402 0.073765
O O9 0.801692 0.484259 0.504519
O O10 0.000000 0.500000 0.500000
O O11 0.003818 0.541764 0.286553
O O12 0.365222 0.166600 0.689618
O O13 0.426947 0.005191 0.821576
O O14 0.331282 0.352821 0.547679
O O15 0.164015 0.165827 0.713341
#
# Coordination Sequence:
#
# PCOD8128101 Si02
#       7
#     4   4   4   4   4   4   4
#     4  12  26  40  65  99 132 181 223 278 334 411
#     4  10  26  43  73  99 133 181 232 278 341 412
#     4  12  24  43  67  95 139 177 225 282 336 408
#     4  10  23  50  67 101 142 174 228 295 340 399
#     4  12  25  43  74 100 132 185 229 279 348 406
#     4  11  24  43  64  96 137 177 216 281 337 405
#     4  11  22  45  66  97 137 179 220 283 348 397
#
# _framework density 22.973268000000001
#
# number of rings (size 3 to 8) (size 9 to 14) (size 15 to 20)
#    0.000    0.857    4.286    1.714    6.000    6.286 
#    0.000    0.000    0.000    0.000    0.000    0.000 
#    0.000    0.000    0.000    0.000    0.000    0.000 
#
# Total GULP energy -347172.016255 kJ/mol
# GULP energy per Si atom -12399.000581 kJ/mol
# Density = 2.292098 g / cm^3
# Si number density = 22.973268 Si / 1000 Ang^3
#
#
#
# Elastic Constant Matrix: (Units=GPa)
#
#
# Indices 1 2 3 4 5 6 
#
# 1 45.0298 9.9004 -3.9453 0.0000 0.6648 0.0000
# 2 9.9004 94.5623 20.3729 0.0000 6.6294 0.0000
# 3 -3.9453 20.3729 137.8285 0.0000 0.8890 0.0000
# 4 0.0000 0.0000 0.0000 43.7375 0.0000 4.7099
# 5 0.6648 6.6294 0.8890 0.0000 35.4584 0.0000
# 6 0.0000 0.0000 0.0000 4.7099 0.0000 27.0848
#
#
#
# Elastic Compliance Matrix: (Units=1/GPa)
#
#
# Indices 1 2 3 4 5 6 
#
# 1 0.022875 -0.002622 0.001042 0.000000 0.000035 0.000000
# 2 -0.002622 0.011367 -0.001742 0.000000 -0.002032 0.000000
# 3 0.001042 -0.001742 0.007542 0.000000 0.000117 0.000000
# 4 0.000000 0.000000 0.000000 0.023300 0.000000 -0.004052
# 5 0.000035 -0.002032 0.000117 0.000000 0.028578 0.000000
# 6 0.000000 0.000000 0.000000 -0.004052 0.000000 0.037626
#
#
# Mechanical properties :
#
#
# Convention : Reuss Voigt Hill
#
# Bulk Modulus (GPa) = 28.45748 36.67518 32.56633
# Shear Modulus (GPa) = 33.41229 37.99566 35.70398
#
# Velocity S-wave (km/s) = 3.81780 4.07124 3.94655
# Velocity P-wave (km/s) = 5.64342 6.17243 5.91384
#
# Compressibility (1/GPa) = 0.03514015
#
# Stress axis : x y z
#
# Youngs Moduli (GPa) = 43.71630 87.97107 132.59108
#
# Poissons Ratio (x) = 0.23065 -0.13817
# Poissons Ratio (y) = 0.11462 0.23100
# Poissons Ratio (z) = -0.04556 0.15326
#
# Static dielectric constant tensor:
#      x y z
#    x 4.182470 0.000000 -0.003440 
#    y 0.000000 4.047790 0.000000 
#    z -0.003440 0.000000 4.417400 
# 
# 
# High freq. dielectric constant tensor:
#      x y z
#    x 1.898690 0.000000 -0.002820 
#    y 0.000000 1.899630 0.000000 
#    z -0.002820 0.000000 1.922440 
# 
# From -- ./inp_files/31451.got.cif
#   From: 2010.03.12/outbox.cif.g09.slc.cpg/sg14_16_cif.got.tgz:31451.got - 2010.03.31 13:35:05.
