data_PCOD8128069
_publ_section_title
;
Structure prediction by ZEFSAII (Michael W. Deem and Ramdas Pophale) SiO2 
 PCOD8128069
Probable space group: P 21/C
;
_chemical_formula_sum "Si O2"
_cell_formula_units_Z 20
_cell_length_a 9.934514
_cell_length_b 8.772563
_cell_length_c 23.417651
_cell_angle_alpha 90.000000
_cell_angle_beta 25.211348
_cell_angle_gamma 90.000000
_cell_volume 869.328131
_symmetry_space_group_name_H-M "P 21/C"
_symmetry_group_IT_number 14
_symmetry_cell_setting 'monoclinic'
loop_
_space_group_symop_operation_xyz
x,y,z
-x,1/2+y,1/2-z
-x,-y,-z
x,1/2-y,1/2+z
loop_
_atom_site_type_symbol
_atom_site_label
_atom_site_fract_x
_atom_site_fract_y
_atom_site_fract_z
Si Si1 0.291799 0.206983 0.196782
Si Si2 0.854772 0.070128 0.112469
Si Si3 0.427607 0.062562 0.965030
Si Si4 0.712306 0.110703 0.625695
Si Si5 0.573243 0.325367 0.976982
O O1 0.529523 0.307937 0.143435
O O2 0.933931 0.213968 0.357257
O O3 0.328181 0.266508 0.118380
O O4 0.377653 0.025729 0.159538
O O5 0.839320 0.252806 0.115697
O O6 0.062211 0.036138 0.089040
O O7 0.514293 0.996093 0.250550
O O8 0.000000 0.000000 0.000000
O O9 0.510908 0.242672 0.939239
O O10 0.500000 0.000000 0.000000
O O11 0.000000 0.000000 0.500000
O O12 0.500000 0.500000 0.000000
#
# Coordination Sequence:
#
# PCOD8128069 Si02
#       5
#     4   4   4   4   4
#     4  11  24  46  74 104 154 189 246 306 377 441
#     4  12  26  48  76 107 150 196 250 309 379 452
#     4  10  23  46  71 104 147 189 237 301 365 437
#     4  12  28  47  74 108 148 197 252 314 380 451
#     4  11  25  44  75 110 146 194 247 305 372 450
#
# _framework density 23.006271999999999
#
# number of rings (size 3 to 8) (size 9 to 14) (size 15 to 20)
#    0.000    0.800    2.000    4.800    5.600    1.600 
#   10.800    0.000    0.000    0.000    0.000    0.000 
#    0.000    0.000    0.000    0.000    0.000    0.000 
#
# Total GULP energy -247828.560566 kJ/mol
# GULP energy per Si atom -12391.428028 kJ/mol
# Density = 2.295391 g / cm^3
# Si number density = 23.006272 Si / 1000 Ang^3
#
#
#
# Elastic Constant Matrix: (Units=GPa)
#
#
# Indices 1 2 3 4 5 6 
#
# 1 113.5986 44.9799 44.2025 0.0000 -21.1380 0.0000
# 2 44.9799 187.6647 62.2607 0.0000 -1.7862 0.0000
# 3 44.2025 62.2607 147.0154 0.0000 -10.2079 0.0000
# 4 0.0000 0.0000 0.0000 45.3419 0.0000 -0.6052
# 5 -21.1380 -1.7862 -10.2079 0.0000 34.4674 0.0000
# 6 0.0000 0.0000 0.0000 -0.6052 0.0000 38.3994
#
#
#
# Elastic Compliance Matrix: (Units=1/GPa)
#
#
# Indices 1 2 3 4 5 6 
#
# 1 0.011641 -0.001996 -0.002212 0.000000 0.006381 0.000000
# 2 -0.001996 0.006549 -0.002282 0.000000 -0.001560 0.000000
# 3 -0.002212 -0.002282 0.008506 0.000000 0.001044 0.000000
# 4 0.000000 0.000000 0.000000 0.022059 0.000000 0.000348
# 5 0.006381 -0.001560 0.001044 0.000000 0.033154 0.000000
# 6 0.000000 0.000000 0.000000 0.000348 0.000000 0.026048
#
#
# Mechanical properties :
#
#
# Convention : Reuss Voigt Hill
#
# Bulk Modulus (GPa) = 72.90015 83.46279 78.18147
# Shear Modulus (GPa) = 39.83788 43.43078 41.63433
#
# Velocity S-wave (km/s) = 4.16578 4.34957 4.25867
# Velocity P-wave (km/s) = 7.40906 7.84742 7.63139
#
# Compressibility (1/GPa) = 0.01371739
#
# Stress axis : x y z
#
# Youngs Moduli (GPa) = 85.90286 152.69135 117.56495
#
# Poissons Ratio (x) = 0.30471 0.26004
# Poissons Ratio (y) = 0.17143 0.26827
# Poissons Ratio (z) = 0.19001 0.34842
#
# Static dielectric constant tensor:
#      x y z
#    x 3.778140 0.000000 -0.106990 
#    y 0.000000 5.683690 0.000000 
#    z -0.106990 0.000000 4.079010 
# 
# 
# High freq. dielectric constant tensor:
#      x y z
#    x 1.904430 0.000000 -0.013030 
#    y 0.000000 1.934220 0.000000 
#    z -0.013030 0.000000 1.904870 
# 
# From -- ./inp_files/77080.got.cif
#   From: 2010.03.12/outbox.cif.g09.slc.cpg/sg14_39_cif.got.tgz:77080.got - 2010.03.31 13:35:05.
