data_PCOD8128813
_publ_section_title
;
Structure prediction by ZEFSAII (Michael W. Deem and Ramdas Pophale) SiO2 
 PCOD8128813
Probable space group: P 21/C
;
_chemical_formula_sum "Si O2"
_cell_formula_units_Z 24
_cell_length_a 8.642433
_cell_length_b 18.498044
_cell_length_c 8.864285
_cell_angle_alpha 90.000000
_cell_angle_beta 48.722681
_cell_angle_gamma 90.000000
_cell_volume 1064.998927
_symmetry_space_group_name_H-M "P 21/C"
_symmetry_group_IT_number 14
_symmetry_cell_setting 'monoclinic'
loop_
_space_group_symop_operation_xyz
x,y,z
-x,1/2+y,1/2-z
-x,-y,-z
x,1/2-y,1/2+z
loop_
_atom_site_type_symbol
_atom_site_label
_atom_site_fract_x
_atom_site_fract_y
_atom_site_fract_z
Si Si1 0.532299 0.139495 0.054500
Si Si2 0.336181 0.340479 0.125645
Si Si3 0.740708 0.946017 0.551728
Si Si4 0.814760 0.407379 0.130992
Si Si5 0.749343 0.290293 0.947703
Si Si6 0.203505 0.293606 0.543613
O O1 0.691273 0.086660 0.866641
O O2 0.661623 0.209566 0.026569
O O3 0.339823 0.158336 0.069112
O O4 0.452854 0.093739 0.246294
O O5 0.245079 0.315088 0.343999
O O6 0.262165 0.420823 0.122771
O O7 0.582105 0.337736 0.966774
O O8 0.256275 0.289855 0.039743
O O9 0.945809 0.920738 0.503742
O O10 0.722572 0.032689 0.574407
O O11 0.776925 0.325790 0.095591
O O12 0.960415 0.300952 0.722934
#
# Coordination Sequence:
#
# PCOD8128813 Si02
#       6
#     4   4   4   4   4   4
#     4  11  23  42  71  99 132 180 226 281 335 401
#     4  11  24  41  64  98 131 178 215 288 330 399
#     4  11  25  45  70  99 141 180 229 274 343 412
#     4  11  24  46  70  99 139 184 224 278 342 411
#     4  11  24  39  69  99 131 174 224 284 332 395
#     4  11  23  39  66  98 135 162 233 278 338 393
#
# _framework density 22.535233999999999
#
# number of rings (size 3 to 8) (size 9 to 14) (size 15 to 20)
#    0.000    1.000    3.333    3.500    4.667    2.000 
#    0.000    0.833    0.000    0.000    0.000    0.000 
#    0.000    0.000    0.000    0.000    0.000    0.000 
#
# Total GULP energy -297533.978885 kJ/mol
# GULP energy per Si atom -12397.249120 kJ/mol
# Density = 2.248394 g / cm^3
# Si number density = 22.535234 Si / 1000 Ang^3
#
#
#
# Elastic Constant Matrix: (Units=GPa)
#
#
# Indices 1 2 3 4 5 6 
#
# 1 62.6707 29.5138 45.3501 0.0000 -8.4883 0.0000
# 2 29.5138 58.5042 29.6369 0.0000 -11.0238 0.0000
# 3 45.3501 29.6369 129.2242 0.0000 -17.9345 0.0000
# 4 0.0000 0.0000 0.0000 24.9975 0.0000 7.0251
# 5 -8.4883 -11.0238 -17.9345 0.0000 37.8488 0.0000
# 6 0.0000 0.0000 0.0000 7.0251 0.0000 36.1183
#
#
#
# Elastic Compliance Matrix: (Units=1/GPa)
#
#
# Indices 1 2 3 4 5 6 
#
# 1 0.025197 -0.009349 -0.006735 0.000000 -0.000264 0.000000
# 2 -0.009349 0.023327 -0.001517 0.000000 0.003979 0.000000
# 3 -0.006735 -0.001517 0.010896 0.000000 0.003211 0.000000
# 4 0.000000 0.000000 0.000000 0.042317 0.000000 -0.008231
# 5 -0.000264 0.003979 0.003211 0.000000 0.029042 0.000000
# 6 0.000000 0.000000 0.000000 -0.008231 0.000000 0.029288
#
#
# Mechanical properties :
#
#
# Convention : Reuss Voigt Hill
#
# Bulk Modulus (GPa) = 41.29161 51.04453 46.16807
# Shear Modulus (GPa) = 24.58913 29.51946 27.05430
#
# Velocity S-wave (km/s) = 3.30683 3.62321 3.46863
# Velocity P-wave (km/s) = 5.73960 6.34064 6.04759
#
# Compressibility (1/GPa) = 0.02421799
#
# Stress axis : x y z
#
# Youngs Moduli (GPa) = 39.68681 42.86830 91.78027
#
# Poissons Ratio (x) = 0.40078 0.61816
# Poissons Ratio (y) = 0.37104 0.13921
# Poissons Ratio (z) = 0.26730 0.06502
#
# Static dielectric constant tensor:
#      x y z
#    x 4.085550 0.000000 -0.196950 
#    y 0.000000 4.119810 0.000000 
#    z -0.196950 0.000000 4.076240 
# 
# 
# High freq. dielectric constant tensor:
#      x y z
#    x 1.891150 0.000000 -0.014270 
#    y 0.000000 1.875140 0.000000 
#    z -0.014270 0.000000 1.894040 
# 
# From -- ./inp_files/10141.got.cif
#   From: 2010.03.12/outbox.cif.g09.slc.cpg/sg14_6_cif.got.tgz:10141.got - 2010.03.31 13:35:05.
