data_PCOD8128726
_publ_section_title
;
Structure prediction by ZEFSAII (Michael W. Deem and Ramdas Pophale) SiO2 
 PCOD8128726
Probable space group: P 21/C
;
_chemical_formula_sum "Si O2"
_cell_formula_units_Z 24
_cell_length_a 8.058113
_cell_length_b 16.139623
_cell_length_c 8.783158
_cell_angle_alpha 90.000000
_cell_angle_beta 95.102802
_cell_angle_gamma 90.000000
_cell_volume 1137.765558
_symmetry_space_group_name_H-M "P 21/C"
_symmetry_group_IT_number 14
_symmetry_cell_setting 'monoclinic'
loop_
_space_group_symop_operation_xyz
x,y,z
-x,1/2+y,1/2-z
-x,-y,-z
x,1/2-y,1/2+z
loop_
_atom_site_type_symbol
_atom_site_label
_atom_site_fract_x
_atom_site_fract_y
_atom_site_fract_z
Si Si1 0.662525 0.484757 0.110637
Si Si2 0.831544 0.325968 0.654350
Si Si3 0.797169 0.840394 0.714701
Si Si4 0.582105 0.078847 0.932939
Si Si5 0.619356 0.771106 0.991269
Si Si6 0.710818 0.321877 0.975848
O O1 0.757024 0.570417 0.141078
O O2 0.630548 0.442177 0.267744
O O3 0.500000 0.500000 0.000000
O O4 0.765401 0.415491 0.024379
O O5 0.745953 0.395981 0.542784
O O6 0.717454 0.313582 0.794207
O O7 0.842702 0.240192 0.562812
O O8 0.017886 0.351210 0.708916
O O9 0.782351 0.770901 0.580975
O O10 0.667274 0.810575 0.832925
O O11 0.449934 0.153483 0.913371
O O12 0.500000 0.000000 0.000000
O O13 0.474008 0.701036 0.975179
#
# Coordination Sequence:
#
# PCOD8128726 Si02
#       6
#     4   4   4   4   4   4
#     4  12  24  41  69 101 133 173 231 282 327 403
#     4  11  25  44  68  97 138 177 221 283 348 397
#     4  12  25  43  66 104 133 169 228 289 342 393
#     4  11  22  44  68  95 130 179 228 271 332 413
#     4  11  22  42  70  93 131 179 224 271 333 418
#     4  11  22  44  68  93 134 181 224 266 341 414
#
# _framework density 21.093976000000001
#
# number of rings (size 3 to 8) (size 9 to 14) (size 15 to 20)
#    0.000    0.667    3.333    7.000    0.000    1.333 
#    3.000    0.000    0.000    0.000    0.000    0.000 
#    0.000    0.000    0.000    0.000    0.000    0.000 
#
# Total GULP energy -297556.104745 kJ/mol
# GULP energy per Si atom -12398.171031 kJ/mol
# Density = 2.104597 g / cm^3
# Si number density = 21.093976 Si / 1000 Ang^3
#
#
#
# Elastic Constant Matrix: (Units=GPa)
#
#
# Indices 1 2 3 4 5 6 
#
# 1 103.9821 44.6599 34.2387 0.0000 30.9307 0.0000
# 2 44.6599 150.8306 45.0721 0.0000 33.1026 0.0000
# 3 34.2387 45.0721 114.8028 0.0000 20.6997 0.0000
# 4 0.0000 0.0000 0.0000 50.9765 0.0000 6.9171
# 5 30.9307 33.1026 20.6997 0.0000 39.5699 0.0000
# 6 0.0000 0.0000 0.0000 6.9171 0.0000 26.2996
#
#
#
# Elastic Compliance Matrix: (Units=1/GPa)
#
#
# Indices 1 2 3 4 5 6 
#
# 1 0.013336 -0.001609 -0.001887 0.000000 -0.008092 0.000000
# 2 -0.001609 0.008835 -0.002079 0.000000 -0.005046 0.000000
# 3 -0.001887 -0.002079 0.010500 0.000000 -0.002279 0.000000
# 4 0.000000 0.000000 0.000000 0.020343 0.000000 -0.005350
# 5 -0.008092 -0.005046 -0.002279 0.000000 0.037010 0.000000
# 6 0.000000 0.000000 0.000000 -0.005350 0.000000 0.039431
#
#
# Mechanical properties :
#
#
# Convention : Reuss Voigt Hill
#
# Bulk Modulus (GPa) = 46.46397 68.61743 57.54070
# Shear Modulus (GPa) = 33.83434 39.74550 36.78992
#
# Velocity S-wave (km/s) = 4.00932 4.34546 4.18077
# Velocity P-wave (km/s) = 6.59604 7.60114 7.11636
#
# Compressibility (1/GPa) = 0.02152205
#
# Stress axis : x y z
#
# Youngs Moduli (GPa) = 74.98314 113.18575 95.23434
#
# Poissons Ratio (x) = 0.18214 0.17968
# Poissons Ratio (y) = 0.12066 0.19799
# Poissons Ratio (z) = 0.14147 0.23531
#
# Static dielectric constant tensor:
#      x y z
#    x 3.479580 0.000000 0.037710 
#    y 0.000000 4.727030 0.000000 
#    z 0.037710 0.000000 4.191350 
# 
# 
# High freq. dielectric constant tensor:
#      x y z
#    x 1.802100 0.000000 0.005510 
#    y 0.000000 1.846190 0.000000 
#    z 0.005510 0.000000 1.846030 
# 
# From -- ./inp_files/8425.got.cif
#   From: 2010.03.12/outbox.cif.g09.slc.cpg/sg14_5_cif.got.tgz:8425.got - 2010.03.31 13:35:05.
