data_PCOD8128357
_publ_section_title
;
Structure prediction by ZEFSAII (Michael W. Deem and Ramdas Pophale) SiO2 
 PCOD8128357
Probable space group: P 21/C
;
_chemical_formula_sum "Si O2"
_cell_formula_units_Z 28
_cell_length_a 9.323301
_cell_length_b 8.900187
_cell_length_c 21.027874
_cell_angle_alpha 90.000000
_cell_angle_beta 127.210670
_cell_angle_gamma 90.000000
_cell_volume 1389.648282
_symmetry_space_group_name_H-M "P 21/C"
_symmetry_group_IT_number 14
_symmetry_cell_setting 'monoclinic'
loop_
_space_group_symop_operation_xyz
x,y,z
-x,1/2+y,1/2-z
-x,-y,-z
x,1/2-y,1/2+z
loop_
_atom_site_type_symbol
_atom_site_label
_atom_site_fract_x
_atom_site_fract_y
_atom_site_fract_z
Si Si1 0.122347 0.864454 0.015306
Si Si2 0.347242 0.212382 0.310020
Si Si3 0.500983 0.484983 0.425504
Si Si4 0.902908 0.478019 0.199702
Si Si5 0.081451 0.346962 0.134283
Si Si6 0.763224 0.172532 0.213379
Si Si7 0.277764 0.870548 0.649710
O O1 0.027849 0.774393 0.933988
O O2 0.153209 0.753501 0.082819
O O3 0.298805 0.950995 0.041295
O O4 0.000000 0.000000 0.000000
O O5 0.380938 0.351905 0.364829
O O6 0.257915 0.093897 0.333614
O O7 0.217449 0.261312 0.217926
O O8 0.524659 0.135328 0.328119
O O9 0.500000 0.500000 0.500000
O O10 0.420934 0.641244 0.375255
O O11 0.853914 0.332798 0.227496
O O12 0.926984 0.437022 0.131812
O O13 0.093163 0.548596 0.272483
O O14 0.192044 0.462525 0.118606
O O15 0.711202 0.162611 0.272947
#
# Coordination Sequence:
#
# PCOD8128357 Si02
#       7
#     4   4   4   4   4   4   4
#     4  11  27  42  67  99 133 175 219 278 330 394
#     4  11  24  41  68 100 129 176 226 273 329 401
#     4  11  24  44  64  99 135 169 221 280 328 388
#     4  11  22  39  69  94 129 175 224 265 330 394
#     4  11  23  44  65  93 140 170 224 270 334 393
#     4  11  22  40  65  97 131 178 216 277 328 396
#     4  10  25  42  66  96 137 170 223 270 336 389
#
# _framework density 20.148983000000001
#
# number of rings (size 3 to 8) (size 9 to 14) (size 15 to 20)
#    0.000    1.143    4.286    1.286    6.000    2.286 
#    0.000    6.429    0.000    0.000    0.000    0.000 
#    0.000    0.000    0.000    0.000    0.000    0.000 
#
# Total GULP energy -347095.391722 kJ/mol
# GULP energy per Si atom -12396.263990 kJ/mol
# Density = 2.010312 g / cm^3
# Si number density = 20.148983 Si / 1000 Ang^3
#
#
#
# Elastic Constant Matrix: (Units=GPa)
#
#
# Indices 1 2 3 4 5 6 
#
# 1 107.3798 61.3392 43.2476 0.0000 12.6269 0.0000
# 2 61.3392 99.7985 43.1527 0.0000 15.7717 0.0000
# 3 43.2476 43.1527 127.4372 0.0000 6.6653 0.0000
# 4 0.0000 0.0000 0.0000 26.4995 0.0000 -4.8843
# 5 12.6269 15.7717 6.6653 0.0000 23.5749 0.0000
# 6 0.0000 0.0000 0.0000 -4.8843 0.0000 44.2113
#
#
#
# Elastic Compliance Matrix: (Units=1/GPa)
#
#
# Indices 1 2 3 4 5 6 
#
# 1 0.014994 -0.007885 -0.002308 0.000000 -0.002103 0.000000
# 2 -0.007885 0.017080 -0.002772 0.000000 -0.006419 0.000000
# 3 -0.002308 -0.002772 0.009548 0.000000 0.000391 0.000000
# 4 0.000000 0.000000 0.000000 0.038521 0.000000 0.004256
# 5 -0.002103 -0.006419 0.000391 0.000000 0.047728 0.000000
# 6 0.000000 0.000000 0.000000 0.004256 0.000000 0.023089
#
#
# Mechanical properties :
#
#
# Convention : Reuss Voigt Hill
#
# Bulk Modulus (GPa) = 63.72914 70.01049 66.86982
# Shear Modulus (GPa) = 27.45411 31.31553 29.38482
#
# Velocity S-wave (km/s) = 3.69529 3.94661 3.82301
# Velocity P-wave (km/s) = 7.06431 7.45584 7.26271
#
# Compressibility (1/GPa) = 0.01569141
#
# Stress axis : x y z
#
# Youngs Moduli (GPa) = 66.69274 58.54870 104.72853
#
# Poissons Ratio (x) = 0.46168 0.24175
# Poissons Ratio (y) = 0.52590 0.29028
# Poissons Ratio (z) = 0.15395 0.16228
#
# Static dielectric constant tensor:
#      x y z
#    x 4.207160 0.000000 0.119820 
#    y 0.000000 3.886110 0.000000 
#    z 0.119820 0.000000 3.599450 
# 
# 
# High freq. dielectric constant tensor:
#      x y z
#    x 1.801530 0.000000 0.006340 
#    y 0.000000 1.799600 0.000000 
#    z 0.006340 0.000000 1.780600 
# 
# From -- ./inp_files/65025.got.cif
#   From: 2010.03.12/outbox.cif.g09.slc.cpg/sg14_33_cif.got.tgz:65025.got - 2010.03.31 13:35:05.
