data_PCOD8128050
_publ_section_title
;
Structure prediction by ZEFSAII (Michael W. Deem and Ramdas Pophale) SiO2 
 PCOD8128050
Probable space group: P 21/C
;
_chemical_formula_sum "Si O2"
_cell_formula_units_Z 20
_cell_length_a 13.423041
_cell_length_b 9.162761
_cell_length_c 21.017569
_cell_angle_alpha 90.000000
_cell_angle_beta 163.087458
_cell_angle_gamma 90.000000
_cell_volume 752.005201
_symmetry_space_group_name_H-M "P 21/C"
_symmetry_group_IT_number 14
_symmetry_cell_setting 'monoclinic'
loop_
_space_group_symop_operation_xyz
x,y,z
-x,1/2+y,1/2-z
-x,-y,-z
x,1/2-y,1/2+z
loop_
_atom_site_type_symbol
_atom_site_label
_atom_site_fract_x
_atom_site_fract_y
_atom_site_fract_z
Si Si1 0.396268 0.016310 0.222596
Si Si2 0.674622 0.668858 0.788556
Si Si3 0.306143 0.727996 0.748577
Si Si4 0.643944 0.102381 0.032739
Si Si5 0.015859 0.135109 0.822029
O O1 0.479449 0.968600 0.201408
O O2 0.557422 0.890280 0.366432
O O3 0.524394 0.179653 0.315645
O O4 0.000000 0.000000 0.000000
O O5 0.657351 0.636731 0.702752
O O6 0.065756 0.680377 0.052670
O O7 0.062482 0.643823 0.650444
O O8 0.582571 0.832708 0.949189
O O9 0.758903 0.259503 0.128437
O O10 0.986372 0.029358 0.208367
O O11 0.500000 0.000000 0.000000
#
# Coordination Sequence:
#
# PCOD8128050 Si02
#       5
#     4   4   4   4   4
#     4  10  23  45  75 112 149 198 263 329 387 451
#     4  11  25  48  79 112 153 204 267 319 392 462
#     4  11  24  49  77 111 155 200 267 329 380 457
#     4  12  29  50  75 116 161 213 258 318 407 471
#     4  12  27  51  76 113 161 206 263 329 392 467
#
# _framework density 26.595561
#
# number of rings (size 3 to 8) (size 9 to 14) (size 15 to 20)
#    0.000    0.800    4.000    2.400    2.800    6.400 
#    3.600    0.000    0.000    0.000    0.000    0.000 
#    0.000    0.000    0.000    0.000    0.000    0.000 
#
# Total GULP energy -247889.451595 kJ/mol
# GULP energy per Si atom -12394.472580 kJ/mol
# Density = 2.653503 g / cm^3
# Si number density = 26.595561 Si / 1000 Ang^3
#
#
#
# Elastic Constant Matrix: (Units=GPa)
#
#
# Indices 1 2 3 4 5 6 
#
# 1 134.8357 32.3338 43.8172 0.0000 -25.6161 0.0000
# 2 32.3338 97.8365 19.0536 0.0000 -10.9670 0.0000
# 3 43.8172 19.0536 71.9337 0.0000 -15.7669 0.0000
# 4 0.0000 0.0000 0.0000 30.9453 0.0000 6.7853
# 5 -25.6161 -10.9670 -15.7669 0.0000 37.9244 0.0000
# 6 0.0000 0.0000 0.0000 6.7853 0.0000 55.8240
#
#
#
# Elastic Compliance Matrix: (Units=1/GPa)
#
#
# Indices 1 2 3 4 5 6 
#
# 1 0.010274 -0.001974 -0.004775 0.000000 0.004384 0.000000
# 2 -0.001974 0.011314 -0.001507 0.000000 0.001312 0.000000
# 3 -0.004775 -0.001507 0.018052 0.000000 0.003844 0.000000
# 4 0.000000 0.000000 0.000000 0.033200 0.000000 -0.004035
# 5 0.004384 0.001312 0.003844 0.000000 0.031307 0.000000
# 6 0.000000 0.000000 0.000000 -0.004035 0.000000 0.018404
#
#
# Mechanical properties :
#
#
# Convention : Reuss Voigt Hill
#
# Bulk Modulus (GPa) = 43.23579 55.00169 49.11874
# Shear Modulus (GPa) = 34.06651 38.89882 36.48267
#
# Velocity S-wave (km/s) = 3.58286 3.82855 3.70774
# Velocity P-wave (km/s) = 5.77996 6.34582 6.06949
#
# Compressibility (1/GPa) = 0.02312899
#
# Stress axis : x y z
#
# Youngs Moduli (GPa) = 97.33019 88.38537 55.39632
#
# Poissons Ratio (x) = 0.17450 0.26449
# Poissons Ratio (y) = 0.19216 0.08347
# Poissons Ratio (z) = 0.46471 0.13317
#
# Static dielectric constant tensor:
#      x y z
#    x 5.102380 0.000000 -0.244880 
#    y 0.000000 6.598130 0.000000 
#    z -0.244880 0.000000 4.366640 
# 
# 
# High freq. dielectric constant tensor:
#      x y z
#    x 2.081670 0.000000 -0.004980 
#    y 0.000000 2.094650 0.000000 
#    z -0.004980 0.000000 2.034730 
# 
# From -- ./inp_files/73779.got.cif
#   From: 2010.03.12/outbox.cif.g09.slc.cpg/sg14_37_cif.got.tgz:73779.got - 2010.03.31 13:35:05.
