data_PCOD8128189
_publ_section_title
;
Structure prediction by ZEFSAII (Michael W. Deem and Ramdas Pophale) SiO2 
 PCOD8128189
Probable space group: P 21/C
;
_chemical_formula_sum "Si O2"
_cell_formula_units_Z 28
_cell_length_a 8.968648
_cell_length_b 11.769835
_cell_length_c 14.067997
_cell_angle_alpha 90.000000
_cell_angle_beta 123.988298
_cell_angle_gamma 90.000000
_cell_volume 1231.299349
_symmetry_space_group_name_H-M "P 21/C"
_symmetry_group_IT_number 14
_symmetry_cell_setting 'monoclinic'
loop_
_space_group_symop_operation_xyz
x,y,z
-x,1/2+y,1/2-z
-x,-y,-z
x,1/2-y,1/2+z
loop_
_atom_site_type_symbol
_atom_site_label
_atom_site_fract_x
_atom_site_fract_y
_atom_site_fract_z
Si Si1 0.759490 0.035527 0.134498
Si Si2 0.713103 0.791017 0.043855
Si Si3 0.137532 0.547317 0.770743
Si Si4 0.907804 0.216569 0.895923
Si Si5 0.428673 0.369580 0.858386
Si Si6 0.785559 0.271538 0.053336
Si Si7 0.556817 0.344170 0.701603
O O1 0.704239 0.154209 0.064024
O O2 0.628356 0.036949 0.180464
O O3 0.716432 0.927625 0.054262
O O4 0.972002 0.037144 0.235798
O O5 0.676747 0.736527 0.133684
O O6 0.899795 0.738780 0.072208
O O7 0.556347 0.764362 0.911620
O O8 0.118417 0.587613 0.653382
O O9 0.328241 0.484925 0.855405
O O10 0.109263 0.658599 0.827772
O O11 0.739449 0.281845 0.793133
O O12 0.912146 0.231560 0.011326
O O13 0.424761 0.366234 0.742844
O O14 0.634368 0.361414 0.965210
#
# Coordination Sequence:
#
# PCOD8128189 Si02
#       7
#     4   4   4   4   4   4   4
#     4  11  24  42  69  96 139 173 226 282 343 398
#     4  11  24  42  69 102 135 181 229 282 338 410
#     4  11  24  43  73  95 139 177 226 285 334 412
#     4  10  24  42  69 101 135 178 225 277 345 403
#     4  11  25  41  70 100 134 182 232 273 346 400
#     4  11  24  46  67 100 139 176 223 289 337 404
#     4  11  23  43  66 101 138 177 225 284 335 408
#
# _framework density 22.740206000000001
#
# number of rings (size 3 to 8) (size 9 to 14) (size 15 to 20)
#    0.000    1.143    2.857    1.714    6.000    2.286 
#    0.000    9.286    0.000    0.000    0.000    0.000 
#    0.000    0.000    0.000    0.000    0.000    0.000 
#
# Total GULP energy -346981.040243 kJ/mol
# GULP energy per Si atom -12392.180009 kJ/mol
# Density = 2.268845 g / cm^3
# Si number density = 22.740206 Si / 1000 Ang^3
#
#
#
# Elastic Constant Matrix: (Units=GPa)
#
#
# Indices 1 2 3 4 5 6 
#
# 1 160.3847 44.5197 60.7099 0.0000 -20.9259 0.0000
# 2 44.5197 78.8838 34.3749 0.0000 -18.1822 0.0000
# 3 60.7099 34.3749 77.2155 0.0000 -20.4410 0.0000
# 4 0.0000 0.0000 0.0000 25.5260 0.0000 2.3366
# 5 -20.9259 -18.1822 -20.4410 0.0000 37.8310 0.0000
# 6 0.0000 0.0000 0.0000 2.3366 0.0000 39.2213
#
#
#
# Elastic Compliance Matrix: (Units=1/GPa)
#
#
# Indices 1 2 3 4 5 6 
#
# 1 0.009288 -0.002455 -0.006024 0.000000 0.000703 0.000000
# 2 -0.002455 0.017033 -0.004486 0.000000 0.004404 0.000000
# 3 -0.006024 -0.004486 0.021274 0.000000 0.006007 0.000000
# 4 0.000000 0.000000 0.000000 0.039391 0.000000 -0.002347
# 5 0.000703 0.004404 0.006007 0.000000 0.032185 0.000000
# 6 0.000000 0.000000 0.000000 -0.002347 0.000000 0.025636
#
#
# Mechanical properties :
#
#
# Convention : Reuss Voigt Hill
#
# Bulk Modulus (GPa) = 46.15816 66.18810 56.17313
# Shear Modulus (GPa) = 28.09639 32.30763 30.20201
#
# Velocity S-wave (km/s) = 3.51884 3.77334 3.64831
# Velocity P-wave (km/s) = 6.07056 6.93928 6.51940
#
# Compressibility (1/GPa) = 0.02166464
#
# Stress axis : x y z
#
# Youngs Moduli (GPa) = 107.66123 58.71097 47.00486
#
# Poissons Ratio (x) = 0.14414 0.28315
# Poissons Ratio (y) = 0.26432 0.21089
# Poissons Ratio (z) = 0.64853 0.26340
#
# Static dielectric constant tensor:
#      x y z
#    x 4.530830 0.000000 -0.165490 
#    y 0.000000 3.781420 0.000000 
#    z -0.165490 0.000000 4.146020 
# 
# 
# High freq. dielectric constant tensor:
#      x y z
#    x 1.918390 0.000000 0.004060 
#    y 0.000000 1.871500 0.000000 
#    z 0.004060 0.000000 1.896350 
# 
# From -- ./inp_files/40156.got.cif
#   From: 2010.03.12/outbox.cif.g09.slc.cpg/sg14_21_cif.got.tgz:40156.got - 2010.03.31 13:35:05.
