data_PCOD8128596
_publ_section_title
;
Structure prediction by ZEFSAII (Michael W. Deem and Ramdas Pophale) SiO2 
 PCOD8128596
Probable space group: P 21/C
;
_chemical_formula_sum "Si O2"
_cell_formula_units_Z 24
_cell_length_a 10.993732
_cell_length_b 13.784845
_cell_length_c 10.192862
_cell_angle_alpha 90.000000
_cell_angle_beta 38.925636
_cell_angle_gamma 90.000000
_cell_volume 970.550154
_symmetry_space_group_name_H-M "P 21/C"
_symmetry_group_IT_number 14
_symmetry_cell_setting 'monoclinic'
loop_
_space_group_symop_operation_xyz
x,y,z
-x,1/2+y,1/2-z
-x,-y,-z
x,1/2-y,1/2+z
loop_
_atom_site_type_symbol
_atom_site_label
_atom_site_fract_x
_atom_site_fract_y
_atom_site_fract_z
Si Si1 0.789706 0.543826 0.672553
Si Si2 0.565291 0.456705 0.618154
Si Si3 0.034159 0.243044 0.971361
Si Si4 0.770556 0.238893 0.944987
Si Si5 0.870448 0.558446 0.206969
Si Si6 0.755520 0.456470 0.968365
O O1 0.655965 0.499545 0.674124
O O2 0.809474 0.659111 0.636303
O O3 0.000000 0.500000 0.500000
O O4 0.693548 0.517025 0.893151
O O5 0.601410 0.341820 0.572589
O O6 0.660835 0.513234 0.414543
O O7 0.336785 0.485140 0.827122
O O8 0.163071 0.333286 0.815541
O O9 0.881297 0.213963 0.986881
O O10 0.918824 0.270798 0.199710
O O11 0.672737 0.345792 0.031343
O O12 0.000000 0.500000 0.000000
O O13 0.010206 0.555665 0.219447
#
# Coordination Sequence:
#
# PCOD8128596 Si02
#       6
#     4   4   4   4   4   4
#     4  12  20  42  70  97 125 178 220 263 327 403
#     4  12  24  43  69  96 136 171 220 276 331 394
#     4  11  22  39  73  94 132 176 224 264 335 398
#     4  11  21  42  64  97 133 178 211 279 336 382
#     4  11  23  43  65  94 132 174 213 270 334 388
#     4  11  25  41  66 100 132 168 225 271 327 398
#
# _framework density 24.728242999999999
#
# number of rings (size 3 to 8) (size 9 to 14) (size 15 to 20)
#    0.000    0.667    6.667    1.500    0.000    2.000 
#    3.000    0.000    0.000    0.000    0.000    0.000 
#    0.000    0.000    0.000    0.000    0.000    0.000 
#
# Total GULP energy -297612.272453 kJ/mol
# GULP energy per Si atom -12400.511352 kJ/mol
# Density = 2.467196 g / cm^3
# Si number density = 24.728243 Si / 1000 Ang^3
#
#
#
# Elastic Constant Matrix: (Units=GPa)
#
#
# Indices 1 2 3 4 5 6 
#
# 1 41.4572 -7.2691 18.7738 0.0000 1.1194 0.0000
# 2 -7.2691 163.7330 37.3734 0.0000 -11.5744 0.0000
# 3 18.7738 37.3734 124.7010 0.0000 2.1031 0.0000
# 4 0.0000 0.0000 0.0000 43.9528 0.0000 9.7780
# 5 1.1194 -11.5744 2.1031 0.0000 45.6241 0.0000
# 6 0.0000 0.0000 0.0000 9.7780 0.0000 21.5379
#
#
#
# Elastic Compliance Matrix: (Units=1/GPa)
#
#
# Indices 1 2 3 4 5 6 
#
# 1 0.026639 0.002263 -0.004691 0.000000 0.000137 0.000000
# 2 0.002263 0.006892 -0.002437 0.000000 0.001805 0.000000
# 3 -0.004691 -0.002437 0.009472 0.000000 -0.000940 0.000000
# 4 0.000000 0.000000 0.000000 0.025308 0.000000 -0.011489
# 5 0.000137 0.001805 -0.000940 0.000000 0.022416 0.000000
# 6 0.000000 0.000000 0.000000 -0.011489 0.000000 0.051646
#
#
# Mechanical properties :
#
#
# Convention : Reuss Voigt Hill
#
# Bulk Modulus (GPa) = 30.05454 47.51639 38.78546
# Shear Modulus (GPa) = 30.63876 40.95715 35.79796
#
# Velocity S-wave (km/s) = 3.52379 4.07417 3.80893
# Velocity P-wave (km/s) = 5.36064 6.43343 5.92138
#
# Compressibility (1/GPa) = 0.03327284
#
# Stress axis : x y z
#
# Youngs Moduli (GPa) = 37.53932 145.10064 105.57943
#
# Poissons Ratio (x) = -0.32838 0.49528
# Poissons Ratio (y) = -0.08495 0.25726
# Poissons Ratio (z) = 0.17610 0.35356
#
# Static dielectric constant tensor:
#      x y z
#    x -18.809610 0.000000 19.074440 
#    y 0.000000 4.043850 0.000000 
#    z 19.074440 0.000000 -9.566630 
# 
# 
# High freq. dielectric constant tensor:
#      x y z
#    x 1.997800 0.000000 0.021920 
#    y 0.000000 1.989740 0.000000 
#    z 0.021920 0.000000 1.987960 
# 
# From -- ./inp_files/32507.got.cif
#   From: 2010.03.12/outbox.cif.g09.slc.cpg/sg14_17_cif.got.tgz:32507.got - 2010.03.31 13:35:05.
