data_PCOD8128738
_publ_section_title
;
Structure prediction by ZEFSAII (Michael W. Deem and Ramdas Pophale) SiO2 
 PCOD8128738
Probable space group: P 21/C
;
_chemical_formula_sum "Si O2"
_cell_formula_units_Z 28
_cell_length_a 19.928191
_cell_length_b 7.891436
_cell_length_c 18.444602
_cell_angle_alpha 90.000000
_cell_angle_beta 26.225862
_cell_angle_gamma 90.000000
_cell_volume 1281.822319
_symmetry_space_group_name_H-M "P 21/C"
_symmetry_group_IT_number 14
_symmetry_cell_setting 'monoclinic'
loop_
_space_group_symop_operation_xyz
x,y,z
-x,1/2+y,1/2-z
-x,-y,-z
x,1/2-y,1/2+z
loop_
_atom_site_type_symbol
_atom_site_label
_atom_site_fract_x
_atom_site_fract_y
_atom_site_fract_z
Si Si1 0.219367 0.082789 0.195917
Si Si2 0.636020 0.257760 0.936554
Si Si3 0.123826 0.593219 0.009685
Si Si4 0.316527 0.907397 0.456428
Si Si5 0.558466 0.757493 0.623355
Si Si6 0.702939 0.105025 0.223094
Si Si7 0.281644 0.226537 0.283954
O O1 0.222937 0.215251 0.258194
O O2 0.055394 0.074277 0.318493
O O3 0.264205 0.901753 0.185633
O O4 0.343480 0.120799 0.014590
O O5 0.654658 0.395028 0.854551
O O6 0.707739 0.326738 0.941369
O O7 0.462082 0.201677 0.114157
O O8 0.173012 0.634525 0.044545
O O9 0.170058 0.753874 0.915618
O O10 0.203806 0.419191 0.907215
O O11 0.471374 0.839355 0.271049
O O12 0.326841 0.109611 0.452180
O O13 0.446927 0.859373 0.678364
O O14 0.762713 0.915917 0.145754
#
# Coordination Sequence:
#
# PCOD8128738 Si02
#       7
#     4   4   4   4   4   4   4
#     4  12  25  42  70  97 142 177 219 277 338 407
#     4  12  22  43  70 104 129 174 231 285 331 385
#     4  11  27  46  62 102 144 181 217 269 348 407
#     4  11  24  42  69  96 134 176 222 284 335 398
#     4  11  22  43  67 101 127 173 229 283 331 389
#     4  11  23  43  73 101 131 170 236 281 328 396
#     4  12  22  43  71 101 128 176 226 287 325 388
#
# _framework density 21.843900999999999
#
# number of rings (size 3 to 8) (size 9 to 14) (size 15 to 20)
#    0.000    0.571    4.286    5.571    0.000    1.714 
#    2.571    0.000    0.000    0.000    0.000    0.000 
#    0.000    0.000    0.000    0.000    0.000    0.000 
#
# Total GULP energy -347320.667251 kJ/mol
# GULP energy per Si atom -12404.309545 kJ/mol
# Density = 2.179418 g / cm^3
# Si number density = 21.843901 Si / 1000 Ang^3
#
#
#
# Elastic Constant Matrix: (Units=GPa)
#
#
# Indices 1 2 3 4 5 6 
#
# 1 103.6812 16.1227 18.2155 0.0000 7.1460 0.0000
# 2 16.1227 125.8660 28.4177 0.0000 -2.6684 0.0000
# 3 18.2155 28.4177 33.1976 0.0000 -8.8560 0.0000
# 4 0.0000 0.0000 0.0000 9.0728 0.0000 1.1860
# 5 7.1460 -2.6684 -8.8560 0.0000 37.1391 0.0000
# 6 0.0000 0.0000 0.0000 1.1860 0.0000 32.1017
#
#
#
# Elastic Compliance Matrix: (Units=1/GPa)
#
#
# Indices 1 2 3 4 5 6 
#
# 1 0.011170 0.000129 -0.007273 0.000000 -0.003874 0.000000
# 2 0.000129 0.009918 -0.008946 0.000000 -0.001446 0.000000
# 3 -0.007273 -0.008946 0.044824 0.000000 0.011445 0.000000
# 4 0.000000 0.000000 0.000000 0.110755 0.000000 -0.004092
# 5 -0.003874 -0.001446 0.011445 0.000000 0.030297 0.000000
# 6 0.000000 0.000000 0.000000 -0.004092 0.000000 0.031302
#
#
# Mechanical properties :
#
#
# Convention : Reuss Voigt Hill
#
# Bulk Modulus (GPa) = 29.64533 43.13963 36.39248
# Shear Modulus (GPa) = 17.75010 28.99531 23.37271
#
# Velocity S-wave (km/s) = 2.85369 3.64729 3.27462
# Velocity P-wave (km/s) = 4.94560 6.12608 5.56722
#
# Compressibility (1/GPa) = 0.03373213
#
# Stress axis : x y z
#
# Youngs Moduli (GPa) = 89.52852 100.83097 22.30929
#
# Poissons Ratio (x) = -0.01302 0.16225
# Poissons Ratio (y) = -0.01156 0.19958
# Poissons Ratio (z) = 0.65112 0.90204
#
# Static dielectric constant tensor:
#      x y z
#    x 4.065580 0.000000 0.028120 
#    y 0.000000 4.054150 0.000000 
#    z 0.028120 0.000000 3.611370 
# 
# 
# High freq. dielectric constant tensor:
#      x y z
#    x 1.872770 0.000000 0.003660 
#    y 0.000000 1.872070 0.000000 
#    z 0.003660 0.000000 1.831500 
# 
# From -- ./inp_files/54808.got.cif
#   From: 2010.03.12/outbox.cif.g09.slc.cpg/sg14_28_cif.got.tgz:54808.got - 2010.03.31 13:35:05.
