data_PCOD8128237
_publ_section_title
;
Structure prediction by ZEFSAII (Michael W. Deem and Ramdas Pophale) SiO2 
 PCOD8128237
Probable space group: P 21/C
;
_chemical_formula_sum "Si O2"
_cell_formula_units_Z 28
_cell_length_a 11.361445
_cell_length_b 8.210453
_cell_length_c 14.511683
_cell_angle_alpha 90.000000
_cell_angle_beta 118.055526
_cell_angle_gamma 90.000000
_cell_volume 1194.618819
_symmetry_space_group_name_H-M "P 21/C"
_symmetry_group_IT_number 14
_symmetry_cell_setting 'monoclinic'
loop_
_space_group_symop_operation_xyz
x,y,z
-x,1/2+y,1/2-z
-x,-y,-z
x,1/2-y,1/2+z
loop_
_atom_site_type_symbol
_atom_site_label
_atom_site_fract_x
_atom_site_fract_y
_atom_site_fract_z
Si Si1 0.055666 0.988612 0.806041
Si Si2 0.505969 0.984202 0.151840
Si Si3 0.669283 0.146457 0.062674
Si Si4 0.087513 0.165475 0.404314
Si Si5 0.659792 0.990250 0.572644
Si Si6 0.937097 0.841738 0.931686
Si Si7 0.349107 0.333707 0.738857
O O1 0.213107 0.967390 0.859600
O O2 0.990327 0.976626 0.679899
O O3 0.993888 0.843134 0.848613
O O4 0.036954 0.169019 0.837210
O O5 0.616356 0.850280 0.219208
O O6 0.552918 0.117404 0.094266
O O7 0.471970 0.082290 0.231616
O O8 0.379157 0.894200 0.058896
O O9 0.718342 0.331170 0.079552
O O10 0.249187 0.129696 0.458447
O O11 0.035959 0.183640 0.491961
O O12 0.688823 0.938069 0.686601
O O13 0.500000 0.000000 0.500000
O O14 0.777128 0.845250 0.874156
O O15 0.000000 0.000000 0.000000
#
# Coordination Sequence:
#
# PCOD8128237 Si02
#       7
#     4   4   4   4   4   4   4
#     4  11  23  45  71 101 144 187 236 291 361 430
#     4  11  25  43  68 105 139 187 234 291 360 426
#     4  11  25  44  70 101 144 185 234 292 359 426
#     4  11  24  45  72 105 139 192 237 296 361 433
#     4  12  25  45  71 100 141 188 246 296 360 431
#     4  10  24  43  71 101 142 187 234 293 360 428
#     4  12  24  44  70 102 143 185 240 300 358 430
#
# _framework density 23.438438000000001
#
# number of rings (size 3 to 8) (size 9 to 14) (size 15 to 20)
#    0.000    0.857    2.857    4.286    8.000    0.000 
#    2.571    2.857    0.000    0.000    0.000    0.000 
#    0.000    0.000    0.000    0.000    0.000    0.000 
#
# Total GULP energy -346998.965480 kJ/mol
# GULP energy per Si atom -12392.820196 kJ/mol
# Density = 2.338509 g / cm^3
# Si number density = 23.438438 Si / 1000 Ang^3
#
#
#
# Elastic Constant Matrix: (Units=GPa)
#
#
# Indices 1 2 3 4 5 6 
#
# 1 65.6293 12.3646 20.5667 0.0000 2.3917 0.0000
# 2 12.3646 83.4719 22.3153 0.0000 -3.8033 0.0000
# 3 20.5667 22.3153 86.2656 0.0000 11.1594 0.0000
# 4 0.0000 0.0000 0.0000 31.0829 0.0000 -3.6199
# 5 2.3917 -3.8033 11.1594 0.0000 52.4351 0.0000
# 6 0.0000 0.0000 0.0000 -3.6199 0.0000 41.7688
#
#
#
# Elastic Compliance Matrix: (Units=1/GPa)
#
#
# Indices 1 2 3 4 5 6 
#
# 1 0.016643 -0.001518 -0.003561 0.000000 -0.000111 0.000000
# 2 -0.001518 0.013156 -0.003263 0.000000 0.001718 0.000000
# 3 -0.003561 -0.003263 0.013671 0.000000 -0.002984 0.000000
# 4 0.000000 0.000000 0.000000 0.032500 0.000000 0.002817
# 5 -0.000111 0.001718 -0.002984 0.000000 0.019836 0.000000
# 6 0.000000 0.000000 0.000000 0.002817 0.000000 0.024185
#
#
# Mechanical properties :
#
#
# Convention : Reuss Voigt Hill
#
# Bulk Modulus (GPa) = 37.33445 38.42890 37.88167
# Shear Modulus (GPa) = 34.33956 37.06539 35.70248
#
# Velocity S-wave (km/s) = 3.83181 3.98099 3.90711
# Velocity P-wave (km/s) = 5.96157 6.12881 6.04577
#
# Compressibility (1/GPa) = 0.02678491
#
# Stress axis : x y z
#
# Youngs Moduli (GPa) = 60.08506 76.01260 73.14666
#
# Poissons Ratio (x) = 0.11542 0.26045
# Poissons Ratio (y) = 0.09124 0.23870
# Poissons Ratio (z) = 0.21394 0.24806
#
# Static dielectric constant tensor:
#      x y z
#    x 1.207650 0.000000 3.255480 
#    y 0.000000 4.242570 0.000000 
#    z 3.255480 0.000000 0.566570 
# 
# 
# High freq. dielectric constant tensor:
#      x y z
#    x 1.921570 0.000000 0.001260 
#    y 0.000000 1.924730 0.000000 
#    z 0.001260 0.000000 1.936630 
# 
# From -- ./inp_files/43827.got.cif
#   From: 2010.03.12/outbox.cif.g09.slc.cpg/sg14_22_cif.got.tgz:43827.got - 2010.03.31 13:35:05.
