data_PCOD8128374
_publ_section_title
;
Structure prediction by ZEFSAII (Michael W. Deem and Ramdas Pophale) SiO2 
 PCOD8128374
Probable space group: P 21/C
;
_chemical_formula_sum "Si O2"
_cell_formula_units_Z 24
_cell_length_a 19.668166
_cell_length_b 8.656000
_cell_length_c 10.144657
_cell_angle_alpha 90.000000
_cell_angle_beta 144.184922
_cell_angle_gamma 90.000000
_cell_volume 1010.651317
_symmetry_space_group_name_H-M "P 21/C"
_symmetry_group_IT_number 14
_symmetry_cell_setting 'monoclinic'
loop_
_space_group_symop_operation_xyz
x,y,z
-x,1/2+y,1/2-z
-x,-y,-z
x,1/2-y,1/2+z
loop_
_atom_site_type_symbol
_atom_site_label
_atom_site_fract_x
_atom_site_fract_y
_atom_site_fract_z
Si Si1 0.383118 0.927252 0.558570
Si Si2 0.377649 0.275324 0.486963
Si Si3 0.857895 0.811717 0.240483
Si Si4 0.930207 0.362538 0.765725
Si Si5 0.807640 0.220681 0.335004
Si Si6 0.245205 0.442708 0.075192
O O1 0.507995 0.860978 0.786669
O O2 0.316302 0.808507 0.356308
O O3 0.397253 0.092181 0.510849
O O4 0.306771 0.943253 0.569842
O O5 0.276400 0.325883 0.428756
O O6 0.342750 0.325192 0.284473
O O7 0.937816 0.805868 0.497606
O O8 0.909848 0.952712 0.236230
O O9 0.861280 0.653511 0.158718
O O10 0.898611 0.309355 0.570162
O O11 0.851728 0.282009 0.754599
O O12 0.800928 0.045180 0.375839
#
# Coordination Sequence:
#
# PCOD8128374 Si02
#       6
#     4   4   4   4   4   4
#     4  11  25  44  70 104 139 185 234 292 349 419
#     4  11  23  44  69 102 141 183 233 290 350 413
#     4  10  25  44  67 104 137 189 224 290 342 420
#     4  11  25  46  72 102 145 179 236 282 351 416
#     4  12  24  45  72 105 140 187 228 291 346 419
#     4  11  23  45  69 105 140 181 235 283 356 411
#
# _framework density 23.747062
#
# number of rings (size 3 to 8) (size 9 to 14) (size 15 to 20)
#    0.000    1.000    3.333    2.500    2.333    2.000 
#    3.000    5.000    0.000    0.000    0.000    0.000 
#    0.000    0.000    0.000    0.000    0.000    0.000 
#
# Total GULP energy -297613.342705 kJ/mol
# GULP energy per Si atom -12400.555946 kJ/mol
# Density = 2.369301 g / cm^3
# Si number density = 23.747062 Si / 1000 Ang^3
#
#
#
# Elastic Constant Matrix: (Units=GPa)
#
#
# Indices 1 2 3 4 5 6 
#
# 1 41.6569 18.5003 16.3345 0.0000 4.9514 0.0000
# 2 18.5003 115.7875 55.8279 0.0000 11.8927 0.0000
# 3 16.3345 55.8279 152.9658 0.0000 18.1313 0.0000
# 4 0.0000 0.0000 0.0000 55.4549 0.0000 -9.3590
# 5 4.9514 11.8927 18.1313 0.0000 36.0463 0.0000
# 6 0.0000 0.0000 0.0000 -9.3590 0.0000 23.9772
#
#
#
# Elastic Compliance Matrix: (Units=1/GPa)
#
#
# Indices 1 2 3 4 5 6 
#
# 1 0.026244 -0.003349 -0.001365 0.000000 -0.001813 0.000000
# 2 -0.003349 0.010999 -0.003489 0.000000 -0.001414 0.000000
# 3 -0.001365 -0.003489 0.008292 0.000000 -0.002832 0.000000
# 4 0.000000 0.000000 0.000000 0.019304 0.000000 0.007535
# 5 -0.001813 -0.001414 -0.002832 0.000000 0.029882 0.000000
# 6 0.000000 0.000000 0.000000 0.007535 0.000000 0.044647
#
#
# Mechanical properties :
#
#
# Convention : Reuss Voigt Hill
#
# Bulk Modulus (GPa) = 34.33017 54.63729 44.48373
# Shear Modulus (GPa) = 30.21419 37.74552 33.97985
#
# Velocity S-wave (km/s) = 3.57085 3.99116 3.78684
# Velocity P-wave (km/s) = 5.61153 6.65560 6.15574
#
# Compressibility (1/GPa) = 0.02912890
#
# Stress axis : x y z
#
# Youngs Moduli (GPa) = 38.10443 90.91650 120.59268
#
# Poissons Ratio (x) = 0.30444 0.16465
# Poissons Ratio (y) = 0.12760 0.42077
# Poissons Ratio (z) = 0.05203 0.31722
#
# Static dielectric constant tensor:
#      x y z
#    x 4.063270 0.000000 -0.141660 
#    y 0.000000 4.445800 0.000000 
#    z -0.141660 0.000000 4.578630 
# 
# 
# High freq. dielectric constant tensor:
#      x y z
#    x 1.931110 0.000000 -0.002850 
#    y 0.000000 1.952880 0.000000 
#    z -0.002850 0.000000 1.952340 
# 
# From -- ./inp_files/35678.got.cif
#   From: 2010.03.12/outbox.cif.g09.slc.cpg/sg14_18_cif.got.tgz:35678.got - 2010.03.31 13:35:05.
