data_PCOD8128302
_publ_section_title
;
Structure prediction by ZEFSAII (Michael W. Deem and Ramdas Pophale) SiO2 
 PCOD8128302
Probable space group: P 21/C
;
_chemical_formula_sum "Si O2"
_cell_formula_units_Z 20
_cell_length_a 5.498561
_cell_length_b 7.551192
_cell_length_c 20.687938
_cell_angle_alpha 90.000000
_cell_angle_beta 48.660435
_cell_angle_gamma 90.000000
_cell_volume 644.927316
_symmetry_space_group_name_H-M "P 21/C"
_symmetry_group_IT_number 14
_symmetry_cell_setting 'monoclinic'
loop_
_space_group_symop_operation_xyz
x,y,z
-x,1/2+y,1/2-z
-x,-y,-z
x,1/2-y,1/2+z
loop_
_atom_site_type_symbol
_atom_site_label
_atom_site_fract_x
_atom_site_fract_y
_atom_site_fract_z
Si Si1 0.421870 0.151629 0.401387
Si Si2 0.645565 0.990275 0.897129
Si Si3 0.866953 0.642818 0.796105
Si Si4 0.504516 0.207137 0.754372
Si Si5 0.046345 0.650356 0.436514
O O1 0.697178 0.301646 0.370090
O O2 0.591286 0.961901 0.385559
O O3 0.343817 0.168029 0.337785
O O4 0.097788 0.174507 0.502021
O O5 0.844481 0.852631 0.816166
O O6 0.742382 0.946953 0.954220
O O7 0.253032 0.972515 0.950330
O O8 0.787951 0.603000 0.732442
O O9 0.229712 0.580816 0.754903
O O10 0.690090 0.304350 0.663642
#
# Coordination Sequence:
#
# PCOD8128302 Si02
#       5
#     4   4   4   4   4
#     4  12  26  44  80  94 140 198 212 286 372 372
#     4  10  24  45  69 106 139 172 237 285 329 424
#     4  10  26  45  67 104 139 176 235 283 335 422
#     4  10  26  43  68 105 139 172 243 281 328 427
#     4  10  24  47  68 107 141 174 237 285 328 425
#
# _framework density 31.011243
#
# number of rings (size 3 to 8) (size 9 to 14) (size 15 to 20)
#    0.000    1.600    0.000    1.200   11.200   11.200 
#    0.000    0.000    0.000    0.000    0.000    0.000 
#    0.000    0.000    0.000    0.000    0.000    0.000 
#
# Total GULP energy -247809.462379 kJ/mol
# GULP energy per Si atom -12390.473119 kJ/mol
# Density = 3.094066 g / cm^3
# Si number density = 31.011243 Si / 1000 Ang^3
#
#
#
# Elastic Constant Matrix: (Units=GPa)
#
#
# Indices 1 2 3 4 5 6 
#
# 1 239.9101 10.2001 50.5415 0.0000 32.8722 0.0000
# 2 10.2001 77.3165 -7.2488 0.0000 16.0832 0.0000
# 3 50.5415 -7.2488 171.9450 0.0000 21.8347 0.0000
# 4 0.0000 0.0000 0.0000 62.1425 0.0000 -0.5006
# 5 32.8722 16.0832 21.8347 0.0000 53.3216 0.0000
# 6 0.0000 0.0000 0.0000 -0.5006 0.0000 25.8790
#
#
#
# Elastic Compliance Matrix: (Units=1/GPa)
#
#
# Indices 1 2 3 4 5 6 
#
# 1 0.004738 -0.000228 -0.001097 0.000000 -0.002403 0.000000
# 2 -0.000228 0.014038 0.001243 0.000000 -0.004603 0.000000
# 3 -0.001097 0.001243 0.006490 0.000000 -0.002356 0.000000
# 4 0.000000 0.000000 0.000000 0.016095 0.000000 0.000311
# 5 -0.002403 -0.004603 -0.002356 0.000000 0.022589 0.000000
# 6 0.000000 0.000000 0.000000 0.000311 0.000000 0.038647
#
#
# Mechanical properties :
#
#
# Convention : Reuss Voigt Hill
#
# Bulk Modulus (GPa) = 39.83714 66.23969 53.03842
# Shear Modulus (GPa) = 44.99299 57.31385 51.15342
#
# Velocity S-wave (km/s) = 3.81315 4.30369 4.06582
# Velocity P-wave (km/s) = 5.67985 6.78984 6.25950
#
# Compressibility (1/GPa) = 0.02510220
#
# Stress axis : x y z
#
# Youngs Moduli (GPa) = 211.04431 71.23544 154.08416
#
# Poissons Ratio (x) = 0.01625 0.16907
# Poissons Ratio (y) = 0.04814 -0.19158
# Poissons Ratio (z) = 0.23157 -0.08857
#
# Static dielectric constant tensor:
#      x y z
#    x 7.646070 0.000000 0.232430 
#    y 0.000000 5.318600 0.000000 
#    z 0.232430 0.000000 5.865970 
# 
# 
# High freq. dielectric constant tensor:
#      x y z
#    x 2.323160 0.000000 -0.006340 
#    y 0.000000 2.255430 0.000000 
#    z -0.006340 0.000000 2.320860 
# 
# From -- ./inp_files/62982.got.cif
#   From: 2010.03.12/outbox.cif.g09.slc.cpg/sg14_32_cif.got.tgz:62982.got - 2010.03.31 13:35:05.
