data_PCOD8128300
_publ_section_title
;
Structure prediction by ZEFSAII (Michael W. Deem and Ramdas Pophale) SiO2 
 PCOD8128300
Probable space group: P 21/C
;
_chemical_formula_sum "Si O2"
_cell_formula_units_Z 28
_cell_length_a 8.933827
_cell_length_b 21.453738
_cell_length_c 8.525825
_cell_angle_alpha 90.000000
_cell_angle_beta 128.617956
_cell_angle_gamma 90.000000
_cell_volume 1276.758032
_symmetry_space_group_name_H-M "P 21/C"
_symmetry_group_IT_number 14
_symmetry_cell_setting 'monoclinic'
loop_
_space_group_symop_operation_xyz
x,y,z
-x,1/2+y,1/2-z
-x,-y,-z
x,1/2-y,1/2+z
loop_
_atom_site_type_symbol
_atom_site_label
_atom_site_fract_x
_atom_site_fract_y
_atom_site_fract_z
Si Si1 0.915380 0.166331 0.705561
Si Si2 0.185129 0.545483 0.437286
Si Si3 0.766618 0.542686 0.053172
Si Si4 0.379202 0.924263 0.395480
Si Si5 0.238272 0.078908 0.802124
Si Si6 0.221629 0.743915 0.627397
Si Si7 0.611978 0.338418 0.524940
O O1 0.701272 0.138455 0.581312
O O2 0.938833 0.205446 0.880802
O O3 0.920264 0.214210 0.567121
O O4 0.065316 0.111237 0.781879
O O5 0.265820 0.555906 0.663557
O O6 0.285603 0.483389 0.432020
O O7 0.235781 0.605265 0.363020
O O8 0.954229 0.541356 0.285493
O O9 0.653576 0.477100 0.993617
O O10 0.603739 0.590619 0.008608
O O11 0.825616 0.557166 0.913104
O O12 0.405393 0.129470 0.901671
O O13 0.358969 0.788279 0.819540
O O14 0.360557 0.697547 0.622150
#
# Coordination Sequence:
#
# PCOD8128300 Si02
#       7
#     4   4   4   4   4   4   4
#     4  11  23  45  65  97 133 176 233 281 333 406
#     4  12  23  43  69 104 143 174 222 283 342 414
#     4  11  24  40  66 101 138 180 209 274 341 409
#     4  11  24  42  64  97 142 175 223 267 337 411
#     4  12  25  41  69 103 137 176 226 279 354 407
#     4  10  24  45  68  90 132 186 229 288 326 392
#     4  11  24  44  69  97 136 179 229 280 336 407
#
# _framework density 21.930546
#
# number of rings (size 3 to 8) (size 9 to 14) (size 15 to 20)
#    0.000    0.857    4.286    2.143    2.000    2.286 
#    0.000    5.714    0.000    0.000    0.000    0.000 
#    0.000    0.000    0.000    0.000    0.000    0.000 
#
# Total GULP energy -347078.418473 kJ/mol
# GULP energy per Si atom -12395.657803 kJ/mol
# Density = 2.188063 g / cm^3
# Si number density = 21.930546 Si / 1000 Ang^3
#
#
#
# Elastic Constant Matrix: (Units=GPa)
#
#
# Indices 1 2 3 4 5 6 
#
# 1 116.6216 59.7568 46.8193 0.0000 -4.6271 0.0000
# 2 59.7568 135.0973 27.5484 0.0000 -14.6791 0.0000
# 3 46.8193 27.5484 62.2054 0.0000 0.8889 0.0000
# 4 0.0000 0.0000 0.0000 10.7637 0.0000 5.1296
# 5 -4.6271 -14.6791 0.8889 0.0000 33.7845 0.0000
# 6 0.0000 0.0000 0.0000 5.1296 0.0000 44.3109
#
#
#
# Elastic Compliance Matrix: (Units=1/GPa)
#
#
# Indices 1 2 3 4 5 6 
#
# 1 0.014496 -0.004574 -0.008888 0.000000 0.000232 0.000000
# 2 -0.004574 0.010052 -0.001062 0.000000 0.003769 0.000000
# 3 -0.008888 -0.001062 0.023269 0.000000 -0.002291 0.000000
# 4 0.000000 0.000000 0.000000 0.098330 0.000000 -0.011383
# 5 0.000232 0.003769 -0.002291 0.000000 0.031329 0.000000
# 6 0.000000 0.000000 0.000000 -0.011383 0.000000 0.023886
#
#
# Mechanical properties :
#
#
# Convention : Reuss Voigt Hill
#
# Bulk Modulus (GPa) = 53.28598 64.68594 58.98596
# Shear Modulus (GPa) = 21.12686 29.75848 25.44267
#
# Velocity S-wave (km/s) = 3.10716 3.68767 3.40979
# Velocity P-wave (km/s) = 6.10106 6.90592 6.51593
#
# Compressibility (1/GPa) = 0.01876666
#
# Stress axis : x y z
#
# Youngs Moduli (GPa) = 68.98424 99.48699 42.97630
#
# Poissons Ratio (x) = 0.45509 0.38198
# Poissons Ratio (y) = 0.31556 0.04566
# Poissons Ratio (z) = 0.61314 0.10569
#
# Static dielectric constant tensor:
#      x y z
#    x 4.202080 0.000000 -0.161800 
#    y 0.000000 4.286490 0.000000 
#    z -0.161800 0.000000 3.693530 
# 
# 
# High freq. dielectric constant tensor:
#      x y z
#    x 1.874650 0.000000 -0.015200 
#    y 0.000000 1.878890 0.000000 
#    z -0.015200 0.000000 1.840070 
# 
# From -- ./inp_files/10418.got.cif
#   From: 2010.03.12/outbox.cif.g09.slc.cpg/sg14_6_cif.got.tgz:10418.got - 2010.03.31 13:35:05.
