data_PCOD8128523
_publ_section_title
;
Structure prediction by ZEFSAII (Michael W. Deem and Ramdas Pophale) SiO2 
 PCOD8128523
Probable space group: P 21/C
;
_chemical_formula_sum "Si O2"
_cell_formula_units_Z 32
_cell_length_a 11.134082
_cell_length_b 9.339893
_cell_length_c 19.309969
_cell_angle_alpha 90.000000
_cell_angle_beta 47.615916
_cell_angle_gamma 90.000000
_cell_volume 1483.242833
_symmetry_space_group_name_H-M "P 21/C"
_symmetry_group_IT_number 14
_symmetry_cell_setting 'monoclinic'
loop_
_space_group_symop_operation_xyz
x,y,z
-x,1/2+y,1/2-z
-x,-y,-z
x,1/2-y,1/2+z
loop_
_atom_site_type_symbol
_atom_site_label
_atom_site_fract_x
_atom_site_fract_y
_atom_site_fract_z
Si Si1 0.938065 0.239432 0.605755
Si Si2 0.552470 0.971309 0.178559
Si Si3 0.512296 0.967986 0.353750
Si Si4 0.266450 0.777031 0.949535
Si Si5 0.275772 0.309916 0.921612
Si Si6 0.033266 0.759273 0.170510
Si Si7 0.857920 0.049338 0.253721
Si Si8 0.802194 0.950403 0.690016
O O1 0.840405 0.219260 0.572359
O O2 0.874506 0.377426 0.671944
O O3 0.129783 0.264177 0.519931
O O4 0.917233 0.089279 0.654259
O O5 0.553339 0.010594 0.258832
O O6 0.686805 0.059586 0.083946
O O7 0.376186 0.003818 0.214447
O O8 0.594987 0.805377 0.155465
O O9 0.375108 0.081196 0.432796
O O10 0.676762 0.984465 0.334034
O O11 0.435744 0.810315 0.389883
O O12 0.164652 0.766728 0.058767
O O13 0.198542 0.398191 0.888637
O O14 0.112758 0.673456 0.202364
O O15 0.869609 0.678889 0.210220
O O16 0.985848 0.919685 0.212198
#
# Coordination Sequence:
#
# PCOD8128523 Si02
#       8
#     4   4   4   4   4   4   4   4
#     4  12  22  40  68 102 134 171 223 287 336 401
#     4  11  21  36  61 101 135 168 213 280 336 391
#     4  11  22  40  65  99 132 172 218 276 339 397
#     4  12  23  40  69 103 136 172 227 282 337 396
#     4  11  21  35  62  99 132 165 216 277 335 389
#     4  12  27  46  67  96 135 186 229 275 335 406
#     4  12  27  47  68  95 139 185 226 275 341 404
#     4  11  22  39  65  96 136 174 221 272 339 402
#
# _framework density 21.574349000000002
#
# number of rings (size 3 to 8) (size 9 to 14) (size 15 to 20)
#    0.000    0.500    5.000    6.375    0.000    1.500 
#    0.000    1.250    0.000    6.000    0.000    0.000 
#    0.000    0.000    0.000    0.000    0.000    0.000 
#
# Total GULP energy -396903.823785 kJ/mol
# GULP energy per Si atom -12403.244493 kJ/mol
# Density = 2.152524 g / cm^3
# Si number density = 21.574349 Si / 1000 Ang^3
#
#
#
# Elastic Constant Matrix: (Units=GPa)
#
#
# Indices 1 2 3 4 5 6 
#
# 1 83.0424 29.8993 40.1796 0.0000 -6.5124 0.0000
# 2 29.8993 115.1461 28.1705 0.0000 -2.1064 0.0000
# 3 40.1796 28.1705 76.2843 0.0000 -7.8582 0.0000
# 4 0.0000 0.0000 0.0000 33.9718 0.0000 -9.0663
# 5 -6.5124 -2.1064 -7.8582 0.0000 26.4862 0.0000
# 6 0.0000 0.0000 0.0000 -9.0663 0.0000 35.3905
#
#
#
# Elastic Compliance Matrix: (Units=1/GPa)
#
#
# Indices 1 2 3 4 5 6 
#
# 1 0.016814 -0.002430 -0.007791 0.000000 0.001630 0.000000
# 2 -0.002430 0.009901 -0.002431 0.000000 -0.000531 0.000000
# 3 -0.007791 -0.002431 0.018457 0.000000 0.003367 0.000000
# 4 0.000000 0.000000 0.000000 0.031596 0.000000 0.008094
# 5 0.001630 -0.000531 0.003367 0.000000 0.039113 0.000000
# 6 0.000000 0.000000 0.000000 0.008094 0.000000 0.030330
#
#
# Mechanical properties :
#
#
# Convention : Reuss Voigt Hill
#
# Bulk Modulus (GPa) = 50.33250 52.33017 51.33133
# Shear Modulus (GPa) = 28.06812 30.91792 29.49302
#
# Velocity S-wave (km/s) = 3.61084 3.78972 3.70136
# Velocity P-wave (km/s) = 6.38472 6.59225 6.48931
#
# Compressibility (1/GPa) = 0.01986788
#
# Stress axis : x y z
#
# Youngs Moduli (GPa) = 59.47256 101.00345 54.18004
#
# Poissons Ratio (x) = 0.24546 0.42212
# Poissons Ratio (y) = 0.14453 0.13170
# Poissons Ratio (z) = 0.46335 0.24553
#
# Static dielectric constant tensor:
#      x y z
#    x 3.797330 0.000000 -0.304580 
#    y 0.000000 3.974230 0.000000 
#    z -0.304580 0.000000 3.766580 
# 
# 
# High freq. dielectric constant tensor:
#      x y z
#    x 1.830020 0.000000 -0.028780 
#    y 0.000000 1.866080 0.000000 
#    z -0.028780 0.000000 1.834260 
# 
# From -- ./inp_files/67035.got.cif
#   From: 2010.03.12/outbox.cif.g09.slc.cpg/sg14_34_cif.got.tgz:67035.got - 2010.03.31 13:35:05.
