data_PCOD8128870
_publ_section_title
;
Structure prediction by ZEFSAII (Michael W. Deem and Ramdas Pophale) SiO2 
 PCOD8128870
Probable space group: P 21/C
;
_chemical_formula_sum "Si O2"
_cell_formula_units_Z 24
_cell_length_a 8.888331
_cell_length_b 8.246134
_cell_length_c 17.047452
_cell_angle_alpha 90.000000
_cell_angle_beta 126.447217
_cell_angle_gamma 90.000000
_cell_volume 1005.089117
_symmetry_space_group_name_H-M "P 21/C"
_symmetry_group_IT_number 14
_symmetry_cell_setting 'monoclinic'
loop_
_space_group_symop_operation_xyz
x,y,z
-x,1/2+y,1/2-z
-x,-y,-z
x,1/2-y,1/2+z
loop_
_atom_site_type_symbol
_atom_site_label
_atom_site_fract_x
_atom_site_fract_y
_atom_site_fract_z
Si Si1 0.058297 0.890194 0.219556
Si Si2 0.689922 0.692223 0.799338
Si Si3 0.725237 0.839415 0.653199
Si Si4 0.958165 0.374764 0.556826
Si Si5 0.648630 0.331266 0.721682
Si Si6 0.404346 0.827279 0.973452
O O1 0.175315 0.776334 0.194675
O O2 0.886784 0.796878 0.203980
O O3 0.188609 0.978540 0.327748
O O4 0.978893 0.037752 0.145956
O O5 0.637386 0.814732 0.712496
O O6 0.896309 0.723961 0.900201
O O7 0.662521 0.508372 0.762657
O O8 0.544708 0.740429 0.821921
O O9 0.566458 0.808205 0.538555
O O10 0.000000 0.500000 0.500000
O O11 0.742882 0.313597 0.498471
O O12 0.687970 0.314058 0.640572
O O13 0.500000 0.000000 0.000000
#
# Coordination Sequence:
#
# PCOD8128870 Si02
#       6
#     4   4   4   4   4   4
#     4  11  24  43  70  99 140 185 236 294 362 439
#     4  11  23  42  69  98 142 184 242 287 363 425
#     4  11  23  43  71 103 135 189 234 295 360 437
#     4  11  24  43  71 104 141 189 234 291 361 429
#     4  12  25  45  70 105 138 190 240 303 360 435
#     4  12  23  42  73 101 142 184 238 294 361 430
#
# _framework density 23.87848
#
# number of rings (size 3 to 8) (size 9 to 14) (size 15 to 20)
#    0.000    0.667    3.333    6.000    2.333    0.667 
#    0.000    0.833    0.000    0.000    0.000    0.000 
#    0.000    0.000    0.000    0.000    0.000    0.000 
#
# Total GULP energy -297421.620490 kJ/mol
# GULP energy per Si atom -12392.567520 kJ/mol
# Density = 2.382413 g / cm^3
# Si number density = 23.878480 Si / 1000 Ang^3
#
#
#
# Elastic Constant Matrix: (Units=GPa)
#
#
# Indices 1 2 3 4 5 6 
#
# 1 146.2847 39.6595 36.0530 0.0000 20.3287 0.0000
# 2 39.6595 121.2411 40.6125 0.0000 12.5558 0.0000
# 3 36.0530 40.6125 74.0829 0.0000 18.8925 0.0000
# 4 0.0000 0.0000 0.0000 34.8780 0.0000 7.9507
# 5 20.3287 12.5558 18.8925 0.0000 34.5433 0.0000
# 6 0.0000 0.0000 0.0000 7.9507 0.0000 39.6955
#
#
#
# Elastic Compliance Matrix: (Units=1/GPa)
#
#
# Indices 1 2 3 4 5 6 
#
# 1 0.008272 -0.001597 -0.002390 0.000000 -0.002980 0.000000
# 2 -0.001597 0.010428 -0.004896 0.000000 -0.000173 0.000000
# 3 -0.002390 -0.004896 0.019213 0.000000 -0.007322 0.000000
# 4 0.000000 0.000000 0.000000 0.030043 0.000000 -0.006017
# 5 -0.002980 -0.000173 -0.007322 0.000000 0.034771 0.000000
# 6 0.000000 0.000000 0.000000 -0.006017 0.000000 0.026397
#
#
# Mechanical properties :
#
#
# Convention : Reuss Voigt Hill
#
# Bulk Modulus (GPa) = 49.63300 63.80652 56.71976
# Shear Modulus (GPa) = 32.55115 36.84227 34.69671
#
# Velocity S-wave (km/s) = 3.69616 3.93225 3.81603
# Velocity P-wave (km/s) = 6.24870 6.88448 6.57428
#
# Compressibility (1/GPa) = 0.02014789
#
# Stress axis : x y z
#
# Youngs Moduli (GPa) = 120.88757 95.89469 52.04922
#
# Poissons Ratio (x) = 0.15310 0.12442
# Poissons Ratio (y) = 0.19300 0.25481
# Poissons Ratio (z) = 0.28897 0.46946
#
# Static dielectric constant tensor:
#      x y z
#    x 4.572930 0.000000 0.085730 
#    y 0.000000 5.000670 0.000000 
#    z 0.085730 0.000000 5.146640 
# 
# 
# High freq. dielectric constant tensor:
#      x y z
#    x 1.958630 0.000000 0.020370 
#    y 0.000000 1.952140 0.000000 
#    z 0.020370 0.000000 1.929430 
# 
# From -- ./inp_files/64888.got.cif
#   From: 2010.03.12/outbox.cif.g09.slc.cpg/sg14_33_cif.got.tgz:64888.got - 2010.03.31 13:35:05.
