data_PCOD8128104
_publ_section_title
;
Structure prediction by ZEFSAII (Michael W. Deem and Ramdas Pophale) SiO2 
 PCOD8128104
Probable space group: P 21/C
;
_chemical_formula_sum "Si O2"
_cell_formula_units_Z 20
_cell_length_a 9.318501
_cell_length_b 18.383764
_cell_length_c 8.698896
_cell_angle_alpha 90.000000
_cell_angle_beta 147.852000
_cell_angle_gamma 90.000000
_cell_volume 792.947586
_symmetry_space_group_name_H-M "P 21/C"
_symmetry_group_IT_number 14
_symmetry_cell_setting 'monoclinic'
loop_
_space_group_symop_operation_xyz
x,y,z
-x,1/2+y,1/2-z
-x,-y,-z
x,1/2-y,1/2+z
loop_
_atom_site_type_symbol
_atom_site_label
_atom_site_fract_x
_atom_site_fract_y
_atom_site_fract_z
Si Si1 0.570047 0.395522 0.682338
Si Si2 0.959276 0.326758 0.824919
Si Si3 0.645886 0.550748 0.836092
Si Si4 0.254763 0.316580 0.655144
Si Si5 0.705980 0.352460 0.300748
O O1 0.699247 0.464312 0.891567
O O2 0.423556 0.425182 0.399306
O O3 0.356389 0.355440 0.594750
O O4 0.802767 0.338950 0.843453
O O5 0.759901 0.303462 0.503784
O O6 0.087258 0.403166 0.880708
O O7 0.186843 0.267050 0.057978
O O8 0.410432 0.569839 0.745937
O O9 0.985234 0.360180 0.460899
O O10 0.482671 0.313234 0.993256
#
# Coordination Sequence:
#
# PCOD8128104 Si02
#       5
#     4   4   4   4   4
#     4  10  26  47  76 112 145 206 249 301 370 452
#     4  11  26  48  78 103 158 194 256 298 380 440
#     4  10  23  50  76 106 153 201 249 301 369 453
#     4  12  29  46  76 114 149 192 250 314 374 434
#     4  11  27  49  74 111 151 194 245 314 375 437
#
# _framework density 25.222346000000002
#
# number of rings (size 3 to 8) (size 9 to 14) (size 15 to 20)
#    0.000    1.200    2.000    0.600   14.000    1.600 
#    0.000    0.000    0.000    0.000    0.000    0.000 
#    0.000    0.000    0.000    0.000    0.000    0.000 
#
# Total GULP energy -247974.334453 kJ/mol
# GULP energy per Si atom -12398.716723 kJ/mol
# Density = 2.516494 g / cm^3
# Si number density = 25.222346 Si / 1000 Ang^3
#
#
#
# Elastic Constant Matrix: (Units=GPa)
#
#
# Indices 1 2 3 4 5 6 
#
# 1 195.2997 76.0161 42.0977 0.0000 37.8594 0.0000
# 2 76.0161 116.0086 35.1999 0.0000 3.6216 0.0000
# 3 42.0977 35.1999 123.4148 0.0000 16.6703 0.0000
# 4 0.0000 0.0000 0.0000 1.5643 0.0000 36.8066
# 5 37.8594 3.6216 16.6703 0.0000 26.5239 0.0000
# 6 0.0000 0.0000 0.0000 36.8066 0.0000 7.1665
#
#
#
# Elastic Compliance Matrix: (Units=1/GPa)
#
#
# Indices 1 2 3 4 5 6 
#
# 1 0.010228 -0.006326 0.000187 0.000000 -0.013852 0.000000
# 2 -0.006326 0.013354 -0.002868 0.000000 0.009009 0.000000
# 3 0.000187 -0.002868 0.009660 0.000000 -0.005946 0.000000
# 4 0.000000 0.000000 0.000000 -0.005334 0.000000 0.027396
# 5 -0.013852 0.009009 -0.005946 0.000000 0.059981 0.000000
# 6 0.000000 0.000000 0.000000 0.027396 0.000000 -0.001164
#
#
# Mechanical properties :
#
#
# Convention : Reuss Voigt Hill
#
# Bulk Modulus (GPa) = 65.66969 82.37228 74.02098
# Shear Modulus (GPa) = 45.53111 25.81157 35.67134
#
# Velocity S-wave (km/s) = 4.25336 3.20247 3.76477
# Velocity P-wave (km/s) = 7.08620 6.81203 6.95047
#
# Compressibility (1/GPa) = 0.01522773
#
# Stress axis : x y z
#
# Youngs Moduli (GPa) = 97.77430 74.88308 103.51714
#
# Poissons Ratio (x) = 0.47371 -0.01932
# Poissons Ratio (y) = 0.61852 0.29687
# Poissons Ratio (z) = -0.01825 0.21475
#
# Static dielectric constant tensor:
#      x y z
#    x 4.853360 0.000000 0.051680 
#    y 0.000000 4.506190 0.000000 
#    z 0.051680 0.000000 4.585750 
# 
# 
# High freq. dielectric constant tensor:
#      x y z
#    x 2.023880 0.000000 0.003470 
#    y 0.000000 1.985720 0.000000 
#    z 0.003470 0.000000 2.010340 
# 
# From -- ./inp_files/10055.got.cif
#   From: 2010.03.12/outbox.cif.g09.slc.cpg/sg14_6_cif.got.tgz:10055.got - 2010.03.31 13:35:05.
