data_PCOD8128974
_publ_section_title
;
Structure prediction by ZEFSAII (Michael W. Deem and Ramdas Pophale) SiO2 
 PCOD8128974
Probable space group: P 21/C
;
_chemical_formula_sum "Si O2"
_cell_formula_units_Z 24
_cell_length_a 12.743394
_cell_length_b 10.994225
_cell_length_c 13.589476
_cell_angle_alpha 90.000000
_cell_angle_beta 32.750095
_cell_angle_gamma 90.000000
_cell_volume 1029.983656
_symmetry_space_group_name_H-M "P 21/C"
_symmetry_group_IT_number 14
_symmetry_cell_setting 'monoclinic'
loop_
_space_group_symop_operation_xyz
x,y,z
-x,1/2+y,1/2-z
-x,-y,-z
x,1/2-y,1/2+z
loop_
_atom_site_type_symbol
_atom_site_label
_atom_site_fract_x
_atom_site_fract_y
_atom_site_fract_z
Si Si1 0.340476 0.748431 0.155049
Si Si2 0.332283 0.620629 0.473798
Si Si3 0.727148 0.645516 0.409822
Si Si4 0.783639 0.028052 0.137587
Si Si5 0.289819 0.269476 0.363595
Si Si6 0.981107 0.136805 0.484341
O O1 0.319489 0.605111 0.194417
O O2 0.241769 0.820578 0.325792
O O3 0.244600 0.785482 0.124840
O O4 0.566720 0.785783 0.969526
O O5 0.349509 0.490829 0.513708
O O6 0.206330 0.605291 0.473304
O O7 0.543160 0.670260 0.278445
O O8 0.757847 0.719244 0.484484
O O9 0.935423 0.650186 0.191328
O O10 0.659876 0.904026 0.219691
O O11 0.000000 0.000000 0.000000
O O12 0.094170 0.224515 0.468825
O O13 0.000000 0.000000 0.500000
#
# Coordination Sequence:
#
# PCOD8128974 Si02
#       6
#     4   4   4   4   4   4
#     4  12  23  44  76 103 143 193 241 304 367 437
#     4  11  23  45  75 101 143 194 245 296 370 440
#     4  11  24  46  72 104 148 184 249 310 358 446
#     4  11  25  47  69 106 154 187 240 312 366 436
#     4  11  24  45  70 106 145 193 244 300 374 442
#     4  12  24  44  74 106 144 192 249 305 365 438
#
# _framework density 23.30134
#
# number of rings (size 3 to 8) (size 9 to 14) (size 15 to 20)
#    0.000    0.667    6.667    1.500    0.000    2.000 
#    0.000    0.000    0.000    0.000    0.000    0.000 
#    0.000    0.000    0.000    0.000    0.000    0.000 
#
# Total GULP energy -297532.988438 kJ/mol
# GULP energy per Si atom -12397.207852 kJ/mol
# Density = 2.324831 g / cm^3
# Si number density = 23.301340 Si / 1000 Ang^3
#
#
#
# Elastic Constant Matrix: (Units=GPa)
#
#
# Indices 1 2 3 4 5 6 
#
# 1 98.4745 21.6291 -1.2245 0.0000 28.0902 0.0000
# 2 21.6291 76.2657 -2.9495 0.0000 20.5676 0.0000
# 3 -1.2245 -2.9495 87.7406 0.0000 23.6416 0.0000
# 4 0.0000 0.0000 0.0000 38.0964 0.0000 5.3535
# 5 28.0902 20.5676 23.6416 0.0000 32.8016 0.0000
# 6 0.0000 0.0000 0.0000 5.3535 0.0000 40.4046
#
#
#
# Elastic Compliance Matrix: (Units=1/GPa)
#
#
# Indices 1 2 3 4 5 6 
#
# 1 0.014735 0.000346 0.004562 0.000000 -0.016123 0.000000
# 2 0.000346 0.016986 0.004375 0.000000 -0.014100 0.000000
# 3 0.004562 0.004375 0.016629 0.000000 -0.018635 0.000000
# 4 0.000000 0.000000 0.000000 0.026747 0.000000 -0.003544
# 5 -0.016123 -0.014100 -0.018635 0.000000 0.066566 0.000000
# 6 0.000000 0.000000 0.000000 -0.003544 0.000000 0.025219
#
#
# Mechanical properties :
#
#
# Convention : Reuss Voigt Hill
#
# Bulk Modulus (GPa) = 14.94456 33.04346 23.99401
# Shear Modulus (GPa) = 29.30457 38.59556 33.95006
#
# Velocity S-wave (km/s) = 3.55016 4.07426 3.82121
# Velocity P-wave (km/s) = 4.82000 6.02864 5.45788
#
# Compressibility (1/GPa) = 0.06691398
#
# Stress axis : x y z
#
# Youngs Moduli (GPa) = 67.86657 58.87303 60.13543
#
# Poissons Ratio (x) = -0.02035 -0.27431
# Poissons Ratio (y) = -0.02346 -0.26309
# Poissons Ratio (z) = -0.30958 -0.25757
#
# Static dielectric constant tensor:
#      x y z
#    x 4.406420 0.000000 0.146190 
#    y 0.000000 4.346130 0.000000 
#    z 0.146190 0.000000 4.230530 
# 
# 
# High freq. dielectric constant tensor:
#      x y z
#    x 1.916510 0.000000 0.018650 
#    y 0.000000 1.934940 0.000000 
#    z 0.018650 0.000000 1.916270 
# 
# From -- ./inp_files/47065.got.cif
#   From: 2010.03.12/outbox.cif.g09.slc.cpg/sg14_24_cif.got.tgz:47065.got - 2010.03.31 13:35:05.
