data_PCOD8128605
_publ_section_title
;
Structure prediction by ZEFSAII (Michael W. Deem and Ramdas Pophale) SiO2 
 PCOD8128605
Probable space group: P 21/C
;
_chemical_formula_sum "Si O2"
_cell_formula_units_Z 20
_cell_length_a 20.262022
_cell_length_b 6.480314
_cell_length_c 15.245581
_cell_angle_alpha 90.000000
_cell_angle_beta 25.877347
_cell_angle_gamma 90.000000
_cell_volume 873.682076
_symmetry_space_group_name_H-M "P 21/C"
_symmetry_group_IT_number 14
_symmetry_cell_setting 'monoclinic'
loop_
_space_group_symop_operation_xyz
x,y,z
-x,1/2+y,1/2-z
-x,-y,-z
x,1/2-y,1/2+z
loop_
_atom_site_type_symbol
_atom_site_label
_atom_site_fract_x
_atom_site_fract_y
_atom_site_fract_z
Si Si1 0.519017 0.530181 0.841115
Si Si2 0.322803 0.186341 0.011871
Si Si3 0.814102 0.345906 0.546288
Si Si4 0.757679 0.291093 0.300804
Si Si5 0.128589 0.961717 0.675867
O O1 0.414291 0.327750 0.970083
O O2 0.564562 0.559343 0.685207
O O3 0.664931 0.491111 0.727516
O O4 0.419681 0.724305 0.992603
O O5 0.213086 0.318389 0.079616
O O6 0.228056 0.026593 0.184338
O O7 0.833352 0.226443 0.614881
O O8 0.953817 0.499128 0.362941
O O9 0.798662 0.179977 0.486739
O O10 0.853012 0.148333 0.252571
#
# Coordination Sequence:
#
# PCOD8128605 Si02
#       5
#     4   4   4   4   4
#     4  11  21  42  69 102 136 174 223 276 335 394
#     4  11  21  44  69  95 137 180 218 279 338 390
#     4  12  25  46  69 102 136 179 226 278 337 402
#     4  11  25  45  72  99 136 180 225 274 337 405
#     4  11  26  47  67  98 140 178 222 283 334 395
#
# _framework density 22.891622000000002
#
# number of rings (size 3 to 8) (size 9 to 14) (size 15 to 20)
#    0.000    0.800    4.000    3.600    0.000    1.600 
#   14.400    0.000    0.000    0.000    0.000    0.000 
#    0.000    0.000    0.000    0.000    0.000    0.000 
#
# Total GULP energy -248122.935843 kJ/mol
# GULP energy per Si atom -12406.146792 kJ/mol
# Density = 2.283952 g / cm^3
# Si number density = 22.891622 Si / 1000 Ang^3
#
#
#
# Elastic Constant Matrix: (Units=GPa)
#
#
# Indices 1 2 3 4 5 6 
#
# 1 110.9187 42.7108 38.2396 0.0000 2.5443 0.0000
# 2 42.7108 101.9362 20.7008 0.0000 -15.6150 0.0000
# 3 38.2396 20.7008 50.5067 0.0000 -5.9383 0.0000
# 4 0.0000 0.0000 0.0000 23.3725 0.0000 -5.6734
# 5 2.5443 -15.6150 -5.9383 0.0000 52.5602 0.0000
# 6 0.0000 0.0000 0.0000 -5.6734 0.0000 31.9551
#
#
#
# Elastic Compliance Matrix: (Units=1/GPa)
#
#
# Indices 1 2 3 4 5 6 
#
# 1 0.013930 -0.004457 -0.009075 0.000000 -0.003024 0.000000
# 2 -0.004457 0.012524 -0.001314 0.000000 0.003788 0.000000
# 3 -0.009075 -0.001314 0.027581 0.000000 0.003165 0.000000
# 4 0.000000 0.000000 0.000000 0.044712 0.000000 0.007938
# 5 -0.003024 0.003788 0.003165 0.000000 0.020655 0.000000
# 6 0.000000 0.000000 0.000000 0.007938 0.000000 0.032703
#
#
# Mechanical properties :
#
#
# Convention : Reuss Voigt Hill
#
# Bulk Modulus (GPa) = 41.07821 51.85157 46.46489
# Shear Modulus (GPa) = 26.32790 32.35824 29.34307
#
# Velocity S-wave (km/s) = 3.39501 3.76379 3.58414
# Velocity P-wave (km/s) = 5.77509 6.44889 6.12127
#
# Compressibility (1/GPa) = 0.02434381
#
# Stress axis : x y z
#
# Youngs Moduli (GPa) = 71.78808 79.84371 36.25672
#
# Poissons Ratio (x) = 0.35584 0.32905
# Poissons Ratio (y) = 0.31994 0.04763
# Poissons Ratio (z) = 0.65151 0.10489
#
# Static dielectric constant tensor:
#      x y z
#    x 3.979040 0.000000 -0.127670 
#    y 0.000000 4.085930 0.000000 
#    z -0.127670 0.000000 4.031890 
# 
# 
# High freq. dielectric constant tensor:
#      x y z
#    x 1.904090 0.000000 -0.006160 
#    y 0.000000 1.904790 0.000000 
#    z -0.006160 0.000000 1.896660 
# 
# From -- ./inp_files/49559.got.cif
#   From: 2010.03.12/outbox.cif.g09.slc.cpg/sg14_25_cif.got.tgz:49559.got - 2010.03.31 13:35:05.
