data_PCOD8128836
_publ_section_title
;
Structure prediction by ZEFSAII (Michael W. Deem and Ramdas Pophale) SiO2 
 PCOD8128836
Probable space group: P 21/C
;
_chemical_formula_sum "Si O2"
_cell_formula_units_Z 32
_cell_length_a 18.871351
_cell_length_b 9.597993
_cell_length_c 8.983726
_cell_angle_alpha 90.000000
_cell_angle_beta 102.593844
_cell_angle_gamma 90.000000
_cell_volume 1588.046166
_symmetry_space_group_name_H-M "P 21/C"
_symmetry_group_IT_number 14
_symmetry_cell_setting 'monoclinic'
loop_
_space_group_symop_operation_xyz
x,y,z
-x,1/2+y,1/2-z
-x,-y,-z
x,1/2-y,1/2+z
loop_
_atom_site_type_symbol
_atom_site_label
_atom_site_fract_x
_atom_site_fract_y
_atom_site_fract_z
Si Si1 0.309444 0.429932 0.404274
Si Si2 0.956871 0.181082 0.100675
Si Si3 0.330809 0.338774 0.748907
Si Si4 0.502821 0.636394 0.096557
Si Si5 0.058006 0.561831 0.728273
Si Si6 0.223833 0.578863 0.779672
Si Si7 0.206630 0.654667 0.441027
Si Si8 0.446757 0.604936 0.398696
O O1 0.330124 0.360006 0.571798
O O2 0.297399 0.311423 0.274702
O O3 0.234644 0.513566 0.377520
O O4 0.366569 0.547349 0.383612
O O5 0.970587 0.344128 0.146218
O O6 0.878283 0.148995 0.134176
O O7 0.958620 0.155011 0.925513
O O8 0.015199 0.082992 0.208693
O O9 0.413195 0.326313 0.842673
O O10 0.284523 0.457485 0.813883
O O11 0.462244 0.616494 0.232311
O O12 0.500000 0.500000 0.000000
O O13 0.457397 0.748220 0.983020
O O14 0.143113 0.520313 0.777805
O O15 0.225320 0.652742 0.621920
O O16 0.243868 0.702132 0.902693
O O17 0.500000 0.500000 0.500000
#
# Coordination Sequence:
#
# PCOD8128836 Si02
#       8
#     4   4   4   4   4   4   4   4
#     4  11  25  40  61  83 119 149 192 236 288 342
#     4   9  18  34  56  81 116 147 189 228 281 327
#     4  11  23  41  57  84 114 150 188 237 285 342
#     4  12  26  41  64  87 116 151 191 240 289 344
#     4   9  18  34  55  83 112 151 184 235 274 334
#     4   9  20  37  58  80 115 146 192 229 284 333
#     4   9  20  38  57  84 112 150 187 235 277 340
#     4  12  24  43  62  88 116 149 192 238 289 342
#
# _framework density 20.150548000000001
#
# number of rings (size 3 to 8) (size 9 to 14) (size 15 to 20)
#    0.000    1.750    2.500    0.750    3.500    3.500 
#    0.000    0.000    0.000    0.000    0.000    0.000 
#    0.000    0.000    0.000    0.000    0.000    0.000 
#
# Total GULP energy -396767.761792 kJ/mol
# GULP energy per Si atom -12398.992556 kJ/mol
# Density = 2.010468 g / cm^3
# Si number density = 20.150548 Si / 1000 Ang^3
#
#
#
# Elastic Constant Matrix: (Units=GPa)
#
#
# Indices 1 2 3 4 5 6 
#
# 1 70.7764 40.5669 26.5604 0.0000 -9.3513 0.0000
# 2 40.5669 117.7052 42.5995 0.0000 -10.5297 0.0000
# 3 26.5604 42.5995 73.4704 0.0000 -15.2786 0.0000
# 4 0.0000 0.0000 0.0000 39.6975 0.0000 -0.2201
# 5 -9.3513 -10.5297 -15.2786 0.0000 24.6602 0.0000
# 6 0.0000 0.0000 0.0000 -0.2201 0.0000 40.5788
#
#
#
# Elastic Compliance Matrix: (Units=1/GPa)
#
#
# Indices 1 2 3 4 5 6 
#
# 1 0.018576 -0.004974 -0.003223 0.000000 0.002923 0.000000
# 2 -0.004974 0.012099 -0.005206 0.000000 0.000055 0.000000
# 3 -0.003223 -0.005206 0.019604 0.000000 0.008701 0.000000
# 4 0.000000 0.000000 0.000000 0.025191 0.000000 0.000137
# 5 0.002923 0.000055 0.008701 0.000000 0.047074 0.000000
# 6 0.000000 0.000000 0.000000 0.000137 0.000000 0.024644
#
#
# Mechanical properties :
#
#
# Convention : Reuss Voigt Hill
#
# Bulk Modulus (GPa) = 42.60309 53.48951 48.04630
# Shear Modulus (GPa) = 27.49996 31.13565 29.31780
#
# Velocity S-wave (km/s) = 3.69823 3.93511 3.81850
# Velocity P-wave (km/s) = 6.27886 6.87381 6.58306
#
# Compressibility (1/GPa) = 0.02347247
#
# Stress axis : x y z
#
# Youngs Moduli (GPa) = 53.83329 82.65143 51.01008
#
# Poissons Ratio (x) = 0.41111 0.16443
# Poissons Ratio (y) = 0.26777 0.26554
# Poissons Ratio (z) = 0.17353 0.43026
#
# Static dielectric constant tensor:
#      x y z
#    x 3.768210 0.000000 -0.176140 
#    y 0.000000 3.716520 0.000000 
#    z -0.176140 0.000000 3.960800 
# 
# 
# High freq. dielectric constant tensor:
#      x y z
#    x 1.790310 0.000000 -0.008670 
#    y 0.000000 1.792200 0.000000 
#    z -0.008670 0.000000 1.783730 
# 
# From -- ./inp_files/18632.got.cif
#   From: 2010.03.12/outbox.cif.g09.slc.cpg/sg14_10_cif.got.tgz:18632.got - 2010.03.31 13:35:05.
