data_PCOD8128555
_publ_section_title
;
Structure prediction by ZEFSAII (Michael W. Deem and Ramdas Pophale) SiO2 
 PCOD8128555
Probable space group: P 21/C
;
_chemical_formula_sum "Si O2"
_cell_formula_units_Z 28
_cell_length_a 6.804248
_cell_length_b 19.809127
_cell_length_c 10.369629
_cell_angle_alpha 90.000000
_cell_angle_beta 115.254556
_cell_angle_gamma 90.000000
_cell_volume 1264.094187
_symmetry_space_group_name_H-M "P 21/C"
_symmetry_group_IT_number 14
_symmetry_cell_setting 'monoclinic'
loop_
_space_group_symop_operation_xyz
x,y,z
-x,1/2+y,1/2-z
-x,-y,-z
x,1/2-y,1/2+z
loop_
_atom_site_type_symbol
_atom_site_label
_atom_site_fract_x
_atom_site_fract_y
_atom_site_fract_z
Si Si1 0.181859 0.409325 0.539056
Si Si2 0.498751 0.629749 0.768966
Si Si3 0.020655 0.513520 0.299062
Si Si4 0.294197 0.931934 0.439274
Si Si5 0.415165 0.520781 0.243513
Si Si6 0.027638 0.315736 0.120621
Si Si7 0.066192 0.710137 0.617835
O O1 0.130377 0.448964 0.394742
O O2 0.428206 0.424403 0.647171
O O3 0.016439 0.428064 0.607533
O O4 0.142336 0.331487 0.493730
O O5 0.463282 0.616719 0.912146
O O6 0.516143 0.556382 0.703683
O O7 0.290619 0.669606 0.654193
O O8 0.712630 0.674823 0.810987
O O9 0.176680 0.538972 0.229502
O O10 0.786184 0.491212 0.179376
O O11 0.411747 0.968493 0.589525
O O12 0.081531 0.889301 0.419868
O O13 0.964581 0.276968 0.236765
O O14 0.936263 0.277530 0.968404
#
# Coordination Sequence:
#
# PCOD8128555 Si02
#       7
#     4   4   4   4   4   4   4
#     4  11  22  40  63  95 138 173 219 273 336 401
#     4  11  22  43  69  92 134 176 215 277 340 388
#     4  11  21  39  63  97 137 173 216 273 336 400
#     4  11  23  42  65 104 136 170 225 273 339 406
#     4  12  23  36  70 103 135 172 213 273 348 401
#     4  11  26  46  70  91 134 182 230 280 329 396
#     4  11  26  47  65  98 133 179 234 278 326 411
#
# _framework density 22.150248000000001
#
# number of rings (size 3 to 8) (size 9 to 14) (size 15 to 20)
#    0.000    0.857    5.714    2.143    0.000    6.857 
#    0.000    0.000    0.000    0.000    0.000    0.000 
#    0.000    0.000    0.000    0.000    0.000    0.000 
#
# Total GULP energy -347225.175135 kJ/mol
# GULP energy per Si atom -12400.899112 kJ/mol
# Density = 2.209983 g / cm^3
# Si number density = 22.150248 Si / 1000 Ang^3
#
#
#
# Elastic Constant Matrix: (Units=GPa)
#
#
# Indices 1 2 3 4 5 6 
#
# 1 102.5572 12.0328 31.1058 0.0000 -3.1175 0.0000
# 2 12.0328 47.6508 26.8721 0.0000 2.0848 0.0000
# 3 31.1058 26.8721 115.2583 0.0000 3.7350 0.0000
# 4 0.0000 0.0000 0.0000 42.3536 0.0000 2.6209
# 5 -3.1175 2.0848 3.7350 0.0000 30.8390 0.0000
# 6 0.0000 0.0000 0.0000 2.6209 0.0000 25.2994
#
#
#
# Elastic Compliance Matrix: (Units=1/GPa)
#
#
# Indices 1 2 3 4 5 6 
#
# 1 0.010751 -0.001286 -0.002650 0.000000 0.001495 0.000000
# 2 -0.001286 0.024345 -0.005292 0.000000 -0.001135 0.000000
# 3 -0.002650 -0.005292 0.010664 0.000000 -0.001202 0.000000
# 4 0.000000 0.000000 0.000000 0.023763 0.000000 -0.002462
# 5 0.001495 -0.001135 -0.001202 0.000000 0.032800 0.000000
# 6 0.000000 0.000000 0.000000 -0.002462 0.000000 0.039782
#
#
# Mechanical properties :
#
#
# Convention : Reuss Voigt Hill
#
# Bulk Modulus (GPa) = 36.62495 45.05421 40.83958
# Shear Modulus (GPa) = 29.47050 32.72879 31.09964
#
# Velocity S-wave (km/s) = 3.65153 3.84810 3.75111
# Velocity P-wave (km/s) = 5.86080 6.33469 6.10234
#
# Compressibility (1/GPa) = 0.02730379
#
# Stress axis : x y z
#
# Youngs Moduli (GPa) = 93.01704 41.07659 93.77209
#
# Poissons Ratio (x) = 0.05281 0.24850
# Poissons Ratio (y) = 0.11959 0.49626
# Poissons Ratio (z) = 0.24650 0.21738
#
# Static dielectric constant tensor:
#      x y z
#    x 4.165900 0.000000 -0.040680 
#    y 0.000000 3.827750 0.000000 
#    z -0.040680 0.000000 4.209890 
# 
# 
# High freq. dielectric constant tensor:
#      x y z
#    x 1.891370 0.000000 -0.002130 
#    y 0.000000 1.837440 0.000000 
#    z -0.002130 0.000000 1.873400 
# 
# From -- ./inp_files/21889.got.cif
#   From: 2010.03.12/outbox.cif.g09.slc.cpg/sg14_11_cif.got.tgz:21889.got - 2010.03.31 13:35:05.
