data_PCOD8128386
_publ_section_title
;
Structure prediction by ZEFSAII (Michael W. Deem and Ramdas Pophale) SiO2 
 PCOD8128386
Probable space group: P 21/C
;
_chemical_formula_sum "Si O2"
_cell_formula_units_Z 20
_cell_length_a 10.163088
_cell_length_b 7.678876
_cell_length_c 11.643918
_cell_angle_alpha 90.000000
_cell_angle_beta 90.900173
_cell_angle_gamma 90.000000
_cell_volume 908.591934
_symmetry_space_group_name_H-M "P 21/C"
_symmetry_group_IT_number 14
_symmetry_cell_setting 'monoclinic'
loop_
_space_group_symop_operation_xyz
x,y,z
-x,1/2+y,1/2-z
-x,-y,-z
x,1/2-y,1/2+z
loop_
_atom_site_type_symbol
_atom_site_label
_atom_site_fract_x
_atom_site_fract_y
_atom_site_fract_z
Si Si1 0.155455 0.053379 0.759922
Si Si2 0.660023 0.122849 0.581354
Si Si3 0.748257 0.481297 0.490574
Si Si4 0.632945 0.676688 0.902614
Si Si5 0.130157 0.836253 0.224084
O O1 0.274031 0.164475 0.707591
O O2 0.017571 0.145950 0.729858
O O3 0.157982 0.865510 0.699544
O O4 0.172047 0.041636 0.896712
O O5 0.672295 0.301614 0.510936
O O6 0.515565 0.130704 0.637615
O O7 0.768095 0.095229 0.680041
O O8 0.678841 0.958790 0.499565
O O9 0.643492 0.628515 0.453049
O O10 0.853595 0.449472 0.390686
#
# Coordination Sequence:
#
# PCOD8128386 Si02
#       5
#     4   4   4   4   4
#     4  11  25  44  67 103 132 179 225 272 334 398
#     4  10  25  45  66 100 130 177 221 278 326 401
#     4  11  24  45  68 102 132 177 220 280 329 396
#     4  11  24  44  70  95 136 172 224 271 341 388
#     4  11  24  44  68  96 141 171 227 276 330 391
#
# _framework density 22.012080999999998
#
# number of rings (size 3 to 8) (size 9 to 14) (size 15 to 20)
#    0.000    1.200    2.000    2.400    5.600    7.200 
#    0.000    0.000    0.000    0.000    0.000    0.000 
#    0.000    0.000    0.000    0.000    0.000    0.000 
#
# Total GULP energy -248105.955211 kJ/mol
# GULP energy per Si atom -12405.297761 kJ/mol
# Density = 2.196198 g / cm^3
# Si number density = 22.012081 Si / 1000 Ang^3
#
#
#
# Elastic Constant Matrix: (Units=GPa)
#
#
# Indices 1 2 3 4 5 6 
#
# 1 -121.8594 -207.1115 -138.0675 0.0000 -93.3038 0.0000
# 2 -207.1115 -92.8685 -123.0994 0.0000 -71.0841 0.0000
# 3 -138.0675 -123.0994 -39.2787 0.0000 -71.9403 0.0000
# 4 0.0000 0.0000 0.0000 28.0098 0.0000 0.6096
# 5 -93.3038 -71.0841 -71.9403 0.0000 2.1228 0.0000
# 6 0.0000 0.0000 0.0000 0.6096 0.0000 30.9358
#
#
#
# Elastic Compliance Matrix: (Units=1/GPa)
#
#
# Indices 1 2 3 4 5 6 
#
# 1 0.006321 -0.002288 -0.006081 0.000000 -0.004895 0.000000
# 2 -0.002288 0.009530 -0.006693 0.000000 -0.008262 0.000000
# 3 -0.006081 -0.006693 0.014539 0.000000 0.001286 0.000000
# 4 0.000000 0.000000 0.000000 0.035717 0.000000 -0.000704
# 5 -0.004895 -0.008262 0.001286 0.000000 0.022830 0.000000
# 6 0.000000 0.000000 0.000000 -0.000704 0.000000 0.032339
#
#
# Mechanical properties :
#
#
# Convention : Reuss Voigt Hill
#
# Bulk Modulus (GPa) = 3779.34809 -132.28484 1823.53163
# Shear Modulus (GPa) = 33.00593 26.49849 29.75221
#
# Velocity S-wave (km/s) = 3.87647 3.47337 3.68044
# Velocity P-wave (km/s) = 41.72177 6.64389 29.12529
#
# Compressibility (1/GPa) = 0.00026460
#
# Stress axis : x y z
#
# Youngs Moduli (GPa) = 158.21427 104.93324 68.78176
#
# Poissons Ratio (x) = 0.24006 0.41829
# Poissons Ratio (y) = 0.36196 0.46036
# Poissons Ratio (z) = 0.96217 0.70233
#
# Static dielectric constant tensor:
#      x y z
#    x 3.837130 0.000000 -0.066030 
#    y 0.000000 4.098410 0.000000 
#    z -0.066030 0.000000 3.765230 
# 
# 
# High freq. dielectric constant tensor:
#      x y z
#    x 1.868390 0.000000 -0.005170 
#    y 0.000000 1.881620 0.000000 
#    z -0.005170 0.000000 1.859980 
# 
# From -- ./inp_files/11850.got.cif
#   From: 2010.03.12/outbox.cif.g09.slc.cpg/sg14_6_cif.got.tgz:11850.got - 2010.03.31 13:35:05.
