data_PCOD8128736
_publ_section_title
;
Structure prediction by ZEFSAII (Michael W. Deem and Ramdas Pophale) SiO2 
 PCOD8128736
Probable space group: P 21/C
;
_chemical_formula_sum "Si O2"
_cell_formula_units_Z 28
_cell_length_a 12.621015
_cell_length_b 14.829272
_cell_length_c 7.711575
_cell_angle_alpha 90.000000
_cell_angle_beta 63.105081
_cell_angle_gamma 90.000000
_cell_volume 1287.191024
_symmetry_space_group_name_H-M "P 21/C"
_symmetry_group_IT_number 14
_symmetry_cell_setting 'monoclinic'
loop_
_space_group_symop_operation_xyz
x,y,z
-x,1/2+y,1/2-z
-x,-y,-z
x,1/2-y,1/2+z
loop_
_atom_site_type_symbol
_atom_site_label
_atom_site_fract_x
_atom_site_fract_y
_atom_site_fract_z
Si Si1 0.932774 0.437607 0.320307
Si Si2 0.714523 0.957524 0.855707
Si Si3 0.957184 0.740983 0.878389
Si Si4 0.610238 0.906818 0.290291
Si Si5 0.110760 0.589962 0.261036
Si Si6 0.228132 0.255318 0.734779
Si Si7 0.353680 0.546082 0.937253
O O1 0.844422 0.498306 0.272977
O O2 0.870426 0.408316 0.545854
O O3 0.964712 0.348492 0.189677
O O4 0.053710 0.493385 0.257947
O O5 0.722745 0.855606 0.783082
O O6 0.642369 0.013509 0.765107
O O7 0.650746 0.961741 0.089630
O O8 0.812599 0.733224 0.932835
O O9 0.027781 0.828408 0.759993
O O10 0.915557 0.758089 0.107915
O O11 0.675135 0.811289 0.255714
O O12 0.468509 0.890684 0.383236
O O13 0.643183 0.961179 0.437204
O O14 0.235484 0.602493 0.069335
#
# Coordination Sequence:
#
# PCOD8128736 Si02
#       7
#     4   4   4   4   4   4   4
#     4  11  23  40  68  99 145 177 218 293 351 408
#     4  12  24  43  74 104 133 182 238 285 347 416
#     4  12  24  38  68 102 136 181 225 281 356 416
#     4  11  24  48  66  97 138 182 233 290 334 407
#     4  11  22  43  63 102 142 180 220 283 357 410
#     4  12  22  41  68 100 133 171 238 286 329 417
#     4  11  26  43  70  96 139 185 228 284 348 412
#
# _framework density 21.752794000000002
#
# number of rings (size 3 to 8) (size 9 to 14) (size 15 to 20)
#    0.000    0.571    5.714    3.000    2.000    1.143 
#    0.000    4.286    0.000    0.000    0.000    0.000 
#    0.000    0.000    0.000    0.000    0.000    0.000 
#
# Total GULP energy -347098.643067 kJ/mol
# GULP energy per Si atom -12396.380110 kJ/mol
# Density = 2.170328 g / cm^3
# Si number density = 21.752794 Si / 1000 Ang^3
#
#
#
# Elastic Constant Matrix: (Units=GPa)
#
#
# Indices 1 2 3 4 5 6 
#
# 1 113.8196 41.5152 45.0935 0.0000 -7.5613 0.0000
# 2 41.5152 107.3183 34.9409 0.0000 -7.9205 0.0000
# 3 45.0935 34.9409 80.2580 0.0000 -13.0895 0.0000
# 4 0.0000 0.0000 0.0000 29.2585 0.0000 -3.4364
# 5 -7.5613 -7.9205 -13.0895 0.0000 33.8690 0.0000
# 6 0.0000 0.0000 0.0000 -3.4364 0.0000 35.7883
#
#
#
# Elastic Compliance Matrix: (Units=1/GPa)
#
#
# Indices 1 2 3 4 5 6 
#
# 1 0.012008 -0.002856 -0.005523 0.000000 -0.000122 0.000000
# 2 -0.002856 0.011555 -0.003297 0.000000 0.000790 0.000000
# 3 -0.005523 -0.003297 0.017793 0.000000 0.004873 0.000000
# 4 0.000000 0.000000 0.000000 0.034568 0.000000 0.003319
# 5 -0.000122 0.000790 0.004873 0.000000 0.031566 0.000000
# 6 0.000000 0.000000 0.000000 0.003319 0.000000 0.028261
#
#
# Mechanical properties :
#
#
# Convention : Reuss Voigt Hill
#
# Bulk Modulus (GPa) = 55.54458 60.49944 58.02201
# Shear Modulus (GPa) = 30.28414 31.77290 31.02852
#
# Velocity S-wave (km/s) = 3.73526 3.82597 3.78089
# Velocity P-wave (km/s) = 6.64777 6.88404 6.76694
#
# Compressibility (1/GPa) = 0.01800356
#
# Stress axis : x y z
#
# Youngs Moduli (GPa) = 83.28100 86.54587 56.20186
#
# Poissons Ratio (x) = 0.24716 0.31041
# Poissons Ratio (y) = 0.23783 0.18529
# Poissons Ratio (z) = 0.45997 0.28533
#
# Static dielectric constant tensor:
#      x y z
#    x 3.897890 0.000000 0.189240 
#    y 0.000000 3.573710 0.000000 
#    z 0.189240 0.000000 4.257020 
# 
# 
# High freq. dielectric constant tensor:
#      x y z
#    x 1.857750 0.000000 0.019590 
#    y 0.000000 1.836370 0.000000 
#    z 0.019590 0.000000 1.881120 
# 
# From -- ./inp_files/12979.got.cif
#   From: 2010.03.12/outbox.cif.g09.slc.cpg/sg14_7_cif.got.tgz:12979.got - 2010.03.31 13:35:05.
