data_PCOD8128261
_publ_section_title
;
Structure prediction by ZEFSAII (Michael W. Deem and Ramdas Pophale) SiO2 
 PCOD8128261
Probable space group: P 21/C
;
_chemical_formula_sum "Si O2"
_cell_formula_units_Z 16
_cell_length_a 8.741804
_cell_length_b 6.800626
_cell_length_c 14.010911
_cell_angle_alpha 90.000000
_cell_angle_beta 55.998279
_cell_angle_gamma 90.000000
_cell_volume 690.528718
_symmetry_space_group_name_H-M "P 21/C"
_symmetry_group_IT_number 14
_symmetry_cell_setting 'monoclinic'
loop_
_space_group_symop_operation_xyz
x,y,z
-x,1/2+y,1/2-z
-x,-y,-z
x,1/2-y,1/2+z
loop_
_atom_site_type_symbol
_atom_site_label
_atom_site_fract_x
_atom_site_fract_y
_atom_site_fract_z
Si Si1 0.411054 0.298926 0.999788
Si Si2 0.247277 0.832306 0.207070
Si Si3 0.181269 0.401873 0.896094
Si Si4 0.861535 0.888241 0.251821
O O1 0.576281 0.139733 0.925836
O O2 0.310431 0.326945 0.934444
O O3 0.500000 0.500000 0.000000
O O4 0.263558 0.246443 0.134746
O O5 0.228523 0.599997 0.232586
O O6 0.062219 0.923889 0.227191
O O7 0.288863 0.939810 0.292879
O O8 0.118471 0.213975 0.856794
O O9 0.000000 0.500000 0.000000
#
# Coordination Sequence:
#
# PCOD8128261 Si02
#       4
#     4   4   4   4
#     4  10  24  44  67 101 137 173 228 280 327 405
#     4  11  23  43  70  99 138 178 222 277 334 397
#     4  12  24  45  70  97 140 178 224 279 333 400
#     4  11  23  47  67 100 136 180 221 276 341 396
#
# _framework density 23.170649999999998
#
# number of rings (size 3 to 8) (size 9 to 14) (size 15 to 20)
#    0.000    1.000    5.000    1.500    7.000    2.000 
#    0.000    0.000    0.000    0.000    0.000    0.000 
#    0.000    0.000    0.000    0.000    0.000    0.000 
#
# Total GULP energy -198401.065557 kJ/mol
# GULP energy per Si atom -12400.066597 kJ/mol
# Density = 2.311791 g / cm^3
# Si number density = 23.170650 Si / 1000 Ang^3
#
#
#
# Elastic Constant Matrix: (Units=GPa)
#
#
# Indices 1 2 3 4 5 6 
#
# 1 84.7776 -25.1521 32.2734 0.0000 -4.4624 0.0000
# 2 -25.1521 24.2562 6.2248 0.0000 -1.8567 0.0000
# 3 32.2734 6.2248 110.8826 0.0000 -3.4820 0.0000
# 4 0.0000 0.0000 0.0000 53.3791 0.0000 2.9783
# 5 -4.4624 -1.8567 -3.4820 0.0000 49.1811 0.0000
# 6 0.0000 0.0000 0.0000 2.9783 0.0000 31.5486
#
#
#
# Elastic Compliance Matrix: (Units=1/GPa)
#
#
# Indices 1 2 3 4 5 6 
#
# 1 0.022526 0.025576 -0.007915 0.000000 0.002449 0.000000
# 2 0.025576 0.070968 -0.011296 0.000000 0.004200 0.000000
# 3 -0.007915 -0.011296 0.011947 0.000000 -0.000299 0.000000
# 4 0.000000 0.000000 0.000000 0.018833 0.000000 -0.001778
# 5 0.002449 0.004200 -0.000299 0.000000 0.020693 0.000000
# 6 0.000000 0.000000 0.000000 -0.001778 0.000000 0.031865
#
#
# Mechanical properties :
#
#
# Convention : Reuss Voigt Hill
#
# Bulk Modulus (GPa) = 8.46236 27.40096 17.93166
# Shear Modulus (GPa) = 24.57097 40.59310 32.58204
#
# Velocity S-wave (km/s) = 3.25997 4.19013 3.75397
# Velocity P-wave (km/s) = 4.22255 5.93810 5.15223
#
# Compressibility (1/GPa) = 0.11817040
#
# Stress axis : x y z
#
# Youngs Moduli (GPa) = 44.39362 14.09087 83.70215
#
# Poissons Ratio (x) = -0.36039 0.66252
# Poissons Ratio (y) = -1.13543 0.94553
# Poissons Ratio (z) = 0.35139 0.15918
#
# Static dielectric constant tensor:
#      x y z
#    x 4.612000 0.000000 -0.218740 
#    y 0.000000 4.002180 0.000000 
#    z -0.218740 0.000000 4.897730 
# 
# 
# High freq. dielectric constant tensor:
#      x y z
#    x 1.914360 0.000000 -0.013830 
#    y 0.000000 1.923310 0.000000 
#    z -0.013830 0.000000 1.931960 
# 
# From -- ./inp_files/22564.got.cif
#   From: 2010.03.12/outbox.cif.g09.slc.cpg/sg14_12_cif.got.tgz:22564.got - 2010.03.31 13:35:05.
