data_PCOD8128600
_publ_section_title
;
Structure prediction by ZEFSAII (Michael W. Deem and Ramdas Pophale) SiO2 
 PCOD8128600
Probable space group: P 21/C
;
_chemical_formula_sum "Si O2"
_cell_formula_units_Z 28
_cell_length_a 21.661019
_cell_length_b 9.523801
_cell_length_c 19.213692
_cell_angle_alpha 90.000000
_cell_angle_beta 19.477882
_cell_angle_gamma 90.000000
_cell_volume 1321.665497
_symmetry_space_group_name_H-M "P 21/C"
_symmetry_group_IT_number 14
_symmetry_cell_setting 'monoclinic'
loop_
_space_group_symop_operation_xyz
x,y,z
-x,1/2+y,1/2-z
-x,-y,-z
x,1/2-y,1/2+z
loop_
_atom_site_type_symbol
_atom_site_label
_atom_site_fract_x
_atom_site_fract_y
_atom_site_fract_z
Si Si1 0.604790 0.186930 0.433336
Si Si2 0.159302 0.910821 0.532680
Si Si3 0.557723 0.182024 0.233102
Si Si4 0.639435 0.815422 0.700545
Si Si5 0.159274 0.467609 0.523426
Si Si6 0.932831 0.201416 0.985410
Si Si7 0.329101 0.123698 0.607918
O O1 0.544625 0.298277 0.556483
O O2 0.420762 0.163199 0.583464
O O3 0.668801 0.044377 0.403509
O O4 0.773187 0.247796 0.208970
O O5 0.309496 0.816347 0.412867
O O6 0.047354 0.821123 0.594334
O O7 0.023630 0.969071 0.735768
O O8 0.256442 0.041083 0.390567
O O9 0.415594 0.178007 0.321362
O O10 0.442186 0.196865 0.426424
O O11 0.676528 0.038944 0.106786
O O12 0.781607 0.687851 0.561609
O O13 0.125109 0.554648 0.488892
O O14 0.121134 0.182638 0.827807
#
# Coordination Sequence:
#
# PCOD8128600 Si02
#       7
#     4   4   4   4   4   4   4
#     4  11  23  43  67 102 133 170 235 272 326 407
#     4  11  24  41  64 100 138 171 219 284 342 395
#     4  11  22  43  67  96 131 176 227 273 338 391
#     4  12  24  39  68  99 137 174 219 284 339 399
#     4  11  21  42  66  97 132 172 234 277 319 400
#     4  11  24  44  69  97 135 182 219 279 337 394
#     4  11  21  45  72  93 126 182 230 275 320 398
#
# _framework density 21.185390000000002
#
# number of rings (size 3 to 8) (size 9 to 14) (size 15 to 20)
#    0.000    0.857    4.286    5.571    2.000    0.571 
#    2.571    0.714    0.000    0.000    0.000    0.000 
#    0.000    0.000    0.000    0.000    0.000    0.000 
#
# Total GULP energy -347383.284172 kJ/mol
# GULP energy per Si atom -12406.545863 kJ/mol
# Density = 2.113717 g / cm^3
# Si number density = 21.185390 Si / 1000 Ang^3
#
#
#
# Elastic Constant Matrix: (Units=GPa)
#
#
# Indices 1 2 3 4 5 6 
#
# 1 57.4642 25.6640 23.9963 0.0000 -3.3431 0.0000
# 2 25.6640 92.9222 24.2721 0.0000 -12.6695 0.0000
# 3 23.9963 24.2721 117.9073 0.0000 1.3994 0.0000
# 4 0.0000 0.0000 0.0000 33.8316 0.0000 3.1324
# 5 -3.3431 -12.6695 1.3994 0.0000 38.9403 0.0000
# 6 0.0000 0.0000 0.0000 3.1324 0.0000 14.1669
#
#
#
# Elastic Compliance Matrix: (Units=1/GPa)
#
#
# Indices 1 2 3 4 5 6 
#
# 1 0.020970 -0.004895 -0.003264 0.000000 0.000325 0.000000
# 2 -0.004895 0.013103 -0.001747 0.000000 0.003906 0.000000
# 3 -0.003264 -0.001747 0.009519 0.000000 -0.001191 0.000000
# 4 0.000000 0.000000 0.000000 0.030176 0.000000 -0.006672
# 5 0.000325 0.003906 -0.001191 0.000000 0.027022 0.000000
# 6 0.000000 0.000000 0.000000 -0.006672 0.000000 0.072062
#
#
# Mechanical properties :
#
#
# Convention : Reuss Voigt Hill
#
# Bulk Modulus (GPa) = 42.05296 46.23983 44.14639
# Shear Modulus (GPa) = 24.92631 30.34517 27.63574
#
# Velocity S-wave (km/s) = 3.43385 3.78876 3.61567
# Velocity P-wave (km/s) = 5.96782 6.40416 6.18984
#
# Compressibility (1/GPa) = 0.02377954
#
# Stress axis : x y z
#
# Youngs Moduli (GPa) = 47.68687 76.32116 105.04878
#
# Poissons Ratio (x) = 0.37358 0.34288
# Poissons Ratio (y) = 0.23342 0.18356
# Poissons Ratio (z) = 0.15565 0.13337
#
# Static dielectric constant tensor:
#      x y z
#    x 3.723550 0.000000 -0.032700 
#    y 0.000000 3.807100 0.000000 
#    z -0.032700 0.000000 3.946990 
# 
# 
# High freq. dielectric constant tensor:
#      x y z
#    x 1.823660 0.000000 0.003320 
#    y 0.000000 1.820130 0.000000 
#    z 0.003320 0.000000 1.845070 
# 
# From -- ./inp_files/70173.got.cif
#   From: 2010.03.12/outbox.cif.g09.slc.cpg/sg14_36_cif.got.tgz:70173.got - 2010.03.31 13:35:05.
