data_PCOD8128126
_publ_section_title
;
Structure prediction by ZEFSAII (Michael W. Deem and Ramdas Pophale) SiO2 
 PCOD8128126
Probable space group: P 21/C
;
_chemical_formula_sum "Si O2"
_cell_formula_units_Z 20
_cell_length_a 4.895782
_cell_length_b 11.033246
_cell_length_c 15.023888
_cell_angle_alpha 90.000000
_cell_angle_beta 92.286576
_cell_angle_gamma 90.000000
_cell_volume 810.889682
_symmetry_space_group_name_H-M "P 21/C"
_symmetry_group_IT_number 14
_symmetry_cell_setting 'monoclinic'
loop_
_space_group_symop_operation_xyz
x,y,z
-x,1/2+y,1/2-z
-x,-y,-z
x,1/2-y,1/2+z
loop_
_atom_site_type_symbol
_atom_site_label
_atom_site_fract_x
_atom_site_fract_y
_atom_site_fract_z
Si Si1 0.625018 0.651792 0.810382
Si Si2 0.719025 0.373325 0.468591
Si Si3 0.851494 0.889476 0.882172
Si Si4 0.885268 0.992004 0.687448
Si Si5 0.778844 0.739124 0.618167
O O1 0.673529 0.767621 0.873474
O O2 0.318366 0.605804 0.819548
O O3 0.672570 0.684295 0.708562
O O4 0.823998 0.542103 0.841368
O O5 0.674780 0.514606 0.438755
O O6 0.432629 0.301002 0.462089
O O7 0.855250 0.364885 0.567740
O O8 0.924073 0.314445 0.398669
O O9 0.919187 0.939548 0.786279
O O10 0.792586 0.884824 0.620410
#
# Coordination Sequence:
#
# PCOD8128126 Si02
#       5
#     4   4   4   4   4
#     4  11  22  40  62  91 119 161 205 246 302 358
#     4  11  23  42  62  95 120 159 201 252 308 347
#     4  10  24  40  66  90 125 157 203 255 298 358
#     4  11  23  41  64  91 120 163 204 249 297 363
#     4  11  22  40  62  88 125 158 203 250 301 362
#
# _framework density 24.664268
#
# number of rings (size 3 to 8) (size 9 to 14) (size 15 to 20)
#    0.000    1.200    4.000    1.200    0.000   12.800 
#    0.000    6.000    0.000    0.000    0.000    0.000 
#    0.000    0.000    0.000    0.000    0.000    0.000 
#
# Total GULP energy -248158.932727 kJ/mol
# GULP energy per Si atom -12407.946636 kJ/mol
# Density = 2.460813 g / cm^3
# Si number density = 24.664268 Si / 1000 Ang^3
#
#
#
# Elastic Constant Matrix: (Units=GPa)
#
#
# Indices 1 2 3 4 5 6 
#
# 1 66.9497 18.4381 14.0243 0.0000 22.4569 0.0000
# 2 18.4381 135.8947 58.5216 0.0000 22.6346 0.0000
# 3 14.0243 58.5216 90.7705 0.0000 27.6261 0.0000
# 4 0.0000 0.0000 0.0000 38.0041 0.0000 16.1266
# 5 22.4569 22.6346 27.6261 0.0000 32.3319 0.0000
# 6 0.0000 0.0000 0.0000 16.1266 0.0000 24.6719
#
#
#
# Elastic Compliance Matrix: (Units=1/GPa)
#
#
# Indices 1 2 3 4 5 6 
#
# 1 0.019756 -0.001165 0.002198 0.000000 -0.014785 0.000000
# 2 -0.001165 0.010358 -0.006132 0.000000 -0.001203 0.000000
# 3 0.002198 -0.006132 0.018635 0.000000 -0.013157 0.000000
# 4 0.000000 0.000000 0.000000 0.036413 0.000000 -0.023801
# 5 -0.014785 -0.001203 -0.013157 0.000000 0.053283 0.000000
# 6 0.000000 0.000000 0.000000 -0.023801 0.000000 0.056089
#
#
# Mechanical properties :
#
#
# Convention : Reuss Voigt Hill
#
# Bulk Modulus (GPa) = 25.93864 52.84253 39.39058
# Shear Modulus (GPa) = 22.98012 32.51030 27.74521
#
# Velocity S-wave (km/s) = 3.05572 3.63452 3.35761
# Velocity P-wave (km/s) = 4.79472 6.25174 5.57107
#
# Compressibility (1/GPa) = 0.03855252
#
# Stress axis : x y z
#
# Youngs Moduli (GPa) = 50.61702 96.54792 53.66353
#
# Poissons Ratio (x) = 0.11244 -0.11797
# Poissons Ratio (y) = 0.05895 0.32905
# Poissons Ratio (z) = -0.11127 0.59200
#
# Static dielectric constant tensor:
#      x y z
#    x 4.265670 0.000000 0.204900 
#    y 0.000000 4.748750 0.000000 
#    z 0.204900 0.000000 4.352180 
# 
# 
# High freq. dielectric constant tensor:
#      x y z
#    x 1.985470 0.000000 0.006480 
#    y 0.000000 1.992000 0.000000 
#    z 0.006480 0.000000 1.977000 
# 
# From -- ./inp_files/20936.got.cif
#   From: 2010.03.12/outbox.cif.g09.slc.cpg/sg14_11_cif.got.tgz:20936.got - 2010.03.31 13:35:05.
