data_PCOD8128350
_publ_section_title
;
Structure prediction by ZEFSAII (Michael W. Deem and Ramdas Pophale) SiO2 
 PCOD8128350
Probable space group: P 21/C
;
_chemical_formula_sum "Si O2"
_cell_formula_units_Z 28
_cell_length_a 18.539498
_cell_length_b 13.288511
_cell_length_c 8.860652
_cell_angle_alpha 90.000000
_cell_angle_beta 143.686970
_cell_angle_gamma 90.000000
_cell_volume 1292.723865
_symmetry_space_group_name_H-M "P 21/C"
_symmetry_group_IT_number 14
_symmetry_cell_setting 'monoclinic'
loop_
_space_group_symop_operation_xyz
x,y,z
-x,1/2+y,1/2-z
-x,-y,-z
x,1/2-y,1/2+z
loop_
_atom_site_type_symbol
_atom_site_label
_atom_site_fract_x
_atom_site_fract_y
_atom_site_fract_z
Si Si1 0.014085 0.614262 0.765884
Si Si2 0.069019 0.708245 0.172059
Si Si3 0.516114 0.234786 0.802335
Si Si4 0.651261 0.792168 0.225317
Si Si5 0.334840 0.641997 0.705726
Si Si6 0.140635 0.081805 0.548820
Si Si7 0.755040 0.926397 0.945916
O O1 0.029266 0.676611 0.636937
O O2 0.876331 0.575287 0.548244
O O3 0.048599 0.688007 0.961974
O O4 0.110353 0.523746 0.919725
O O5 0.205759 0.691427 0.453982
O O6 0.985833 0.636125 0.132830
O O7 0.431574 0.310112 0.561716
O O8 0.425674 0.171412 0.759192
O O9 0.583825 0.156595 0.807011
O O10 0.609470 0.301442 0.056229
O O11 0.776688 0.853493 0.426320
O O12 0.676521 0.672852 0.283810
O O13 0.324933 0.524152 0.730441
O O14 0.210530 0.062371 0.821559
#
# Coordination Sequence:
#
# PCOD8128350 Si02
#       7
#     4   4   4   4   4   4   4
#     4  11  22  40  67 107 131 172 208 264 343 399
#     4  11  21  39  69  96 139 165 209 272 333 390
#     4  10  25  41  65  92 133 178 223 268 315 385
#     4  11  22  45  67  94 134 171 226 272 318 381
#     4  11  22  44  67  95 131 177 221 267 332 382
#     4  11  21  41  70 101 129 171 213 267 334 395
#     4  11  21  40  73  94 129 178 217 266 329 401
#
# _framework density 21.659692
#
# number of rings (size 3 to 8) (size 9 to 14) (size 15 to 20)
#    0.000    1.143    5.714    1.714    0.000    2.286 
#    0.000    5.714    0.000    0.000    0.000    0.000 
#    0.000    0.000    0.000    0.000    0.000    0.000 
#
# Total GULP energy -347262.227732 kJ/mol
# GULP energy per Si atom -12402.222419 kJ/mol
# Density = 2.161039 g / cm^3
# Si number density = 21.659692 Si / 1000 Ang^3
#
#
#
# Elastic Constant Matrix: (Units=GPa)
#
#
# Indices 1 2 3 4 5 6 
#
# 1 102.5822 30.2078 31.1150 0.0000 13.1545 0.0000
# 2 30.2078 98.0890 7.6605 0.0000 4.5518 0.0000
# 3 31.1150 7.6605 75.2155 0.0000 9.3055 0.0000
# 4 0.0000 0.0000 0.0000 32.0511 0.0000 -1.2355
# 5 13.1545 4.5518 9.3055 0.0000 26.5480 0.0000
# 6 0.0000 0.0000 0.0000 -1.2355 0.0000 19.6057
#
#
#
# Elastic Compliance Matrix: (Units=1/GPa)
#
#
# Indices 1 2 3 4 5 6 
#
# 1 0.012584 -0.003343 -0.004353 0.000000 -0.004136 0.000000
# 2 -0.003343 0.011219 0.000286 0.000000 -0.000367 0.000000
# 3 -0.004353 0.000286 0.015477 0.000000 -0.003317 0.000000
# 4 0.000000 0.000000 0.000000 0.031276 0.000000 0.001971
# 5 -0.004136 -0.000367 -0.003317 0.000000 0.040943 0.000000
# 6 0.000000 0.000000 0.000000 0.001971 0.000000 0.051130
#
#
# Mechanical properties :
#
#
# Convention : Reuss Voigt Hill
#
# Bulk Modulus (GPa) = 40.88587 45.98370 43.43478
# Shear Modulus (GPa) = 26.93919 29.43452 28.18686
#
# Velocity S-wave (km/s) = 3.53051 3.69040 3.61134
# Velocity P-wave (km/s) = 5.96127 6.27972 6.12257
#
# Compressibility (1/GPa) = 0.02445833
#
# Stress axis : x y z
#
# Youngs Moduli (GPa) = 79.46826 89.13312 64.61090
#
# Poissons Ratio (x) = 0.29801 0.28127
# Poissons Ratio (y) = 0.26569 -0.01847
# Poissons Ratio (z) = 0.34595 -0.02548
#
# Static dielectric constant tensor:
#      x y z
#    x 4.062780 0.000000 0.159830 
#    y 0.000000 3.822070 0.000000 
#    z 0.159830 0.000000 4.015990 
# 
# 
# High freq. dielectric constant tensor:
#      x y z
#    x 1.853460 0.000000 0.013420 
#    y 0.000000 1.835760 0.000000 
#    z 0.013420 0.000000 1.860330 
# 
# From -- ./inp_files/18005.got.cif
#   From: 2010.03.12/outbox.cif.g09.slc.cpg/sg14_10_cif.got.tgz:18005.got - 2010.03.31 13:35:05.
