data_PCOD8128659
_publ_section_title
;
Structure prediction by ZEFSAII (Michael W. Deem and Ramdas Pophale) SiO2 
 PCOD8128659
Probable space group: P 21/C
;
_chemical_formula_sum "Si O2"
_cell_formula_units_Z 28
_cell_length_a 20.104933
_cell_length_b 6.519425
_cell_length_c 10.107810
_cell_angle_alpha 90.000000
_cell_angle_beta 72.688548
_cell_angle_gamma 90.000000
_cell_volume 1264.842724
_symmetry_space_group_name_H-M "P 21/C"
_symmetry_group_IT_number 14
_symmetry_cell_setting 'monoclinic'
loop_
_space_group_symop_operation_xyz
x,y,z
-x,1/2+y,1/2-z
-x,-y,-z
x,1/2-y,1/2+z
loop_
_atom_site_type_symbol
_atom_site_label
_atom_site_fract_x
_atom_site_fract_y
_atom_site_fract_z
Si Si1 0.967109 0.894603 0.397114
Si Si2 0.637442 0.517720 0.875823
Si Si3 0.841213 0.641136 0.449182
Si Si4 0.206654 0.449411 0.249648
Si Si5 0.543090 0.354503 0.374564
Si Si6 0.589910 0.695722 0.172725
Si Si7 0.107054 0.743616 0.196450
O O1 0.921122 0.691653 0.447995
O O2 0.032318 0.844866 0.266891
O O3 0.908343 0.051245 0.385754
O O4 0.000000 0.000000 0.500000
O O5 0.718215 0.454485 0.826849
O O6 0.588778 0.316953 0.924362
O O7 0.622040 0.623612 0.743305
O O8 0.626591 0.670165 0.007613
O O9 0.812062 0.779680 0.348734
O O10 0.792643 0.660205 0.607334
O O11 0.841952 0.406662 0.400457
O O12 0.150736 0.637905 0.290199
O O13 0.500000 0.500000 0.500000
O O14 0.595850 0.488099 0.254884
O O15 0.491069 0.240736 0.305623
#
# Coordination Sequence:
#
# PCOD8128659 Si02
#       7
#     4   4   4   4   4   4   4
#     4  11  22  37  66  99 126 176 226 285 347 397
#     4  12  27  44  72 104 142 189 232 283 360 420
#     4  11  24  45  70  96 144 180 235 291 342 419
#     4  11  27  46  66 101 139 188 228 280 353 428
#     4  12  24  44  73 107 139 175 231 292 345 410
#     4  12  24  44  72 104 139 177 233 291 341 415
#     4  11  23  40  65  98 133 173 231 287 344 408
#
# _framework density 22.137138
#
# number of rings (size 3 to 8) (size 9 to 14) (size 15 to 20)
#    0.000    0.571    4.286    3.857    2.000    4.571 
#    0.000    0.000    0.000    0.000    0.000    0.000 
#    0.000    0.000    0.000    0.000    0.000    0.000 
#
# Total GULP energy -347026.423848 kJ/mol
# GULP energy per Si atom -12393.800852 kJ/mol
# Density = 2.208675 g / cm^3
# Si number density = 22.137138 Si / 1000 Ang^3
#
#
#
# Elastic Constant Matrix: (Units=GPa)
#
#
# Indices 1 2 3 4 5 6 
#
# 1 91.5407 45.8452 32.1942 0.0000 -13.2609 0.0000
# 2 45.8452 111.6505 43.9866 0.0000 2.9301 0.0000
# 3 32.1942 43.9866 120.9231 0.0000 4.1555 0.0000
# 4 0.0000 0.0000 0.0000 37.6649 0.0000 -1.1608
# 5 -13.2609 2.9301 4.1555 0.0000 28.7886 0.0000
# 6 0.0000 0.0000 0.0000 -1.1608 0.0000 28.0298
#
#
#
# Elastic Compliance Matrix: (Units=1/GPa)
#
#
# Indices 1 2 3 4 5 6 
#
# 1 0.015858 -0.005781 -0.002402 0.000000 0.008240 0.000000
# 2 -0.005781 0.012570 -0.002912 0.000000 -0.003522 0.000000
# 3 -0.002402 -0.002912 0.010046 0.000000 -0.002260 0.000000
# 4 0.000000 0.000000 0.000000 0.026584 0.000000 0.001101
# 5 0.008240 -0.003522 -0.002260 0.000000 0.039216 0.000000
# 6 0.000000 0.000000 0.000000 0.001101 0.000000 0.035722
#
#
# Mechanical properties :
#
#
# Convention : Reuss Voigt Hill
#
# Bulk Modulus (GPa) = 61.41393 63.12959 62.27176
# Shear Modulus (GPa) = 29.83014 32.36919 31.09966
#
# Velocity S-wave (km/s) = 3.67483 3.82804 3.75222
# Velocity P-wave (km/s) = 6.76820 6.93671 6.85297
#
# Compressibility (1/GPa) = 0.01628295
#
# Stress axis : x y z
#
# Youngs Moduli (GPa) = 63.05971 79.55328 99.53944
#
# Poissons Ratio (x) = 0.45993 0.23911
# Poissons Ratio (y) = 0.36457 0.28988
# Poissons Ratio (z) = 0.15148 0.23168
#
# Static dielectric constant tensor:
#      x y z
#    x 3.712880 0.000000 0.142210 
#    y 0.000000 4.035720 0.000000 
#    z 0.142210 0.000000 3.825080 
# 
# 
# High freq. dielectric constant tensor:
#      x y z
#    x 1.872050 0.000000 0.007110 
#    y 0.000000 1.878230 0.000000 
#    z 0.007110 0.000000 1.866840 
# 
# From -- ./inp_files/34570.got.cif
#   From: 2010.03.12/outbox.cif.g09.slc.cpg/sg14_18_cif.got.tgz:34570.got - 2010.03.31 13:35:05.
