data_PCOD8128005
_publ_section_title
;
Structure prediction by ZEFSAII (Michael W. Deem and Ramdas Pophale) SiO2 
 PCOD8128005
Probable space group: P 21/C
;
_chemical_formula_sum "Si O2"
_cell_formula_units_Z 28
_cell_length_a 8.930698
_cell_length_b 28.990759
_cell_length_c 5.197789
_cell_angle_alpha 90.000000
_cell_angle_beta 119.222954
_cell_angle_gamma 90.000000
_cell_volume 1174.469729
_symmetry_space_group_name_H-M "P 21/C"
_symmetry_group_IT_number 14
_symmetry_cell_setting 'monoclinic'
loop_
_space_group_symop_operation_xyz
x,y,z
-x,1/2+y,1/2-z
-x,-y,-z
x,1/2-y,1/2+z
loop_
_atom_site_type_symbol
_atom_site_label
_atom_site_fract_x
_atom_site_fract_y
_atom_site_fract_z
Si Si1 0.527032 0.721107 0.015552
Si Si2 0.143773 0.434277 0.041039
Si Si3 0.873908 0.223903 0.814880
Si Si4 0.008649 0.371666 0.300783
Si Si5 0.816813 0.479473 0.618755
Si Si6 0.302785 0.567858 0.959018
Si Si7 0.640576 0.882429 0.628652
O O1 0.583798 0.745766 0.328313
O O2 0.614482 0.671609 0.046304
O O3 0.325404 0.711576 0.864820
O O4 0.032258 0.388635 0.026186
O O5 0.186528 0.465993 0.325566
O O6 0.325700 0.415091 0.090508
O O7 0.017251 0.463819 0.745201
O O8 0.919611 0.263939 0.647480
O O9 0.991134 0.182562 0.816086
O O10 0.181904 0.388985 0.576162
O O11 0.838392 0.396016 0.266867
O O12 0.698958 0.471190 0.267259
O O13 0.737644 0.453701 0.800231
O O14 0.479457 0.595849 0.140707
#
# Coordination Sequence:
#
# PCOD8128005 Si02
#       7
#     4   4   4   4   4   4   4
#     4  10  24  45  68  99 137 177 222 281 339 404
#     4  10  25  43  71 102 139 181 233 283 342 407
#     4  10  23  44  71  97 132 181 225 274 343 411
#     4  11  25  45  67 104 136 180 226 285 334 415
#     4  10  24  47  70  97 145 184 224 285 346 402
#     4  11  25  45  71  98 138 184 226 281 342 403
#     4  12  26  43  72 105 135 182 231 287 335 414
#
# _framework density 23.840547000000001
#
# number of rings (size 3 to 8) (size 9 to 14) (size 15 to 20)
#    0.000    1.429    2.857    0.000    8.000    4.000 
#    0.000    0.000    0.000    0.000    0.000    0.000 
#    0.000    0.000    0.000    0.000    0.000    0.000 
#
# Total GULP energy -347014.788222 kJ/mol
# GULP energy per Si atom -12393.385294 kJ/mol
# Density = 2.378628 g / cm^3
# Si number density = 23.840547 Si / 1000 Ang^3
#
#
#
# Elastic Constant Matrix: (Units=GPa)
#
#
# Indices 1 2 3 4 5 6 
#
# 1 111.3286 53.1587 29.4827 0.0000 11.9082 0.0000
# 2 53.1587 108.6222 4.6490 0.0000 10.6414 0.0000
# 3 29.4827 4.6490 60.4854 0.0000 -2.4208 0.0000
# 4 0.0000 0.0000 0.0000 24.8308 0.0000 -1.6253
# 5 11.9082 10.6414 -2.4208 0.0000 31.6779 0.0000
# 6 0.0000 0.0000 0.0000 -1.6253 0.0000 44.8906
#
#
#
# Elastic Compliance Matrix: (Units=1/GPa)
#
#
# Indices 1 2 3 4 5 6 
#
# 1 0.014097 -0.006257 -0.006538 0.000000 -0.003697 0.000000
# 2 -0.006257 0.012342 0.002036 0.000000 -0.001638 0.000000
# 3 -0.006538 0.002036 0.019695 0.000000 0.003279 0.000000
# 4 0.000000 0.000000 0.000000 0.040368 0.000000 0.001462
# 5 -0.003697 -0.001638 0.003279 0.000000 0.033758 0.000000
# 6 0.000000 0.000000 0.000000 0.001462 0.000000 0.022329
#
#
# Mechanical properties :
#
#
# Convention : Reuss Voigt Hill
#
# Bulk Modulus (GPa) = 40.62714 50.55743 45.59229
# Shear Modulus (GPa) = 29.01687 33.15626 31.08657
#
# Velocity S-wave (km/s) = 3.49251 3.73332 3.61492
# Velocity P-wave (km/s) = 5.77423 6.31159 6.04888
#
# Compressibility (1/GPa) = 0.02461409
#
# Stress axis : x y z
#
# Youngs Moduli (GPa) = 70.93673 81.02628 50.77495
#
# Poissons Ratio (x) = 0.50698 0.33199
# Poissons Ratio (y) = 0.44385 -0.10336
# Poissons Ratio (z) = 0.46382 -0.16494
#
# Static dielectric constant tensor:
#      x y z
#    x 4.521590 0.000000 -0.140950 
#    y 0.000000 4.272580 0.000000 
#    z -0.140950 0.000000 4.144710 
# 
# 
# High freq. dielectric constant tensor:
#      x y z
#    x 1.947480 0.000000 -0.002400 
#    y 0.000000 1.953990 0.000000 
#    z -0.002400 0.000000 1.929750 
# 
# From -- ./inp_files/2175.got.cif
#   From: 2010.03.12/outbox.cif.g09.slc.cpg/sg14_2_cif.got.tgz:2175.got - 2010.03.31 13:35:05.
