data_PCOD8128177
_publ_section_title
;
Structure prediction by ZEFSAII (Michael W. Deem and Ramdas Pophale) SiO2 
 PCOD8128177
Probable space group: P 21/C
;
_chemical_formula_sum "Si O2"
_cell_formula_units_Z 24
_cell_length_a 7.253957
_cell_length_b 23.694334
_cell_length_c 8.779655
_cell_angle_alpha 90.000000
_cell_angle_beta 50.082606
_cell_angle_gamma 90.000000
_cell_volume 1157.378812
_symmetry_space_group_name_H-M "P 21/C"
_symmetry_group_IT_number 14
_symmetry_cell_setting 'monoclinic'
loop_
_space_group_symop_operation_xyz
x,y,z
-x,1/2+y,1/2-z
-x,-y,-z
x,1/2-y,1/2+z
loop_
_atom_site_type_symbol
_atom_site_label
_atom_site_fract_x
_atom_site_fract_y
_atom_site_fract_z
Si Si1 0.586835 0.925921 0.061853
Si Si2 0.884862 0.003461 0.726192
Si Si3 0.333146 0.053703 0.629998
Si Si4 0.258805 0.171898 0.554210
Si Si5 0.484031 0.251987 0.182887
Si Si6 0.291337 0.819839 0.181654
O O1 0.652095 0.928023 0.203993
O O2 0.503391 0.865179 0.050798
O O3 0.365772 0.966454 0.152356
O O4 0.819540 0.942668 0.835991
O O5 0.000000 0.000000 0.500000
O O6 0.059750 0.035816 0.747499
O O7 0.393026 0.110671 0.499610
O O8 0.500000 0.000000 0.500000
O O9 0.347795 0.206072 0.359440
O O10 0.295617 0.210314 0.685678
O O11 0.978227 0.156409 0.681957
O O12 0.663972 0.290941 0.181072
O O13 0.675042 0.223286 0.972036
#
# Coordination Sequence:
#
# PCOD8128177 Si02
#       6
#     4   4   4   4   4   4
#     4  11  24  41  65  93 129 171 218 261 330 389
#     4  11  24  43  65  91 129 174 215 267 319 391
#     4  12  24  43  66  98 137 174 219 272 333 395
#     4  11  23  43  67  95 133 168 218 274 328 388
#     4  10  24  42  66  97 125 170 221 269 330 392
#     4  11  22  42  66  94 128 168 215 273 329 388
#
# _framework density 20.736512000000001
#
# number of rings (size 3 to 8) (size 9 to 14) (size 15 to 20)
#    0.000    1.000    5.000    1.500    2.333    0.000 
#    3.000    1.667    0.000    0.000    0.000    0.000 
#    0.000    0.000    0.000    0.000    0.000    0.000 
#
# Total GULP energy -297473.021257 kJ/mol
# GULP energy per Si atom -12394.709219 kJ/mol
# Density = 2.068931 g / cm^3
# Si number density = 20.736512 Si / 1000 Ang^3
#
#
#
# Elastic Constant Matrix: (Units=GPa)
#
#
# Indices 1 2 3 4 5 6 
#
# 1 101.6905 22.1041 25.8881 0.0000 8.8063 0.0000
# 2 22.1041 102.7530 16.8648 0.0000 3.3902 0.0000
# 3 25.8881 16.8648 67.5369 0.0000 5.3853 0.0000
# 4 0.0000 0.0000 0.0000 -0.4839 0.0000 -9.1030
# 5 8.8063 3.3902 5.3853 0.0000 25.7688 0.0000
# 6 0.0000 0.0000 0.0000 -9.1030 0.0000 36.0881
#
#
#
# Elastic Compliance Matrix: (Units=1/GPa)
#
#
# Indices 1 2 3 4 5 6 
#
# 1 0.011408 -0.001751 -0.003705 0.000000 -0.002894 0.000000
# 2 -0.001751 0.010434 -0.001904 0.000000 -0.000376 0.000000
# 3 -0.003705 -0.001904 0.016863 0.000000 -0.002007 0.000000
# 4 0.000000 0.000000 0.000000 -0.359700 0.000000 -0.090732
# 5 -0.002894 -0.000376 -0.002007 0.000000 0.040265 0.000000
# 6 0.000000 0.000000 0.000000 -0.090732 0.000000 0.004824
#
#
# Mechanical properties :
#
#
# Convention : Reuss Voigt Hill
#
# Bulk Modulus (GPa) = 41.69375 44.63270 43.16322
# Shear Modulus (GPa) = -19.74783 26.08281 3.16749
#
# Velocity S-wave (km/s) = -3.08932 3.55042 1.23726
# Velocity P-wave (km/s) = 2.72487 6.19498 4.78554
#
# Compressibility (1/GPa) = 0.02398441
#
# Stress axis : x y z
#
# Youngs Moduli (GPa) = 87.65693 95.84390 59.30303
#
# Poissons Ratio (x) = 0.16778 0.21972
# Poissons Ratio (y) = 0.15344 0.11294
# Poissons Ratio (z) = 0.32477 0.18252
#
# Static dielectric constant tensor:
#      x y z
#    x 4.065090 0.000000 0.092810 
#    y 0.000000 4.240350 0.000000 
#    z 0.092810 0.000000 3.564090 
# 
# 
# High freq. dielectric constant tensor:
#      x y z
#    x 1.829650 0.000000 0.014350 
#    y 0.000000 1.823800 0.000000 
#    z 0.014350 0.000000 1.800380 
# 
# From -- ./inp_files/10139.got.cif
#   From: 2010.03.12/outbox.cif.g09.slc.cpg/sg14_6_cif.got.tgz:10139.got - 2010.03.31 13:35:05.
