data_PCOD8128245
_publ_section_title
;
Structure prediction by ZEFSAII (Michael W. Deem and Ramdas Pophale) SiO2 
 PCOD8128245
Probable space group: P 21/C
;
_chemical_formula_sum "Si O2"
_cell_formula_units_Z 12
_cell_length_a 6.074560
_cell_length_b 7.047010
_cell_length_c 9.971363
_cell_angle_alpha 90.000000
_cell_angle_beta 102.412425
_cell_angle_gamma 90.000000
_cell_volume 416.871672
_symmetry_space_group_name_H-M "P 21/C"
_symmetry_group_IT_number 14
_symmetry_cell_setting 'monoclinic'
loop_
_space_group_symop_operation_xyz
x,y,z
-x,1/2+y,1/2-z
-x,-y,-z
x,1/2-y,1/2+z
loop_
_atom_site_type_symbol
_atom_site_label
_atom_site_fract_x
_atom_site_fract_y
_atom_site_fract_z
Si Si1 0.754153 0.068524 0.508916
Si Si2 0.154106 0.875582 0.180118
Si Si3 0.689253 0.847983 0.995705
O O1 0.695327 0.230443 0.391774
O O2 0.767974 0.156457 0.659120
O O3 0.405851 0.127176 0.523045
O O4 0.000000 0.000000 0.500000
O O5 0.884817 0.842446 0.133959
O O6 0.200363 0.090272 0.132281
O O7 0.500000 0.000000 0.000000
#
# Coordination Sequence:
#
# PCOD8128245 Si02
#       3
#     4   4   4
#     4  10  24  43  80 107 152 199 250 311 386 452
#     4  10  24  46  73 111 148 197 248 314 389 450
#     4  10  24  45  72 109 148 197 253 307 376 456
#
# _framework density 28.785833
#
# number of rings (size 3 to 8) (size 9 to 14) (size 15 to 20)
#    0.000    2.000    0.000    0.000   28.000    1.333 
#    6.000    0.000    0.000    0.000    0.000    0.000 
#    0.000    0.000    0.000    0.000    0.000    0.000 
#
# Total GULP energy -148816.784535 kJ/mol
# GULP energy per Si atom -12401.398711 kJ/mol
# Density = 2.872032 g / cm^3
# Si number density = 28.785833 Si / 1000 Ang^3
#
#
#
# Elastic Constant Matrix: (Units=GPa)
#
#
# Indices 1 2 3 4 5 6 
#
# 1 146.5978 87.0980 69.3240 0.0000 19.2103 0.0000
# 2 87.0980 256.9805 87.9571 0.0000 -17.7800 0.0000
# 3 69.3240 87.9571 225.4557 0.0000 -24.1588 0.0000
# 4 0.0000 0.0000 0.0000 41.6158 0.0000 -16.6893
# 5 19.2103 -17.7800 -24.1588 0.0000 33.9516 0.0000
# 6 0.0000 0.0000 0.0000 -16.6893 0.0000 84.4307
#
#
#
# Elastic Compliance Matrix: (Units=1/GPa)
#
#
# Indices 1 2 3 4 5 6 
#
# 1 0.012165 -0.003706 -0.003508 0.000000 -0.011320 0.000000
# 2 -0.003706 0.005665 -0.000572 0.000000 0.004657 0.000000
# 3 -0.003508 -0.000572 0.006406 0.000000 0.006244 0.000000
# 4 0.000000 0.000000 0.000000 0.026098 0.000000 0.005159
# 5 -0.011320 0.004657 0.006244 0.000000 0.042740 0.000000
# 6 0.000000 0.000000 0.000000 0.005159 0.000000 0.012864
#
#
# Mechanical properties :
#
#
# Convention : Reuss Voigt Hill
#
# Bulk Modulus (GPa) = 115.39403 124.19916 119.79659
# Shear Modulus (GPa) = 40.19345 57.64327 48.91836
#
# Velocity S-wave (km/s) = 3.74075 4.47977 4.12684
# Velocity P-wave (km/s) = 7.67019 8.36644 8.02587
#
# Compressibility (1/GPa) = 0.00866596
#
# Stress axis : x y z
#
# Youngs Moduli (GPa) = 82.20099 176.51645 156.09869
#
# Poissons Ratio (x) = 0.65412 0.54758
# Poissons Ratio (y) = 0.30461 0.08924
# Poissons Ratio (z) = 0.28836 0.10092
#
# Static dielectric constant tensor:
#      x y z
#    x 6.592710 0.000000 -0.225470 
#    y 0.000000 8.103580 0.000000 
#    z -0.225470 0.000000 4.661930 
# 
# 
# High freq. dielectric constant tensor:
#      x y z
#    x 2.231480 0.000000 -0.005130 
#    y 0.000000 2.202000 0.000000 
#    z -0.005130 0.000000 2.135340 
# 
# From -- ./inp_files/20155.got.cif
#   From: 2010.03.12/outbox.cif.g09.slc.cpg/sg14_11_cif.got.tgz:20155.got - 2010.03.31 13:35:05.
