data_PCOD8128494
_publ_section_title
;
Structure prediction by ZEFSAII (Michael W. Deem and Ramdas Pophale) SiO2 
 PCOD8128494
Probable space group: P 21/C
;
_chemical_formula_sum "Si O2"
_cell_formula_units_Z 24
_cell_length_a 9.262018
_cell_length_b 17.219642
_cell_length_c 15.495385
_cell_angle_alpha 90.000000
_cell_angle_beta 27.490209
_cell_angle_gamma 90.000000
_cell_volume 1140.762182
_symmetry_space_group_name_H-M "P 21/C"
_symmetry_group_IT_number 14
_symmetry_cell_setting 'monoclinic'
loop_
_space_group_symop_operation_xyz
x,y,z
-x,1/2+y,1/2-z
-x,-y,-z
x,1/2-y,1/2+z
loop_
_atom_site_type_symbol
_atom_site_label
_atom_site_fract_x
_atom_site_fract_y
_atom_site_fract_z
Si Si1 0.244803 0.441408 0.327312
Si Si2 0.278413 0.156421 0.968241
Si Si3 0.228055 0.062269 0.642819
Si Si4 0.254883 0.533699 0.738259
Si Si5 0.569349 0.320032 0.842929
Si Si6 0.314565 0.066909 0.355098
O O1 0.279487 0.363318 0.365524
O O2 0.139273 0.415819 0.287809
O O3 0.567387 0.490344 0.154220
O O4 0.000000 0.500000 0.500000
O O5 0.426740 0.083365 0.941402
O O6 0.490591 0.230202 0.876446
O O7 0.924235 0.170272 0.187507
O O8 0.339178 0.139150 0.533558
O O9 0.916248 0.026512 0.763078
O O10 0.500000 0.000000 0.500000
O O11 0.332752 0.449672 0.741994
O O12 0.038640 0.579218 0.923571
O O13 0.524541 0.359240 0.771569
#
# Coordination Sequence:
#
# PCOD8128494 Si02
#       6
#     4   4   4   4   4   4
#     4  11  20  40  69  95 126 170 221 263 323 388
#     4  11  23  40  65  90 132 176 210 271 335 397
#     4  11  20  39  66  95 127 168 212 270 317 386
#     4   9  19  34  62  91 124 165 214 256 319 380
#     4  11  21  39  64  90 128 170 214 268 333 377
#     4   9  17  35  62  90 124 165 208 256 315 386
#
# _framework density 21.038564999999998
#
# number of rings (size 3 to 8) (size 9 to 14) (size 15 to 20)
#    0.000    1.667    5.000    2.000    0.000    0.000 
#    0.000   10.833    3.667    0.000    0.000    0.000 
#    0.000    0.000    0.000    0.000    0.000    0.000 
#
# Total GULP energy -297442.723640 kJ/mol
# GULP energy per Si atom -12393.446818 kJ/mol
# Density = 2.099068 g / cm^3
# Si number density = 21.038565 Si / 1000 Ang^3
#
#
#
# Elastic Constant Matrix: (Units=GPa)
#
#
# Indices 1 2 3 4 5 6 
#
# 1 159.1856 20.9149 38.7785 0.0000 6.1285 0.0000
# 2 20.9149 66.2673 21.1483 0.0000 8.1431 0.0000
# 3 38.7785 21.1483 65.9646 0.0000 -8.4159 0.0000
# 4 0.0000 0.0000 0.0000 30.2412 0.0000 -8.9850
# 5 6.1285 8.1431 -8.4159 0.0000 39.0295 0.0000
# 6 0.0000 0.0000 0.0000 -8.9850 0.0000 32.8125
#
#
#
# Elastic Compliance Matrix: (Units=1/GPa)
#
#
# Indices 1 2 3 4 5 6 
#
# 1 0.007538 -0.000711 -0.004458 0.000000 -0.001997 0.000000
# 2 -0.000711 0.017801 -0.005911 0.000000 -0.004877 0.000000
# 3 -0.004458 -0.005911 0.020486 0.000000 0.006351 0.000000
# 4 0.000000 0.000000 0.000000 0.035996 0.000000 0.009857
# 5 -0.001997 -0.004877 0.006351 0.000000 0.028322 0.000000
# 6 0.000000 0.000000 0.000000 0.009857 0.000000 0.033175
#
#
# Mechanical properties :
#
#
# Convention : Reuss Voigt Hill
#
# Bulk Modulus (GPa) = 42.25846 50.34452 46.30149
# Shear Modulus (GPa) = 28.84055 34.45502 31.64779
#
# Velocity S-wave (km/s) = 3.70651 4.05125 3.88271
# Velocity P-wave (km/s) = 6.20059 6.77238 6.49278
#
# Compressibility (1/GPa) = 0.02366390
#
# Stress axis : x y z
#
# Youngs Moduli (GPa) = 132.65516 56.17807 48.81409
#
# Poissons Ratio (x) = 0.03994 0.21763
# Poissons Ratio (y) = 0.09432 0.28854
# Poissons Ratio (z) = 0.59142 0.33207
#
# Static dielectric constant tensor:
#      x y z
#    x 4.289690 0.000000 -0.190590 
#    y 0.000000 3.551760 0.000000 
#    z -0.190590 0.000000 3.912220 
# 
# 
# High freq. dielectric constant tensor:
#      x y z
#    x 1.833890 0.000000 -0.027430 
#    y 0.000000 1.785810 0.000000 
#    z -0.027430 0.000000 1.821400 
# 
# From -- ./inp_files/41753.got.cif
#   From: 2010.03.12/outbox.cif.g09.slc.cpg/sg14_21_cif.got.tgz:41753.got - 2010.03.31 13:35:05.
