data_PCOD8128613
_publ_section_title
;
Structure prediction by ZEFSAII (Michael W. Deem and Ramdas Pophale) SiO2 
 PCOD8128613
Probable space group: P 21/C
;
_chemical_formula_sum "Si O2"
_cell_formula_units_Z 28
_cell_length_a 15.086081
_cell_length_b 12.909487
_cell_length_c 15.699081
_cell_angle_alpha 90.000000
_cell_angle_beta 26.338232
_cell_angle_gamma 90.000000
_cell_volume 1356.497579
_symmetry_space_group_name_H-M "P 21/C"
_symmetry_group_IT_number 14
_symmetry_cell_setting 'monoclinic'
loop_
_space_group_symop_operation_xyz
x,y,z
-x,1/2+y,1/2-z
-x,-y,-z
x,1/2-y,1/2+z
loop_
_atom_site_type_symbol
_atom_site_label
_atom_site_fract_x
_atom_site_fract_y
_atom_site_fract_z
Si Si1 0.532626 0.202132 0.281937
Si Si2 0.199033 0.661645 0.047760
Si Si3 0.803488 0.539732 0.354873
Si Si4 0.852964 0.316705 0.254935
Si Si5 0.732430 0.732659 0.648797
Si Si6 0.421006 0.470302 0.279719
Si Si7 0.443835 0.189159 0.026433
O O1 0.388628 0.211844 0.323578
O O2 0.415499 0.240850 0.466288
O O3 0.599766 0.084539 0.240827
O O4 0.731105 0.271139 0.094412
O O5 0.214687 0.735744 0.115624
O O6 0.975904 0.620898 0.230304
O O7 0.350467 0.565946 0.928785
O O8 0.902837 0.428692 0.252061
O O9 0.638312 0.529561 0.570437
O O10 0.682089 0.583391 0.377981
O O11 0.677567 0.333720 0.337749
O O12 0.043674 0.274156 0.041126
O O13 0.728433 0.608248 0.640063
O O14 0.636596 0.753039 0.822100
#
# Coordination Sequence:
#
# PCOD8128613 Si02
#       7
#     4   4   4   4   4   4   4
#     4  11  23  45  69  94 134 175 217 270 334 389
#     4  11  22  42  68  97 128 173 219 267 326 396
#     4  12  24  40  72  98 131 175 219 268 340 384
#     4  12  24  43  67  99 133 171 220 276 323 394
#     4  11  24  45  65  96 138 170 220 275 322 396
#     4  11  21  43  68  94 130 175 217 268 326 390
#     4  12  25  44  66 100 137 172 217 277 327 391
#
# _framework density 20.641393000000001
#
# number of rings (size 3 to 8) (size 9 to 14) (size 15 to 20)
#    0.000    0.571    8.571    1.286    2.000    1.143 
#    0.000    0.714    0.000    0.000    0.000    0.000 
#    0.000    0.000    0.000    0.000    0.000    0.000 
#
# Total GULP energy -347238.865778 kJ/mol
# GULP energy per Si atom -12401.388063 kJ/mol
# Density = 2.059441 g / cm^3
# Si number density = 20.641393 Si / 1000 Ang^3
#
#
#
# Elastic Constant Matrix: (Units=GPa)
#
#
# Indices 1 2 3 4 5 6 
#
# 1 80.3871 25.7105 45.3924 0.0000 6.1214 0.0000
# 2 25.7105 123.8980 42.9109 0.0000 2.9204 0.0000
# 3 45.3924 42.9109 105.7963 0.0000 -3.4135 0.0000
# 4 0.0000 0.0000 0.0000 28.2705 0.0000 -1.3791
# 5 6.1214 2.9204 -3.4135 0.0000 42.1946 0.0000
# 6 0.0000 0.0000 0.0000 -1.3791 0.0000 18.5825
#
#
#
# Elastic Compliance Matrix: (Units=1/GPa)
#
#
# Indices 1 2 3 4 5 6 
#
# 1 0.016908 -0.001040 -0.006928 0.000000 -0.002941 0.000000
# 2 -0.001040 0.009493 -0.003429 0.000000 -0.000784 0.000000
# 3 -0.006928 -0.003429 0.013892 0.000000 0.002366 0.000000
# 4 0.000000 0.000000 0.000000 0.035501 0.000000 0.002635
# 5 -0.002941 -0.000784 0.002366 0.000000 0.024372 0.000000
# 6 0.000000 0.000000 0.000000 0.002635 0.000000 0.054010
#
#
# Mechanical properties :
#
#
# Convention : Reuss Voigt Hill
#
# Bulk Modulus (GPa) = 57.14623 59.78987 58.46805
# Shear Modulus (GPa) = 27.35181 30.88072 29.11626
#
# Velocity S-wave (km/s) = 3.64413 3.87209 3.75984
# Velocity P-wave (km/s) = 6.74178 7.00140 6.87282
#
# Compressibility (1/GPa) = 0.01749897
#
# Stress axis : x y z
#
# Youngs Moduli (GPa) = 59.14265 105.33834 71.98490
#
# Poissons Ratio (x) = 0.10956 0.49869
# Poissons Ratio (y) = 0.06151 0.24687
# Poissons Ratio (z) = 0.40972 0.36126
#
# Static dielectric constant tensor:
#      x y z
#    x 3.549790 0.000000 -0.027260 
#    y 0.000000 3.948010 0.000000 
#    z -0.027260 0.000000 3.892770 
# 
# 
# High freq. dielectric constant tensor:
#      x y z
#    x 1.788240 0.000000 0.001550 
#    y 0.000000 1.815160 0.000000 
#    z 0.001550 0.000000 1.821960 
# 
# From -- ./inp_files/47338.got.cif
#   From: 2010.03.12/outbox.cif.g09.slc.cpg/sg14_24_cif.got.tgz:47338.got - 2010.03.31 13:35:05.
