data_PCOD8128188
_publ_section_title
;
Structure prediction by ZEFSAII (Michael W. Deem and Ramdas Pophale) SiO2 
 PCOD8128188
Probable space group: P 21/C
;
_chemical_formula_sum "Si O2"
_cell_formula_units_Z 28
_cell_length_a 28.074107
_cell_length_b 5.137571
_cell_length_c 8.865860
_cell_angle_alpha 90.000000
_cell_angle_beta 71.601627
_cell_angle_gamma 90.000000
_cell_volume 1213.383895
_symmetry_space_group_name_H-M "P 21/C"
_symmetry_group_IT_number 14
_symmetry_cell_setting 'monoclinic'
loop_
_space_group_symop_operation_xyz
x,y,z
-x,1/2+y,1/2-z
-x,-y,-z
x,1/2-y,1/2+z
loop_
_atom_site_type_symbol
_atom_site_label
_atom_site_fract_x
_atom_site_fract_y
_atom_site_fract_z
Si Si1 0.365670 0.557864 0.445815
Si Si2 0.329833 0.430920 0.814075
Si Si3 0.481263 0.549815 0.351271
Si Si4 0.129431 0.434882 0.523381
Si Si5 0.783146 0.938453 0.564890
Si Si6 0.017060 0.083265 0.148777
Si Si7 0.827555 0.252085 0.757757
O O1 0.340780 0.486228 0.629205
O O2 0.338022 0.807244 0.402287
O O3 0.423368 0.633203 0.412524
O O4 0.363674 0.307840 0.337822
O O5 0.272805 0.327020 0.892034
O O6 0.512357 0.789199 0.252334
O O7 0.500000 0.500000 0.500000
O O8 0.173941 0.253439 0.417169
O O9 0.074403 0.310351 0.590883
O O10 0.146490 0.532060 0.669194
O O11 0.126885 0.653678 0.395711
O O12 0.782145 0.160008 0.694373
O O13 0.801425 0.029727 0.383783
O O14 0.014746 0.828139 0.258394
O O15 0.000000 0.000000 0.000000
#
# Coordination Sequence:
#
# PCOD8128188 Si02
#       7
#     4   4   4   4   4   4   4
#     4  12  26  48  70 109 147 190 236 304 357 424
#     4  12  28  45  73 101 152 187 239 291 372 422
#     4  12  25  45  76 105 143 190 248 295 356 424
#     4  11  25  43  73  98 140 177 239 281 349 423
#     4  11  25  42  70  98 136 185 233 282 348 424
#     4  12  29  49  76 108 146 187 235 297 370 425
#     4  10  24  42  68  99 134 174 237 282 341 405
#
# _framework density 23.075963999999999
#
# number of rings (size 3 to 8) (size 9 to 14) (size 15 to 20)
#    0.000    0.571    0.000    6.857   16.000    0.000 
#    0.000    0.000    0.000    0.000    0.000    0.000 
#    0.000    0.000    0.000    0.000    0.000    0.000 
#
# Total GULP energy -347205.787580 kJ/mol
# GULP energy per Si atom -12400.206699 kJ/mol
# Density = 2.302344 g / cm^3
# Si number density = 23.075964 Si / 1000 Ang^3
#
#
#
# Elastic Constant Matrix: (Units=GPa)
#
#
# Indices 1 2 3 4 5 6 
#
# 1 132.0824 21.3090 36.2528 0.0000 -19.3906 0.0000
# 2 21.3090 102.4872 30.1869 0.0000 0.7672 0.0000
# 3 36.2528 30.1869 123.0816 0.0000 11.0817 0.0000
# 4 0.0000 0.0000 0.0000 22.3546 0.0000 -6.8486
# 5 -19.3906 0.7672 11.0817 0.0000 24.8070 0.0000
# 6 0.0000 0.0000 0.0000 -6.8486 0.0000 34.8980
#
#
#
# Elastic Compliance Matrix: (Units=1/GPa)
#
#
# Indices 1 2 3 4 5 6 
#
# 1 0.010134 -0.001128 -0.003568 0.000000 0.009551 0.000000
# 2 -0.001128 0.010660 -0.002264 0.000000 -0.000200 0.000000
# 3 -0.003568 -0.002264 0.010394 0.000000 -0.007362 0.000000
# 4 0.000000 0.000000 0.000000 0.047595 0.000000 0.009340
# 5 0.009551 -0.000200 -0.007362 0.000000 0.051072 0.000000
# 6 0.000000 0.000000 0.000000 0.009340 0.000000 0.030488
#
#
# Mechanical properties :
#
#
# Convention : Reuss Voigt Hill
#
# Bulk Modulus (GPa) = 57.91103 59.23873 58.57488
# Shear Modulus (GPa) = 27.77473 34.40545 31.09009
#
# Velocity S-wave (km/s) = 3.47309 3.86549 3.67453
# Velocity P-wave (km/s) = 6.42133 6.75645 6.59102
#
# Compressibility (1/GPa) = 0.01726787
#
# Stress axis : x y z
#
# Youngs Moduli (GPa) = 98.67331 93.80664 96.20962
#
# Poissons Ratio (x) = 0.10578 0.34331
# Poissons Ratio (y) = 0.11126 0.21786
# Poissons Ratio (z) = 0.35210 0.21242
#
# Static dielectric constant tensor:
#      x y z
#    x 4.153250 0.000000 0.028380 
#    y 0.000000 4.383110 0.000000 
#    z 0.028380 0.000000 4.274290 
# 
# 
# High freq. dielectric constant tensor:
#      x y z
#    x 1.915900 0.000000 0.006560 
#    y 0.000000 1.912830 0.000000 
#    z 0.006560 0.000000 1.937150 
# 
# From -- ./inp_files/19595.got.cif
#   From: 2010.03.12/outbox.cif.g09.slc.cpg/sg14_10_cif.got.tgz:19595.got - 2010.03.31 13:35:05.
