data_PCOD8128349
_publ_section_title
;
Structure prediction by ZEFSAII (Michael W. Deem and Ramdas Pophale) SiO2 
 PCOD8128349
Probable space group: P 21/C
;
_chemical_formula_sum "Si O2"
_cell_formula_units_Z 28
_cell_length_a 9.178668
_cell_length_b 13.904413
_cell_length_c 11.532309
_cell_angle_alpha 90.000000
_cell_angle_beta 101.764440
_cell_angle_gamma 90.000000
_cell_volume 1440.882854
_symmetry_space_group_name_H-M "P 21/C"
_symmetry_group_IT_number 14
_symmetry_cell_setting 'monoclinic'
loop_
_space_group_symop_operation_xyz
x,y,z
-x,1/2+y,1/2-z
-x,-y,-z
x,1/2-y,1/2+z
loop_
_atom_site_type_symbol
_atom_site_label
_atom_site_fract_x
_atom_site_fract_y
_atom_site_fract_z
Si Si1 0.679106 0.818414 0.783565
Si Si2 0.497318 0.135164 0.683660
Si Si3 0.902473 0.418514 0.425745
Si Si4 0.590694 0.493210 0.398244
Si Si5 0.742727 0.901011 0.546654
Si Si6 0.821588 0.100669 0.657192
Si Si7 0.041339 0.232805 0.553173
O O1 0.554134 0.736802 0.773145
O O2 0.676570 0.859142 0.654220
O O3 0.841476 0.776922 0.837732
O O4 0.642324 0.901039 0.869518
O O5 0.489115 0.054968 0.782865
O O6 0.391106 0.097464 0.565657
O O7 0.663660 0.148264 0.662819
O O8 0.734418 0.427086 0.445322
O O9 0.905764 0.433292 0.287516
O O10 0.000000 0.500000 0.500000
O O11 0.962827 0.313925 0.464805
O O12 0.500000 0.500000 0.500000
O O13 0.879540 0.837887 0.524248
O O14 0.800907 0.008648 0.572194
O O15 0.917022 0.178831 0.606055
#
# Coordination Sequence:
#
# PCOD8128349 Si02
#       7
#     4   4   4   4   4   4   4
#     4  11  23  43  67  91 129 170 206 262 320 375
#     4  10  25  40  67  95 125 170 206 266 316 374
#     4  11  22  42  65  90 130 167 206 263 314 373
#     4  11  25  43  64  97 127 163 216 259 316 378
#     4  11  22  44  66  91 132 165 212 260 319 375
#     4  11  23  42  62  96 128 162 219 260 314 374
#     4  11  24  39  65  95 125 173 208 258 316 383
#
# _framework density 19.432531000000001
#
# number of rings (size 3 to 8) (size 9 to 14) (size 15 to 20)
#    0.000    1.143    4.286    1.714    6.000    3.429 
#    0.000    1.429    0.000    0.000    0.000    0.000 
#    0.000    0.000    0.000    0.000    0.000    0.000 
#
# Total GULP energy -347360.090970 kJ/mol
# GULP energy per Si atom -12405.717535 kJ/mol
# Density = 1.938830 g / cm^3
# Si number density = 19.432531 Si / 1000 Ang^3
#
#
#
# Elastic Constant Matrix: (Units=GPa)
#
#
# Indices 1 2 3 4 5 6 
#
# 1 123.2573 69.5720 71.6770 0.0000 -9.8312 0.0000
# 2 69.5720 118.5281 45.5610 0.0000 4.0425 0.0000
# 3 71.6770 45.5610 115.0722 0.0000 -2.6999 0.0000
# 4 0.0000 0.0000 0.0000 35.2596 0.0000 -2.0990
# 5 -9.8312 4.0425 -2.6999 0.0000 34.7715 0.0000
# 6 0.0000 0.0000 0.0000 -2.0990 0.0000 44.3725
#
#
#
# Elastic Compliance Matrix: (Units=1/GPa)
#
#
# Indices 1 2 3 4 5 6 
#
# 1 0.017042 -0.007244 -0.007628 0.000000 0.005068 0.000000
# 2 -0.007244 0.013105 -0.000762 0.000000 -0.003631 0.000000
# 3 -0.007628 -0.000762 0.013720 0.000000 -0.001003 0.000000
# 4 0.000000 0.000000 0.000000 0.028441 0.000000 0.001345
# 5 0.005068 -0.003631 -0.001003 0.000000 0.030536 0.000000
# 6 0.000000 0.000000 0.000000 0.001345 0.000000 0.022600
#
#
# Mechanical properties :
#
#
# Convention : Reuss Voigt Hill
#
# Bulk Modulus (GPa) = 79.36986 81.16419 80.26702
# Shear Modulus (GPa) = 31.07265 34.21724 32.64495
#
# Velocity S-wave (km/s) = 4.00309 4.20077 4.10312
# Velocity P-wave (km/s) = 7.89296 8.08619 7.99016
#
# Compressibility (1/GPa) = 0.01259924
#
# Stress axis : x y z
#
# Youngs Moduli (GPa) = 58.67814 76.30439 72.88644
#
# Poissons Ratio (x) = 0.55273 0.55600
# Poissons Ratio (y) = 0.42505 0.05554
# Poissons Ratio (z) = 0.44762 0.05815
#
# Static dielectric constant tensor:
#      x y z
#    x 3.635170 0.000000 0.066620 
#    y 0.000000 5.046230 0.000000 
#    z 0.066620 0.000000 3.678950 
# 
# 
# High freq. dielectric constant tensor:
#      x y z
#    x 1.762650 0.000000 0.003390 
#    y 0.000000 1.769600 0.000000 
#    z 0.003390 0.000000 1.767870 
# 
# From -- ./inp_files/25287.got.cif
#   From: 2010.03.12/outbox.cif.g09.slc.cpg/sg14_13_cif.got.tgz:25287.got - 2010.03.31 13:35:05.
