data_PCOD8128731
_publ_section_title
;
Structure prediction by ZEFSAII (Michael W. Deem and Ramdas Pophale) SiO2 
 PCOD8128731
Probable space group: P 21/C
;
_chemical_formula_sum "Si O2"
_cell_formula_units_Z 32
_cell_length_a 22.119529
_cell_length_b 14.372000
_cell_length_c 14.461078
_cell_angle_alpha 90.000000
_cell_angle_beta 19.263935
_cell_angle_gamma 90.000000
_cell_volume 1516.710606
_symmetry_space_group_name_H-M "P 21/C"
_symmetry_group_IT_number 14
_symmetry_cell_setting 'monoclinic'
loop_
_space_group_symop_operation_xyz
x,y,z
-x,1/2+y,1/2-z
-x,-y,-z
x,1/2-y,1/2+z
loop_
_atom_site_type_symbol
_atom_site_label
_atom_site_fract_x
_atom_site_fract_y
_atom_site_fract_z
Si Si1 0.313244 0.801061 0.528552
Si Si2 0.636542 0.659256 0.080690
Si Si3 0.584115 0.082731 0.934945
Si Si4 0.983599 0.037302 0.422151
Si Si5 0.248856 0.756624 0.419271
Si Si6 0.267637 0.952582 0.886849
Si Si7 0.623225 0.008438 0.465926
Si Si8 0.003395 0.258961 0.879122
O O1 0.506723 0.746560 0.243496
O O2 0.213256 0.795713 0.573549
O O3 0.348101 0.908524 0.502680
O O4 0.182177 0.753367 0.793066
O O5 0.553354 0.601448 0.283933
O O6 0.659625 0.590889 0.960197
O O7 0.840316 0.688519 0.816007
O O8 0.608947 0.175179 0.837413
O O9 0.773304 0.046445 0.701488
O O10 0.500000 0.000000 0.000000
O O11 0.081964 0.137493 0.277857
O O12 0.000000 0.000000 0.500000
O O13 0.075877 0.967243 0.215901
O O14 0.335507 0.653852 0.298014
O O15 0.055394 0.747739 0.643662
O O16 0.239816 0.980241 0.819432
O O17 0.418661 0.016030 0.719766
#
# Coordination Sequence:
#
# PCOD8128731 Si02
#       8
#     4   4   4   4   4   4   4   4
#     4  12  23  48  70  97 141 178 236 293 347 421
#     4  12  24  45  69  99 141 180 231 290 351 420
#     4  11  25  43  66 101 138 176 233 288 348 416
#     4  11  23  44  71  98 135 185 236 283 348 417
#     4  11  23  46  69  96 144 184 225 302 348 412
#     4  11  22  42  71 103 139 185 237 291 355 428
#     4  11  24  41  73 104 138 184 236 292 354 424
#     4  11  26  45  67 101 139 180 231 290 349 423
#
# _framework density 21.098289000000001
#
# number of rings (size 3 to 8) (size 9 to 14) (size 15 to 20)
#    0.000    0.750    5.000    3.000    1.750    4.500 
#    2.250    0.000    0.000    0.000    0.000    0.000 
#    0.000    0.000    0.000    0.000    0.000    0.000 
#
# Total GULP energy -396905.334173 kJ/mol
# GULP energy per Si atom -12403.291693 kJ/mol
# Density = 2.105027 g / cm^3
# Si number density = 21.098289 Si / 1000 Ang^3
#
#
#
# Elastic Constant Matrix: (Units=GPa)
#
#
# Indices 1 2 3 4 5 6 
#
# 1 164.5509 68.5686 50.9064 0.0000 3.6229 0.0000
# 2 68.5686 125.0806 54.8736 0.0000 1.3319 0.0000
# 3 50.9064 54.8736 83.7527 0.0000 2.6695 0.0000
# 4 0.0000 0.0000 0.0000 32.6365 0.0000 -0.2995
# 5 3.6229 1.3319 2.6695 0.0000 28.3854 0.0000
# 6 0.0000 0.0000 0.0000 -0.2995 0.0000 46.8528
#
#
#
# Elastic Compliance Matrix: (Units=1/GPa)
#
#
# Indices 1 2 3 4 5 6 
#
# 1 0.008366 -0.003309 -0.002897 0.000000 -0.000640 0.000000
# 2 -0.003309 0.012529 -0.006211 0.000000 0.000419 0.000000
# 3 -0.002897 -0.006211 0.017803 0.000000 -0.001013 0.000000
# 4 0.000000 0.000000 0.000000 0.030642 0.000000 0.000196
# 5 -0.000640 0.000419 -0.001013 0.000000 0.035387 0.000000
# 6 0.000000 0.000000 0.000000 0.000196 0.000000 0.021345
#
#
# Mechanical properties :
#
#
# Convention : Reuss Voigt Hill
#
# Bulk Modulus (GPa) = 72.12788 80.23127 76.17957
# Shear Modulus (GPa) = 32.14891 34.84397 33.49644
#
# Velocity S-wave (km/s) = 3.90778 4.06828 3.98884
# Velocity P-wave (km/s) = 7.39066 7.75744 7.57627
#
# Compressibility (1/GPa) = 0.01386426
#
# Stress axis : x y z
#
# Youngs Moduli (GPa) = 119.52943 79.81495 56.17186
#
# Poissons Ratio (x) = 0.26407 0.16273
# Poissons Ratio (y) = 0.39547 0.34889
# Poissons Ratio (z) = 0.34627 0.49574
#
# Static dielectric constant tensor:
#      x y z
#    x 4.819060 0.000000 0.081890 
#    y 0.000000 4.046960 0.000000 
#    z 0.081890 0.000000 3.589140 
# 
# 
# High freq. dielectric constant tensor:
#      x y z
#    x 1.844860 0.000000 0.001870 
#    y 0.000000 1.840790 0.000000 
#    z 0.001870 0.000000 1.809160 
# 
# From -- ./inp_files/50686.got.cif
#   From: 2010.03.12/outbox.cif.g09.slc.cpg/sg14_26_cif.got.tgz:50686.got - 2010.03.31 13:35:05.
