data_PCOD8128548
_publ_section_title
;
Structure prediction by ZEFSAII (Michael W. Deem and Ramdas Pophale) SiO2 
 PCOD8128548
Probable space group: P 21/C
;
_chemical_formula_sum "Si O2"
_cell_formula_units_Z 24
_cell_length_a 5.016366
_cell_length_b 10.659840
_cell_length_c 20.732635
_cell_angle_alpha 90.000000
_cell_angle_beta 68.114260
_cell_angle_gamma 90.000000
_cell_volume 1028.748411
_symmetry_space_group_name_H-M "P 21/C"
_symmetry_group_IT_number 14
_symmetry_cell_setting 'monoclinic'
loop_
_space_group_symop_operation_xyz
x,y,z
-x,1/2+y,1/2-z
-x,-y,-z
x,1/2-y,1/2+z
loop_
_atom_site_type_symbol
_atom_site_label
_atom_site_fract_x
_atom_site_fract_y
_atom_site_fract_z
Si Si1 0.796970 0.244003 0.430621
Si Si2 0.036102 0.520773 0.400034
Si Si3 0.735123 0.759083 0.770823
Si Si4 0.517479 0.326667 0.575844
Si Si5 0.846948 0.011701 0.253302
Si Si6 0.598415 0.831681 0.649636
O O1 0.931547 0.381184 0.418754
O O2 0.635446 0.224496 0.513608
O O3 0.570593 0.234755 0.393211
O O4 0.065239 0.147813 0.399302
O O5 0.775273 0.618323 0.425335
O O6 0.255203 0.558917 0.437112
O O7 0.208275 0.533110 0.317406
O O8 0.523340 0.761108 0.851134
O O9 0.934170 0.633546 0.759164
O O10 0.565810 0.746526 0.717836
O O11 0.914932 0.887529 0.746329
O O12 0.552349 0.035828 0.319859
#
# Coordination Sequence:
#
# PCOD8128548 Si02
#       6
#     4   4   4   4   4   4
#     4  12  24  41  67  99 145 181 228 282 358 408
#     4  11  21  38  68  97 138 176 233 293 341 403
#     4  11  25  46  74 102 141 181 238 288 343 414
#     4  11  24  42  63 104 136 186 228 287 342 415
#     4  11  23  44  72 106 133 184 238 290 339 405
#     4  12  23  43  66 101 132 185 223 287 342 421
#
# _framework density 23.329319999999999
#
# number of rings (size 3 to 8) (size 9 to 14) (size 15 to 20)
#    0.000    0.667    5.000    3.000    0.000    2.667 
#    0.000    1.667    0.000    0.000    0.000    0.000 
#    0.000    0.000    0.000    0.000    0.000    0.000 
#
# Total GULP energy -297475.530225 kJ/mol
# GULP energy per Si atom -12394.813759 kJ/mol
# Density = 2.327622 g / cm^3
# Si number density = 23.329320 Si / 1000 Ang^3
#
#
#
# Elastic Constant Matrix: (Units=GPa)
#
#
# Indices 1 2 3 4 5 6 
#
# 1 101.9279 32.8278 54.6637 0.0000 6.2955 0.0000
# 2 32.8278 81.4073 10.4421 0.0000 7.4270 0.0000
# 3 54.6637 10.4421 121.8749 0.0000 0.6726 0.0000
# 4 0.0000 0.0000 0.0000 22.7776 0.0000 -5.3904
# 5 6.2955 7.4270 0.6726 0.0000 35.7224 0.0000
# 6 0.0000 0.0000 0.0000 -5.3904 0.0000 25.2659
#
#
#
# Elastic Compliance Matrix: (Units=1/GPa)
#
#
# Indices 1 2 3 4 5 6 
#
# 1 0.014872 -0.005066 -0.006229 0.000000 -0.001450 0.000000
# 2 -0.005066 0.014385 0.001051 0.000000 -0.002118 0.000000
# 3 -0.006229 0.001051 0.010905 0.000000 0.000674 0.000000
# 4 0.000000 0.000000 0.000000 0.046237 0.000000 0.009865
# 5 -0.001450 -0.002118 0.000674 0.000000 0.028677 0.000000
# 6 0.000000 0.000000 0.000000 0.009865 0.000000 0.041684
#
#
# Mechanical properties :
#
#
# Convention : Reuss Voigt Hill
#
# Bulk Modulus (GPa) = 50.82293 55.67525 53.24909
# Shear Modulus (GPa) = 27.20264 30.57159 28.88712
#
# Velocity S-wave (km/s) = 3.41842 3.62392 3.52267
# Velocity P-wave (km/s) = 6.11662 6.43639 6.27854
#
# Compressibility (1/GPa) = 0.01967616
#
# Stress axis : x y z
#
# Youngs Moduli (GPa) = 67.23840 69.51598 91.70115
#
# Poissons Ratio (x) = 0.35218 0.57117
# Poissons Ratio (y) = 0.34064 -0.09642
# Poissons Ratio (z) = 0.41880 -0.07309
#
# Static dielectric constant tensor:
#      x y z
#    x 4.178540 0.000000 -0.086580 
#    y 0.000000 3.901120 0.000000 
#    z -0.086580 0.000000 4.865230 
# 
# 
# High freq. dielectric constant tensor:
#      x y z
#    x 1.920660 0.000000 0.001800 
#    y 0.000000 1.884180 0.000000 
#    z 0.001800 0.000000 1.944850 
# 
# From -- ./inp_files/63248.got.cif
#   From: 2010.03.12/outbox.cif.g09.slc.cpg/sg14_32_cif.got.tgz:63248.got - 2010.03.31 13:35:05.
