data_PCOD8128075
_publ_section_title
;
Structure prediction by ZEFSAII (Michael W. Deem and Ramdas Pophale) SiO2 
 PCOD8128075
Probable space group: P 21/C
;
_chemical_formula_sum "Si O2"
_cell_formula_units_Z 32
_cell_length_a 18.036852
_cell_length_b 5.958681
_cell_length_c 20.342510
_cell_angle_alpha 90.000000
_cell_angle_beta 141.158366
_cell_angle_gamma 90.000000
_cell_volume 1371.199540
_symmetry_space_group_name_H-M "P 21/C"
_symmetry_group_IT_number 14
_symmetry_cell_setting 'monoclinic'
loop_
_space_group_symop_operation_xyz
x,y,z
-x,1/2+y,1/2-z
-x,-y,-z
x,1/2-y,1/2+z
loop_
_atom_site_type_symbol
_atom_site_label
_atom_site_fract_x
_atom_site_fract_y
_atom_site_fract_z
Si Si1 0.259573 0.187200 0.326112
Si Si2 0.658303 0.857909 0.907370
Si Si3 0.098312 0.511032 0.470042
Si Si4 0.980402 0.780469 0.770961
Si Si5 0.556316 0.919161 0.453917
Si Si6 0.520533 0.694912 0.686442
Si Si7 0.144252 0.877520 0.148154
Si Si8 0.355739 0.589466 0.326157
O O1 0.155348 0.247225 0.303942
O O2 0.349466 0.012569 0.424197
O O3 0.342839 0.403144 0.373336
O O4 0.208686 0.100142 0.221329
O O5 0.634940 0.694437 0.951508
O O6 0.577970 0.788603 0.791046
O O7 0.613279 0.109213 0.892873
O O8 0.797351 0.857048 0.987114
O O9 0.141123 0.623585 0.567277
O O10 0.063102 0.702956 0.393038
O O11 0.985774 0.352896 0.409412
O O12 0.009590 0.539290 0.755236
O O13 0.453656 0.768154 0.415644
O O14 0.485601 0.127618 0.376434
O O15 0.603376 0.496109 0.717325
O O16 0.221312 0.670999 0.225043
#
# Coordination Sequence:
#
# PCOD8128075 Si02
#       8
#     4   4   4   4   4   4   4   4
#     4  11  25  44  71  99 142 189 242 300 366 433
#     4  11  22  41  67  98 141 176 238 286 362 436
#     4  10  23  46  73 101 140 187 241 293 369 436
#     4  11  27  50  75 111 149 196 247 307 369 445
#     4  11  24  41  66 101 139 186 233 295 366 436
#     4  11  24  41  66 104 134 185 228 299 362 434
#     4  10  24  46  68 103 138 183 240 301 357 437
#     4  11  24  43  69  98 139 180 241 298 362 434
#
# _framework density 23.337232
#
# number of rings (size 3 to 8) (size 9 to 14) (size 15 to 20)
#    0.000    1.250    1.250    3.375    7.000    4.000 
#    4.500    3.750    0.000    0.000    0.000    0.000 
#    0.000    0.000    0.000    0.000    0.000    0.000 
#
# Total GULP energy -396499.678268 kJ/mol
# GULP energy per Si atom -12390.614946 kJ/mol
# Density = 2.328412 g / cm^3
# Si number density = 23.337232 Si / 1000 Ang^3
#
#
#
# Elastic Constant Matrix: (Units=GPa)
#
#
# Indices 1 2 3 4 5 6 
#
# 1 110.7330 24.5067 31.0215 0.0000 24.0463 0.0000
# 2 24.5067 48.2649 3.6612 0.0000 22.2673 0.0000
# 3 31.0215 3.6612 113.5434 0.0000 13.0056 0.0000
# 4 0.0000 0.0000 0.0000 18.2087 0.0000 6.6784
# 5 24.0463 22.2673 13.0056 0.0000 37.4823 0.0000
# 6 0.0000 0.0000 0.0000 6.6784 0.0000 27.8308
#
#
#
# Elastic Compliance Matrix: (Units=1/GPa)
#
#
# Indices 1 2 3 4 5 6 
#
# 1 0.011484 -0.003643 -0.002524 0.000000 -0.004327 0.000000
# 2 -0.003643 0.029821 0.001870 0.000000 -0.016028 0.000000
# 3 -0.002524 0.001870 0.009766 0.000000 -0.002880 0.000000
# 4 0.000000 0.000000 0.000000 0.060219 0.000000 -0.014450
# 5 -0.004327 -0.016028 -0.002880 0.000000 0.039976 0.000000
# 6 0.000000 0.000000 0.000000 -0.014450 0.000000 0.039399
#
#
# Mechanical properties :
#
#
# Convention : Reuss Voigt Hill
#
# Bulk Modulus (GPa) = 23.54274 43.43556 33.48915
# Shear Modulus (GPa) = 23.42795 30.92783 27.17789
#
# Velocity S-wave (km/s) = 3.17186 3.64436 3.41628
# Velocity P-wave (km/s) = 4.85017 6.03001 5.47198
#
# Compressibility (1/GPa) = 0.04247593
#
# Stress axis : x y z
#
# Youngs Moduli (GPa) = 87.07859 33.53292 102.39084
#
# Poissons Ratio (x) = 0.12217 0.25848
# Poissons Ratio (y) = 0.31724 -0.19143
# Poissons Ratio (z) = 0.21982 -0.06269
#
# Static dielectric constant tensor:
#      x y z
#    x 4.457600 0.000000 0.062640 
#    y 0.000000 4.261440 0.000000 
#    z 0.062640 0.000000 4.289620 
# 
# 
# High freq. dielectric constant tensor:
#      x y z
#    x 1.945940 0.000000 0.004220 
#    y 0.000000 1.902560 0.000000 
#    z 0.004220 0.000000 1.937050 
# 
# From -- ./inp_files/74544.got.cif
#   From: 2010.03.12/outbox.cif.g09.slc.cpg/sg14_38_cif.got.tgz:74544.got - 2010.03.31 13:35:05.
