data_PCOD8128150
_publ_section_title
;
Structure prediction by ZEFSAII (Michael W. Deem and Ramdas Pophale) SiO2 
 PCOD8128150
Probable space group: P 21/C
;
_chemical_formula_sum "Si O2"
_cell_formula_units_Z 24
_cell_length_a 20.094826
_cell_length_b 5.406275
_cell_length_c 20.456749
_cell_angle_alpha 90.000000
_cell_angle_beta 152.283026
_cell_angle_gamma 90.000000
_cell_volume 1033.640167
_symmetry_space_group_name_H-M "P 21/C"
_symmetry_group_IT_number 14
_symmetry_cell_setting 'monoclinic'
loop_
_space_group_symop_operation_xyz
x,y,z
-x,1/2+y,1/2-z
-x,-y,-z
x,1/2-y,1/2+z
loop_
_atom_site_type_symbol
_atom_site_label
_atom_site_fract_x
_atom_site_fract_y
_atom_site_fract_z
Si Si1 0.355991 0.015228 0.192591
Si Si2 0.356297 0.239827 0.820893
Si Si3 0.316810 0.744052 0.856876
Si Si4 0.647780 0.704989 0.940370
Si Si5 0.860089 0.038613 0.190488
Si Si6 0.148861 0.811037 0.447420
O O1 0.498685 0.878450 0.343806
O O2 0.322503 0.237783 0.213764
O O3 0.390579 0.096811 0.148846
O O4 0.218279 0.835469 0.068762
O O5 0.289911 0.486267 0.796481
O O6 0.284691 0.985721 0.783718
O O7 0.525102 0.233767 0.977655
O O8 0.206014 0.747917 0.821263
O O9 0.740758 0.822292 0.079951
O O10 0.731161 0.485560 0.978390
O O11 0.007879 0.947347 0.351773
O O12 0.902245 0.128065 0.154713
#
# Coordination Sequence:
#
# PCOD8128150 Si02
#       6
#     4   4   4   4   4   4
#     4  11  24  39  65  98 130 170 221 277 343 395
#     4  10  24  43  65  98 135 175 229 278 326 394
#     4  10  24  41  69  96 132 183 224 277 325 399
#     4  11  23  39  65  96 129 170 213 281 340 395
#     4  11  24  41  66  97 131 173 226 269 343 409
#     4  11  23  41  64  96 133 171 213 287 338 401
#
# _framework density 23.218910999999999
#
# number of rings (size 3 to 8) (size 9 to 14) (size 15 to 20)
#    0.000    1.333    3.333    1.000   14.000    0.000 
#    0.000    1.667    0.000    0.000    0.000    0.000 
#    0.000    0.000    0.000    0.000    0.000    0.000 
#
# Total GULP energy -297650.017243 kJ/mol
# GULP energy per Si atom -12402.084052 kJ/mol
# Density = 2.316606 g / cm^3
# Si number density = 23.218911 Si / 1000 Ang^3
#
#
#
# Elastic Constant Matrix: (Units=GPa)
#
#
# Indices 1 2 3 4 5 6 
#
# 1 78.3391 23.3742 27.0559 0.0000 -2.2167 0.0000
# 2 23.3742 110.0707 32.2085 0.0000 4.0031 0.0000
# 3 27.0559 32.2085 93.2853 0.0000 13.7928 0.0000
# 4 0.0000 0.0000 0.0000 25.9450 0.0000 2.9009
# 5 -2.2167 4.0031 13.7928 0.0000 19.2995 0.0000
# 6 0.0000 0.0000 0.0000 2.9009 0.0000 31.9326
#
#
#
# Elastic Compliance Matrix: (Units=1/GPa)
#
#
# Indices 1 2 3 4 5 6 
#
# 1 0.015074 -0.002097 -0.004437 0.000000 0.005338 0.000000
# 2 -0.002097 0.010401 -0.002939 0.000000 -0.000298 0.000000
# 3 -0.004437 -0.002939 0.014544 0.000000 -0.010294 0.000000
# 4 0.000000 0.000000 0.000000 0.038939 0.000000 -0.003537
# 5 0.005338 -0.000298 -0.010294 0.000000 0.059846 0.000000
# 6 0.000000 0.000000 0.000000 -0.003537 0.000000 0.031637
#
#
# Mechanical properties :
#
#
# Convention : Reuss Voigt Hill
#
# Bulk Modulus (GPa) = 47.45468 49.66357 48.55913
# Shear Modulus (GPa) = 25.45672 28.70583 27.08128
#
# Velocity S-wave (km/s) = 3.31475 3.51994 3.41889
# Velocity P-wave (km/s) = 5.92726 6.16082 6.04517
#
# Compressibility (1/GPa) = 0.02107274
#
# Stress axis : x y z
#
# Youngs Moduli (GPa) = 66.33862 96.14295 68.75905
#
# Poissons Ratio (x) = 0.20159 0.30510
# Poissons Ratio (y) = 0.13910 0.20208
# Poissons Ratio (z) = 0.29436 0.28257
#
# Static dielectric constant tensor:
#      x y z
#    x 3.968560 0.000000 -0.140200 
#    y 0.000000 4.420180 0.000000 
#    z -0.140200 0.000000 4.112190 
# 
# 
# High freq. dielectric constant tensor:
#      x y z
#    x 1.895100 0.000000 -0.002210 
#    y 0.000000 1.926540 0.000000 
#    z -0.002210 0.000000 1.904620 
# 
# From -- ./inp_files/69617.got.cif
#   From: 2010.03.12/outbox.cif.g09.slc.cpg/sg14_35_cif.got.tgz:69617.got - 2010.03.31 13:35:05.
