data_PCOD8128373
_publ_section_title
;
Structure prediction by ZEFSAII (Michael W. Deem and Ramdas Pophale) SiO2 
 PCOD8128373
Probable space group: P 21/C
;
_chemical_formula_sum "Si O2"
_cell_formula_units_Z 20
_cell_length_a 7.308100
_cell_length_b 23.597775
_cell_length_c 7.888688
_cell_angle_alpha 90.000000
_cell_angle_beta 141.672604
_cell_angle_gamma 90.000000
_cell_volume 843.684379
_symmetry_space_group_name_H-M "P 21/C"
_symmetry_group_IT_number 14
_symmetry_cell_setting 'monoclinic'
loop_
_space_group_symop_operation_xyz
x,y,z
-x,1/2+y,1/2-z
-x,-y,-z
x,1/2-y,1/2+z
loop_
_atom_site_type_symbol
_atom_site_label
_atom_site_fract_x
_atom_site_fract_y
_atom_site_fract_z
Si Si1 0.273607 0.451339 0.046306
Si Si2 0.877992 0.426069 0.071900
Si Si3 0.073972 0.286896 0.514737
Si Si4 0.089336 0.905358 0.023520
Si Si5 0.268384 0.804233 0.556199
O O1 0.141992 0.432063 0.129933
O O2 0.059728 0.442532 0.730017
O O3 0.335370 0.518941 0.095377
O O4 0.561858 0.414580 0.227196
O O5 0.681674 0.371293 0.872729
O O6 0.014533 0.421245 0.361134
O O7 0.425337 0.276156 0.784273
O O8 0.978913 0.339110 0.566966
O O9 0.874610 0.230994 0.395378
O O10 0.999697 0.303314 0.270482
#
# Coordination Sequence:
#
# PCOD8128373 Si02
#       5
#     4   4   4   4   4
#     4  11  25  42  72  99 135 186 217 280 348 406
#     4  10  25  44  67 103 137 174 234 278 337 407
#     4  11  25  43  68  99 130 179 223 279 345 393
#     4  11  24  43  68  98 139 174 231 274 345 402
#     4  11  25  43  67  96 136 170 227 281 333 402
#
# _framework density 23.705546999999999
#
# number of rings (size 3 to 8) (size 9 to 14) (size 15 to 20)
#    0.000    1.200    0.000    4.800    5.600   11.200 
#    0.000    0.000    0.000    0.000    0.000    0.000 
#    0.000    0.000    0.000    0.000    0.000    0.000 
#
# Total GULP energy -247918.392250 kJ/mol
# GULP energy per Si atom -12395.919612 kJ/mol
# Density = 2.365159 g / cm^3
# Si number density = 23.705547 Si / 1000 Ang^3
#
#
#
# Elastic Constant Matrix: (Units=GPa)
#
#
# Indices 1 2 3 4 5 6 
#
# 1 118.7846 47.7297 42.2917 0.0000 -15.2372 0.0000
# 2 47.7297 86.5675 14.5092 0.0000 4.1783 0.0000
# 3 42.2917 14.5092 89.4329 0.0000 4.8425 0.0000
# 4 0.0000 0.0000 0.0000 27.3570 0.0000 5.8904
# 5 -15.2372 4.1783 4.8425 0.0000 31.1235 0.0000
# 6 0.0000 0.0000 0.0000 5.8904 0.0000 30.5534
#
#
#
# Elastic Compliance Matrix: (Units=1/GPa)
#
#
# Indices 1 2 3 4 5 6 
#
# 1 0.014928 -0.007620 -0.006328 0.000000 0.009316 0.000000
# 2 -0.007620 0.015817 0.001366 0.000000 -0.006066 0.000000
# 3 -0.006328 0.001366 0.014250 0.000000 -0.005498 0.000000
# 4 0.000000 0.000000 0.000000 0.038137 0.000000 -0.007352
# 5 0.009316 -0.006066 -0.005498 0.000000 0.038361 0.000000
# 6 0.000000 0.000000 0.000000 -0.007352 0.000000 0.034147
#
#
# Mechanical properties :
#
#
# Convention : Reuss Voigt Hill
#
# Bulk Modulus (GPa) = 50.42454 55.98292 53.20373
# Shear Modulus (GPa) = 26.67892 30.49041 28.58467
#
# Velocity S-wave (km/s) = 3.35838 3.59027 3.47626
# Velocity P-wave (km/s) = 6.02957 6.39171 6.21328
#
# Compressibility (1/GPa) = 0.01983162
#
# Stress axis : x y z
#
# Youngs Moduli (GPa) = 66.98689 63.22358 70.17568
#
# Poissons Ratio (x) = 0.48176 0.44404
# Poissons Ratio (y) = 0.51044 -0.09585
# Poissons Ratio (z) = 0.42387 -0.08635
#
# Static dielectric constant tensor:
#      x y z
#    x 4.195100 0.000000 -0.177610 
#    y 0.000000 5.168680 0.000000 
#    z -0.177610 0.000000 3.963920 
# 
# 
# High freq. dielectric constant tensor:
#      x y z
#    x 1.936730 0.000000 -0.004030 
#    y 0.000000 1.956700 0.000000 
#    z -0.004030 0.000000 1.927730 
# 
# From -- ./inp_files/6195.got.cif
#   From: 2010.03.12/outbox.cif.g09.slc.cpg/sg14_4_cif.got.tgz:6195.got - 2010.03.31 13:35:05.
