data_PCOD8128138
_publ_section_title
;
Structure prediction by ZEFSAII (Michael W. Deem and Ramdas Pophale) SiO2 
 PCOD8128138
Probable space group: P 21/C
;
_chemical_formula_sum "Si O2"
_cell_formula_units_Z 28
_cell_length_a 9.125918
_cell_length_b 11.586889
_cell_length_c 14.087579
_cell_angle_alpha 90.000000
_cell_angle_beta 70.758549
_cell_angle_gamma 90.000000
_cell_volume 1406.421005
_symmetry_space_group_name_H-M "P 21/C"
_symmetry_group_IT_number 14
_symmetry_cell_setting 'monoclinic'
loop_
_space_group_symop_operation_xyz
x,y,z
-x,1/2+y,1/2-z
-x,-y,-z
x,1/2-y,1/2+z
loop_
_atom_site_type_symbol
_atom_site_label
_atom_site_fract_x
_atom_site_fract_y
_atom_site_fract_z
Si Si1 0.880119 0.503679 0.110001
Si Si2 0.404848 0.838035 0.343233
Si Si3 0.530997 0.367398 0.967111
Si Si4 0.780048 0.775280 0.553477
Si Si5 0.762161 0.159786 0.252454
Si Si6 0.045876 0.319875 0.176148
Si Si7 0.262936 0.405257 0.289010
O O1 0.726859 0.433295 0.116866
O O2 0.832577 0.637927 0.127933
O O3 0.960795 0.445762 0.184936
O O4 0.000000 0.500000 0.000000
O O5 0.444269 0.795100 0.441282
O O6 0.350753 0.730136 0.292898
O O7 0.552365 0.898854 0.263410
O O8 0.391611 0.309984 0.940449
O O9 0.685200 0.360109 0.871088
O O10 0.500000 0.500000 0.000000
O O11 0.893631 0.777935 0.439238
O O12 0.782685 0.648725 0.599440
O O13 0.923184 0.225131 0.237590
O O14 0.794267 0.036714 0.196712
O O15 0.184319 0.332977 0.220547
#
# Coordination Sequence:
#
# PCOD8128138 Si02
#       7
#     4   4   4   4   4   4   4
#     4   9  20  37  62  94 124 158 217 269 314 367
#     4  11  22  40  66  96 127 167 213 272 319 374
#     4  12  20  39  72  94 120 168 224 271 312 374
#     4  11  21  39  65  94 127 166 220 267 318 386
#     4  11  25  42  63  99 131 161 220 267 325 391
#     4  10  24  41  62  96 130 170 214 268 330 375
#     4  12  24  40  67  92 130 174 211 265 325 385
#
# _framework density 19.908688000000001
#
# number of rings (size 3 to 8) (size 9 to 14) (size 15 to 20)
#    0.000    1.143    5.714    0.000    4.000    2.857 
#    0.000    0.714    0.000    0.000    0.000    0.000 
#    0.000    0.000    0.000    0.000    0.000    0.000 
#
# Total GULP energy -347160.828652 kJ/mol
# GULP energy per Si atom -12398.601023 kJ/mol
# Density = 1.986338 g / cm^3
# Si number density = 19.908688 Si / 1000 Ang^3
#
#
#
# Elastic Constant Matrix: (Units=GPa)
#
#
# Indices 1 2 3 4 5 6 
#
# 1 90.5342 25.3058 23.7980 0.0000 -14.1800 0.0000
# 2 25.3058 90.4800 30.9710 0.0000 -7.5838 0.0000
# 3 23.7980 30.9710 83.7761 0.0000 -8.0365 0.0000
# 4 0.0000 0.0000 0.0000 33.3133 0.0000 -3.8214
# 5 -14.1800 -7.5838 -8.0365 0.0000 32.7852 0.0000
# 6 0.0000 0.0000 0.0000 -3.8214 0.0000 23.0582
#
#
#
# Elastic Compliance Matrix: (Units=1/GPa)
#
#
# Indices 1 2 3 4 5 6 
#
# 1 0.013062 -0.002466 -0.002367 0.000000 0.004499 0.000000
# 2 -0.002466 0.013226 -0.004094 0.000000 0.000989 0.000000
# 3 -0.002367 -0.004094 0.014269 0.000000 0.001527 0.000000
# 4 0.000000 0.000000 0.000000 0.030600 0.000000 0.005071
# 5 0.004499 0.000989 0.001527 0.000000 0.033050 0.000000
# 6 0.000000 0.000000 0.000000 0.005071 0.000000 0.044209
#
#
# Mechanical properties :
#
#
# Convention : Reuss Voigt Hill
#
# Bulk Modulus (GPa) = 44.04811 47.21551 45.63181
# Shear Modulus (GPa) = 28.76243 30.14571 29.45407
#
# Velocity S-wave (km/s) = 3.80507 3.89549 3.85055
# Velocity P-wave (km/s) = 6.44033 6.63330 6.53753
#
# Compressibility (1/GPa) = 0.02270245
#
# Stress axis : x y z
#
# Youngs Moduli (GPa) = 76.56000 75.60780 70.08165
#
# Poissons Ratio (x) = 0.18643 0.16590
# Poissons Ratio (y) = 0.18878 0.28693
# Poissons Ratio (z) = 0.18124 0.30955
#
# Static dielectric constant tensor:
#      x y z
#    x 3.945760 0.000000 0.012690 
#    y 0.000000 3.723370 0.000000 
#    z 0.012690 0.000000 3.621720 
# 
# 
# High freq. dielectric constant tensor:
#      x y z
#    x 1.795430 0.000000 -0.007120 
#    y 0.000000 1.766030 0.000000 
#    z -0.007120 0.000000 1.767430 
# 
# From -- ./inp_files/25440.got.cif
#   From: 2010.03.12/outbox.cif.g09.slc.cpg/sg14_13_cif.got.tgz:25440.got - 2010.03.31 13:35:05.
