data_PCOD8128646
_publ_section_title
;
Structure prediction by ZEFSAII (Michael W. Deem and Ramdas Pophale) SiO2 
 PCOD8128646
Probable space group: P 21/C
;
_chemical_formula_sum "Si O2"
_cell_formula_units_Z 24
_cell_length_a 17.798604
_cell_length_b 8.539638
_cell_length_c 15.059513
_cell_angle_alpha 90.000000
_cell_angle_beta 148.064740
_cell_angle_gamma 90.000000
_cell_volume 1210.764647
_symmetry_space_group_name_H-M "P 21/C"
_symmetry_group_IT_number 14
_symmetry_cell_setting 'monoclinic'
loop_
_space_group_symop_operation_xyz
x,y,z
-x,1/2+y,1/2-z
-x,-y,-z
x,1/2-y,1/2+z
loop_
_atom_site_type_symbol
_atom_site_label
_atom_site_fract_x
_atom_site_fract_y
_atom_site_fract_z
Si Si1 0.670823 0.142675 0.892383
Si Si2 0.127289 0.832029 0.750465
Si Si3 0.153964 0.728877 0.081664
Si Si4 0.837676 0.695627 0.749499
Si Si5 0.810286 0.634960 0.917409
Si Si6 0.365787 0.279250 0.607944
O O1 0.742029 0.155502 0.866891
O O2 0.526903 0.239429 0.748714
O O3 0.643514 0.963178 0.885780
O O4 0.776256 0.222497 0.070492
O O5 0.178634 0.745759 0.711819
O O6 0.961362 0.796981 0.603917
O O7 0.141725 0.014937 0.750274
O O8 0.187452 0.551818 0.086532
O O9 0.991835 0.776529 0.896037
O O10 0.776826 0.711794 0.788080
O O11 0.729339 0.773718 0.571602
O O12 0.685010 0.684958 0.857030
#
# Coordination Sequence:
#
# PCOD8128646 Si02
#       6
#     4   4   4   4   4   4
#     4  11  22  35  50  75 107 139 169 205 251 302
#     4   8  17  34  57  78 100 131 169 207 254 307
#     4   9  17  35  59  79  97 128 171 214 253 299
#     4   8  17  34  57  78 100 131 169 207 254 307
#     4   9  17  35  59  79  97 128 171 214 253 299
#     4  11  22  35  50  75 107 139 169 205 251 302
#
# _framework density 19.822185999999999
#
# number of rings (size 3 to 8) (size 9 to 14) (size 15 to 20)
#    0.000    2.667    0.000    4.000    0.000    1.333 
#    0.000   15.000    0.000    0.000    0.000    0.000 
#    0.000    0.000    0.000    0.000    0.000    0.000 
#
# Total GULP energy -297575.994826 kJ/mol
# GULP energy per Si atom -12398.999784 kJ/mol
# Density = 1.977707 g / cm^3
# Si number density = 19.822186 Si / 1000 Ang^3
#
#
#
# Elastic Constant Matrix: (Units=GPa)
#
#
# Indices 1 2 3 4 5 6 
#
# 1 62.0525 -12.2718 26.9248 0.0000 -0.3230 0.0000
# 2 -12.2718 20.5251 6.3893 0.0000 -2.6389 0.0000
# 3 26.9248 6.3893 61.9628 0.0000 4.5212 0.0000
# 4 0.0000 0.0000 0.0000 23.8629 0.0000 2.7544
# 5 -0.3230 -2.6389 4.5212 0.0000 23.8763 0.0000
# 6 0.0000 0.0000 0.0000 2.7544 0.0000 33.4761
#
#
#
# Elastic Compliance Matrix: (Units=1/GPa)
#
#
# Indices 1 2 3 4 5 6 
#
# 1 0.026301 0.020750 -0.013955 0.000000 0.005292 0.000000
# 2 0.020750 0.067766 -0.016803 0.000000 0.010952 0.000000
# 3 -0.013955 -0.016803 0.024422 0.000000 -0.006670 0.000000
# 4 0.000000 0.000000 0.000000 0.042308 0.000000 -0.003481
# 5 0.005292 0.010952 -0.006670 0.000000 0.044428 0.000000
# 6 0.000000 0.000000 0.000000 -0.003481 0.000000 0.030159
#
#
# Mechanical properties :
#
#
# Convention : Reuss Voigt Hill
#
# Bulk Modulus (GPa) = 10.15507 20.73611 15.44559
# Shear Modulus (GPa) = 17.34763 24.47625 20.91194
#
# Velocity S-wave (km/s) = 2.96152 3.51777 3.25156
# Velocity P-wave (km/s) = 4.10224 5.19455 4.68037
#
# Compressibility (1/GPa) = 0.09847299
#
# Stress axis : x y z
#
# Youngs Moduli (GPa) = 38.02080 14.75667 40.94706
#
# Poissons Ratio (x) = -0.30620 0.57140
# Poissons Ratio (y) = -0.78892 0.68804
# Poissons Ratio (z) = 0.53056 0.24796
#
# Static dielectric constant tensor:
#      x y z
#    x 3.683250 0.000000 -0.197130 
#    y 0.000000 3.160370 0.000000 
#    z -0.197130 0.000000 4.010190 
# 
# 
# High freq. dielectric constant tensor:
#      x y z
#    x 1.782290 0.000000 -0.005270 
#    y 0.000000 1.739210 0.000000 
#    z -0.005270 0.000000 1.772160 
# 
# From -- ./inp_files/32233.got.cif
#   From: 2010.03.12/outbox.cif.g09.slc.cpg/sg14_17_cif.got.tgz:32233.got - 2010.03.31 13:35:05.
