data_PCOD8128144
_publ_section_title
;
Structure prediction by ZEFSAII (Michael W. Deem and Ramdas Pophale) SiO2 
 PCOD8128144
Probable space group: P 21/C
;
_chemical_formula_sum "Si O2"
_cell_formula_units_Z 32
_cell_length_a 16.369980
_cell_length_b 14.383771
_cell_length_c 15.466730
_cell_angle_alpha 90.000000
_cell_angle_beta 155.687420
_cell_angle_gamma 90.000000
_cell_volume 1499.393183
_symmetry_space_group_name_H-M "P 21/C"
_symmetry_group_IT_number 14
_symmetry_cell_setting 'monoclinic'
loop_
_space_group_symop_operation_xyz
x,y,z
-x,1/2+y,1/2-z
-x,-y,-z
x,1/2-y,1/2+z
loop_
_atom_site_type_symbol
_atom_site_label
_atom_site_fract_x
_atom_site_fract_y
_atom_site_fract_z
Si Si1 0.200716 0.323410 0.415671
Si Si2 0.966791 0.555118 0.380687
Si Si3 0.408389 0.350468 0.047205
Si Si4 0.857429 0.384901 0.187550
Si Si5 0.480383 0.977367 0.735289
Si Si6 0.764536 0.189514 0.782592
Si Si7 0.319802 0.480812 0.261533
Si Si8 0.011722 0.136955 0.549650
O O1 0.326664 0.227520 0.535628
O O2 0.324997 0.415416 0.560591
O O3 0.096609 0.338643 0.224340
O O4 0.019959 0.311063 0.310323
O O5 0.975486 0.483365 0.309617
O O6 0.000000 0.500000 0.500000
O O7 0.139886 0.630565 0.546332
O O8 0.759174 0.609438 0.177558
O O9 0.510092 0.438352 0.195052
O O10 0.547470 0.294933 0.113128
O O11 0.756417 0.359830 0.181586
O O12 0.682084 0.401143 0.950448
O O13 0.412004 0.029297 0.755958
O O14 0.894894 0.279750 0.891967
O O15 0.500000 0.500000 0.500000
O O16 0.201907 0.387262 0.173563
O O17 0.153278 0.558801 0.102385
#
# Coordination Sequence:
#
# PCOD8128144 Si02
#       8
#     4   4   4   4   4   4   4   4
#     4  12  23  44  67  97 139 178 227 289 341 403
#     4   9  20  41  68  94 131 173 219 273 341 405
#     4  11  25  40  70 101 138 182 228 283 348 414
#     4  10  24  41  67  96 136 174 220 282 341 402
#     4  11  24  45  66 102 139 176 230 285 345 401
#     4  11  23  43  66 100 132 177 227 274 339 414
#     4  11  23  44  67  93 130 179 222 279 340 404
#     4  11  24  41  68  93 129 179 229 273 340 406
#
# _framework density 21.341967
#
# number of rings (size 3 to 8) (size 9 to 14) (size 15 to 20)
#    0.000    1.250    3.750    1.500    1.750    6.500 
#    2.250    0.000    0.000    0.000    0.000    0.000 
#    0.000    0.000    0.000    0.000    0.000    0.000 
#
# Total GULP energy -396519.437382 kJ/mol
# GULP energy per Si atom -12391.232418 kJ/mol
# Density = 2.129339 g / cm^3
# Si number density = 21.341967 Si / 1000 Ang^3
#
#
#
# Elastic Constant Matrix: (Units=GPa)
#
#
# Indices 1 2 3 4 5 6 
#
# 1 113.3277 26.3995 40.0101 0.0000 13.1432 0.0000
# 2 26.3995 88.6829 29.5084 0.0000 11.3509 0.0000
# 3 40.0101 29.5084 73.5691 0.0000 -3.8758 0.0000
# 4 0.0000 0.0000 0.0000 39.9384 0.0000 6.3090
# 5 13.1432 11.3509 -3.8758 0.0000 32.4746 0.0000
# 6 0.0000 0.0000 0.0000 6.3090 0.0000 24.7677
#
#
#
# Elastic Compliance Matrix: (Units=1/GPa)
#
#
# Indices 1 2 3 4 5 6 
#
# 1 0.011889 -0.000705 -0.006464 0.000000 -0.005337 0.000000
# 2 -0.000705 0.013992 -0.005506 0.000000 -0.005262 0.000000
# 3 -0.006464 -0.005506 0.019679 0.000000 0.006889 0.000000
# 4 0.000000 0.000000 0.000000 0.026088 0.000000 -0.006645
# 5 -0.005337 -0.005262 0.006889 0.000000 0.035615 0.000000
# 6 0.000000 0.000000 0.000000 -0.006645 0.000000 0.042068
#
#
# Mechanical properties :
#
#
# Convention : Reuss Voigt Hill
#
# Bulk Modulus (GPa) = 49.48030 51.93508 50.70769
# Shear Modulus (GPa) = 27.56058 31.41358 29.48708
#
# Velocity S-wave (km/s) = 3.59748 3.84072 3.72108
# Velocity P-wave (km/s) = 6.36322 6.63745 6.50178
#
# Compressibility (1/GPa) = 0.02021006
#
# Stress axis : x y z
#
# Youngs Moduli (GPa) = 84.10864 71.47169 50.81444
#
# Poissons Ratio (x) = 0.05041 0.32848
# Poissons Ratio (y) = 0.05932 0.27977
# Poissons Ratio (z) = 0.54370 0.39350
#
# Static dielectric constant tensor:
#      x y z
#    x 2.085110 0.000000 -0.837700 
#    y 0.000000 4.189140 0.000000 
#    z -0.837700 0.000000 3.787750 
# 
# 
# High freq. dielectric constant tensor:
#      x y z
#    x 1.826610 0.000000 0.001020 
#    y 0.000000 1.836070 0.000000 
#    z 0.001020 0.000000 1.853810 
# 
# From -- ./inp_files/47436.got.cif
#   From: 2010.03.12/outbox.cif.g09.slc.cpg/sg14_24_cif.got.tgz:47436.got - 2010.03.31 13:35:05.
