data_PCOD8128314
_publ_section_title
;
Structure prediction by ZEFSAII (Michael W. Deem and Ramdas Pophale) SiO2 
 PCOD8128314
Probable space group: P 21/C
;
_chemical_formula_sum "Si O2"
_cell_formula_units_Z 32
_cell_length_a 14.659032
_cell_length_b 14.664059
_cell_length_c 9.098962
_cell_angle_alpha 90.000000
_cell_angle_beta 125.995055
_cell_angle_gamma 90.000000
_cell_volume 1582.472670
_symmetry_space_group_name_H-M "P 21/C"
_symmetry_group_IT_number 14
_symmetry_cell_setting 'monoclinic'
loop_
_space_group_symop_operation_xyz
x,y,z
-x,1/2+y,1/2-z
-x,-y,-z
x,1/2-y,1/2+z
loop_
_atom_site_type_symbol
_atom_site_label
_atom_site_fract_x
_atom_site_fract_y
_atom_site_fract_z
Si Si1 0.129448 0.189180 0.014593
Si Si2 0.844800 0.015368 0.425665
Si Si3 0.588773 0.061291 0.169485
Si Si4 0.787451 0.553892 0.167664
Si Si5 0.656308 0.722592 0.928577
Si Si6 0.037304 0.144226 0.619134
Si Si7 0.498784 0.738375 0.524989
Si Si8 0.585373 0.433639 0.004501
O O1 0.144221 0.101709 0.135609
O O2 0.250681 0.215443 0.063110
O O3 0.072393 0.269346 0.054790
O O4 0.048085 0.166237 0.802237
O O5 0.713518 0.023446 0.269903
O O6 0.908606 0.112529 0.465321
O O7 0.870878 0.981160 0.617889
O O8 0.885183 0.942003 0.345275
O O9 0.590218 0.162528 0.105599
O O10 0.552632 0.066595 0.303468
O O11 0.500000 0.000000 0.000000
O O12 0.702665 0.622731 0.005502
O O13 0.713198 0.468492 0.156014
O O14 0.540819 0.716363 0.728219
O O15 0.615888 0.766974 0.043074
O O16 0.431680 0.833036 0.446469
O O17 0.500000 0.500000 0.000000
#
# Coordination Sequence:
#
# PCOD8128314 Si02
#       8
#     4   4   4   4   4   4   4   4
#     4  12  22  39  69  98 120 167 218 270 327 376
#     4  10  24  46  63  93 131 166 214 269 324 384
#     4  11  26  41  66  94 131 177 215 258 328 389
#     4  11  22  39  64  91 128 164 216 277 314 383
#     4  12  20  36  62  95 129 161 224 261 313 380
#     4  11  23  43  70  93 127 163 215 273 321 382
#     4  12  23  38  59  93 133 177 211 263 325 386
#     4  11  22  39  58  90 130 170 210 266 316 380
#
# _framework density 20.221518
#
# number of rings (size 3 to 8) (size 9 to 14) (size 15 to 20)
#    0.000    0.750    6.250    1.500    1.750    0.500 
#    4.500    0.000    0.000    0.000    0.000    0.000 
#    0.000    0.000    0.000    0.000    0.000    0.000 
#
# Total GULP energy -396793.621562 kJ/mol
# GULP energy per Si atom -12399.800674 kJ/mol
# Density = 2.017549 g / cm^3
# Si number density = 20.221518 Si / 1000 Ang^3
#
#
#
# Elastic Constant Matrix: (Units=GPa)
#
#
# Indices 1 2 3 4 5 6 
#
# 1 72.1927 30.8723 37.2636 0.0000 -0.7793 0.0000
# 2 30.8723 116.6766 57.6172 0.0000 -2.9651 0.0000
# 3 37.2636 57.6172 104.1302 0.0000 -1.4151 0.0000
# 4 0.0000 0.0000 0.0000 37.1072 0.0000 1.4357
# 5 -0.7793 -2.9651 -1.4151 0.0000 24.3587 0.0000
# 6 0.0000 0.0000 0.0000 1.4357 0.0000 25.5730
#
#
#
# Elastic Compliance Matrix: (Units=1/GPa)
#
#
# Indices 1 2 3 4 5 6 
#
# 1 0.017356 -0.002099 -0.005050 0.000000 0.000006 0.000000
# 2 -0.002099 0.012074 -0.005915 0.000000 0.001059 0.000000
# 3 -0.005050 -0.005915 0.014683 0.000000 -0.000029 0.000000
# 4 0.000000 0.000000 0.000000 0.027008 0.000000 -0.001516
# 5 0.000006 0.001059 -0.000029 0.000000 0.041181 0.000000
# 6 0.000000 0.000000 0.000000 -0.001516 0.000000 0.039189
#
#
# Mechanical properties :
#
#
# Convention : Reuss Voigt Hill
#
# Bulk Modulus (GPa) = 55.59950 60.50064 58.05007
# Shear Modulus (GPa) = 27.23129 28.55755 27.89442
#
# Velocity S-wave (km/s) = 3.67365 3.76205 3.71811
# Velocity P-wave (km/s) = 6.74902 6.98961 6.87036
#
# Compressibility (1/GPa) = 0.01798577
#
# Stress axis : x y z
#
# Youngs Moduli (GPa) = 57.61774 82.82244 68.10536
#
# Poissons Ratio (x) = 0.17380 0.34391
# Poissons Ratio (y) = 0.12091 0.40287
# Poissons Ratio (z) = 0.29095 0.48993
#
# Static dielectric constant tensor:
#      x y z
#    x 3.775960 0.000000 -0.208400 
#    y 0.000000 3.931840 0.000000 
#    z -0.208400 0.000000 3.522040 
# 
# 
# High freq. dielectric constant tensor:
#      x y z
#    x 1.789290 0.000000 -0.021810 
#    y 0.000000 1.795020 0.000000 
#    z -0.021810 0.000000 1.783600 
# 
# From -- ./inp_files/16254.got.cif
#   From: 2010.03.12/outbox.cif.g09.slc.cpg/sg14_9_cif.got.tgz:16254.got - 2010.03.31 13:35:05.
