data_PCOD8128085
_publ_section_title
;
Structure prediction by ZEFSAII (Michael W. Deem and Ramdas Pophale) SiO2 
 PCOD8128085
Probable space group: P 21/C
;
_chemical_formula_sum "Si O2"
_cell_formula_units_Z 20
_cell_length_a 5.534490
_cell_length_b 10.365713
_cell_length_c 14.319919
_cell_angle_alpha 90.000000
_cell_angle_beta 101.939816
_cell_angle_gamma 90.000000
_cell_volume 803.745321
_symmetry_space_group_name_H-M "P 21/C"
_symmetry_group_IT_number 14
_symmetry_cell_setting 'monoclinic'
loop_
_space_group_symop_operation_xyz
x,y,z
-x,1/2+y,1/2-z
-x,-y,-z
x,1/2-y,1/2+z
loop_
_atom_site_type_symbol
_atom_site_label
_atom_site_fract_x
_atom_site_fract_y
_atom_site_fract_z
Si Si1 0.729015 0.448092 0.457809
Si Si2 0.378700 0.405497 0.101323
Si Si3 0.182117 0.246008 0.754905
Si Si4 0.178607 0.529568 0.735970
Si Si5 0.417180 0.680246 0.069811
O O1 0.500000 0.500000 0.500000
O O2 0.657796 0.481276 0.344985
O O3 0.762387 0.294471 0.476881
O O4 0.000000 0.500000 0.500000
O O5 0.221450 0.311813 0.154216
O O6 0.655225 0.429259 0.163043
O O7 0.262591 0.550672 0.083635
O O8 0.391526 0.345987 0.999380
O O9 0.052625 0.387676 0.740389
O O10 0.440273 0.266284 0.827918
O O11 0.022886 0.141063 0.798406
#
# Coordination Sequence:
#
# PCOD8128085 Si02
#       5
#     4   4   4   4   4
#     4  12  26  45  74 109 152 195 254 316 380 452
#     4  10  23  47  72 102 149 200 253 317 386 466
#     4  11  24  45  70 106 148 195 257 312 385 455
#     4  11  26  42  73 105 146 200 250 320 381 462
#     4  10  23  47  73 106 147 198 257 312 391 458
#
# _framework density 24.883507999999999
#
# number of rings (size 3 to 8) (size 9 to 14) (size 15 to 20)
#    0.000    1.200    2.000    2.400    5.600    0.000 
#    0.000    3.000    0.000    0.000    0.000    0.000 
#    0.000    0.000    0.000    0.000    0.000    0.000 
#
# Total GULP energy -247897.635215 kJ/mol
# GULP energy per Si atom -12394.881761 kJ/mol
# Density = 2.482687 g / cm^3
# Si number density = 24.883508 Si / 1000 Ang^3
#
#
#
# Elastic Constant Matrix: (Units=GPa)
#
#
# Indices 1 2 3 4 5 6 
#
# 1 71.2478 43.6547 5.5684 0.0000 -11.0932 0.0000
# 2 43.6547 213.6502 20.8502 0.0000 -1.9358 0.0000
# 3 5.5684 20.8502 94.2953 0.0000 -25.8890 0.0000
# 4 0.0000 0.0000 0.0000 44.2427 0.0000 -0.3429
# 5 -11.0932 -1.9358 -25.8890 0.0000 28.5273 0.0000
# 6 0.0000 0.0000 0.0000 -0.3429 0.0000 37.6602
#
#
#
# Elastic Compliance Matrix: (Units=1/GPa)
#
#
# Indices 1 2 3 4 5 6 
#
# 1 0.017449 -0.003694 0.002105 0.000000 0.008445 0.000000
# 2 -0.003694 0.005581 -0.001740 0.000000 -0.002637 0.000000
# 3 0.002105 -0.001740 0.014727 0.000000 0.014066 0.000000
# 4 0.000000 0.000000 0.000000 0.022604 0.000000 0.000206
# 5 0.008445 -0.002637 0.014066 0.000000 0.050924 0.000000
# 6 0.000000 0.000000 0.000000 0.000206 0.000000 0.026555
#
#
# Mechanical properties :
#
#
# Convention : Reuss Voigt Hill
#
# Bulk Modulus (GPa) = 32.15479 57.70444 44.92962
# Shear Modulus (GPa) = 32.28598 42.69405 37.49002
#
# Velocity S-wave (km/s) = 3.60597 4.14666 3.88573
# Velocity P-wave (km/s) = 5.50341 6.79460 6.18280
#
# Compressibility (1/GPa) = 0.03109956
#
# Stress axis : x y z
#
# Youngs Moduli (GPa) = 57.30828 179.16940 67.90188
#
# Poissons Ratio (x) = 0.66191 -0.14294
# Poissons Ratio (y) = 0.21172 0.11814
# Poissons Ratio (z) = -0.12064 0.31174
#
# Static dielectric constant tensor:
#      x y z
#    x 3.782960 0.000000 -0.152080 
#    y 0.000000 5.248450 0.000000 
#    z -0.152080 0.000000 4.661950 
# 
# 
# High freq. dielectric constant tensor:
#      x y z
#    x 1.943170 0.000000 -0.012470 
#    y 0.000000 2.025190 0.000000 
#    z -0.012470 0.000000 2.005680 
# 
# From -- ./inp_files/36911.got.cif
#   From: 2010.03.12/outbox.cif.g09.slc.cpg/sg14_19_cif.got.tgz:36911.got - 2010.03.31 13:35:05.
