data_PCOD8128182
_publ_section_title
;
Structure prediction by ZEFSAII (Michael W. Deem and Ramdas Pophale) SiO2 
 PCOD8128182
Probable space group: P 21/C
;
_chemical_formula_sum "Si O2"
_cell_formula_units_Z 28
_cell_length_a 7.055789
_cell_length_b 28.267318
_cell_length_c 9.304615
_cell_angle_alpha 90.000000
_cell_angle_beta 133.222827
_cell_angle_gamma 90.000000
_cell_volume 1352.305731
_symmetry_space_group_name_H-M "P 21/C"
_symmetry_group_IT_number 14
_symmetry_cell_setting 'monoclinic'
loop_
_space_group_symop_operation_xyz
x,y,z
-x,1/2+y,1/2-z
-x,-y,-z
x,1/2-y,1/2+z
loop_
_atom_site_type_symbol
_atom_site_label
_atom_site_fract_x
_atom_site_fract_y
_atom_site_fract_z
Si Si1 0.281153 0.810305 0.021541
Si Si2 0.298849 0.313052 0.779398
Si Si3 0.490330 0.745759 0.369407
Si Si4 0.042714 0.970535 0.882650
Si Si5 0.001093 0.039741 0.617520
Si Si6 0.505553 0.906060 0.209738
Si Si7 0.481842 0.087142 0.448171
O O1 0.299840 0.774527 0.165455
O O2 0.487886 0.851888 0.150721
O O3 0.321755 0.786247 0.888320
O O4 0.994378 0.831886 0.871575
O O5 0.338085 0.286555 0.647949
O O6 0.475978 0.359715 0.881919
O O7 0.337130 0.279502 0.938529
O O8 0.786508 0.940775 0.710562
O O9 0.106361 0.013123 0.809893
O O10 0.293006 0.936912 0.015670
O O11 0.000000 0.000000 0.000000
O O12 0.200709 0.080806 0.678232
O O13 0.712364 0.060659 0.484927
O O14 0.000000 0.000000 0.500000
O O15 0.449303 0.911040 0.348772
#
# Coordination Sequence:
#
# PCOD8128182 Si02
#       7
#     4   4   4   4   4   4   4
#     4  11  23  44  68 100 134 174 223 270 336 396
#     4  11  23  44  69  98 137 173 221 273 337 391
#     4  10  24  42  68 101 132 174 219 274 332 401
#     4  12  24  45  72  93 134 178 222 277 338 394
#     4  12  26  45  70  99 136 176 228 278 336 396
#     4  12  25  44  69 100 137 176 224 281 333 400
#     4  12  25  45  68 100 140 174 219 288 331 394
#
# _framework density 20.705378
#
# number of rings (size 3 to 8) (size 9 to 14) (size 15 to 20)
#    0.000    0.571    5.714    2.571    0.000    4.571 
#   10.286    0.000    0.000    0.000    0.000    0.000 
#    0.000    0.000    0.000    0.000    0.000    0.000 
#
# Total GULP energy -347196.303603 kJ/mol
# GULP energy per Si atom -12399.867986 kJ/mol
# Density = 2.065825 g / cm^3
# Si number density = 20.705378 Si / 1000 Ang^3
#
#
#
# Elastic Constant Matrix: (Units=GPa)
#
#
# Indices 1 2 3 4 5 6 
#
# 1 108.6498 48.0410 49.8982 0.0000 -3.6142 0.0000
# 2 48.0410 123.3647 39.6373 0.0000 -8.1054 0.0000
# 3 49.8982 39.6373 92.0480 0.0000 -11.8559 0.0000
# 4 0.0000 0.0000 0.0000 31.1628 0.0000 7.1245
# 5 -3.6142 -8.1054 -11.8559 0.0000 47.5303 0.0000
# 6 0.0000 0.0000 0.0000 7.1245 0.0000 33.8010
#
#
#
# Elastic Compliance Matrix: (Units=1/GPa)
#
#
# Indices 1 2 3 4 5 6 
#
# 1 0.013389 -0.003374 -0.005939 0.000000 -0.001039 0.000000
# 2 -0.003374 0.010275 -0.002483 0.000000 0.000876 0.000000
# 3 -0.005939 -0.002483 0.015539 0.000000 0.003001 0.000000
# 4 0.000000 0.000000 0.000000 0.033714 0.000000 -0.007106
# 5 -0.001039 0.000876 0.003001 0.000000 0.021858 0.000000
# 6 0.000000 0.000000 0.000000 -0.007106 0.000000 0.031083
#
#
# Mechanical properties :
#
#
# Convention : Reuss Voigt Hill
#
# Bulk Modulus (GPa) = 64.05429 66.57952 65.31690
# Shear Modulus (GPa) = 32.33051 34.93123 33.63087
#
# Velocity S-wave (km/s) = 3.95581 4.11184 4.03458
# Velocity P-wave (km/s) = 7.20193 7.40057 7.30193
#
# Compressibility (1/GPa) = 0.01561176
#
# Stress axis : x y z
#
# Youngs Moduli (GPa) = 74.69067 97.32124 64.35469
#
# Poissons Ratio (x) = 0.32835 0.38218
# Poissons Ratio (y) = 0.25200 0.15978
# Poissons Ratio (z) = 0.44357 0.24163
#
# Static dielectric constant tensor:
#      x y z
#    x 3.649640 0.000000 -0.031010 
#    y 0.000000 3.882660 0.000000 
#    z -0.031010 0.000000 4.090100 
# 
# 
# High freq. dielectric constant tensor:
#      x y z
#    x 1.810610 0.000000 -0.007710 
#    y 0.000000 1.825420 0.000000 
#    z -0.007710 0.000000 1.825030 
# 
# From -- ./inp_files/6894.got.cif
#   From: 2010.03.12/outbox.cif.g09.slc.cpg/sg14_4_cif.got.tgz:6894.got - 2010.03.31 13:35:05.
