data_PCOD8128042
_publ_section_title
;
Structure prediction by ZEFSAII (Michael W. Deem and Ramdas Pophale) SiO2 
 PCOD8128042
Probable space group: P 21/C
;
_chemical_formula_sum "Si O2"
_cell_formula_units_Z 28
_cell_length_a 20.483832
_cell_length_b 9.227092
_cell_length_c 13.967486
_cell_angle_alpha 90.000000
_cell_angle_beta 30.242798
_cell_angle_gamma 90.000000
_cell_volume 1329.647158
_symmetry_space_group_name_H-M "P 21/C"
_symmetry_group_IT_number 14
_symmetry_cell_setting 'monoclinic'
loop_
_space_group_symop_operation_xyz
x,y,z
-x,1/2+y,1/2-z
-x,-y,-z
x,1/2-y,1/2+z
loop_
_atom_site_type_symbol
_atom_site_label
_atom_site_fract_x
_atom_site_fract_y
_atom_site_fract_z
Si Si1 0.246808 0.241544 0.567733
Si Si2 0.652600 0.973272 0.206980
Si Si3 0.858743 0.199346 0.963643
Si Si4 0.639649 0.544591 0.939585
Si Si5 0.110192 0.463613 0.095806
Si Si6 0.061614 0.359515 0.963294
Si Si7 0.892060 0.376701 0.635142
O O1 0.285544 0.373635 0.452135
O O2 0.365871 0.182975 0.482194
O O3 0.195458 0.110606 0.568386
O O4 0.138739 0.284202 0.780429
O O5 0.679112 0.911029 0.280591
O O6 0.499775 0.971133 0.382069
O O7 0.715867 0.134109 0.119900
O O8 0.874778 0.364248 0.907397
O O9 0.960059 0.083996 0.791526
O O10 0.881293 0.204013 0.047830
O O11 0.750170 0.437140 0.842302
O O12 0.153599 0.404634 0.936013
O O13 0.000000 0.500000 0.000000
O O14 0.945245 0.247147 0.141253
O O15 0.000000 0.500000 0.500000
#
# Coordination Sequence:
#
# PCOD8128042 Si02
#       7
#     4   4   4   4   4   4   4
#     4  12  24  43  64 100 130 171 219 276 329 391
#     4  10  24  46  69  91 134 179 223 270 322 400
#     4  11  23  40  61  95 130 171 217 271 330 392
#     4  10  23  45  70  92 130 178 226 263 330 397
#     4  12  24  38  65  98 136 166 219 279 335 393
#     4  12  23  40  61  99 134 164 208 277 336 387
#     4  11  21  40  66  92 123 167 217 263 331 393
#
# _framework density 21.058218
#
# number of rings (size 3 to 8) (size 9 to 14) (size 15 to 20)
#    0.000    0.857    4.286    2.571    6.000    1.143 
#    2.571    0.000    0.000    5.143    0.000    0.000 
#    0.000    0.000    0.000    0.000    0.000    0.000 
#
# Total GULP energy -347008.779119 kJ/mol
# GULP energy per Si atom -12393.170683 kJ/mol
# Density = 2.101029 g / cm^3
# Si number density = 21.058218 Si / 1000 Ang^3
#
#
#
# Elastic Constant Matrix: (Units=GPa)
#
#
# Indices 1 2 3 4 5 6 
#
# 1 124.2498 66.2082 43.5421 0.0000 4.3785 0.0000
# 2 66.2082 145.1159 47.3009 0.0000 -1.3185 0.0000
# 3 43.5421 47.3009 77.6256 0.0000 -11.9711 0.0000
# 4 0.0000 0.0000 0.0000 23.2012 0.0000 5.1310
# 5 4.3785 -1.3185 -11.9711 0.0000 36.2007 0.0000
# 6 0.0000 0.0000 0.0000 5.1310 0.0000 39.1479
#
#
#
# Elastic Compliance Matrix: (Units=1/GPa)
#
#
# Indices 1 2 3 4 5 6 
#
# 1 0.011922 -0.003904 -0.004797 0.000000 -0.003170 0.000000
# 2 -0.003904 0.009955 -0.003949 0.000000 -0.000471 0.000000
# 3 -0.004797 -0.003949 0.019016 0.000000 0.006725 0.000000
# 4 0.000000 0.000000 0.000000 0.044388 0.000000 -0.005818
# 5 -0.003170 -0.000471 0.006725 0.000000 0.030214 0.000000
# 6 0.000000 0.000000 0.000000 -0.005818 0.000000 0.026307
#
#
# Mechanical properties :
#
#
# Convention : Reuss Voigt Hill
#
# Bulk Modulus (GPa) = 64.13137 73.45485 68.79311
# Shear Modulus (GPa) = 29.01930 32.37263 30.69597
#
# Velocity S-wave (km/s) = 3.71624 3.92509 3.82209
# Velocity P-wave (km/s) = 6.99531 7.44978 7.22612
#
# Compressibility (1/GPa) = 0.01559299
#
# Stress axis : x y z
#
# Youngs Moduli (GPa) = 83.88172 100.44980 52.58658
#
# Poissons Ratio (x) = 0.39219 0.25225
# Poissons Ratio (y) = 0.32751 0.20765
# Poissons Ratio (z) = 0.40237 0.39665
#
# Static dielectric constant tensor:
#      x y z
#    x 4.094720 0.000000 -0.004270 
#    y 0.000000 5.338040 0.000000 
#    z -0.004270 0.000000 3.519800 
# 
# 
# High freq. dielectric constant tensor:
#      x y z
#    x 1.849760 0.000000 0.013080 
#    y 0.000000 1.827400 0.000000 
#    z 0.013080 0.000000 1.800960 
# 
# From -- ./inp_files/50212.got.cif
#   From: 2010.03.12/outbox.cif.g09.slc.cpg/sg14_26_cif.got.tgz:50212.got - 2010.03.31 13:35:05.
