data_PCOD8128765
_publ_section_title
;
Structure prediction by ZEFSAII (Michael W. Deem and Ramdas Pophale) SiO2 
 PCOD8128765
Probable space group: P 21/C
;
_chemical_formula_sum "Si O2"
_cell_formula_units_Z 32
_cell_length_a 24.107553
_cell_length_b 9.321360
_cell_length_c 13.781602
_cell_angle_alpha 90.000000
_cell_angle_beta 30.753150
_cell_angle_gamma 90.000000
_cell_volume 1583.587867
_symmetry_space_group_name_H-M "P 21/C"
_symmetry_group_IT_number 14
_symmetry_cell_setting 'monoclinic'
loop_
_space_group_symop_operation_xyz
x,y,z
-x,1/2+y,1/2-z
-x,-y,-z
x,1/2-y,1/2+z
loop_
_atom_site_type_symbol
_atom_site_label
_atom_site_fract_x
_atom_site_fract_y
_atom_site_fract_z
Si Si1 0.336341 0.011860 0.489946
Si Si2 0.495169 0.581528 0.107098
Si Si3 0.508978 0.585606 0.585881
Si Si4 0.313291 0.977265 0.031242
Si Si5 0.987097 0.642295 0.693122
Si Si6 0.184316 0.249416 0.696809
Si Si7 0.834528 0.283707 0.720002
Si Si8 0.991449 0.692221 0.382065
O O1 0.396286 0.939062 0.310089
O O2 0.223075 0.935541 0.681351
O O3 0.412190 0.007845 0.468951
O O4 0.302539 0.174233 0.515378
O O5 0.521361 0.746701 0.046684
O O6 0.380341 0.560214 0.333454
O O7 0.500000 0.500000 0.000000
O O8 0.500000 0.500000 0.500000
O O9 0.610470 0.532992 0.496948
O O10 0.214233 0.083063 0.153750
O O11 0.257450 0.834693 0.155457
O O12 0.093308 0.710622 0.484886
O O13 0.989440 0.469614 0.684074
O O14 0.881103 0.707046 0.800953
O O15 0.983558 0.692321 0.808785
O O16 0.118922 0.201733 0.890797
O O17 0.908840 0.256104 0.701847
#
# Coordination Sequence:
#
# PCOD8128765 Si02
#       8
#     4   4   4   4   4   4   4   4
#     4  11  22  45  66  86 130 171 210 259 312 382
#     4  11  26  42  64  97 129 164 213 264 317 378
#     4  11  26  42  64  97 129 164 213 264 317 378
#     4  11  26  43  66  96 126 171 214 259 318 378
#     4  11  25  42  65  95 129 168 208 268 312 374
#     4  11  23  45  66  89 129 171 210 257 318 375
#     4  11  23  45  66  89 129 171 210 257 318 375
#     4  11  25  42  65  97 129 164 216 258 318 376
#
# _framework density 20.207279
#
# number of rings (size 3 to 8) (size 9 to 14) (size 15 to 20)
#    0.000    1.000    5.000    0.750    7.000    5.000 
#    0.000    0.000    0.000    0.000    0.000    0.000 
#    0.000    0.000    0.000    0.000    0.000    0.000 
#
# Total GULP energy -396919.465558 kJ/mol
# GULP energy per Si atom -12403.733299 kJ/mol
# Density = 2.016129 g / cm^3
# Si number density = 20.207279 Si / 1000 Ang^3
#
#
#
# Elastic Constant Matrix: (Units=GPa)
#
#
# Indices 1 2 3 4 5 6 
#
# 1 97.4939 38.2401 44.4269 0.0000 15.7947 0.0000
# 2 38.2401 102.3822 30.2764 0.0000 9.4158 0.0000
# 3 44.4269 30.2764 79.1815 0.0000 -9.9884 0.0000
# 4 0.0000 0.0000 0.0000 43.7859 0.0000 -2.3802
# 5 15.7947 9.4158 -9.9884 0.0000 24.0023 0.0000
# 6 0.0000 0.0000 0.0000 -2.3802 0.0000 36.1857
#
#
#
# Elastic Compliance Matrix: (Units=1/GPa)
#
#
# Indices 1 2 3 4 5 6 
#
# 1 0.019417 -0.002056 -0.012262 0.000000 -0.017074 0.000000
# 2 -0.002056 0.012251 -0.004186 0.000000 -0.005195 0.000000
# 3 -0.012262 -0.004186 0.023572 0.000000 0.019521 0.000000
# 4 0.000000 0.000000 0.000000 0.022920 0.000000 0.001508
# 5 -0.017074 -0.005195 0.019521 0.000000 0.063060 0.000000
# 6 0.000000 0.000000 0.000000 0.001508 0.000000 0.027734
#
#
# Mechanical properties :
#
#
# Convention : Reuss Voigt Hill
#
# Bulk Modulus (GPa) = 54.84888 56.10493 55.47691
# Shear Modulus (GPa) = 23.58036 31.86907 27.72471
#
# Velocity S-wave (km/s) = 3.41973 3.97559 3.70809
# Velocity P-wave (km/s) = 6.54178 6.99276 6.77103
#
# Compressibility (1/GPa) = 0.01823191
#
# Stress axis : x y z
#
# Youngs Moduli (GPa) = 51.50033 81.62647 42.42261
#
# Poissons Ratio (x) = 0.16783 0.52020
# Poissons Ratio (y) = 0.10589 0.17758
# Poissons Ratio (z) = 0.63151 0.34170
#
# Static dielectric constant tensor:
#      x y z
#    x 3.390490 0.000000 -0.343610 
#    y 0.000000 3.744260 0.000000 
#    z -0.343610 0.000000 3.263220 
# 
# 
# High freq. dielectric constant tensor:
#      x y z
#    x 1.787900 0.000000 -0.006710 
#    y 0.000000 1.804390 0.000000 
#    z -0.006710 0.000000 1.798460 
# 
# From -- ./inp_files/51332.got.cif
#   From: 2010.03.12/outbox.cif.g09.slc.cpg/sg14_26_cif.got.tgz:51332.got - 2010.03.31 13:35:05.
