data_PCOD8128255
_publ_section_title
;
Structure prediction by ZEFSAII (Michael W. Deem and Ramdas Pophale) SiO2 
 PCOD8128255
Probable space group: P 21/C
;
_chemical_formula_sum "Si O2"
_cell_formula_units_Z 28
_cell_length_a 18.064441
_cell_length_b 8.870168
_cell_length_c 14.192092
_cell_angle_alpha 90.000000
_cell_angle_beta 37.226776
_cell_angle_gamma 90.000000
_cell_volume 1375.743772
_symmetry_space_group_name_H-M "P 21/C"
_symmetry_group_IT_number 14
_symmetry_cell_setting 'monoclinic'
loop_
_space_group_symop_operation_xyz
x,y,z
-x,1/2+y,1/2-z
-x,-y,-z
x,1/2-y,1/2+z
loop_
_atom_site_type_symbol
_atom_site_label
_atom_site_fract_x
_atom_site_fract_y
_atom_site_fract_z
Si Si1 0.616578 0.910970 0.419390
Si Si2 0.840456 0.503688 0.581018
Si Si3 0.388706 0.417049 0.664067
Si Si4 0.003659 0.749435 0.500161
Si Si5 0.556210 0.831480 0.686483
Si Si6 0.825408 0.998348 0.734963
Si Si7 0.671403 0.989302 0.076660
O O1 0.738818 0.000544 0.266484
O O2 0.615522 0.751990 0.368971
O O3 0.622795 0.894475 0.525798
O O4 0.500000 0.000000 0.500000
O O5 0.917664 0.349778 0.506697
O O6 0.779300 0.520830 0.541992
O O7 0.930809 0.644895 0.501178
O O8 0.500000 0.500000 0.500000
O O9 0.400640 0.422753 0.764783
O O10 0.258871 0.496219 0.773326
O O11 0.910627 0.850578 0.655311
O O12 0.091667 0.853499 0.347982
O O13 0.581434 0.654738 0.674198
O O14 0.410648 0.861644 0.822044
O O15 0.731111 0.998869 0.915092
#
# Coordination Sequence:
#
# PCOD8128255 Si02
#       7
#     4   4   4   4   4   4   4
#     4  12  23  40  66  96 135 170 212 274 339 400
#     4  11  23  44  65  96 129 177 220 278 320 401
#     4  12  23  40  66  96 135 170 212 274 339 400
#     4  10  24  44  66  86 132 180 226 270 330 370
#     4  12  22  40  64 102 134 174 206 271 345 407
#     4  11  23  44  65  96 129 177 220 278 320 401
#     4  12  24  40  68  96 136 168 224 263 341 405
#
# _framework density 20.352627999999999
#
# number of rings (size 3 to 8) (size 9 to 14) (size 15 to 20)
#    0.000    0.571    7.143    0.000    2.000    3.429 
#    0.000    5.714    0.000    0.000    0.000    0.000 
#    0.000    0.000    0.000    0.000    0.000    0.000 
#
# Total GULP energy -347279.708850 kJ/mol
# GULP energy per Si atom -12402.846745 kJ/mol
# Density = 2.030630 g / cm^3
# Si number density = 20.352628 Si / 1000 Ang^3
#
#
#
# Elastic Constant Matrix: (Units=GPa)
#
#
# Indices 1 2 3 4 5 6 
#
# 1 129.3064 36.3783 33.2890 0.0000 1.3849 0.0000
# 2 36.3783 87.0789 23.9845 0.0000 -19.3920 0.0000
# 3 33.2890 23.9845 68.9107 0.0000 -9.6522 0.0000
# 4 0.0000 0.0000 0.0000 26.4238 0.0000 -3.9990
# 5 1.3849 -19.3920 -9.6522 0.0000 45.5743 0.0000
# 6 0.0000 0.0000 0.0000 -3.9990 0.0000 26.8879
#
#
#
# Elastic Compliance Matrix: (Units=1/GPa)
#
#
# Indices 1 2 3 4 5 6 
#
# 1 0.009764 -0.003613 -0.003830 0.000000 -0.002645 0.000000
# 2 -0.003613 0.015051 -0.002659 0.000000 0.005951 0.000000
# 3 -0.003830 -0.002659 0.017669 0.000000 0.002727 0.000000
# 4 0.000000 0.000000 0.000000 0.038716 0.000000 0.005758
# 5 -0.002645 0.005951 0.002727 0.000000 0.025132 0.000000
# 6 0.000000 0.000000 0.000000 0.005758 0.000000 0.038048
#
#
# Mechanical properties :
#
#
# Convention : Reuss Voigt Hill
#
# Bulk Modulus (GPa) = 44.88475 52.51107 48.69791
# Shear Modulus (GPa) = 29.06758 32.55348 30.81053
#
# Velocity S-wave (km/s) = 3.78325 4.00368 3.89503
# Velocity P-wave (km/s) = 6.41758 6.87235 6.64886
#
# Compressibility (1/GPa) = 0.02227928
#
# Stress axis : x y z
#
# Youngs Moduli (GPa) = 102.41233 66.44012 56.59562
#
# Poissons Ratio (x) = 0.24008 0.21675
# Poissons Ratio (y) = 0.37006 0.15052
# Poissons Ratio (z) = 0.39222 0.17670
#
# Static dielectric constant tensor:
#      x y z
#    x 3.975110 0.000000 -0.230410 
#    y 0.000000 3.861560 0.000000 
#    z -0.230410 0.000000 3.935770 
# 
# 
# High freq. dielectric constant tensor:
#      x y z
#    x 1.802990 0.000000 -0.011050 
#    y 0.000000 1.800640 0.000000 
#    z -0.011050 0.000000 1.796990 
# 
# From -- ./inp_files/50200.got.cif
#   From: 2010.03.12/outbox.cif.g09.slc.cpg/sg14_26_cif.got.tgz:50200.got - 2010.03.31 13:35:05.
