data_PCOD8128361
_publ_section_title
;
Structure prediction by ZEFSAII (Michael W. Deem and Ramdas Pophale) SiO2 
 PCOD8128361
Probable space group: P 21/C
;
_chemical_formula_sum "Si O2"
_cell_formula_units_Z 28
_cell_length_a 7.426186
_cell_length_b 11.342145
_cell_length_c 21.279049
_cell_angle_alpha 90.000000
_cell_angle_beta 130.541394
_cell_angle_gamma 90.000000
_cell_volume 1362.042234
_symmetry_space_group_name_H-M "P 21/C"
_symmetry_group_IT_number 14
_symmetry_cell_setting 'monoclinic'
loop_
_space_group_symop_operation_xyz
x,y,z
-x,1/2+y,1/2-z
-x,-y,-z
x,1/2-y,1/2+z
loop_
_atom_site_type_symbol
_atom_site_label
_atom_site_fract_x
_atom_site_fract_y
_atom_site_fract_z
Si Si1 0.254236 0.038340 0.532962
Si Si2 0.240854 0.689816 0.667912
Si Si3 0.610302 0.383576 0.555584
Si Si4 0.471365 0.233851 0.148541
Si Si5 0.159835 0.077168 0.161738
Si Si6 0.252093 0.202022 0.426260
Si Si7 0.424776 0.343100 0.839933
O O1 0.356012 0.152032 0.591480
O O2 0.251237 0.071520 0.457964
O O3 0.419266 0.927136 0.580981
O O4 0.000000 0.000000 0.500000
O O5 0.323425 0.726299 0.756570
O O6 0.224461 0.551537 0.651298
O O7 0.418919 0.740674 0.655959
O O8 0.976665 0.735427 0.596125
O O9 0.500000 0.500000 0.500000
O O10 0.571717 0.362487 0.621608
O O11 0.495169 0.270750 0.496246
O O12 0.886525 0.392766 0.605446
O O13 0.258846 0.173001 0.136988
O O14 0.285122 0.082876 0.257284
O O15 0.231150 0.204870 0.345751
#
# Coordination Sequence:
#
# PCOD8128361 Si02
#       7
#     4   4   4   4   4   4   4
#     4  11  22  43  64  94 128 160 212 263 310 371
#     4  11  22  43  65  92 126 164 215 255 313 383
#     4  11  24  41  62  95 129 164 211 259 319 376
#     4  10  25  43  63  92 129 170 207 264 315 377
#     4  11  24  43  66  91 128 169 212 262 314 384
#     4  11  24  40  65  95 127 164 208 264 312 378
#     4  11  24  43  66  92 123 172 211 254 324 370
#
# _framework density 20.557365000000001
#
# number of rings (size 3 to 8) (size 9 to 14) (size 15 to 20)
#    0.000    1.143    4.286    1.286    4.000    0.571 
#    0.000    1.429    0.000    0.000    0.000    0.000 
#    0.000    0.000    0.000    0.000    0.000    0.000 
#
# Total GULP energy -347110.046060 kJ/mol
# GULP energy per Si atom -12396.787359 kJ/mol
# Density = 2.051058 g / cm^3
# Si number density = 20.557365 Si / 1000 Ang^3
#
#
#
# Elastic Constant Matrix: (Units=GPa)
#
#
# Indices 1 2 3 4 5 6 
#
# 1 105.6839 34.3141 35.8582 0.0000 2.0536 0.0000
# 2 34.3141 80.0643 13.6999 0.0000 1.6507 0.0000
# 3 35.8582 13.6999 55.2159 0.0000 0.3104 0.0000
# 4 0.0000 0.0000 0.0000 32.9472 0.0000 4.1483
# 5 2.0536 1.6507 0.3104 0.0000 44.6463 0.0000
# 6 0.0000 0.0000 0.0000 4.1483 0.0000 30.4755
#
#
#
# Elastic Compliance Matrix: (Units=1/GPa)
#
#
# Indices 1 2 3 4 5 6 
#
# 1 0.013526 -0.004476 -0.007671 0.000000 -0.000403 0.000000
# 2 -0.004476 0.014534 -0.000697 0.000000 -0.000327 0.000000
# 3 -0.007671 -0.000697 0.023264 0.000000 0.000217 0.000000
# 4 0.000000 0.000000 0.000000 0.030881 0.000000 -0.004204
# 5 -0.000403 -0.000327 0.000217 0.000000 0.022427 0.000000
# 6 0.000000 0.000000 0.000000 -0.004204 0.000000 0.033385
#
#
# Mechanical properties :
#
#
# Convention : Reuss Voigt Hill
#
# Bulk Modulus (GPa) = 39.00878 45.41204 42.21041
# Shear Modulus (GPa) = 29.02695 32.08659 30.55677
#
# Velocity S-wave (km/s) = 3.76173 3.95502 3.85959
# Velocity P-wave (km/s) = 6.15502 6.55703 6.35920
#
# Compressibility (1/GPa) = 0.02563526
#
# Stress axis : x y z
#
# Youngs Moduli (GPa) = 73.93056 68.80212 42.98402
#
# Poissons Ratio (x) = 0.30797 0.32974
# Poissons Ratio (y) = 0.33092 0.02998
# Poissons Ratio (z) = 0.56714 0.04799
#
# Static dielectric constant tensor:
#      x y z
#    x 4.047260 0.000000 -0.179160 
#    y 0.000000 4.179910 0.000000 
#    z -0.179160 0.000000 4.007660 
# 
# 
# High freq. dielectric constant tensor:
#      x y z
#    x 1.814420 0.000000 -0.000490 
#    y 0.000000 1.808060 0.000000 
#    z -0.000490 0.000000 1.814390 
# 
# From -- ./inp_files/63590.got.cif
#   From: 2010.03.12/outbox.cif.g09.slc.cpg/sg14_32_cif.got.tgz:63590.got - 2010.03.31 13:35:05.
