data_PCOD8128543
_publ_section_title
;
Structure prediction by ZEFSAII (Michael W. Deem and Ramdas Pophale) SiO2 
 PCOD8128543
Probable space group: P 21/C
;
_chemical_formula_sum "Si O2"
_cell_formula_units_Z 32
_cell_length_a 22.400157
_cell_length_b 14.039738
_cell_length_c 8.418079
_cell_angle_alpha 90.000000
_cell_angle_beta 149.602822
_cell_angle_gamma 90.000000
_cell_volume 1339.572110
_symmetry_space_group_name_H-M "P 21/C"
_symmetry_group_IT_number 14
_symmetry_cell_setting 'monoclinic'
loop_
_space_group_symop_operation_xyz
x,y,z
-x,1/2+y,1/2-z
-x,-y,-z
x,1/2-y,1/2+z
loop_
_atom_site_type_symbol
_atom_site_label
_atom_site_fract_x
_atom_site_fract_y
_atom_site_fract_z
Si Si1 0.279100 0.125628 0.718825
Si Si2 0.301981 0.957019 0.257326
Si Si3 0.796010 0.704237 0.291510
Si Si4 0.489418 0.816209 0.598921
Si Si5 0.073665 0.888172 0.871544
Si Si6 0.424945 0.360446 0.055119
Si Si7 0.949068 0.303817 0.025641
Si Si8 0.157008 0.985857 0.624318
O O1 0.252023 0.163102 0.482139
O O2 0.206127 0.180683 0.694028
O O3 0.228661 0.018456 0.630297
O O4 0.418460 0.134544 0.067796
O O5 0.359799 0.855571 0.342592
O O6 0.409714 0.026981 0.561588
O O7 0.201745 0.940518 0.161487
O O8 0.238902 0.008804 0.964165
O O9 0.924831 0.665295 0.616081
O O10 0.709140 0.677819 0.238477
O O11 0.521920 0.844261 0.495654
O O12 0.494445 0.700809 0.635378
O O13 0.053836 0.828266 0.665908
O O14 0.076601 0.808741 0.016986
O O15 0.972405 0.966292 0.661733
O O16 0.858271 0.371056 0.914106
#
# Coordination Sequence:
#
# PCOD8128543 Si02
#       8
#     4   4   4   4   4   4   4   4
#     4  11  22  37  63  97 128 165 222 265 330 379
#     4  11  24  45  68  95 135 180 218 269 331 410
#     4  11  21  38  64  96 133 165 216 282 316 380
#     4  11  24  41  70  97 130 173 224 272 329 384
#     4  11  24  44  67  99 134 179 222 265 336 397
#     4  11  22  42  68  96 126 177 222 271 322 393
#     4  11  23  40  65  96 134 175 215 271 338 389
#     4  11  23  41  69  97 130 177 223 261 332 404
#
# _framework density 23.888224000000001
#
# number of rings (size 3 to 8) (size 9 to 14) (size 15 to 20)
#    0.000    1.000    2.500    7.125    0.000    2.500 
#    2.250    2.500    0.000    0.000    0.000    0.000 
#    0.000    0.000    0.000    0.000    0.000    0.000 
#
# Total GULP energy -396504.054173 kJ/mol
# GULP energy per Si atom -12390.751693 kJ/mol
# Density = 2.383385 g / cm^3
# Si number density = 23.888224 Si / 1000 Ang^3
#
#
#
# Elastic Constant Matrix: (Units=GPa)
#
#
# Indices 1 2 3 4 5 6 
#
# 1 60.2647 6.5549 22.5033 0.0000 12.7408 0.0000
# 2 6.5549 96.7953 18.8732 0.0000 8.7020 0.0000
# 3 22.5033 18.8732 47.9641 0.0000 11.0772 0.0000
# 4 0.0000 0.0000 0.0000 40.4854 0.0000 5.9026
# 5 12.7408 8.7020 11.0772 0.0000 23.4270 0.0000
# 6 0.0000 0.0000 0.0000 5.9026 0.0000 33.9902
#
#
#
# Elastic Compliance Matrix: (Units=1/GPa)
#
#
# Indices 1 2 3 4 5 6 
#
# 1 0.021363 0.000934 -0.008562 0.000000 -0.007917 0.000000
# 2 0.000934 0.011345 -0.004279 0.000000 -0.002699 0.000000
# 3 -0.008562 -0.004279 0.028185 0.000000 -0.007081 0.000000
# 4 0.000000 0.000000 0.000000 0.025342 0.000000 -0.004401
# 5 -0.007917 -0.002699 -0.007081 0.000000 0.051342 0.000000
# 6 0.000000 0.000000 0.000000 -0.004401 0.000000 0.030184
#
#
# Mechanical properties :
#
#
# Convention : Reuss Voigt Hill
#
# Bulk Modulus (GPa) = 26.96933 33.43188 30.20060
# Shear Modulus (GPa) = 24.51774 30.05338 27.28556
#
# Velocity S-wave (km/s) = 3.20715 3.55080 3.38334
# Velocity P-wave (km/s) = 5.00287 5.55305 5.28513
#
# Compressibility (1/GPa) = 0.03707916
#
# Stress axis : x y z
#
# Youngs Moduli (GPa) = 46.81066 88.14626 35.47973
#
# Poissons Ratio (x) = -0.08237 0.30378
# Poissons Ratio (y) = -0.04374 0.15182
# Poissons Ratio (z) = 0.40080 0.37719
#
# Static dielectric constant tensor:
#      x y z
#    x 4.155940 0.000000 0.183550 
#    y 0.000000 4.744360 0.000000 
#    z 0.183550 0.000000 4.166250 
# 
# 
# High freq. dielectric constant tensor:
#      x y z
#    x 1.937030 0.000000 0.014210 
#    y 0.000000 1.954350 0.000000 
#    z 0.014210 0.000000 1.926350 
# 
# From -- ./inp_files/19530.got.cif
#   From: 2010.03.12/outbox.cif.g09.slc.cpg/sg14_10_cif.got.tgz:19530.got - 2010.03.31 13:35:05.
