data_PCOD8128653
_publ_section_title
;
Structure prediction by ZEFSAII (Michael W. Deem and Ramdas Pophale) SiO2 
 PCOD8128653
Probable space group: P 21/C
;
_chemical_formula_sum "Si O2"
_cell_formula_units_Z 24
_cell_length_a 6.350833
_cell_length_b 26.760024
_cell_length_c 7.901101
_cell_angle_alpha 90.000000
_cell_angle_beta 139.555558
_cell_angle_gamma 90.000000
_cell_volume 871.075232
_symmetry_space_group_name_H-M "P 21/C"
_symmetry_group_IT_number 14
_symmetry_cell_setting 'monoclinic'
loop_
_space_group_symop_operation_xyz
x,y,z
-x,1/2+y,1/2-z
-x,-y,-z
x,1/2-y,1/2+z
loop_
_atom_site_type_symbol
_atom_site_label
_atom_site_fract_x
_atom_site_fract_y
_atom_site_fract_z
Si Si1 0.498735 0.766290 0.522895
Si Si2 0.826418 0.098608 0.465153
Si Si3 0.056367 0.794220 0.528026
Si Si4 0.270016 0.459898 0.467602
Si Si5 0.850082 0.431100 0.533170
Si Si6 0.408244 0.127911 0.533575
O O1 0.394291 0.794244 0.629052
O O2 0.644051 0.810299 0.484650
O O3 0.769220 0.726712 0.737265
O O4 0.167256 0.739740 0.254131
O O5 0.007841 0.146023 0.481507
O O6 0.635033 0.118918 0.510558
O O7 0.086886 0.058216 0.687109
O O8 0.596293 0.072925 0.185636
O O9 0.334122 0.520282 0.496823
O O10 0.054968 0.451004 0.501296
O O11 0.083430 0.405217 0.813344
O O12 0.589880 0.390327 0.313173
#
# Coordination Sequence:
#
# PCOD8128653 Si02
#       6
#     4   4   4   4   4   4
#     4  11  22  37  56  79 110 145 182 223 268 317
#     4   9  17  28  43  66  98 133 165 206 260 309
#     4  11  22  37  56  79 110 145 182 223 268 317
#     4   9  15  24  40  64  96 131 163 199 254 319
#     4   9  15  24  40  64  96 131 163 199 254 319
#     4   9  17  28  43  66  98 133 165 206 260 309
#
# _framework density 27.552157999999999
#
# number of rings (size 3 to 8) (size 9 to 14) (size 15 to 20)
#    0.000    2.333    0.000    4.000    0.000    9.333 
#    0.000    0.000    0.000    0.000    0.000    0.000 
#    0.000   93.333    0.000    0.000    0.000    0.000 
#
# Total GULP energy -297748.932007 kJ/mol
# GULP energy per Si atom -12406.205500 kJ/mol
# Density = 2.748945 g / cm^3
# Si number density = 27.552158 Si / 1000 Ang^3
#
#
#
# Elastic Constant Matrix: (Units=GPa)
#
#
# Indices 1 2 3 4 5 6 
#
# 1 52.5817 39.2783 4.2289 0.0000 7.0614 0.0000
# 2 39.2783 224.1719 96.2286 0.0000 12.8216 0.0000
# 3 4.2289 96.2286 208.8468 0.0000 22.1861 0.0000
# 4 0.0000 0.0000 0.0000 43.9693 0.0000 13.6516
# 5 7.0614 12.8216 22.1861 0.0000 24.6182 0.0000
# 6 0.0000 0.0000 0.0000 13.6516 0.0000 59.3803
#
#
#
# Elastic Compliance Matrix: (Units=1/GPa)
#
#
# Indices 1 2 3 4 5 6 
#
# 1 0.023208 -0.004726 0.002381 0.000000 -0.006342 0.000000
# 2 -0.004726 0.006532 -0.002982 0.000000 0.000641 0.000000
# 3 0.002381 -0.002982 0.006659 0.000000 -0.005131 0.000000
# 4 0.000000 0.000000 0.000000 0.024491 0.000000 -0.005631
# 5 -0.006342 0.000641 -0.005131 0.000000 0.046730 0.000000
# 6 0.000000 0.000000 0.000000 -0.005631 0.000000 0.018135
#
#
# Mechanical properties :
#
#
# Convention : Reuss Voigt Hill
#
# Bulk Modulus (GPa) = 38.84084 85.00800 61.92442
# Shear Modulus (GPa) = 34.48463 48.65121 41.56792
#
# Velocity S-wave (km/s) = 3.54165 4.20668 3.88841
# Velocity P-wave (km/s) = 5.55448 7.38345 6.53328
#
# Compressibility (1/GPa) = 0.02574610
#
# Stress axis : x y z
#
# Youngs Moduli (GPa) = 43.08787 153.08202 150.16824
#
# Poissons Ratio (x) = 0.72346 -0.35759
# Poissons Ratio (y) = 0.20363 0.44785
# Poissons Ratio (z) = -0.10260 0.45654
#
# Static dielectric constant tensor:
#      x y z
#    x 5.796990 0.000000 -0.066210 
#    y 0.000000 5.326000 0.000000 
#    z -0.066210 0.000000 4.621960 
# 
# 
# High freq. dielectric constant tensor:
#      x y z
#    x 2.200640 0.000000 -0.006880 
#    y 0.000000 2.127980 0.000000 
#    z -0.006880 0.000000 2.096900 
# 
# From -- ./inp_files/6422.got.cif
#   From: 2010.03.12/outbox.cif.g09.slc.cpg/sg14_4_cif.got.tgz:6422.got - 2010.03.31 13:35:05.
