data_PCOD8128367
_publ_section_title
;
Structure prediction by ZEFSAII (Michael W. Deem and Ramdas Pophale) SiO2 
 PCOD8128367
Probable space group: P 21/C
;
_chemical_formula_sum "Si O2"
_cell_formula_units_Z 24
_cell_length_a 23.675012
_cell_length_b 5.394813
_cell_length_c 16.486798
_cell_angle_alpha 90.000000
_cell_angle_beta 152.488212
_cell_angle_gamma 90.000000
_cell_volume 972.702696
_symmetry_space_group_name_H-M "P 21/C"
_symmetry_group_IT_number 14
_symmetry_cell_setting 'monoclinic'
loop_
_space_group_symop_operation_xyz
x,y,z
-x,1/2+y,1/2-z
-x,-y,-z
x,1/2-y,1/2+z
loop_
_atom_site_type_symbol
_atom_site_label
_atom_site_fract_x
_atom_site_fract_y
_atom_site_fract_z
Si Si1 0.070572 0.953878 0.503389
Si Si2 0.199981 0.983252 0.862661
Si Si3 0.205092 0.031405 0.179497
Si Si4 0.607270 0.149890 0.466130
Si Si5 0.638457 0.873665 0.345938
Si Si6 0.193542 0.728900 0.015914
O O1 0.140861 0.207949 0.613751
O O2 0.127832 0.704651 0.616902
O O3 0.081576 0.911682 0.419143
O O4 0.927208 0.963730 0.348447
O O5 0.248520 0.220246 0.972700
O O6 0.303540 0.886978 0.933511
O O7 0.158936 0.783878 0.878856
O O8 0.330252 0.039626 0.390979
O O9 0.231249 0.974460 0.116826
O O10 0.474775 0.218145 0.334459
O O11 0.580416 0.033060 0.344660
O O12 0.688937 0.045882 0.337681
#
# Coordination Sequence:
#
# PCOD8128367 Si02
#       6
#     4   4   4   4   4   4
#     4  10  25  43  69 100 139 169 231 269 353 395
#     4  11  24  42  69  98 134 182 224 282 331 412
#     4  10  25  44  67 106 135 179 214 287 339 403
#     4  11  25  43  70  95 139 176 232 274 336 409
#     4  11  23  44  67 100 131 186 232 278 335 404
#     4   9  24  40  69 100 134 176 224 278 339 395
#
# _framework density 24.673522999999999
#
# number of rings (size 3 to 8) (size 9 to 14) (size 15 to 20)
#    1.000    0.667    1.667    1.000   11.667    2.000 
#    0.000    1.667    0.000    0.000    0.000    0.000 
#    0.000    0.000    0.000    0.000    0.000    0.000 
#
# Total GULP energy -297444.753026 kJ/mol
# GULP energy per Si atom -12393.531376 kJ/mol
# Density = 2.461736 g / cm^3
# Si number density = 24.673523 Si / 1000 Ang^3
#
#
#
# Elastic Constant Matrix: (Units=GPa)
#
#
# Indices 1 2 3 4 5 6 
#
# 1 45.1311 8.2841 7.2068 0.0000 3.3085 0.0000
# 2 8.2841 121.5003 29.3430 0.0000 11.6089 0.0000
# 3 7.2068 29.3430 130.6596 0.0000 11.9544 0.0000
# 4 0.0000 0.0000 0.0000 34.3861 0.0000 0.9952
# 5 3.3085 11.6089 11.9544 0.0000 31.6414 0.0000
# 6 0.0000 0.0000 0.0000 0.9952 0.0000 30.2385
#
#
#
# Elastic Compliance Matrix: (Units=1/GPa)
#
#
# Indices 1 2 3 4 5 6 
#
# 1 0.022627 -0.001187 -0.000834 0.000000 -0.001615 0.000000
# 2 -0.001187 0.008967 -0.001718 0.000000 -0.002517 0.000000
# 3 -0.000834 -0.001718 0.008307 0.000000 -0.002421 0.000000
# 4 0.000000 0.000000 0.000000 0.029109 0.000000 -0.000958
# 5 -0.001615 -0.002517 -0.002421 0.000000 0.033611 0.000000
# 6 0.000000 0.000000 0.000000 -0.000958 0.000000 0.033102
#
#
# Mechanical properties :
#
#
# Convention : Reuss Voigt Hill
#
# Bulk Modulus (GPa) = 30.84214 42.99542 36.91878
# Shear Modulus (GPa) = 32.46584 36.08367 34.27476
#
# Velocity S-wave (km/s) = 3.63135 3.82834 3.73115
# Velocity P-wave (km/s) = 5.48722 6.08319 5.79287
#
# Compressibility (1/GPa) = 0.03242317
#
# Stress axis : x y z
#
# Youngs Moduli (GPa) = 44.19478 111.52343 120.38376
#
# Poissons Ratio (x) = 0.13239 0.10036
# Poissons Ratio (y) = 0.05246 0.20682
# Poissons Ratio (z) = 0.03684 0.19159
#
# Static dielectric constant tensor:
#      x y z
#    x 4.510170 0.000000 -0.015690 
#    y 0.000000 4.376130 0.000000 
#    z -0.015690 0.000000 4.151200 
# 
# 
# High freq. dielectric constant tensor:
#      x y z
#    x 1.988440 0.000000 -0.001940 
#    y 0.000000 1.983240 0.000000 
#    z -0.001940 0.000000 1.965980 
# 
# From -- ./inp_files/70639.got.cif
#   From: 2010.03.12/outbox.cif.g09.slc.cpg/sg14_36_cif.got.tgz:70639.got - 2010.03.31 13:35:05.
