data_PCOD8128100
_publ_section_title
;
Structure prediction by ZEFSAII (Michael W. Deem and Ramdas Pophale) SiO2 
 PCOD8128100
Probable space group: P 21/C
;
_chemical_formula_sum "Si O2"
_cell_formula_units_Z 20
_cell_length_a 9.138544
_cell_length_b 13.645321
_cell_length_c 7.645747
_cell_angle_alpha 90.000000
_cell_angle_beta 133.054531
_cell_angle_gamma 90.000000
_cell_volume 696.662348
_symmetry_space_group_name_H-M "P 21/C"
_symmetry_group_IT_number 14
_symmetry_cell_setting 'monoclinic'
loop_
_space_group_symop_operation_xyz
x,y,z
-x,1/2+y,1/2-z
-x,-y,-z
x,1/2-y,1/2+z
loop_
_atom_site_type_symbol
_atom_site_label
_atom_site_fract_x
_atom_site_fract_y
_atom_site_fract_z
Si Si1 0.507737 0.649787 0.429228
Si Si2 0.954614 0.629235 0.791611
Si Si3 0.990313 0.908517 0.704986
Si Si4 0.235422 0.835546 0.213997
Si Si5 0.461129 0.461295 0.191447
O O1 0.740453 0.682095 0.603986
O O2 0.385311 0.747687 0.301654
O O3 0.449549 0.576756 0.222766
O O4 0.455588 0.598043 0.570357
O O5 0.907647 0.515740 0.706692
O O6 0.045923 0.640395 0.062494
O O7 0.116792 0.676567 0.796766
O O8 0.754245 0.920275 0.534664
O O9 0.069060 0.840013 0.924513
O O10 0.373576 0.935613 0.324630
#
# Coordination Sequence:
#
# PCOD8128100 Si02
#       5
#     4   4   4   4   4
#     4  10  24  51  79 117 173 217 269 352 417 490
#     4  10  23  50  84 121 164 216 277 345 419 496
#     4  10  23  49  85 119 163 214 269 352 424 483
#     4  12  25  51  83 123 162 219 285 337 413 509
#     4  10  24  51  78 119 170 215 270 346 426 494
#
# _framework density 28.708310999999998
#
# number of rings (size 3 to 8) (size 9 to 14) (size 15 to 20)
#    0.000    1.600    2.000    0.600    2.800    2.400 
#   10.800    2.000    0.000    0.000    0.000    0.000 
#    0.000    0.000    0.000    0.000    0.000    0.000 
#
# Total GULP energy -248239.433937 kJ/mol
# GULP energy per Si atom -12411.971697 kJ/mol
# Density = 2.864297 g / cm^3
# Si number density = 28.708311 Si / 1000 Ang^3
#
#
#
# Elastic Constant Matrix: (Units=GPa)
#
#
# Indices 1 2 3 4 5 6 
#
# 1 172.1522 40.5700 33.7868 0.0000 3.4986 0.0000
# 2 40.5700 122.3077 58.4752 0.0000 8.9496 0.0000
# 3 33.7868 58.4752 119.6619 0.0000 5.3627 0.0000
# 4 0.0000 0.0000 0.0000 58.1967 0.0000 8.5383
# 5 3.4986 8.9496 5.3627 0.0000 28.2229 0.0000
# 6 0.0000 0.0000 0.0000 8.5383 0.0000 23.6615
#
#
#
# Elastic Compliance Matrix: (Units=1/GPa)
#
#
# Indices 1 2 3 4 5 6 
#
# 1 0.006393 -0.001635 -0.001002 0.000000 -0.000083 0.000000
# 2 -0.001635 0.011252 -0.004928 0.000000 -0.002429 0.000000
# 3 -0.001002 -0.004928 0.011067 0.000000 -0.000416 0.000000
# 4 0.000000 0.000000 0.000000 0.018144 0.000000 -0.006547
# 5 -0.000083 -0.002429 -0.000416 0.000000 0.036292 0.000000
# 6 0.000000 0.000000 0.000000 -0.006547 0.000000 0.044625
#
#
# Mechanical properties :
#
#
# Convention : Reuss Voigt Hill
#
# Bulk Modulus (GPa) = 73.63401 75.53174 74.58288
# Shear Modulus (GPa) = 33.91432 40.76887 37.34160
#
# Velocity S-wave (km/s) = 3.44079 3.77252 3.61047
# Velocity P-wave (km/s) = 6.44128 6.73372 6.58913
#
# Compressibility (1/GPa) = 0.01358068
#
# Stress axis : x y z
#
# Youngs Moduli (GPa) = 156.43213 88.87009 90.36118
#
# Poissons Ratio (x) = 0.14532 0.09055
# Poissons Ratio (y) = 0.25580 0.44531
# Poissons Ratio (z) = 0.15677 0.43796
#
# Static dielectric constant tensor:
#      x y z
#    x 5.376920 0.000000 0.030030 
#    y 0.000000 5.156820 0.000000 
#    z 0.030030 0.000000 5.361630 
# 
# 
# High freq. dielectric constant tensor:
#      x y z
#    x 2.175390 0.000000 0.012370 
#    y 0.000000 2.167650 0.000000 
#    z 0.012370 0.000000 2.187880 
# 
# From -- ./inp_files/11992.got.cif
#   From: 2010.03.12/outbox.cif.g09.slc.cpg/sg14_6_cif.got.tgz:11992.got - 2010.03.31 13:35:05.
