data_PCOD8128520
_publ_section_title
;
Structure prediction by ZEFSAII (Michael W. Deem and Ramdas Pophale) SiO2 
 PCOD8128520
Probable space group: P 21/C
;
_chemical_formula_sum "Si O2"
_cell_formula_units_Z 32
_cell_length_a 16.747084
_cell_length_b 21.064223
_cell_length_c 16.633521
_cell_angle_alpha 90.000000
_cell_angle_beta 163.080328
_cell_angle_gamma 90.000000
_cell_volume 1707.684444
_symmetry_space_group_name_H-M "P 21/C"
_symmetry_group_IT_number 14
_symmetry_cell_setting 'monoclinic'
loop_
_space_group_symop_operation_xyz
x,y,z
-x,1/2+y,1/2-z
-x,-y,-z
x,1/2-y,1/2+z
loop_
_atom_site_type_symbol
_atom_site_label
_atom_site_fract_x
_atom_site_fract_y
_atom_site_fract_z
Si Si1 0.937136 0.417763 0.317104
Si Si2 0.610066 0.609617 0.126186
Si Si3 0.809506 0.944153 0.651731
Si Si4 0.275272 0.254166 0.294736
Si Si5 0.903981 0.208432 0.692535
Si Si6 0.281892 0.750479 0.657908
Si Si7 0.652507 0.124342 0.869032
Si Si8 0.402994 0.216895 0.748795
O O1 0.904506 0.483543 0.238505
O O2 0.947545 0.363952 0.258787
O O3 0.229600 0.415702 0.641714
O O4 0.705894 0.409293 0.163237
O O5 0.745339 0.574791 0.180993
O O6 0.622597 0.684669 0.130273
O O7 0.532787 0.935337 0.334191
O O8 0.034553 0.898965 0.825433
O O9 0.454853 0.281188 0.542733
O O10 0.293738 0.298474 0.233013
O O11 0.958029 0.250581 0.008914
O O12 0.815926 0.210829 0.514198
O O13 0.647457 0.232901 0.496826
O O14 0.169462 0.253007 0.965368
O O15 0.367613 0.678789 0.718291
O O16 0.538350 0.153211 0.842354
#
# Coordination Sequence:
#
# PCOD8128520 Si02
#       8
#     4   4   4   4   4   4   4   4
#     4  12  23  37  53  79 113 154 184 218 261 320
#     4  12  21  36  51  82 115 148 186 210 256 331
#     4  12  23  35  55  76 113 152 188 215 258 321
#     4  12  20  35  57  82 107 147 174 223 282 326
#     4  11  21  37  53  80 108 144 182 226 271 318
#     4  11  21  34  55  77 108 140 181 223 274 324
#     4  11  21  37  51  79 105 144 183 226 266 314
#     4  11  22  35  57  77 110 139 181 230 278 320
#
# _framework density 18.738824999999999
#
# number of rings (size 3 to 8) (size 9 to 14) (size 15 to 20)
#    0.000    0.500    5.000    6.750    0.000    0.000 
#    0.000    0.000    0.000    0.000    0.000    5.250 
#    0.000    0.000    0.000    0.000    0.000    0.000 
#
# Total GULP energy -396796.173737 kJ/mol
# GULP energy per Si atom -12399.880429 kJ/mol
# Density = 1.869617 g / cm^3
# Si number density = 18.738825 Si / 1000 Ang^3
#
#
#
# Elastic Constant Matrix: (Units=GPa)
#
#
# Indices 1 2 3 4 5 6 
#
# 1 55.5185 17.4673 5.9312 0.0000 3.8351 0.0000
# 2 17.4673 57.5915 2.4692 0.0000 -1.3760 0.0000
# 3 5.9312 2.4692 66.2225 0.0000 9.6710 0.0000
# 4 0.0000 0.0000 0.0000 13.5606 0.0000 -2.6649
# 5 3.8351 -1.3760 9.6710 0.0000 19.7912 0.0000
# 6 0.0000 0.0000 0.0000 -2.6649 0.0000 19.6639
#
#
#
# Elastic Compliance Matrix: (Units=1/GPa)
#
#
# Indices 1 2 3 4 5 6 
#
# 1 0.020346 -0.006219 -0.001025 0.000000 -0.003874 0.000000
# 2 -0.006219 0.019342 -0.000578 0.000000 0.002832 0.000000
# 3 -0.001025 -0.000578 0.016358 0.000000 -0.007835 0.000000
# 4 0.000000 0.000000 0.000000 0.075761 0.000000 0.010267
# 5 -0.003874 0.002832 -0.007835 0.000000 0.055304 0.000000
# 6 0.000000 0.000000 0.000000 0.010267 0.000000 0.052246
#
#
# Mechanical properties :
#
#
# Convention : Reuss Voigt Hill
#
# Bulk Modulus (GPa) = 24.75074 25.67420 25.21247
# Shear Modulus (GPa) = 18.62416 20.83412 19.72914
#
# Velocity S-wave (km/s) = 3.15601 3.33801 3.24828
# Velocity P-wave (km/s) = 5.14951 5.34670 5.24903
#
# Compressibility (1/GPa) = 0.04040283
#
# Stress axis : x y z
#
# Youngs Moduli (GPa) = 49.14997 51.69972 61.13169
#
# Poissons Ratio (x) = 0.32154 0.06263
# Poissons Ratio (y) = 0.30569 0.03532
# Poissons Ratio (z) = 0.05036 0.02987
#
# Static dielectric constant tensor:
#      x y z
#    x 3.397320 0.000000 0.085460 
#    y 0.000000 3.158720 0.000000 
#    z 0.085460 0.000000 3.732200 
# 
# 
# High freq. dielectric constant tensor:
#      x y z
#    x 1.719570 0.000000 0.011070 
#    y 0.000000 1.686090 0.000000 
#    z 0.011070 0.000000 1.753960 
# 
# From -- ./inp_files/47604.got.cif
#   From: 2010.03.12/outbox.cif.g09.slc.cpg/sg14_24_cif.got.tgz:47604.got - 2010.03.31 13:35:05.
