data_PCOD8128076
_publ_section_title
;
Structure prediction by ZEFSAII (Michael W. Deem and Ramdas Pophale) SiO2 
 PCOD8128076
Probable space group: P 21/C
;
_chemical_formula_sum "Si O2"
_cell_formula_units_Z 32
_cell_length_a 11.054528
_cell_length_b 14.981502
_cell_length_c 8.860297
_cell_angle_alpha 90.000000
_cell_angle_beta 88.341932
_cell_angle_gamma 90.000000
_cell_volume 1466.769818
_symmetry_space_group_name_H-M "P 21/C"
_symmetry_group_IT_number 14
_symmetry_cell_setting 'monoclinic'
loop_
_space_group_symop_operation_xyz
x,y,z
-x,1/2+y,1/2-z
-x,-y,-z
x,1/2-y,1/2+z
loop_
_atom_site_type_symbol
_atom_site_label
_atom_site_fract_x
_atom_site_fract_y
_atom_site_fract_z
Si Si1 0.675949 0.399363 0.261783
Si Si2 0.369713 0.039490 0.013616
Si Si3 0.080120 0.679799 0.678276
Si Si4 0.730208 0.678121 0.281909
Si Si5 0.596525 0.635257 0.769758
Si Si6 0.944874 0.520911 0.840495
Si Si7 0.996666 0.847283 0.845168
Si Si8 0.711389 0.951272 0.518888
O O1 0.710319 0.462639 0.404484
O O2 0.781557 0.326994 0.266332
O O3 0.544165 0.351651 0.275335
O O4 0.680457 0.458832 0.109788
O O5 0.372578 0.125533 0.122439
O O6 0.332016 0.068934 0.847703
O O7 0.500000 0.000000 0.000000
O O8 0.995369 0.613600 0.775467
O O9 0.045109 0.780805 0.715672
O O10 0.065895 0.664751 0.500502
O O11 0.674637 0.774995 0.258282
O O12 0.854141 0.674451 0.374638
O O13 0.760497 0.627893 0.124111
O O14 0.595163 0.589810 0.935375
O O15 0.978632 0.446732 0.715555
O O16 0.802894 0.529345 0.877877
O O17 0.000000 0.500000 0.000000
#
# Coordination Sequence:
#
# PCOD8128076 Si02
#       8
#     4   4   4   4   4   4   4   4
#     4  10  23  47  63  94 139 177 222 273 336 408
#     4   9  21  42  64  92 128 173 222 267 330 401
#     4  12  27  47  68 100 142 179 230 283 343 411
#     4  11  23  42  64 101 132 170 222 285 334 401
#     4  11  23  39  70  97 130 175 227 279 334 393
#     4  12  22  45  73 101 136 183 225 281 349 408
#     4  12  28  44  71 102 139 180 229 285 344 409
#     4  11  23  40  70  98 136 171 225 278 335 409
#
# _framework density 21.816647
#
# number of rings (size 3 to 8) (size 9 to 14) (size 15 to 20)
#    0.000    1.000    2.500    3.750    7.000    0.000 
#    6.750    1.250    0.000    0.000    0.000    0.000 
#    0.000    0.000    0.000    0.000    0.000    0.000 
#
# Total GULP energy -396626.123371 kJ/mol
# GULP energy per Si atom -12394.566355 kJ/mol
# Density = 2.176699 g / cm^3
# Si number density = 21.816647 Si / 1000 Ang^3
#
#
#
# Elastic Constant Matrix: (Units=GPa)
#
#
# Indices 1 2 3 4 5 6 
#
# 1 111.2628 35.1690 29.1211 0.0000 -0.0098 0.0000
# 2 35.1690 75.9688 18.0481 0.0000 3.0241 0.0000
# 3 29.1211 18.0481 98.1902 0.0000 6.1816 0.0000
# 4 0.0000 0.0000 0.0000 33.0338 0.0000 -5.4753
# 5 -0.0098 3.0241 6.1816 0.0000 33.0484 0.0000
# 6 0.0000 0.0000 0.0000 -5.4753 0.0000 22.5670
#
#
#
# Elastic Compliance Matrix: (Units=1/GPa)
#
#
# Indices 1 2 3 4 5 6 
#
# 1 0.011089 -0.004574 -0.002504 0.000000 0.000890 0.000000
# 2 -0.004574 0.015672 -0.001451 0.000000 -0.001164 0.000000
# 3 -0.002504 -0.001451 0.011319 0.000000 -0.001985 0.000000
# 4 0.000000 0.000000 0.000000 0.031540 0.000000 0.007652
# 5 0.000890 -0.001164 -0.001985 0.000000 0.030737 0.000000
# 6 0.000000 0.000000 0.000000 0.007652 0.000000 0.046169
#
#
# Mechanical properties :
#
#
# Convention : Reuss Voigt Hill
#
# Bulk Modulus (GPa) = 47.56998 50.01091 48.79044
# Shear Modulus (GPa) = 29.30992 31.26874 30.28933
#
# Velocity S-wave (km/s) = 3.66931 3.78994 3.73011
# Velocity P-wave (km/s) = 6.30900 6.49034 6.40032
#
# Compressibility (1/GPa) = 0.02102166
#
# Stress axis : x y z
#
# Youngs Moduli (GPa) = 90.17928 63.80882 88.35021
#
# Poissons Ratio (x) = 0.29187 0.22123
# Poissons Ratio (y) = 0.41249 0.12817
# Poissons Ratio (z) = 0.22581 0.09257
#
# Static dielectric constant tensor:
#      x y z
#    x 4.535280 0.000000 0.421710 
#    y 0.000000 4.913530 0.000000 
#    z 0.421710 0.000000 4.354450 
# 
# 
# High freq. dielectric constant tensor:
#      x y z
#    x 1.853990 0.000000 -0.003110 
#    y 0.000000 1.854640 0.000000 
#    z -0.003110 0.000000 1.872010 
# 
# From -- ./inp_files/13354.got.cif
#   From: 2010.03.12/outbox.cif.g09.slc.cpg/sg14_7_cif.got.tgz:13354.got - 2010.03.31 13:35:05.
