data_PCOD8128794
_publ_section_title
;
Structure prediction by ZEFSAII (Michael W. Deem and Ramdas Pophale) SiO2 
 PCOD8128794
Probable space group: P 21/C
;
_chemical_formula_sum "Si O2"
_cell_formula_units_Z 28
_cell_length_a 9.541011
_cell_length_b 25.322269
_cell_length_c 9.402337
_cell_angle_alpha 90.000000
_cell_angle_beta 148.930854
_cell_angle_gamma 90.000000
_cell_volume 1172.312110
_symmetry_space_group_name_H-M "P 21/C"
_symmetry_group_IT_number 14
_symmetry_cell_setting 'monoclinic'
loop_
_space_group_symop_operation_xyz
x,y,z
-x,1/2+y,1/2-z
-x,-y,-z
x,1/2-y,1/2+z
loop_
_atom_site_type_symbol
_atom_site_label
_atom_site_fract_x
_atom_site_fract_y
_atom_site_fract_z
Si Si1 0.698340 0.237925 0.735721
Si Si2 0.911035 0.190659 0.655072
Si Si3 0.059032 0.577043 0.447655
Si Si4 0.589333 0.840816 0.089361
Si Si5 0.404824 0.357897 0.094016
Si Si6 0.347945 0.591686 0.167587
Si Si7 0.910047 0.961866 0.119793
O O1 0.919646 0.208756 0.826792
O O2 0.574631 0.286443 0.539837
O O3 0.452005 0.199392 0.565564
O O4 0.855043 0.258003 0.010511
O O5 0.670291 0.147121 0.435443
O O6 0.186941 0.162887 0.842315
O O7 0.067756 0.561529 0.620934
O O8 0.304767 0.615543 0.629008
O O9 0.082123 0.524993 0.371136
O O10 0.782297 0.607066 0.169018
O O11 0.724982 0.851929 0.360499
O O12 0.390382 0.889454 0.868879
O O13 0.598917 0.555758 0.338556
O O14 0.069799 0.558552 0.899763
#
# Coordination Sequence:
#
# PCOD8128794 Si02
#       7
#     4   4   4   4   4   4   4
#     4  11  25  42  69 103 140 194 238 291 354 425
#     4  11  24  43  69 104 140 193 235 294 353 429
#     4  11  26  44  75 106 142 183 241 304 360 410
#     4  11  27  44  68 107 147 189 237 295 352 440
#     4  12  27  47  71 108 149 184 239 298 360 417
#     4  11  23  43  73 100 141 187 233 285 357 425
#     4  11  22  47  74 108 137 185 244 299 351 435
#
# _framework density 23.884423999999999
#
# number of rings (size 3 to 8) (size 9 to 14) (size 15 to 20)
#    0.000    0.857    2.857    3.429    8.000    2.286 
#    0.000    4.286    0.000    0.000    0.000    0.000 
#    0.000    0.000    0.000    0.000    0.000    0.000 
#
# Total GULP energy -347216.945248 kJ/mol
# GULP energy per Si atom -12400.605187 kJ/mol
# Density = 2.383006 g / cm^3
# Si number density = 23.884424 Si / 1000 Ang^3
#
#
#
# Elastic Constant Matrix: (Units=GPa)
#
#
# Indices 1 2 3 4 5 6 
#
# 1 59.7365 -1.8175 12.9637 0.0000 -2.1117 0.0000
# 2 -1.8175 78.4224 22.2358 0.0000 -4.9414 0.0000
# 3 12.9637 22.2358 96.5082 0.0000 3.6753 0.0000
# 4 0.0000 0.0000 0.0000 26.8859 0.0000 -0.8045
# 5 -2.1117 -4.9414 3.6753 0.0000 29.9627 0.0000
# 6 0.0000 0.0000 0.0000 -0.8045 0.0000 20.5825
#
#
#
# Elastic Compliance Matrix: (Units=1/GPa)
#
#
# Indices 1 2 3 4 5 6 
#
# 1 0.017429 0.001282 -0.002704 0.000000 0.001771 0.000000
# 2 0.001282 0.013949 -0.003494 0.000000 0.002819 0.000000
# 3 -0.002704 -0.003494 0.011613 0.000000 -0.002191 0.000000
# 4 0.000000 0.000000 0.000000 0.037238 0.000000 0.001456
# 5 0.001771 0.002819 -0.002191 0.000000 0.034233 0.000000
# 6 0.000000 0.000000 0.000000 0.001456 0.000000 0.048642
#
#
# Mechanical properties :
#
#
# Convention : Reuss Voigt Hill
#
# Bulk Modulus (GPa) = 30.15619 33.49232 31.82426
# Shear Modulus (GPa) = 27.17556 28.90522 28.04039
#
# Velocity S-wave (km/s) = 3.37678 3.48258 3.43009
# Velocity P-wave (km/s) = 5.27796 5.49766 5.38893
#
# Compressibility (1/GPa) = 0.03316068
#
# Stress axis : x y z
#
# Youngs Moduli (GPa) = 57.37688 71.68774 86.10725
#
# Poissons Ratio (x) = -0.09192 0.23284
# Poissons Ratio (y) = -0.07357 0.30082
# Poissons Ratio (z) = 0.15515 0.25045
#
# Static dielectric constant tensor:
#      x y z
#    x 4.051260 0.000000 -0.098200 
#    y 0.000000 4.507020 0.000000 
#    z -0.098200 0.000000 4.165070 
# 
# 
# High freq. dielectric constant tensor:
#      x y z
#    x 1.928330 0.000000 -0.003260 
#    y 0.000000 1.961300 0.000000 
#    z -0.003260 0.000000 1.947160 
# 
# From -- ./inp_files/11203.got.cif
#   From: 2010.03.12/outbox.cif.g09.slc.cpg/sg14_6_cif.got.tgz:11203.got - 2010.03.31 13:35:05.
