data_PCOD8128466
_publ_section_title
;
Structure prediction by ZEFSAII (Michael W. Deem and Ramdas Pophale) SiO2 
 PCOD8128466
Probable space group: P 21/C
;
_chemical_formula_sum "Si O2"
_cell_formula_units_Z 24
_cell_length_a 6.454344
_cell_length_b 11.855356
_cell_length_c 16.386666
_cell_angle_alpha 90.000000
_cell_angle_beta 68.154618
_cell_angle_gamma 90.000000
_cell_volume 1163.844195
_symmetry_space_group_name_H-M "P 21/C"
_symmetry_group_IT_number 14
_symmetry_cell_setting 'monoclinic'
loop_
_space_group_symop_operation_xyz
x,y,z
-x,1/2+y,1/2-z
-x,-y,-z
x,1/2-y,1/2+z
loop_
_atom_site_type_symbol
_atom_site_label
_atom_site_fract_x
_atom_site_fract_y
_atom_site_fract_z
Si Si1 0.100385 0.818496 0.463744
Si Si2 0.339778 0.315344 0.885389
Si Si3 0.419280 0.912546 0.126151
Si Si4 0.215741 0.921860 0.980558
Si Si5 0.852037 0.010556 0.681681
Si Si6 0.688912 0.438453 0.922234
O O1 0.169036 0.690461 0.434465
O O2 0.209363 0.904714 0.383484
O O3 0.193691 0.846951 0.538519
O O4 0.830109 0.828484 0.512336
O O5 0.407224 0.183848 0.867341
O O6 0.235524 0.382055 0.822516
O O7 0.575136 0.374779 0.864631
O O8 0.272685 0.887985 0.066325
O O9 0.241807 0.939774 0.221800
O O10 0.566926 0.022666 0.090005
O O11 0.000000 0.000000 0.000000
O O12 0.121474 0.016398 0.646575
O O13 0.500000 0.500000 0.000000
#
# Coordination Sequence:
#
# PCOD8128466 Si02
#       6
#     4   4   4   4   4   4
#     4  11  21  40  68  96 124 172 221 271 321 393
#     4  11  21  42  67  94 133 170 215 273 331 381
#     4  11  26  44  63 100 134 175 218 267 323 397
#     4  11  24  45  67  89 136 183 217 253 334 396
#     4  11  25  39  65 106 128 161 228 275 324 381
#     4  11  19  40  64  92 131 169 210 270 335 380
#
# _framework density 20.621317000000001
#
# number of rings (size 3 to 8) (size 9 to 14) (size 15 to 20)
#    0.000    1.000    6.667    1.000    2.333    1.333 
#    0.000    0.000    0.000    0.000    0.000    0.000 
#    0.000    0.000    0.000    0.000    0.000    0.000 
#
# Total GULP energy -297365.826441 kJ/mol
# GULP energy per Si atom -12390.242768 kJ/mol
# Density = 2.057438 g / cm^3
# Si number density = 20.621317 Si / 1000 Ang^3
#
#
#
# Elastic Constant Matrix: (Units=GPa)
#
#
# Indices 1 2 3 4 5 6 
#
# 1 99.0439 31.4598 33.5020 0.0000 -15.4988 0.0000
# 2 31.4598 114.7509 39.5444 0.0000 -9.2063 0.0000
# 3 33.5020 39.5444 113.5848 0.0000 -22.8834 0.0000
# 4 0.0000 0.0000 0.0000 20.3477 0.0000 -8.6131
# 5 -15.4988 -9.2063 -22.8834 0.0000 24.9136 0.0000
# 6 0.0000 0.0000 0.0000 -8.6131 0.0000 37.1581
#
#
#
# Elastic Compliance Matrix: (Units=1/GPa)
#
#
# Indices 1 2 3 4 5 6 
#
# 1 0.012238 -0.002336 -0.001763 0.000000 0.005131 0.000000
# 2 -0.002336 0.010356 -0.002992 0.000000 -0.000374 0.000000
# 3 -0.001763 -0.002992 0.012175 0.000000 0.008981 0.000000
# 4 0.000000 0.000000 0.000000 0.054492 0.000000 0.012631
# 5 0.005131 -0.000374 0.008981 0.000000 0.051441 0.000000
# 6 0.000000 0.000000 0.000000 0.012631 0.000000 0.029840
#
#
# Mechanical properties :
#
#
# Convention : Reuss Voigt Hill
#
# Bulk Modulus (GPa) = 48.57299 59.59911 54.08605
# Shear Modulus (GPa) = 26.09808 31.34210 28.72009
#
# Velocity S-wave (km/s) = 3.56137 3.90280 3.73599
# Velocity P-wave (km/s) = 6.36530 7.01952 6.70040
#
# Compressibility (1/GPa) = 0.02058757
#
# Stress axis : x y z
#
# Youngs Moduli (GPa) = 81.71525 96.56294 82.13727
#
# Poissons Ratio (x) = 0.22557 0.14477
# Poissons Ratio (y) = 0.19089 0.24574
# Poissons Ratio (z) = 0.14402 0.28890
#
# Static dielectric constant tensor:
#      x y z
#    x 4.250480 0.000000 -0.181340 
#    y 0.000000 4.114940 0.000000 
#    z -0.181340 0.000000 3.411570 
# 
# 
# High freq. dielectric constant tensor:
#      x y z
#    x 1.820290 0.000000 -0.018370 
#    y 0.000000 1.814950 0.000000 
#    z -0.018370 0.000000 1.772820 
# 
# From -- ./inp_files/52935.got.cif
#   From: 2010.03.12/outbox.cif.g09.slc.cpg/sg14_27_cif.got.tgz:52935.got - 2010.03.31 13:35:05.
