data_PCOD8128417
_publ_section_title
;
Structure prediction by ZEFSAII (Michael W. Deem and Ramdas Pophale) SiO2 
 PCOD8128417
Probable space group: P 21/C
;
_chemical_formula_sum "Si O2"
_cell_formula_units_Z 28
_cell_length_a 11.825058
_cell_length_b 11.988293
_cell_length_c 20.024557
_cell_angle_alpha 90.000000
_cell_angle_beta 26.583303
_cell_angle_gamma 90.000000
_cell_volume 1270.325821
_symmetry_space_group_name_H-M "P 21/C"
_symmetry_group_IT_number 14
_symmetry_cell_setting 'monoclinic'
loop_
_space_group_symop_operation_xyz
x,y,z
-x,1/2+y,1/2-z
-x,-y,-z
x,1/2-y,1/2+z
loop_
_atom_site_type_symbol
_atom_site_label
_atom_site_fract_x
_atom_site_fract_y
_atom_site_fract_z
Si Si1 0.339794 0.022046 0.016805
Si Si2 0.007777 0.796373 0.845189
Si Si3 0.564558 0.022942 0.387678
Si Si4 0.899867 0.191169 0.833552
Si Si5 0.297274 0.429523 0.783136
Si Si6 0.370977 0.221895 0.665888
Si Si7 0.162482 0.089304 0.499096
O O1 0.478233 0.987262 0.875681
O O2 0.242812 0.147237 0.055685
O O3 0.500000 0.000000 0.000000
O O4 0.095527 0.941018 0.152939
O O5 0.126060 0.708025 0.731447
O O6 0.212944 0.891909 0.748998
O O7 0.945240 0.717957 0.942520
O O8 0.631608 0.908224 0.314121
O O9 0.500000 0.000000 0.500000
O O10 0.313353 0.074095 0.488078
O O11 0.160828 0.246353 0.720045
O O12 0.652466 0.246961 0.995661
O O13 0.281742 0.298009 0.774420
O O14 0.338699 0.430305 0.841057
O O15 0.048211 0.494547 0.892671
#
# Coordination Sequence:
#
# PCOD8128417 Si02
#       7
#     4   4   4   4   4   4   4
#     4  11  24  41  71 104 139 183 242 296 359 435
#     4  12  25  41  68 108 140 182 234 300 365 420
#     4  12  25  44  70 108 142 180 236 304 360 422
#     4  11  22  38  66 103 141 177 231 300 365 418
#     4  10  25  49  70  99 138 199 234 290 365 432
#     4  11  22  43  70 100 137 188 235 293 362 434
#     4  11  27  47  70 101 147 187 240 294 362 444
#
# _framework density 22.041588999999998
#
# number of rings (size 3 to 8) (size 9 to 14) (size 15 to 20)
#    0.000    0.857    2.857    4.286    6.000    1.143 
#    7.714    1.429    0.000    0.000    0.000    0.000 
#    0.000    0.000    0.000    0.000    0.000    0.000 
#
# Total GULP energy -346981.817588 kJ/mol
# GULP energy per Si atom -12392.207771 kJ/mol
# Density = 2.199142 g / cm^3
# Si number density = 22.041589 Si / 1000 Ang^3
#
#
#
# Elastic Constant Matrix: (Units=GPa)
#
#
# Indices 1 2 3 4 5 6 
#
# 1 79.4041 37.8374 29.0670 0.0000 4.8412 0.0000
# 2 37.8374 140.0158 63.7526 0.0000 13.2012 0.0000
# 3 29.0670 63.7526 72.4449 0.0000 8.1772 0.0000
# 4 0.0000 0.0000 0.0000 40.8548 0.0000 -0.4064
# 5 4.8412 13.2012 8.1772 0.0000 38.8624 0.0000
# 6 0.0000 0.0000 0.0000 -0.4064 0.0000 25.1741
#
#
#
# Elastic Compliance Matrix: (Units=1/GPa)
#
#
# Indices 1 2 3 4 5 6 
#
# 1 0.015166 -0.002196 -0.004122 0.000000 -0.000276 0.000000
# 2 -0.002196 0.012372 -0.009795 0.000000 -0.001868 0.000000
# 3 -0.004122 -0.009795 0.024219 0.000000 -0.001255 0.000000
# 4 0.000000 0.000000 0.000000 0.024481 0.000000 0.000395
# 5 -0.000276 -0.001868 -0.001255 0.000000 0.026665 0.000000
# 6 0.000000 0.000000 0.000000 0.000395 0.000000 0.039730
#
#
# Mechanical properties :
#
#
# Convention : Reuss Voigt Hill
#
# Bulk Modulus (GPa) = 51.20022 61.46430 56.33226
# Shear Modulus (GPa) = 27.56839 31.72545 29.64692
#
# Velocity S-wave (km/s) = 3.54042 3.79799 3.67146
# Velocity P-wave (km/s) = 6.32393 6.86870 6.60194
#
# Compressibility (1/GPa) = 0.01953117
#
# Stress axis : x y z
#
# Youngs Moduli (GPa) = 65.93850 80.83038 41.28987
#
# Poissons Ratio (x) = 0.17747 0.17018
# Poissons Ratio (y) = 0.14478 0.40445
# Poissons Ratio (z) = 0.27177 0.79176
#
# Static dielectric constant tensor:
#      x y z
#    x 3.782450 0.000000 -0.031080 
#    y 0.000000 4.407830 0.000000 
#    z -0.031080 0.000000 4.063650 
# 
# 
# High freq. dielectric constant tensor:
#      x y z
#    x 1.842820 0.000000 -0.009660 
#    y 0.000000 1.888890 0.000000 
#    z -0.009660 0.000000 1.872800 
# 
# From -- ./inp_files/67310.got.cif
#   From: 2010.03.12/outbox.cif.g09.slc.cpg/sg14_34_cif.got.tgz:67310.got - 2010.03.31 13:35:05.
