data_PCOD8128511
_publ_section_title
;
Structure prediction by ZEFSAII (Michael W. Deem and Ramdas Pophale) SiO2 
 PCOD8128511
Probable space group: P 21/C
;
_chemical_formula_sum "Si O2"
_cell_formula_units_Z 24
_cell_length_a 14.079702
_cell_length_b 14.333209
_cell_length_c 10.662618
_cell_angle_alpha 90.000000
_cell_angle_beta 147.257470
_cell_angle_gamma 90.000000
_cell_volume 1163.829811
_symmetry_space_group_name_H-M "P 21/C"
_symmetry_group_IT_number 14
_symmetry_cell_setting 'monoclinic'
loop_
_space_group_symop_operation_xyz
x,y,z
-x,1/2+y,1/2-z
-x,-y,-z
x,1/2-y,1/2+z
loop_
_atom_site_type_symbol
_atom_site_label
_atom_site_fract_x
_atom_site_fract_y
_atom_site_fract_z
Si Si1 0.001989 0.607936 0.479705
Si Si2 0.395290 0.671414 0.549192
Si Si3 0.070859 0.540243 0.206742
Si Si4 0.738315 0.240149 0.844834
Si Si5 0.041823 0.348249 0.296259
Si Si6 0.783491 0.662713 0.025183
O O1 0.024041 0.662456 0.634214
O O2 0.000000 0.500000 0.500000
O O3 0.162892 0.641209 0.569276
O O4 0.817620 0.631851 0.206827
O O5 0.259153 0.586891 0.394277
O O6 0.375685 0.731728 0.655217
O O7 0.378405 0.734067 0.405202
O O8 0.592049 0.629892 0.768058
O O9 0.100018 0.454241 0.335169
O O10 0.000000 0.500000 0.000000
O O11 0.931162 0.615299 0.101740
O O12 0.885358 0.320009 0.028029
O O13 0.202611 0.275542 0.462809
#
# Coordination Sequence:
#
# PCOD8128511 Si02
#       6
#     4   4   4   4   4   4
#     4  11  20  42  69  93 131 176 226 275 338 397
#     4  12  25  45  67 104 138 174 233 282 336 407
#     4  12  24  45  69  98 138 180 226 283 342 405
#     4  11  22  42  69  93 136 179 219 279 338 399
#     4  11  22  43  69  95 132 185 222 275 345 403
#     4  11  27  43  69 100 137 176 226 280 342 405
#
# _framework density 20.621572
#
# number of rings (size 3 to 8) (size 9 to 14) (size 15 to 20)
#    0.000    0.667    8.333    0.000    4.667    0.667 
#    6.000    1.667    0.000    0.000    0.000    0.000 
#    0.000    0.000    0.000    0.000    0.000    0.000 
#
# Total GULP energy -297593.531458 kJ/mol
# GULP energy per Si atom -12399.730477 kJ/mol
# Density = 2.057464 g / cm^3
# Si number density = 20.621572 Si / 1000 Ang^3
#
#
#
# Elastic Constant Matrix: (Units=GPa)
#
#
# Indices 1 2 3 4 5 6 
#
# 1 90.6023 24.8715 55.3053 0.0000 -23.2901 0.0000
# 2 24.8715 101.9679 44.7166 0.0000 3.2077 0.0000
# 3 55.3053 44.7166 146.9867 0.0000 1.3472 0.0000
# 4 0.0000 0.0000 0.0000 24.9693 0.0000 -9.6560
# 5 -23.2901 3.2077 1.3472 0.0000 42.5057 0.0000
# 6 0.0000 0.0000 0.0000 -9.6560 0.0000 28.5578
#
#
#
# Elastic Compliance Matrix: (Units=1/GPa)
#
#
# Indices 1 2 3 4 5 6 
#
# 1 0.018045 -0.001967 -0.006285 0.000000 0.010235 0.000000
# 2 -0.001967 0.011555 -0.002758 0.000000 -0.001862 0.000000
# 3 -0.006285 -0.002758 0.010040 0.000000 -0.003554 0.000000
# 4 0.000000 0.000000 0.000000 0.046074 0.000000 0.015579
# 5 0.010235 -0.001862 -0.003554 0.000000 0.029387 0.000000
# 6 0.000000 0.000000 0.000000 0.015579 0.000000 0.040284
#
#
# Mechanical properties :
#
#
# Convention : Reuss Voigt Hill
#
# Bulk Modulus (GPa) = 56.75645 65.48262 61.11954
# Shear Modulus (GPa) = 27.28107 33.51747 30.39927
#
# Velocity S-wave (km/s) = 3.64117 4.03595 3.84363
# Velocity P-wave (km/s) = 6.72756 7.31723 7.02858
#
# Compressibility (1/GPa) = 0.01761914
#
# Stress axis : x y z
#
# Youngs Moduli (GPa) = 55.41842 86.54331 99.60483
#
# Poissons Ratio (x) = 0.17025 0.62600
# Poissons Ratio (y) = 0.10902 0.27471
# Poissons Ratio (z) = 0.34829 0.23869
#
# Static dielectric constant tensor:
#      x y z
#    x 3.839630 0.000000 -0.352690 
#    y 0.000000 3.729010 0.000000 
#    z -0.352690 0.000000 3.741980 
# 
# 
# High freq. dielectric constant tensor:
#      x y z
#    x 1.812750 0.000000 -0.030870 
#    y 0.000000 1.806510 0.000000 
#    z -0.030870 0.000000 1.800960 
# 
# From -- ./inp_files/32510.got.cif
#   From: 2010.03.12/outbox.cif.g09.slc.cpg/sg14_17_cif.got.tgz:32510.got - 2010.03.31 13:35:05.
