data_PCOD8128944
_publ_section_title
;
Structure prediction by ZEFSAII (Michael W. Deem and Ramdas Pophale) SiO2 
 PCOD8128944
Probable space group: P 21/C
;
_chemical_formula_sum "Si O2"
_cell_formula_units_Z 32
_cell_length_a 6.933025
_cell_length_b 13.586759
_cell_length_c 18.646460
_cell_angle_alpha 90.000000
_cell_angle_beta 121.637960
_cell_angle_gamma 90.000000
_cell_volume 1495.403071
_symmetry_space_group_name_H-M "P 21/C"
_symmetry_group_IT_number 14
_symmetry_cell_setting 'monoclinic'
loop_
_space_group_symop_operation_xyz
x,y,z
-x,1/2+y,1/2-z
-x,-y,-z
x,1/2-y,1/2+z
loop_
_atom_site_type_symbol
_atom_site_label
_atom_site_fract_x
_atom_site_fract_y
_atom_site_fract_z
Si Si1 0.040763 0.134062 0.350929
Si Si2 0.587840 0.536064 0.626653
Si Si3 0.674749 0.045019 0.650391
Si Si4 0.188580 0.222173 0.142989
Si Si5 0.538639 0.432814 0.763387
Si Si6 0.060669 0.185156 0.756918
Si Si7 0.382368 0.296186 0.031641
Si Si8 0.715296 0.125764 0.046913
O O1 0.787056 0.110259 0.324378
O O2 0.031676 0.204069 0.279653
O O3 0.162476 0.190803 0.439486
O O4 0.166485 0.032804 0.358344
O O5 0.514641 0.505385 0.691466
O O6 0.746558 0.631165 0.660182
O O7 0.366322 0.563120 0.537653
O O8 0.723260 0.445267 0.617585
O O9 0.516930 0.100662 0.561867
O O10 0.827518 0.126040 0.720780
O O11 0.514652 0.992825 0.675949
O O12 0.364934 0.155856 0.220589
O O13 0.120410 0.310162 0.183818
O O14 0.303822 0.265015 0.095090
O O15 0.966226 0.161282 0.077460
O O16 0.546876 0.215352 0.029629
#
# Coordination Sequence:
#
# PCOD8128944 Si02
#       8
#     4   4   4   4   4   4   4   4
#     4  12  27  47  70 104 142 181 238 288 350 421
#     4  11  23  44  73 103 139 183 233 285 359 412
#     4  12  26  46  73  98 142 185 231 292 350 417
#     4  12  25  44  71 102 145 180 232 293 348 419
#     4  12  25  45  72 106 138 181 239 291 343 422
#     4  12  23  45  74  98 137 189 226 287 354 412
#     4  12  26  45  71 103 139 190 232 285 356 421
#     4  11  24  46  70 103 146 179 228 299 354 417
#
# _framework density 21.398914000000001
#
# number of rings (size 3 to 8) (size 9 to 14) (size 15 to 20)
#    0.000    0.250    6.250    3.375    0.000    4.000 
#    0.000    0.000    0.000    0.000    0.000    0.000 
#    0.000    0.000    0.000    0.000    0.000    0.000 
#
# Total GULP energy -397036.142714 kJ/mol
# GULP energy per Si atom -12407.379460 kJ/mol
# Density = 2.135021 g / cm^3
# Si number density = 21.398914 Si / 1000 Ang^3
#
#
#
# Elastic Constant Matrix: (Units=GPa)
#
#
# Indices 1 2 3 4 5 6 
#
# 1 100.4113 35.6095 18.4516 0.0000 20.5159 0.0000
# 2 35.6095 103.0559 21.3349 0.0000 9.1994 0.0000
# 3 18.4516 21.3349 60.9851 0.0000 9.1193 0.0000
# 4 0.0000 0.0000 0.0000 41.8438 0.0000 5.2334
# 5 20.5159 9.1994 9.1193 0.0000 26.2881 0.0000
# 6 0.0000 0.0000 0.0000 5.2334 0.0000 38.9954
#
#
#
# Elastic Compliance Matrix: (Units=1/GPa)
#
#
# Indices 1 2 3 4 5 6 
#
# 1 0.013226 -0.003495 -0.001496 0.000000 -0.008580 0.000000
# 2 -0.003495 0.011545 -0.002938 0.000000 -0.000294 0.000000
# 3 -0.001496 -0.002938 0.018510 0.000000 -0.004225 0.000000
# 4 0.000000 0.000000 0.000000 0.024306 0.000000 -0.003262
# 5 -0.008580 -0.000294 -0.004225 0.000000 0.046305 0.000000
# 6 0.000000 0.000000 0.000000 -0.003262 0.000000 0.026082
#
#
# Mechanical properties :
#
#
# Convention : Reuss Voigt Hill
#
# Bulk Modulus (GPa) = 36.46376 46.13824 41.30100
# Shear Modulus (GPa) = 30.30800 34.02922 32.16861
#
# Velocity S-wave (km/s) = 3.76750 3.99210 3.88142
# Velocity P-wave (km/s) = 6.00020 6.54652 6.27931
#
# Compressibility (1/GPa) = 0.02742449
#
# Stress axis : x y z
#
# Youngs Moduli (GPa) = 75.60655 86.61478 54.02572
#
# Poissons Ratio (x) = 0.30268 0.08083
# Poissons Ratio (y) = 0.26421 0.15871
# Poissons Ratio (z) = 0.11312 0.25445
#
# Static dielectric constant tensor:
#      x y z
#    x 3.836770 0.000000 0.137900 
#    y 0.000000 4.041170 0.000000 
#    z 0.137900 0.000000 3.871810 
# 
# 
# High freq. dielectric constant tensor:
#      x y z
#    x 1.842180 0.000000 0.008520 
#    y 0.000000 1.855270 0.000000 
#    z 0.008520 0.000000 1.847030 
# 
# From -- ./inp_files/53509.got.cif
#   From: 2010.03.12/outbox.cif.g09.slc.cpg/sg14_27_cif.got.tgz:53509.got - 2010.03.31 13:35:05.
