data_PCOD8128155
_publ_section_title
;
Structure prediction by ZEFSAII (Michael W. Deem and Ramdas Pophale) SiO2 
 PCOD8128155
Probable space group: P 21/C
;
_chemical_formula_sum "Si O2"
_cell_formula_units_Z 20
_cell_length_a 18.192568
_cell_length_b 5.017268
_cell_length_c 9.200211
_cell_angle_alpha 90.000000
_cell_angle_beta 82.592356
_cell_angle_gamma 90.000000
_cell_volume 832.758836
_symmetry_space_group_name_H-M "P 21/C"
_symmetry_group_IT_number 14
_symmetry_cell_setting 'monoclinic'
loop_
_space_group_symop_operation_xyz
x,y,z
-x,1/2+y,1/2-z
-x,-y,-z
x,1/2-y,1/2+z
loop_
_atom_site_type_symbol
_atom_site_label
_atom_site_fract_x
_atom_site_fract_y
_atom_site_fract_z
Si Si1 0.254202 0.165720 0.438706
Si Si2 0.525290 0.437956 0.829563
Si Si3 0.026742 0.982942 0.158237
Si Si4 0.312477 0.814804 0.781426
Si Si5 0.189523 0.000704 0.191103
O O1 0.298784 0.409352 0.361396
O O2 0.180001 0.100363 0.360240
O O3 0.226108 0.240896 0.604475
O O4 0.309960 0.913962 0.409194
O O5 0.523751 0.705565 0.732232
O O6 0.608620 0.324379 0.816785
O O7 0.500000 0.500000 0.000000
O O8 0.018983 0.265175 0.240442
O O9 0.113614 0.904317 0.137110
O O10 0.000000 0.000000 0.000000
O O11 0.248793 0.744123 0.675867
#
# Coordination Sequence:
#
# PCOD8128155 Si02
#       5
#     4   4   4   4   4
#     4  10  24  41  72 102 140 184 249 300 355 430
#     4  12  28  51  79 112 156 198 248 309 383 449
#     4  12  28  47  74 109 155 198 248 311 385 446
#     4  10  26  43  74 103 145 187 249 295 370 431
#     4  10  26  44  75 101 148 184 257 291 375 429
#
# _framework density 24.016556999999999
#
# number of rings (size 3 to 8) (size 9 to 14) (size 15 to 20)
#    1.200    0.000    0.000    3.600   11.200    1.600 
#    0.000    0.000    0.000    0.000    0.000    0.000 
#    0.000    0.000    0.000    0.000    0.000    0.000 
#
# Total GULP energy -247792.115973 kJ/mol
# GULP energy per Si atom -12389.605799 kJ/mol
# Density = 2.396189 g / cm^3
# Si number density = 24.016557 Si / 1000 Ang^3
#
#
#
# Elastic Constant Matrix: (Units=GPa)
#
#
# Indices 1 2 3 4 5 6 
#
# 1 133.9070 31.0171 32.2759 0.0000 -3.5142 0.0000
# 2 31.0171 90.7844 25.2981 0.0000 11.1186 0.0000
# 3 32.2759 25.2981 123.5105 0.0000 12.4962 0.0000
# 4 0.0000 0.0000 0.0000 33.3261 0.0000 -11.2936
# 5 -3.5142 11.1186 12.4962 0.0000 27.2153 0.0000
# 6 0.0000 0.0000 0.0000 -11.2936 0.0000 31.1307
#
#
#
# Elastic Compliance Matrix: (Units=1/GPa)
#
#
# Indices 1 2 3 4 5 6 
#
# 1 0.008686 -0.002796 -0.002020 0.000000 0.003191 0.000000
# 2 -0.002796 0.012980 -0.001421 0.000000 -0.005011 0.000000
# 3 -0.002020 -0.001421 0.009316 0.000000 -0.003958 0.000000
# 4 0.000000 0.000000 0.000000 0.034213 0.000000 0.012412
# 5 0.003191 -0.005011 -0.003958 0.000000 0.041021 0.000000
# 6 0.000000 0.000000 0.000000 0.012412 0.000000 0.036625
#
#
# Mechanical properties :
#
#
# Convention : Reuss Voigt Hill
#
# Bulk Modulus (GPa) = 54.02951 58.37603 56.20277
# Shear Modulus (GPa) = 30.96291 35.64181 33.30236
#
# Velocity S-wave (km/s) = 3.59448 3.85652 3.72780
# Velocity P-wave (km/s) = 6.30656 6.64753 6.47929
#
# Compressibility (1/GPa) = 0.01850840
#
# Stress axis : x y z
#
# Youngs Moduli (GPa) = 115.12675 77.04175 107.34361
#
# Poissons Ratio (x) = 0.21538 0.21685
# Poissons Ratio (y) = 0.32184 0.15254
# Poissons Ratio (z) = 0.23257 0.10948
#
# Static dielectric constant tensor:
#      x y z
#    x 4.218560 0.000000 0.142070 
#    y 0.000000 4.479340 0.000000 
#    z 0.142070 0.000000 4.382400 
# 
# 
# High freq. dielectric constant tensor:
#      x y z
#    x 1.940040 0.000000 0.007110 
#    y 0.000000 1.972210 0.000000 
#    z 0.007110 0.000000 1.957380 
# 
# From -- ./inp_files/17229.got.cif
#   From: 2010.03.12/outbox.cif.g09.slc.cpg/sg14_9_cif.got.tgz:17229.got - 2010.03.31 13:35:05.
