data_PCOD8128220
_publ_section_title
;
Structure prediction by ZEFSAII (Michael W. Deem and Ramdas Pophale) SiO2 
 PCOD8128220
Probable space group: P 21/C
;
_chemical_formula_sum "Si O2"
_cell_formula_units_Z 28
_cell_length_a 7.312588
_cell_length_b 16.613048
_cell_length_c 14.958658
_cell_angle_alpha 90.000000
_cell_angle_beta 46.661848
_cell_angle_gamma 90.000000
_cell_volume 1321.709937
_symmetry_space_group_name_H-M "P 21/C"
_symmetry_group_IT_number 14
_symmetry_cell_setting 'monoclinic'
loop_
_space_group_symop_operation_xyz
x,y,z
-x,1/2+y,1/2-z
-x,-y,-z
x,1/2-y,1/2+z
loop_
_atom_site_type_symbol
_atom_site_label
_atom_site_fract_x
_atom_site_fract_y
_atom_site_fract_z
Si Si1 0.202923 0.391891 0.440845
Si Si2 0.269050 0.954557 0.807360
Si Si3 0.321664 0.373486 0.716817
Si Si4 0.523965 0.301508 0.468083
Si Si5 0.834051 0.031217 0.363262
Si Si6 0.607223 0.869758 0.430932
Si Si7 0.085522 0.207230 0.820827
O O1 0.318659 0.462406 0.342060
O O2 0.433208 0.348022 0.411330
O O3 0.049864 0.329503 0.430840
O O4 0.012674 0.424229 0.579214
O O5 0.476669 0.892847 0.774247
O O6 0.289010 0.962724 0.694453
O O7 0.457346 0.352963 0.578333
O O8 0.164610 0.298810 0.805410
O O9 0.128020 0.447586 0.767345
O O10 0.397198 0.212763 0.510306
O O11 0.822748 0.295131 0.356636
O O12 0.673222 0.091864 0.480025
O O13 0.795285 0.938300 0.408277
O O14 0.702240 0.845146 0.300672
#
# Coordination Sequence:
#
# PCOD8128220 Si02
#       7
#     4   4   4   4   4   4   4
#     4  11  24  41  68  98 133 164 220 276 325 375
#     4  11  24  41  65 103 128 170 215 275 324 387
#     4  11  24  40  68  95 134 175 217 265 330 385
#     4  11  23  43  67  98 125 175 218 268 326 384
#     4  11  22  46  63  94 138 174 213 265 327 398
#     4  10  24  43  67  88 136 178 210 264 325 391
#     4  11  23  44  64  99 133 168 220 273 321 386
#
# _framework density 21.184678999999999
#
# number of rings (size 3 to 8) (size 9 to 14) (size 15 to 20)
#    0.000    1.143    5.714    0.000    4.000    0.571 
#    0.000    5.714    0.000    0.000    0.000    0.000 
#    0.000    0.000    0.000    0.000    0.000    0.000 
#
# Total GULP energy -347209.748801 kJ/mol
# GULP energy per Si atom -12400.348171 kJ/mol
# Density = 2.113646 g / cm^3
# Si number density = 21.184679 Si / 1000 Ang^3
#
#
#
# Elastic Constant Matrix: (Units=GPa)
#
#
# Indices 1 2 3 4 5 6 
#
# 1 96.3689 60.8552 25.2116 0.0000 -10.1801 0.0000
# 2 60.8552 85.2983 35.9909 0.0000 -6.2080 0.0000
# 3 25.2116 35.9909 81.7360 0.0000 -7.0114 0.0000
# 4 0.0000 0.0000 0.0000 28.8380 0.0000 -7.0872
# 5 -10.1801 -6.2080 -7.0114 0.0000 24.7482 0.0000
# 6 0.0000 0.0000 0.0000 -7.0872 0.0000 32.2439
#
#
#
# Elastic Compliance Matrix: (Units=1/GPa)
#
#
# Indices 1 2 3 4 5 6 
#
# 1 0.019396 -0.013685 0.000444 0.000000 0.004671 0.000000
# 2 -0.013685 0.024139 -0.006530 0.000000 -0.001424 0.000000
# 3 0.000444 -0.006530 0.015218 0.000000 0.002856 0.000000
# 4 0.000000 0.000000 0.000000 0.036657 0.000000 0.008057
# 5 0.004671 -0.001424 0.002856 0.000000 0.042780 0.000000
# 6 0.000000 0.000000 0.000000 0.008057 0.000000 0.032785
#
#
# Mechanical properties :
#
#
# Convention : Reuss Voigt Hill
#
# Bulk Modulus (GPa) = 52.05547 56.39095 54.22321
# Shear Modulus (GPa) = 23.04990 26.58905 24.81948
#
# Velocity S-wave (km/s) = 3.30213 3.54659 3.42654
# Velocity P-wave (km/s) = 6.25814 6.59148 6.42697
#
# Compressibility (1/GPa) = 0.01921028
#
# Stress axis : x y z
#
# Youngs Moduli (GPa) = 51.55660 41.42696 65.71208
#
# Poissons Ratio (x) = 0.56694 -0.02918
# Poissons Ratio (y) = 0.70557 0.42910
# Poissons Ratio (z) = -0.02289 0.27052
#
# Static dielectric constant tensor:
#      x y z
#    x 3.462920 0.000000 -0.066240 
#    y 0.000000 4.089010 0.000000 
#    z -0.066240 0.000000 3.781290 
# 
# 
# High freq. dielectric constant tensor:
#      x y z
#    x 1.804050 0.000000 -0.011260 
#    y 0.000000 1.848640 0.000000 
#    z -0.011260 0.000000 1.834150 
# 
# From -- ./inp_files/37800.got.cif
#   From: 2010.03.12/outbox.cif.g09.slc.cpg/sg14_19_cif.got.tgz:37800.got - 2010.03.31 13:35:05.
