data_PCOD8128698
_publ_section_title
;
Structure prediction by ZEFSAII (Michael W. Deem and Ramdas Pophale) SiO2 
 PCOD8128698
Probable space group: P 21/C
;
_chemical_formula_sum "Si O2"
_cell_formula_units_Z 32
_cell_length_a 11.842064
_cell_length_b 12.079230
_cell_length_c 11.579536
_cell_angle_alpha 90.000000
_cell_angle_beta 64.718383
_cell_angle_gamma 90.000000
_cell_volume 1497.723821
_symmetry_space_group_name_H-M "P 21/C"
_symmetry_group_IT_number 14
_symmetry_cell_setting 'monoclinic'
loop_
_space_group_symop_operation_xyz
x,y,z
-x,1/2+y,1/2-z
-x,-y,-z
x,1/2-y,1/2+z
loop_
_atom_site_type_symbol
_atom_site_label
_atom_site_fract_x
_atom_site_fract_y
_atom_site_fract_z
Si Si1 0.829589 0.784438 0.204956
Si Si2 0.275086 0.856166 0.758512
Si Si3 0.371217 0.890011 0.242124
Si Si4 0.061424 0.747396 0.960222
Si Si5 0.343405 0.065506 0.859182
Si Si6 0.783072 0.094640 0.471160
Si Si7 0.018939 0.426105 0.178938
Si Si8 0.216097 0.053871 0.156551
O O1 0.710184 0.854769 0.217667
O O2 0.907158 0.846042 0.268801
O O3 0.782371 0.666461 0.270160
O O4 0.920209 0.774520 0.054442
O O5 0.339018 0.737476 0.734672
O O6 0.278089 0.901765 0.627702
O O7 0.348192 0.940390 0.809405
O O8 0.130955 0.849801 0.866946
O O9 0.518809 0.898371 0.167893
O O10 0.325892 0.927616 0.388732
O O11 0.311216 0.966711 0.170606
O O12 0.144119 0.710185 0.035128
O O13 0.066128 0.643712 0.871080
O O14 0.257149 0.077509 0.008751
O O15 0.881776 0.995364 0.438148
O O16 0.924915 0.506810 0.288355
#
# Coordination Sequence:
#
# PCOD8128698 Si02
#       8
#     4   4   4   4   4   4   4   4
#     4  12  26  41  70 110 143 183 228 294 354 414
#     4  11  25  45  72 104 137 188 235 294 349 412
#     4  11  28  47  73  97 137 198 235 286 349 424
#     4  11  22  40  69 102 143 181 227 283 356 423
#     4  12  29  48  68 106 143 187 240 290 343 420
#     4  11  22  43  70 100 138 178 235 288 345 418
#     4  12  22  42  68 108 137 178 231 284 361 410
#     4  12  26  47  74 101 146 188 231 293 357 416
#
# _framework density 21.365755
#
# number of rings (size 3 to 8) (size 9 to 14) (size 15 to 20)
#    0.000    0.500    5.000    3.750    7.000    2.500 
#    0.000    0.000    0.000    0.000    0.000    0.000 
#    0.000    0.000    0.000    0.000    0.000    0.000 
#
# Total GULP energy -396982.993672 kJ/mol
# GULP energy per Si atom -12405.718552 kJ/mol
# Density = 2.131713 g / cm^3
# Si number density = 21.365755 Si / 1000 Ang^3
#
#
#
# Elastic Constant Matrix: (Units=GPa)
#
#
# Indices 1 2 3 4 5 6 
#
# 1 81.2965 34.4660 11.9819 0.0000 1.2878 0.0000
# 2 34.4660 88.8929 -4.8986 0.0000 4.0629 0.0000
# 3 11.9819 -4.8986 64.4253 0.0000 4.8114 0.0000
# 4 0.0000 0.0000 0.0000 27.4720 0.0000 3.3934
# 5 1.2878 4.0629 4.8114 0.0000 27.9296 0.0000
# 6 0.0000 0.0000 0.0000 3.3934 0.0000 32.4737
#
#
#
# Elastic Compliance Matrix: (Units=1/GPa)
#
#
# Indices 1 2 3 4 5 6 
#
# 1 0.015418 -0.006201 -0.003397 0.000000 0.000776 0.000000
# 2 -0.006201 0.013882 0.002369 0.000000 -0.002142 0.000000
# 3 -0.003397 0.002369 0.016561 0.000000 -0.003041 0.000000
# 4 0.000000 0.000000 0.000000 0.036877 0.000000 -0.003854
# 5 0.000776 -0.002142 -0.003041 0.000000 0.036604 0.000000
# 6 0.000000 0.000000 0.000000 -0.003854 0.000000 0.031197
#
#
# Mechanical properties :
#
#
# Convention : Reuss Voigt Hill
#
# Bulk Modulus (GPa) = 31.84401 35.30149 33.57275
# Shear Modulus (GPa) = 28.49600 30.44607 29.47104
#
# Velocity S-wave (km/s) = 3.65598 3.77900 3.71800
# Velocity P-wave (km/s) = 5.72347 5.96653 5.84627
#
# Compressibility (1/GPa) = 0.03140308
#
# Stress axis : x y z
#
# Youngs Moduli (GPa) = 64.86032 72.03574 60.38360
#
# Poissons Ratio (x) = 0.44666 0.20511
# Poissons Ratio (y) = 0.40217 -0.14303
# Poissons Ratio (z) = 0.22032 -0.17063
#
# Static dielectric constant tensor:
#      x y z
#    x 3.686570 0.000000 -0.009450 
#    y 0.000000 3.959350 0.000000 
#    z -0.009450 0.000000 4.007250 
# 
# 
# High freq. dielectric constant tensor:
#      x y z
#    x 1.832820 0.000000 0.005200 
#    y 0.000000 1.845930 0.000000 
#    z 0.005200 0.000000 1.846980 
# 
# From -- ./inp_files/29367.got.cif
#   From: 2010.03.12/outbox.cif.g09.slc.cpg/sg14_15_cif.got.tgz:29367.got - 2010.03.31 13:35:05.
