data_PCOD8128275
_publ_section_title
;
Structure prediction by ZEFSAII (Michael W. Deem and Ramdas Pophale) SiO2 
 PCOD8128275
Probable space group: P 21/C
;
_chemical_formula_sum "Si O2"
_cell_formula_units_Z 20
_cell_length_a 6.862833
_cell_length_b 9.792600
_cell_length_c 12.873910
_cell_angle_alpha 90.000000
_cell_angle_beta 87.690971
_cell_angle_gamma 90.000000
_cell_volume 864.488360
_symmetry_space_group_name_H-M "P 21/C"
_symmetry_group_IT_number 14
_symmetry_cell_setting 'monoclinic'
loop_
_space_group_symop_operation_xyz
x,y,z
-x,1/2+y,1/2-z
-x,-y,-z
x,1/2-y,1/2+z
loop_
_atom_site_type_symbol
_atom_site_label
_atom_site_fract_x
_atom_site_fract_y
_atom_site_fract_z
Si Si1 0.641553 0.407304 0.379150
Si Si2 0.817135 0.129333 0.380251
Si Si3 0.725670 0.270134 0.577687
Si Si4 0.383419 0.378897 0.203293
Si Si5 0.085347 0.355853 0.701768
O O1 0.744853 0.271639 0.329670
O O2 0.615088 0.381610 0.504292
O O3 0.438565 0.424241 0.320247
O O4 0.775124 0.537483 0.356294
O O5 0.835552 0.154610 0.504030
O O6 0.022758 0.093550 0.319179
O O7 0.656566 0.012940 0.363822
O O8 0.563059 0.200816 0.650316
O O9 0.887256 0.347916 0.640199
O O10 0.189282 0.289279 0.209921
#
# Coordination Sequence:
#
# PCOD8128275 Si02
#       5
#     4   4   4   4   4
#     4  10  24  44  68  99 138 176 229 278 344 401
#     4  10  24  44  68  99 138 176 229 278 344 401
#     4  10  24  46  68 104 130 184 232 284 332 416
#     4  12  24  46  71  98 141 181 229 285 342 409
#     4  12  24  46  71  98 141 181 229 285 342 409
#
# _framework density 23.135072000000001
#
# number of rings (size 3 to 8) (size 9 to 14) (size 15 to 20)
#    1.200    0.000    2.000    3.600    0.000    3.200 
#    0.000    0.000    0.000    0.000    0.000    0.000 
#    0.000    0.000    0.000    0.000    0.000    0.000 
#
# Total GULP energy -247903.488318 kJ/mol
# GULP energy per Si atom -12395.174416 kJ/mol
# Density = 2.308242 g / cm^3
# Si number density = 23.135072 Si / 1000 Ang^3
#
#
#
# Elastic Constant Matrix: (Units=GPa)
#
#
# Indices 1 2 3 4 5 6 
#
# 1 67.8354 17.2786 21.5551 0.0000 13.6613 0.0000
# 2 17.2786 58.6687 -19.6746 0.0000 22.8761 0.0000
# 3 21.5551 -19.6746 74.9636 0.0000 3.6392 0.0000
# 4 0.0000 0.0000 0.0000 6.1996 0.0000 6.6334
# 5 13.6613 22.8761 3.6392 0.0000 23.6093 0.0000
# 6 0.0000 0.0000 0.0000 6.6334 0.0000 44.0980
#
#
#
# Elastic Compliance Matrix: (Units=1/GPa)
#
#
# Indices 1 2 3 4 5 6 
#
# 1 0.019472 -0.006724 -0.007187 0.000000 -0.003645 0.000000
# 2 -0.006724 0.036488 0.013136 0.000000 -0.033489 0.000000
# 3 -0.007187 0.013136 0.019415 0.000000 -0.011562 0.000000
# 4 0.000000 0.000000 0.000000 0.192243 0.000000 -0.028918
# 5 -0.003645 -0.033489 -0.011562 0.000000 0.078696 0.000000
# 6 0.000000 0.000000 0.000000 -0.028918 0.000000 0.027027
#
#
# Mechanical properties :
#
#
# Convention : Reuss Voigt Hill
#
# Bulk Modulus (GPa) = 13.54543 26.64288 20.09415
# Shear Modulus (GPa) = 12.51569 26.93530 19.72550
#
# Velocity S-wave (km/s) = 2.32843 3.41583 2.92314
# Velocity P-wave (km/s) = 3.61890 5.20562 4.48302
#
# Compressibility (1/GPa) = 0.07382564
#
# Stress axis : x y z
#
# Youngs Moduli (GPa) = 51.35645 27.40615 51.50641
#
# Poissons Ratio (x) = 0.18427 0.37016
# Poissons Ratio (y) = 0.34530 -0.67657
# Poissons Ratio (z) = 0.36908 -0.36000
#
# Static dielectric constant tensor:
#      x y z
#    x 3.998590 0.000000 0.056060 
#    y 0.000000 4.180770 0.000000 
#    z 0.056060 0.000000 4.161230 
# 
# 
# High freq. dielectric constant tensor:
#      x y z
#    x 1.900900 0.000000 -0.001710 
#    y 0.000000 1.925250 0.000000 
#    z -0.001710 0.000000 1.922940 
# 
# From -- ./inp_files/37017.got.cif
#   From: 2010.03.12/outbox.cif.g09.slc.cpg/sg14_19_cif.got.tgz:37017.got - 2010.03.31 13:35:05.
