data_PCOD8128499
_publ_section_title
;
Structure prediction by ZEFSAII (Michael W. Deem and Ramdas Pophale) SiO2 
 PCOD8128499
Probable space group: P 21/C
;
_chemical_formula_sum "Si O2"
_cell_formula_units_Z 28
_cell_length_a 9.424506
_cell_length_b 11.271317
_cell_length_c 27.976993
_cell_angle_alpha 90.000000
_cell_angle_beta 28.327154
_cell_angle_gamma 90.000000
_cell_volume 1410.183040
_symmetry_space_group_name_H-M "P 21/C"
_symmetry_group_IT_number 14
_symmetry_cell_setting 'monoclinic'
loop_
_space_group_symop_operation_xyz
x,y,z
-x,1/2+y,1/2-z
-x,-y,-z
x,1/2-y,1/2+z
loop_
_atom_site_type_symbol
_atom_site_label
_atom_site_fract_x
_atom_site_fract_y
_atom_site_fract_z
Si Si1 0.210799 0.031460 0.615144
Si Si2 0.772254 0.303393 0.844630
Si Si3 0.616650 0.880973 0.623585
Si Si4 0.841454 0.237636 0.677103
Si Si5 0.446812 0.138481 0.013798
Si Si6 0.269233 0.850950 0.395685
Si Si7 0.634398 0.729636 0.869327
O O1 0.360093 0.093069 0.616858
O O2 0.966029 0.114311 0.662207
O O3 0.500000 0.000000 0.500000
O O4 0.063842 0.906462 0.673086
O O5 0.500671 0.360611 0.895511
O O6 0.015746 0.262101 0.734674
O O7 0.665014 0.196316 0.909965
O O8 0.448510 0.790867 0.709836
O O9 0.966121 0.850668 0.516493
O O10 0.587427 0.016955 0.650465
O O11 0.752272 0.208720 0.649478
O O12 0.104779 0.335021 0.600713
O O13 0.525355 0.190087 0.042949
O O14 0.500000 0.000000 0.000000
O O15 0.483118 0.762534 0.362460
#
# Coordination Sequence:
#
# PCOD8128499 Si02
#       7
#     4   4   4   4   4   4   4
#     4  11  20  40  68  96 129 168 228 276 323 400
#     4  12  22  41  72  96 129 178 227 275 330 407
#     4  11  23  42  69  94 137 175 221 281 340 397
#     4  11  24  44  66 102 136 176 224 279 345 404
#     4  11  25  42  65  98 137 173 219 282 336 398
#     4  11  25  43  66  98 132 177 225 278 337 402
#     4  11  25  39  66  99 126 171 231 268 330 404
#
# _framework density 19.85558
#
# number of rings (size 3 to 8) (size 9 to 14) (size 15 to 20)
#    0.000    0.857    8.571    0.000    6.000    2.286 
#    0.000    0.714    0.000    0.000    0.000    0.000 
#    0.000    0.000    0.000    0.000    0.000    0.000 
#
# Total GULP energy -347031.069502 kJ/mol
# GULP energy per Si atom -12393.966768 kJ/mol
# Density = 1.981039 g / cm^3
# Si number density = 19.855580 Si / 1000 Ang^3
#
#
#
# Elastic Constant Matrix: (Units=GPa)
#
#
# Indices 1 2 3 4 5 6 
#
# 1 128.0688 46.6401 16.3547 0.0000 8.6804 0.0000
# 2 46.6401 135.0891 35.8089 0.0000 8.7893 0.0000
# 3 16.3547 35.8089 81.0880 0.0000 10.3432 0.0000
# 4 0.0000 0.0000 0.0000 35.8973 0.0000 -2.7464
# 5 8.6804 8.7893 10.3432 0.0000 31.0317 0.0000
# 6 0.0000 0.0000 0.0000 -2.7464 0.0000 27.9072
#
#
#
# Elastic Compliance Matrix: (Units=1/GPa)
#
#
# Indices 1 2 3 4 5 6 
#
# 1 0.009023 -0.002926 -0.000325 0.000000 -0.001587 0.000000
# 2 -0.002926 0.009375 -0.003463 0.000000 -0.000683 0.000000
# 3 -0.000325 -0.003463 0.014403 0.000000 -0.003729 0.000000
# 4 0.000000 0.000000 0.000000 0.028069 0.000000 0.002762
# 5 -0.001587 -0.000683 -0.003729 0.000000 0.034105 0.000000
# 6 0.000000 0.000000 0.000000 0.002762 0.000000 0.036105
#
#
# Mechanical properties :
#
#
# Convention : Reuss Voigt Hill
#
# Bulk Modulus (GPa) = 51.61917 60.20593 55.91255
# Shear Modulus (GPa) = 33.12030 35.33005 34.22518
#
# Velocity S-wave (km/s) = 4.08862 4.22281 4.15626
# Velocity P-wave (km/s) = 6.95290 7.35961 7.15915
#
# Compressibility (1/GPa) = 0.01937265
#
# Stress axis : x y z
#
# Youngs Moduli (GPa) = 110.82928 106.66693 69.43117
#
# Poissons Ratio (x) = 0.31207 0.02259
# Poissons Ratio (y) = 0.32425 0.24043
# Poissons Ratio (z) = 0.03607 0.36937
#
# Static dielectric constant tensor:
#      x y z
#    x 3.458570 0.000000 -0.053160 
#    y 0.000000 3.718650 0.000000 
#    z -0.053160 0.000000 3.569140 
# 
# 
# High freq. dielectric constant tensor:
#      x y z
#    x 1.776470 0.000000 0.013760 
#    y 0.000000 1.776390 0.000000 
#    z 0.013760 0.000000 1.775770 
# 
# From -- ./inp_files/76648.got.cif
#   From: 2010.03.12/outbox.cif.g09.slc.cpg/sg14_39_cif.got.tgz:76648.got - 2010.03.31 13:35:05.
