data_PCOD8128176
_publ_section_title
;
Structure prediction by ZEFSAII (Michael W. Deem and Ramdas Pophale) SiO2 
 PCOD8128176
Probable space group: P 21/C
;
_chemical_formula_sum "Si O2"
_cell_formula_units_Z 28
_cell_length_a 19.335651
_cell_length_b 8.828309
_cell_length_c 9.638246
_cell_angle_alpha 90.000000
_cell_angle_beta 127.428771
_cell_angle_gamma 90.000000
_cell_volume 1306.516015
_symmetry_space_group_name_H-M "P 21/C"
_symmetry_group_IT_number 14
_symmetry_cell_setting 'monoclinic'
loop_
_space_group_symop_operation_xyz
x,y,z
-x,1/2+y,1/2-z
-x,-y,-z
x,1/2-y,1/2+z
loop_
_atom_site_type_symbol
_atom_site_label
_atom_site_fract_x
_atom_site_fract_y
_atom_site_fract_z
Si Si1 0.744686 0.111423 0.272664
Si Si2 0.271008 0.916852 0.418759
Si Si3 0.874310 0.496535 0.439344
Si Si4 0.441565 0.932306 0.044823
Si Si5 0.534739 0.074967 0.404279
Si Si6 0.112774 0.492479 0.244071
Si Si7 0.001678 0.751960 0.009136
O O1 0.743740 0.275419 0.201543
O O2 0.749469 0.123321 0.446228
O O3 0.823805 0.010807 0.311146
O O4 0.656407 0.029833 0.118357
O O5 0.199450 0.033181 0.267798
O O6 0.368494 0.983603 0.520463
O O7 0.834107 0.499863 0.546029
O O8 0.917506 0.331161 0.470324
O O9 0.949298 0.622404 0.530217
O O10 0.461369 0.755223 0.084750
O O11 0.461928 0.022483 0.208452
O O12 0.500000 0.000000 0.000000
O O13 0.500000 0.000000 0.500000
O O14 0.040811 0.626198 0.160617
O O15 0.063725 0.331700 0.176301
#
# Coordination Sequence:
#
# PCOD8128176 Si02
#       7
#     4   4   4   4   4   4   4
#     4  11  24  41  68  97 136 175 222 275 332 405
#     4  11  24  42  66 100 134 175 223 272 337 401
#     4  11  23  42  68  97 132 175 222 278 332 398
#     4  11  23  47  69 100 137 179 225 277 335 407
#     4  11  25  43  73 100 135 181 225 279 337 406
#     4  11  23  42  68  98 130 176 223 275 335 394
#     4  10  24  42  66  96 134 170 226 274 336 395
#
# _framework density 21.431042999999999
#
# number of rings (size 3 to 8) (size 9 to 14) (size 15 to 20)
#    0.000    1.143    2.857    2.571    8.000    5.714 
#    5.143    0.000    0.000    0.000    0.000    0.000 
#    0.000    0.000    0.000    0.000    0.000    0.000 
#
# Total GULP energy -347117.829794 kJ/mol
# GULP energy per Si atom -12397.065350 kJ/mol
# Density = 2.138227 g / cm^3
# Si number density = 21.431043 Si / 1000 Ang^3
#
#
#
# Elastic Constant Matrix: (Units=GPa)
#
#
# Indices 1 2 3 4 5 6 
#
# 1 113.9019 16.6386 56.7295 0.0000 -9.1165 0.0000
# 2 16.6386 72.3263 22.3582 0.0000 3.6137 0.0000
# 3 56.7295 22.3582 163.8435 0.0000 -17.7553 0.0000
# 4 0.0000 0.0000 0.0000 30.6860 0.0000 2.0707
# 5 -9.1165 3.6137 -17.7553 0.0000 47.4682 0.0000
# 6 0.0000 0.0000 0.0000 2.0707 0.0000 23.3331
#
#
#
# Elastic Compliance Matrix: (Units=1/GPa)
#
#
# Indices 1 2 3 4 5 6 
#
# 1 0.010775 -0.001462 -0.003434 0.000000 0.000896 0.000000
# 2 -0.001462 0.014802 -0.001737 0.000000 -0.002057 0.000000
# 3 -0.003434 -0.001737 0.007788 0.000000 0.002386 0.000000
# 4 0.000000 0.000000 0.000000 0.032784 0.000000 -0.002910
# 5 0.000896 -0.002057 0.002386 0.000000 0.022288 0.000000
# 6 0.000000 0.000000 0.000000 -0.002910 0.000000 0.043116
#
#
# Mechanical properties :
#
#
# Convention : Reuss Voigt Hill
#
# Bulk Modulus (GPa) = 49.75205 60.16937 54.96071
# Shear Modulus (GPa) = 32.99914 37.25382 35.12648
#
# Velocity S-wave (km/s) = 3.92826 4.17383 4.05291
# Velocity P-wave (km/s) = 6.62120 7.16691 6.89945
#
# Compressibility (1/GPa) = 0.02009967
#
# Stress axis : x y z
#
# Youngs Moduli (GPa) = 92.80567 67.55756 128.40321
#
# Poissons Ratio (x) = 0.09877 0.44096
# Poissons Ratio (y) = 0.13568 0.22299
# Poissons Ratio (z) = 0.31871 0.11732
#
# Static dielectric constant tensor:
#      x y z
#    x 4.002820 0.000000 0.164060 
#    y 0.000000 3.765640 0.000000 
#    z 0.164060 0.000000 3.847570 
# 
# 
# High freq. dielectric constant tensor:
#      x y z
#    x 1.846580 0.000000 0.002860 
#    y 0.000000 1.827380 0.000000 
#    z 0.002860 0.000000 1.855220 
# 
# From -- ./inp_files/18758.got.cif
#   From: 2010.03.12/outbox.cif.g09.slc.cpg/sg14_10_cif.got.tgz:18758.got - 2010.03.31 13:35:05.
