data_PCOD8128644
_publ_section_title
;
Structure prediction by ZEFSAII (Michael W. Deem and Ramdas Pophale) SiO2 
 PCOD8128644
Probable space group: P 21/C
;
_chemical_formula_sum "Si O2"
_cell_formula_units_Z 32
_cell_length_a 23.427379
_cell_length_b 11.320801
_cell_length_c 22.323717
_cell_angle_alpha 90.000000
_cell_angle_beta 17.655518
_cell_angle_gamma 90.000000
_cell_volume 1795.685500
_symmetry_space_group_name_H-M "P 21/C"
_symmetry_group_IT_number 14
_symmetry_cell_setting 'monoclinic'
loop_
_space_group_symop_operation_xyz
x,y,z
-x,1/2+y,1/2-z
-x,-y,-z
x,1/2-y,1/2+z
loop_
_atom_site_type_symbol
_atom_site_label
_atom_site_fract_x
_atom_site_fract_y
_atom_site_fract_z
Si Si1 0.499996 0.832059 0.840769
Si Si2 0.215298 0.008349 0.890982
Si Si3 0.215367 0.831312 0.565081
Si Si4 0.500006 0.603831 0.681394
Si Si5 0.500002 0.174584 0.547738
Si Si6 0.784635 0.668688 0.495813
Si Si7 0.499998 0.191223 0.410530
Si Si8 0.215293 0.991648 0.678427
O O1 0.500006 0.787440 0.909061
O O2 0.684898 0.785490 0.621382
O O3 0.499997 0.971702 0.842768
O O4 0.315094 0.785489 0.991189
O O5 0.316131 0.093617 0.742251
O O6 0.235643 0.062381 0.936792
O O7 0.313668 0.881189 0.793969
O O8 0.000004 0.994063 0.086623
O O9 0.312578 0.873080 0.407000
O O10 0.235641 0.937623 0.591923
O O11 0.000001 0.798895 0.767058
O O12 0.687433 0.626914 0.532145
O O13 0.500011 0.685716 0.623427
O O14 0.500009 0.221646 0.480612
O O15 0.683887 0.093629 0.374497
O O16 0.313667 0.118806 0.578701
#
# Coordination Sequence:
#
# PCOD8128644 Si02
#       8
#     4   4   4   4   4   4   4   4
#     4   9  20  38  56  74 106 144 179 216 260 322
#     4   9  18  35  58  81 103 135 179 226 272 310
#     4   9  20  36  57  79 103 138 178 221 271 318
#     4  11  23  34  51  80 112 143 176 216 263 319
#     4   9  19  36  55  77 106 141 181 219 263 311
#     4   9  20  36  57  79 103 138 178 221 271 318
#     4  11  22  32  50  83 113 137 175 222 262 312
#     4   9  18  35  58  81 103 135 179 226 272 310
#
# _framework density 17.820492000000002
#
# number of rings (size 3 to 8) (size 9 to 14) (size 15 to 20)
#    0.000    2.500    0.000    3.750    7.000    4.500 
#    0.000    0.000    0.000    0.000    0.000   10.500 
#    0.000    0.000    0.000    0.000    0.000    0.000 
#
# Total GULP energy -396889.114873 kJ/mol
# GULP energy per Si atom -12402.784840 kJ/mol
# Density = 1.777993 g / cm^3
# Si number density = 17.820492 Si / 1000 Ang^3
#
#
#
# Elastic Constant Matrix: (Units=GPa)
#
#
# Indices 1 2 3 4 5 6 
#
# 1 96.2524 67.1692 60.4640 0.0000 4.4013 0.0000
# 2 67.1692 151.5349 61.6621 0.0000 1.5512 0.0000
# 3 60.4640 61.6621 156.4012 0.0000 -21.4843 0.0000
# 4 0.0000 0.0000 0.0000 7.7935 0.0000 2.9829
# 5 4.4013 1.5512 -21.4843 0.0000 17.4537 0.0000
# 6 0.0000 0.0000 0.0000 2.9829 0.0000 18.3149
#
#
#
# Elastic Compliance Matrix: (Units=1/GPa)
#
#
# Indices 1 2 3 4 5 6 
#
# 1 0.019297 -0.005542 -0.007072 0.000000 -0.013078 0.000000
# 2 -0.005542 0.009904 -0.002035 0.000000 -0.001988 0.000000
# 3 -0.007072 -0.002035 0.012276 0.000000 0.017075 0.000000
# 4 0.000000 0.000000 0.000000 0.136842 0.000000 -0.022287
# 5 -0.013078 -0.001988 0.017075 0.000000 0.081786 0.000000
# 6 0.000000 0.000000 0.000000 -0.022287 0.000000 0.058230
#
#
# Mechanical properties :
#
#
# Convention : Reuss Voigt Hill
#
# Bulk Modulus (GPa) = 82.11056 86.97547 84.54302
# Shear Modulus (GPa) = 14.21689 23.03864 18.62776
#
# Velocity S-wave (km/s) = 2.82757 3.59948 3.23662
# Velocity P-wave (km/s) = 7.53901 8.13556 7.84296
#
# Compressibility (1/GPa) = 0.01217870
#
# Stress axis : x y z
#
# Youngs Moduli (GPa) = 51.82068 100.96584 81.46220
#
# Poissons Ratio (x) = 0.55957 0.57608
# Poissons Ratio (y) = 0.28720 0.16580
# Poissons Ratio (z) = 0.36646 0.20550
#
# Static dielectric constant tensor:
#      x y z
#    x 3.225180 0.000000 -0.100310 
#    y 0.000000 3.051350 0.000000 
#    z -0.100310 0.000000 3.578660 
# 
# 
# High freq. dielectric constant tensor:
#      x y z
#    x 1.688290 0.000000 -0.002210 
#    y 0.000000 1.670170 0.000000 
#    z -0.002210 0.000000 1.696070 
# 
# From -- ./inp_files/69921.got.cif
#   From: 2010.03.12/outbox.cif.g09.slc.cpg/sg14_35_cif.got.tgz:69921.got - 2010.03.31 13:35:05.
