data_PCOD8128488
_publ_section_title
;
Structure prediction by ZEFSAII (Michael W. Deem and Ramdas Pophale) SiO2 
 PCOD8128488
Probable space group: P 21/C
;
_chemical_formula_sum "Si O2"
_cell_formula_units_Z 28
_cell_length_a 8.957858
_cell_length_b 8.450055
_cell_length_c 26.515209
_cell_angle_alpha 90.000000
_cell_angle_beta 39.421461
_cell_angle_gamma 90.000000
_cell_volume 1274.518385
_symmetry_space_group_name_H-M "P 21/C"
_symmetry_group_IT_number 14
_symmetry_cell_setting 'monoclinic'
loop_
_space_group_symop_operation_xyz
x,y,z
-x,1/2+y,1/2-z
-x,-y,-z
x,1/2-y,1/2+z
loop_
_atom_site_type_symbol
_atom_site_label
_atom_site_fract_x
_atom_site_fract_y
_atom_site_fract_z
Si Si1 0.558900 0.055867 0.322612
Si Si2 0.894132 0.964637 0.621863
Si Si3 0.401976 0.442326 0.971677
Si Si4 0.890789 0.685839 0.695445
Si Si5 0.436365 0.603378 0.563849
Si Si6 0.211978 0.103670 0.189762
Si Si7 0.881330 0.177574 0.722058
O O1 0.300123 0.017605 0.370235
O O2 0.560971 0.005043 0.381870
O O3 0.627919 0.242415 0.301450
O O4 0.748473 0.977839 0.234244
O O5 0.863964 0.787769 0.651865
O O6 0.874230 0.104300 0.668286
O O7 0.146508 0.983498 0.529837
O O8 0.388456 0.250611 0.976010
O O9 0.500000 0.500000 0.000000
O O10 0.742029 0.775743 0.777704
O O11 0.167214 0.666676 0.633463
O O12 0.500000 0.500000 0.500000
O O13 0.451562 0.477472 0.606330
O O14 0.078094 0.186041 0.177682
O O15 0.054422 0.960561 0.254538
#
# Coordination Sequence:
#
# PCOD8128488 Si02
#       7
#     4   4   4   4   4   4   4
#     4  12  24  45  68  98 139 180 224 272 341 413
#     4  11  26  44  68  98 139 181 220 275 347 409
#     4  12  26  44  67  99 132 178 226 280 335 395
#     4  11  24  41  69 100 132 174 222 275 334 395
#     4  12  24  39  64 100 132 168 216 286 333 380
#     4  11  20  38  64 102 129 169 225 281 326 385
#     4  11  21  38  68  97 134 171 231 279 329 399
#
# _framework density 21.969083000000001
#
# number of rings (size 3 to 8) (size 9 to 14) (size 15 to 20)
#    0.000    0.571    5.714    2.143    6.000    0.000 
#    0.000    0.000    0.000    1.714    0.000    0.000 
#    0.000    0.000    0.000    0.000    0.000    0.000 
#
# Total GULP energy -346876.542396 kJ/mol
# GULP energy per Si atom -12388.447943 kJ/mol
# Density = 2.191908 g / cm^3
# Si number density = 21.969083 Si / 1000 Ang^3
#
#
#
# Elastic Constant Matrix: (Units=GPa)
#
#
# Indices 1 2 3 4 5 6 
#
# 1 61.7414 14.7931 2.8133 0.0000 2.4303 0.0000
# 2 14.7931 75.0420 17.4223 0.0000 9.4165 0.0000
# 3 2.8133 17.4223 80.9252 0.0000 15.4308 0.0000
# 4 0.0000 0.0000 0.0000 42.9819 0.0000 4.4049
# 5 2.4303 9.4165 15.4308 0.0000 33.9537 0.0000
# 6 0.0000 0.0000 0.0000 4.4049 0.0000 24.0917
#
#
#
# Elastic Compliance Matrix: (Units=1/GPa)
#
#
# Indices 1 2 3 4 5 6 
#
# 1 0.017005 -0.003352 0.000203 0.000000 -0.000380 0.000000
# 2 -0.003352 0.014927 -0.002577 0.000000 -0.002729 0.000000
# 3 0.000203 -0.002577 0.013983 0.000000 -0.005655 0.000000
# 4 0.000000 0.000000 0.000000 0.023710 0.000000 -0.004335
# 5 -0.000380 -0.002729 -0.005655 0.000000 0.032806 0.000000
# 6 0.000000 0.000000 0.000000 -0.004335 0.000000 0.042301
#
#
# Mechanical properties :
#
#
# Convention : Reuss Voigt Hill
#
# Bulk Modulus (GPa) = 29.01554 31.97400 30.49477
# Shear Modulus (GPa) = 29.82021 32.38412 31.10216
#
# Velocity S-wave (km/s) = 3.68825 3.84354 3.76669
# Velocity P-wave (km/s) = 5.60122 5.85514 5.72959
#
# Compressibility (1/GPa) = 0.03446429
#
# Stress axis : x y z
#
# Youngs Moduli (GPa) = 58.80498 66.99149 71.51517
#
# Poissons Ratio (x) = 0.22454 -0.01451
# Poissons Ratio (y) = 0.19710 0.18428
# Poissons Ratio (z) = -0.01193 0.17263
#
# Static dielectric constant tensor:
#      x y z
#    x 3.622830 0.000000 0.167110 
#    y 0.000000 4.539060 0.000000 
#    z 0.167110 0.000000 4.176790 
# 
# 
# High freq. dielectric constant tensor:
#      x y z
#    x 1.825870 0.000000 0.017620 
#    y 0.000000 1.884010 0.000000 
#    z 0.017620 0.000000 1.867250 
# 
# From -- ./inp_files/54796.got.cif
#   From: 2010.03.12/outbox.cif.g09.slc.cpg/sg14_28_cif.got.tgz:54796.got - 2010.03.31 13:35:05.
