data_PCOD8128912
_publ_section_title
;
Structure prediction by ZEFSAII (Michael W. Deem and Ramdas Pophale) SiO2 
 PCOD8128912
Probable space group: P 21/C
;
_chemical_formula_sum "Si O2"
_cell_formula_units_Z 20
_cell_length_a 9.092876
_cell_length_b 5.055818
_cell_length_c 18.130669
_cell_angle_alpha 90.000000
_cell_angle_beta 80.418340
_cell_angle_gamma 90.000000
_cell_volume 821.873900
_symmetry_space_group_name_H-M "P 21/C"
_symmetry_group_IT_number 14
_symmetry_cell_setting 'monoclinic'
loop_
_space_group_symop_operation_xyz
x,y,z
-x,1/2+y,1/2-z
-x,-y,-z
x,1/2-y,1/2+z
loop_
_atom_site_type_symbol
_atom_site_label
_atom_site_fract_x
_atom_site_fract_y
_atom_site_fract_z
Si Si1 0.084203 0.713296 0.269682
Si Si2 0.817264 0.432574 0.591239
Si Si3 0.514170 0.009490 0.911374
Si Si4 0.694413 0.998614 0.355957
Si Si5 0.939313 0.184224 0.444110
O O1 0.117719 0.779436 0.353941
O O2 0.239867 0.578708 0.229029
O O3 0.953534 0.490923 0.267935
O O4 0.641924 0.471746 0.617353
O O5 0.838608 0.385423 0.501566
O O6 0.917604 0.684540 0.606651
O O7 0.632669 0.799012 0.868588
O O8 0.562999 0.305772 0.889041
O O9 0.500000 0.000000 0.000000
O O10 0.839936 0.025508 0.395011
O O11 0.000000 0.000000 0.500000
#
# Coordination Sequence:
#
# PCOD8128912 Si02
#       5
#     4   4   4   4   4
#     4  12  26  47  71 105 142 187 236 298 354 417
#     4  11  26  42  72 102 140 186 240 292 354 423
#     4  12  26  46  70 105 144 184 232 294 360 418
#     4  12  26  45  72 101 147 184 235 291 356 426
#     4  11  23  43  72 103 132 187 247 288 343 421
#
# _framework density 24.334631999999999
#
# number of rings (size 3 to 8) (size 9 to 14) (size 15 to 20)
#    0.000    0.400    4.000    4.200    5.600    1.600 
#    0.000    0.000    0.000    0.000    0.000    0.000 
#    0.000    0.000    0.000    0.000    0.000    0.000 
#
# Total GULP energy -247831.387752 kJ/mol
# GULP energy per Si atom -12391.569388 kJ/mol
# Density = 2.427925 g / cm^3
# Si number density = 24.334632 Si / 1000 Ang^3
#
#
#
# Elastic Constant Matrix: (Units=GPa)
#
#
# Indices 1 2 3 4 5 6 
#
# 1 147.3322 9.7871 0.9059 0.0000 9.6094 0.0000
# 2 9.7871 57.8258 -19.9300 0.0000 3.4400 0.0000
# 3 0.9059 -19.9300 59.9536 0.0000 7.3159 0.0000
# 4 0.0000 0.0000 0.0000 29.4905 0.0000 -3.8136
# 5 9.6094 3.4400 7.3159 0.0000 47.4373 0.0000
# 6 0.0000 0.0000 0.0000 -3.8136 0.0000 40.6679
#
#
#
# Elastic Compliance Matrix: (Units=1/GPa)
#
#
# Indices 1 2 3 4 5 6 
#
# 1 0.006953 -0.001225 -0.000358 0.000000 -0.001265 0.000000
# 2 -0.001225 0.020034 0.006956 0.000000 -0.002277 0.000000
# 3 -0.000358 0.006956 0.019415 0.000000 -0.003426 0.000000
# 4 0.000000 0.000000 0.000000 0.034325 0.000000 0.003219
# 5 -0.001265 -0.002277 -0.003426 0.000000 0.022030 0.000000
# 6 0.000000 0.000000 0.000000 0.003219 0.000000 0.024891
#
#
# Mechanical properties :
#
#
# Convention : Reuss Voigt Hill
#
# Bulk Modulus (GPa) = 17.49829 27.40418 22.45124
# Shear Modulus (GPa) = 36.77747 41.80904 39.29325
#
# Velocity S-wave (km/s) = 3.89179 4.14948 4.02270
# Velocity P-wave (km/s) = 5.23460 5.85179 5.55178
#
# Compressibility (1/GPa) = 0.05714844
#
# Stress axis : x y z
#
# Youngs Moduli (GPa) = 143.81381 49.91619 51.50548
#
# Poissons Ratio (x) = 0.06115 0.01844
# Poissons Ratio (y) = 0.17618 -0.35827
# Poissons Ratio (z) = 0.05148 -0.34722
#
# Static dielectric constant tensor:
#      x y z
#    x 4.313180 0.000000 0.088320 
#    y 0.000000 4.219540 0.000000 
#    z 0.088320 0.000000 3.786750 
# 
# 
# High freq. dielectric constant tensor:
#      x y z
#    x 1.971620 0.000000 -0.003210 
#    y 0.000000 1.964620 0.000000 
#    z -0.003210 0.000000 1.976250 
# 
# From -- ./inp_files/53962.got.cif
#   From: 2010.03.12/outbox.cif.g09.slc.cpg/sg14_27_cif.got.tgz:53962.got - 2010.03.31 13:35:05.
