data_PCOD8128875
_publ_section_title
;
Structure prediction by ZEFSAII (Michael W. Deem and Ramdas Pophale) SiO2 
 PCOD8128875
Probable space group: P 21/C
;
_chemical_formula_sum "Si O2"
_cell_formula_units_Z 28
_cell_length_a 10.274103
_cell_length_b 15.577612
_cell_length_c 8.881668
_cell_angle_alpha 90.000000
_cell_angle_beta 65.152265
_cell_angle_gamma 90.000000
_cell_volume 1289.886113
_symmetry_space_group_name_H-M "P 21/C"
_symmetry_group_IT_number 14
_symmetry_cell_setting 'monoclinic'
loop_
_space_group_symop_operation_xyz
x,y,z
-x,1/2+y,1/2-z
-x,-y,-z
x,1/2-y,1/2+z
loop_
_atom_site_type_symbol
_atom_site_label
_atom_site_fract_x
_atom_site_fract_y
_atom_site_fract_z
Si Si1 0.397958 0.316224 0.628361
Si Si2 0.065638 0.438259 0.594513
Si Si3 0.280878 0.504276 0.714855
Si Si4 0.328487 0.168222 0.841648
Si Si5 0.416877 0.568256 0.942091
Si Si6 0.292463 0.670620 0.527818
Si Si7 0.801891 0.171431 0.255006
O O1 0.369573 0.416901 0.660199
O O2 0.285466 0.252772 0.765979
O O3 0.392183 0.289798 0.459051
O O4 0.557770 0.289988 0.604872
O O5 0.123333 0.487752 0.717024
O O6 0.191860 0.390101 0.443607
O O7 0.000000 0.500000 0.500000
O O8 0.952805 0.372300 0.723330
O O9 0.296877 0.531206 0.882569
O O10 0.340605 0.581536 0.582833
O O11 0.455679 0.115241 0.705024
O O12 0.500000 0.500000 0.000000
O O13 0.331750 0.626771 0.100046
O O14 0.197967 0.660161 0.425176
O O15 0.203551 0.729199 0.689825
#
# Coordination Sequence:
#
# PCOD8128875 Si02
#       7
#     4   4   4   4   4   4   4
#     4  11  23  42  70 107 135 179 232 300 359 409
#     4  11  25  49  69 100 139 195 230 287 352 426
#     4  11  25  44  73 101 146 184 238 291 358 414
#     4  11  25  43  69 100 141 176 235 287 360 414
#     4  12  25  43  71 108 134 183 237 301 349 415
#     4  12  22  43  71 104 139 186 236 295 346 429
#     4  12  26  42  72 101 145 184 240 284 354 422
#
# _framework density 21.707343999999999
#
# number of rings (size 3 to 8) (size 9 to 14) (size 15 to 20)
#    0.000    0.571    4.286    3.857    6.000    2.857 
#    0.000    0.000    0.000    0.000    0.000    0.000 
#    0.000    0.000    0.000    0.000    0.000    0.000 
#
# Total GULP energy -346910.967793 kJ/mol
# GULP energy per Si atom -12389.677421 kJ/mol
# Density = 2.165794 g / cm^3
# Si number density = 21.707344 Si / 1000 Ang^3
#
#
#
# Elastic Constant Matrix: (Units=GPa)
#
#
# Indices 1 2 3 4 5 6 
#
# 1 107.3978 43.3662 34.1328 0.0000 5.4774 0.0000
# 2 43.3662 134.6391 61.5168 0.0000 4.4117 0.0000
# 3 34.1328 61.5168 94.6473 0.0000 12.5621 0.0000
# 4 0.0000 0.0000 0.0000 25.0984 0.0000 4.8794
# 5 5.4774 4.4117 12.5621 0.0000 49.7782 0.0000
# 6 0.0000 0.0000 0.0000 4.8794 0.0000 22.7489
#
#
#
# Elastic Compliance Matrix: (Units=1/GPa)
#
#
# Indices 1 2 3 4 5 6 
#
# 1 0.011076 -0.002495 -0.002318 0.000000 -0.000413 0.000000
# 2 -0.002495 0.011159 -0.006475 0.000000 0.000920 0.000000
# 3 -0.002318 -0.006475 0.016037 0.000000 -0.003218 0.000000
# 4 0.000000 0.000000 0.000000 0.041577 0.000000 -0.008918
# 5 -0.000413 0.000920 -0.003218 0.000000 0.020865 0.000000
# 6 0.000000 0.000000 0.000000 -0.008918 0.000000 0.045871
#
#
# Mechanical properties :
#
#
# Convention : Reuss Voigt Hill
#
# Bulk Modulus (GPa) = 63.70964 68.30176 66.00570
# Shear Modulus (GPa) = 28.67052 32.70300 30.68676
#
# Velocity S-wave (km/s) = 3.63819 3.88563 3.76394
# Velocity P-wave (km/s) = 6.86015 7.18776 7.02587
#
# Compressibility (1/GPa) = 0.01569621
#
# Stress axis : x y z
#
# Youngs Moduli (GPa) = 90.28215 89.61082 62.35408
#
# Poissons Ratio (x) = 0.22357 0.14454
# Poissons Ratio (y) = 0.22525 0.40377
# Poissons Ratio (z) = 0.20928 0.58027
#
# Static dielectric constant tensor:
#      x y z
#    x 4.009890 0.000000 0.254730 
#    y 0.000000 4.082110 0.000000 
#    z 0.254730 0.000000 3.946410 
# 
# 
# High freq. dielectric constant tensor:
#      x y z
#    x 1.854800 0.000000 0.017770 
#    y 0.000000 1.868830 0.000000 
#    z 0.017770 0.000000 1.847210 
# 
# From -- ./inp_files/13233.got.cif
#   From: 2010.03.12/outbox.cif.g09.slc.cpg/sg14_7_cif.got.tgz:13233.got - 2010.03.31 13:35:05.
