data_PCOD8128946
_publ_section_title
;
Structure prediction by ZEFSAII (Michael W. Deem and Ramdas Pophale) SiO2 
 PCOD8128946
Probable space group: P 21/C
;
_chemical_formula_sum "Si O2"
_cell_formula_units_Z 24
_cell_length_a 27.991684
_cell_length_b 6.751485
_cell_length_c 18.739777
_cell_angle_alpha 90.000000
_cell_angle_beta 161.766415
_cell_angle_gamma 90.000000
_cell_volume 1108.120036
_symmetry_space_group_name_H-M "P 21/C"
_symmetry_group_IT_number 14
_symmetry_cell_setting 'monoclinic'
loop_
_space_group_symop_operation_xyz
x,y,z
-x,1/2+y,1/2-z
-x,-y,-z
x,1/2-y,1/2+z
loop_
_atom_site_type_symbol
_atom_site_label
_atom_site_fract_x
_atom_site_fract_y
_atom_site_fract_z
Si Si1 0.749303 0.854287 0.521573
Si Si2 0.147650 0.368559 0.192195
Si Si3 0.425453 0.702445 0.873039
Si Si4 0.855691 0.511424 0.575070
Si Si5 0.427925 0.972383 0.009884
Si Si6 0.995495 0.174222 0.852037
O O1 0.780774 0.732243 0.637156
O O2 0.799075 0.720930 0.524673
O O3 0.569880 0.899584 0.259341
O O4 0.840220 0.060825 0.652394
O O5 0.279604 0.510183 0.348715
O O6 0.102813 0.193233 0.073690
O O7 0.000000 0.500000 0.000000
O O8 0.272319 0.657368 0.612891
O O9 0.386316 0.819018 0.889134
O O10 0.500000 0.500000 0.000000
O O11 0.537093 0.819147 0.978499
O O12 0.922851 0.544836 0.592233
O O13 0.973749 0.402567 0.795481
#
# Coordination Sequence:
#
# PCOD8128946 Si02
#       6
#     4   4   4   4   4   4
#     4  12  26  49  72 105 147 194 240 295 365 434
#     4  12  29  49  70 105 149 195 240 291 364 438
#     4  11  23  44  73 107 142 179 238 304 360 414
#     4  12  24  42  76 111 139 187 242 303 361 424
#     4  11  27  46  73 107 143 189 245 293 360 440
#     4  12  26  46  74 106 146 186 244 299 363 429
#
# _framework density 21.658303
#
# number of rings (size 3 to 8) (size 9 to 14) (size 15 to 20)
#    0.000    0.333    6.667    1.500    7.000    2.667 
#    6.000    0.000    0.000    0.000    0.000    0.000 
#    0.000    0.000    0.000    0.000    0.000    0.000 
#
# Total GULP energy -297693.379703 kJ/mol
# GULP energy per Si atom -12403.890821 kJ/mol
# Density = 2.160901 g / cm^3
# Si number density = 21.658303 Si / 1000 Ang^3
#
#
#
# Elastic Constant Matrix: (Units=GPa)
#
#
# Indices 1 2 3 4 5 6 
#
# 1 122.5162 39.4944 57.1294 0.0000 3.3152 0.0000
# 2 39.4944 106.6272 41.3479 0.0000 3.1236 0.0000
# 3 57.1294 41.3479 110.4517 0.0000 0.4989 0.0000
# 4 0.0000 0.0000 0.0000 50.3989 0.0000 -9.0139
# 5 3.3152 3.1236 0.4989 0.0000 43.6348 0.0000
# 6 0.0000 0.0000 0.0000 -9.0139 0.0000 33.9462
#
#
#
# Elastic Compliance Matrix: (Units=1/GPa)
#
#
# Indices 1 2 3 4 5 6 
#
# 1 0.011207 -0.002206 -0.004968 0.000000 -0.000637 0.000000
# 2 -0.002206 0.011429 -0.003135 0.000000 -0.000615 0.000000
# 3 -0.004968 -0.003135 0.012795 0.000000 0.000456 0.000000
# 4 0.000000 0.000000 0.000000 0.020831 0.000000 0.005531
# 5 -0.000637 -0.000615 0.000456 0.000000 0.023005 0.000000
# 6 0.000000 0.000000 0.000000 0.005531 0.000000 0.030927
#
#
# Mechanical properties :
#
#
# Convention : Reuss Voigt Hill
#
# Bulk Modulus (GPa) = 67.50544 68.39315 67.94930
# Shear Modulus (GPa) = 36.83261 39.03754 37.93508
#
# Velocity S-wave (km/s) = 4.12834 4.25011 4.18966
# Velocity P-wave (km/s) = 7.34576 7.46534 7.40580
#
# Compressibility (1/GPa) = 0.01481362
#
# Stress axis : x y z
#
# Youngs Moduli (GPa) = 89.22898 87.49554 78.15653
#
# Poissons Ratio (x) = 0.19301 0.38829
# Poissons Ratio (y) = 0.19683 0.24500
# Poissons Ratio (z) = 0.44329 0.27428
#
# Static dielectric constant tensor:
#      x y z
#    x 3.891230 0.000000 -0.089510 
#    y 0.000000 3.891040 0.000000 
#    z -0.089510 0.000000 3.875270 
# 
# 
# High freq. dielectric constant tensor:
#      x y z
#    x 1.852540 0.000000 -0.010830 
#    y 0.000000 1.859930 0.000000 
#    z -0.010830 0.000000 1.863110 
# 
# From -- ./inp_files/70636.got.cif
#   From: 2010.03.12/outbox.cif.g09.slc.cpg/sg14_36_cif.got.tgz:70636.got - 2010.03.31 13:35:05.
