data_PCOD8128149
_publ_section_title
;
Structure prediction by ZEFSAII (Michael W. Deem and Ramdas Pophale) SiO2 
 PCOD8128149
Probable space group: P 21/C
;
_chemical_formula_sum "Si O2"
_cell_formula_units_Z 24
_cell_length_a 11.366366
_cell_length_b 12.180088
_cell_length_c 10.485684
_cell_angle_alpha 90.000000
_cell_angle_beta 129.421024
_cell_angle_gamma 90.000000
_cell_volume 1121.418359
_symmetry_space_group_name_H-M "P 21/C"
_symmetry_group_IT_number 14
_symmetry_cell_setting 'monoclinic'
loop_
_space_group_symop_operation_xyz
x,y,z
-x,1/2+y,1/2-z
-x,-y,-z
x,1/2-y,1/2+z
loop_
_atom_site_type_symbol
_atom_site_label
_atom_site_fract_x
_atom_site_fract_y
_atom_site_fract_z
Si Si1 0.370760 0.732144 0.061599
Si Si2 0.175985 0.158125 0.933722
Si Si3 0.834089 0.420311 0.214838
Si Si4 0.289020 0.301669 0.240422
Si Si5 0.343936 0.995475 0.626023
Si Si6 0.679255 0.456958 0.357473
O O1 0.542930 0.751253 0.135680
O O2 0.363548 0.636003 0.166889
O O3 0.288471 0.841221 0.053141
O O4 0.273145 0.688203 0.873627
O O5 0.207617 0.216862 0.819927
O O6 0.007887 0.109928 0.817726
O O7 0.195115 0.243566 0.062655
O O8 0.294177 0.057029 0.026774
O O9 0.801661 0.473599 0.329427
O O10 0.783206 0.509787 0.072730
O O11 0.294933 0.433066 0.214888
O O12 0.506166 0.041675 0.686709
#
# Coordination Sequence:
#
# PCOD8128149 Si02
#       6
#     4   4   4   4   4   4
#     4   9  23  42  69  98 130 180 224 277 322 400
#     4  12  27  42  66 105 134 182 213 284 338 394
#     4  10  24  41  69  95 138 170 226 274 337 390
#     4  11  26  43  71  95 144 171 230 271 330 406
#     4   9  22  44  66  99 127 183 219 278 328 387
#     4  11  22  42  70  97 132 176 229 272 327 406
#
# _framework density 21.401468999999999
#
# number of rings (size 3 to 8) (size 9 to 14) (size 15 to 20)
#    1.000    0.667    1.667    1.000    9.333    6.000 
#    0.000    0.000    0.000    0.000    0.000    0.000 
#    0.000    0.000    0.000    0.000    0.000    0.000 
#
# Total GULP energy -297451.145690 kJ/mol
# GULP energy per Si atom -12393.797737 kJ/mol
# Density = 2.135276 g / cm^3
# Si number density = 21.401469 Si / 1000 Ang^3
#
#
#
# Elastic Constant Matrix: (Units=GPa)
#
#
# Indices 1 2 3 4 5 6 
#
# 1 95.5734 11.7733 59.9953 0.0000 -3.8366 0.0000
# 2 11.7733 106.0812 25.5248 0.0000 -12.4703 0.0000
# 3 59.9953 25.5248 96.9403 0.0000 1.1201 0.0000
# 4 0.0000 0.0000 0.0000 32.5464 0.0000 -1.1578
# 5 -3.8366 -12.4703 1.1201 0.0000 40.1056 0.0000
# 6 0.0000 0.0000 0.0000 -1.1578 0.0000 25.9127
#
#
#
# Elastic Compliance Matrix: (Units=1/GPa)
#
#
# Indices 1 2 3 4 5 6 
#
# 1 0.017356 0.000995 -0.011030 0.000000 0.002278 0.000000
# 2 0.000995 0.010551 -0.003434 0.000000 0.003472 0.000000
# 3 -0.011030 -0.003434 0.018076 0.000000 -0.002628 0.000000
# 4 0.000000 0.000000 0.000000 0.030774 0.000000 0.001375
# 5 0.002278 0.003472 -0.002628 0.000000 0.026305 0.000000
# 6 0.000000 0.000000 0.000000 0.001375 0.000000 0.038653
#
#
# Mechanical properties :
#
#
# Convention : Reuss Voigt Hill
#
# Bulk Modulus (GPa) = 52.50471 54.79796 53.65134
# Shear Modulus (GPa) = 28.57136 33.13304 30.85220
#
# Velocity S-wave (km/s) = 3.65775 3.93894 3.80095
# Velocity P-wave (km/s) = 6.51348 6.80789 6.66231
#
# Compressibility (1/GPa) = 0.01904591
#
# Stress axis : x y z
#
# Youngs Moduli (GPa) = 57.61766 94.78029 55.32065
#
# Poissons Ratio (x) = -0.09435 0.61017
# Poissons Ratio (y) = -0.05736 0.18999
# Poissons Ratio (z) = 0.63551 0.32550
#
# Static dielectric constant tensor:
#      x y z
#    x 3.467990 0.000000 0.050680 
#    y 0.000000 3.960250 0.000000 
#    z 0.050680 0.000000 3.796120 
# 
# 
# High freq. dielectric constant tensor:
#      x y z
#    x 1.817430 0.000000 0.010050 
#    y 0.000000 1.846680 0.000000 
#    z 0.010050 0.000000 1.835800 
# 
# From -- ./inp_files/29200.got.cif
#   From: 2010.03.12/outbox.cif.g09.slc.cpg/sg14_15_cif.got.tgz:29200.got - 2010.03.31 13:35:05.
