data_PCOD8128968
_publ_section_title
;
Structure prediction by ZEFSAII (Michael W. Deem and Ramdas Pophale) SiO2 
 PCOD8128968
Probable space group: P 21/C
;
_chemical_formula_sum "Si O2"
_cell_formula_units_Z 28
_cell_length_a 11.093747
_cell_length_b 8.823799
_cell_length_c 13.118749
_cell_angle_alpha 90.000000
_cell_angle_beta 110.055850
_cell_angle_gamma 90.000000
_cell_volume 1206.306833
_symmetry_space_group_name_H-M "P 21/C"
_symmetry_group_IT_number 14
_symmetry_cell_setting 'monoclinic'
loop_
_space_group_symop_operation_xyz
x,y,z
-x,1/2+y,1/2-z
-x,-y,-z
x,1/2-y,1/2+z
loop_
_atom_site_type_symbol
_atom_site_label
_atom_site_fract_x
_atom_site_fract_y
_atom_site_fract_z
Si Si1 0.037746 0.851717 0.909359
Si Si2 0.011472 0.158312 0.777630
Si Si3 0.378599 0.029310 0.282957
Si Si4 0.291615 0.295437 0.368883
Si Si5 0.199666 0.786242 0.142367
Si Si6 0.660353 0.976539 0.310864
Si Si7 0.234830 0.196826 0.076903
O O1 0.051546 0.690506 0.852562
O O2 0.908095 0.866809 0.941043
O O3 0.035172 0.985859 0.822923
O O4 0.162248 0.858737 0.020876
O O5 0.145605 0.243650 0.796697
O O6 0.933305 0.253973 0.839873
O O7 0.366978 0.134258 0.381215
O O8 0.518550 0.958074 0.316091
O O9 0.349738 0.146083 0.183800
O O10 0.269130 0.902659 0.239642
O O11 0.344459 0.428382 0.310110
O O12 0.285785 0.356274 0.481956
O O13 0.294300 0.646887 0.159392
O O14 0.761753 0.878395 0.406472
#
# Coordination Sequence:
#
# PCOD8128968 Si02
#       7
#     4   4   4   4   4   4   4
#     4  12  25  43  70 105 142 179 225 296 350 418
#     4  12  22  42  70 105 139 177 229 286 361 406
#     4  11  24  47  70  96 144 185 229 289 335 412
#     4  11  23  45  71  99 135 187 224 286 356 404
#     4  12  24  42  71 106 137 176 235 286 346 417
#     4  11  26  45  68 101 140 187 236 280 338 417
#     4  11  23  47  69  97 142 184 229 284 356 405
#
# _framework density 23.211341999999998
#
# number of rings (size 3 to 8) (size 9 to 14) (size 15 to 20)
#    0.000    0.571    5.714    3.857    0.000    4.000 
#    0.000    4.286    0.000    0.000    0.000    0.000 
#    0.000    0.000    0.000    0.000    0.000    0.000 
#
# Total GULP energy -346899.812861 kJ/mol
# GULP energy per Si atom -12389.279031 kJ/mol
# Density = 2.315851 g / cm^3
# Si number density = 23.211342 Si / 1000 Ang^3
#
#
#
# Elastic Constant Matrix: (Units=GPa)
#
#
# Indices 1 2 3 4 5 6 
#
# 1 101.4773 20.4058 7.2247 0.0000 -8.7739 0.0000
# 2 20.4058 81.3288 10.6765 0.0000 -1.7115 0.0000
# 3 7.2247 10.6765 53.7177 0.0000 -15.8633 0.0000
# 4 0.0000 0.0000 0.0000 23.7421 0.0000 -6.1472
# 5 -8.7739 -1.7115 -15.8633 0.0000 35.9123 0.0000
# 6 0.0000 0.0000 0.0000 -6.1472 0.0000 36.4345
#
#
#
# Elastic Compliance Matrix: (Units=1/GPa)
#
#
# Indices 1 2 3 4 5 6 
#
# 1 0.010593 -0.002580 -0.000212 0.000000 0.002372 0.000000
# 2 -0.002580 0.013264 -0.002632 0.000000 -0.001161 0.000000
# 3 -0.000212 -0.002632 0.021983 0.000000 0.009533 0.000000
# 4 0.000000 0.000000 0.000000 0.044043 0.000000 0.007431
# 5 0.002372 -0.001161 0.009533 0.000000 0.032581 0.000000
# 6 0.000000 0.000000 0.000000 0.007431 0.000000 0.028700
#
#
# Mechanical properties :
#
#
# Convention : Reuss Voigt Hill
#
# Bulk Modulus (GPa) = 28.57754 34.79309 31.68531
# Shear Modulus (GPa) = 28.78918 32.43224 30.61071
#
# Velocity S-wave (km/s) = 3.52562 3.74205 3.63544
# Velocity P-wave (km/s) = 5.37698 5.80455 5.59485
#
# Compressibility (1/GPa) = 0.03499252
#
# Stress axis : x y z
#
# Youngs Moduli (GPa) = 94.39840 75.39050 45.49043
#
# Poissons Ratio (x) = 0.19453 0.00962
# Poissons Ratio (y) = 0.24357 0.11974
# Poissons Ratio (z) = 0.01997 0.19844
#
# Static dielectric constant tensor:
#      x y z
#    x 4.086700 0.000000 -0.131680 
#    y 0.000000 4.271460 0.000000 
#    z -0.131680 0.000000 4.256930 
# 
# 
# High freq. dielectric constant tensor:
#      x y z
#    x 1.913180 0.000000 -0.010000 
#    y 0.000000 1.917520 0.000000 
#    z -0.010000 0.000000 1.908300 
# 
# From -- ./inp_files/43459.got.cif
#   From: 2010.03.12/outbox.cif.g09.slc.cpg/sg14_22_cif.got.tgz:43459.got - 2010.03.31 13:35:05.
