data_PCOD8128440
_publ_section_title
;
Structure prediction by ZEFSAII (Michael W. Deem and Ramdas Pophale) SiO2 
 PCOD8128440
Probable space group: P 21/C
;
_chemical_formula_sum "Si O2"
_cell_formula_units_Z 28
_cell_length_a 8.997905
_cell_length_b 9.152327
_cell_length_c 18.844146
_cell_angle_alpha 90.000000
_cell_angle_beta 83.750492
_cell_angle_gamma 90.000000
_cell_volume 1542.626543
_symmetry_space_group_name_H-M "P 21/C"
_symmetry_group_IT_number 14
_symmetry_cell_setting 'monoclinic'
loop_
_space_group_symop_operation_xyz
x,y,z
-x,1/2+y,1/2-z
-x,-y,-z
x,1/2-y,1/2+z
loop_
_atom_site_type_symbol
_atom_site_label
_atom_site_fract_x
_atom_site_fract_y
_atom_site_fract_z
Si Si1 0.373124 0.767686 0.096452
Si Si2 0.437200 0.225914 0.681567
Si Si3 0.774102 0.577757 0.392480
Si Si4 0.329162 0.412728 0.448095
Si Si5 0.338414 0.736340 0.443772
Si Si6 0.651648 0.416049 0.765738
Si Si7 0.874975 0.421429 0.634664
O O1 0.330524 0.649341 0.157103
O O2 0.287795 0.916573 0.118756
O O3 0.552084 0.793833 0.085225
O O4 0.320191 0.697606 0.023541
O O5 0.291103 0.307165 0.659988
O O6 0.545480 0.174653 0.611013
O O7 0.523049 0.336415 0.728437
O O8 0.390672 0.085511 0.728260
O O9 0.742215 0.634686 0.473505
O O10 0.949703 0.570881 0.370198
O O11 0.411485 0.572317 0.451283
O O12 0.195263 0.430717 0.397165
O O13 0.178548 0.716175 0.412364
O O14 0.809357 0.400986 0.717083
#
# Coordination Sequence:
#
# PCOD8128440 Si02
#       7
#     4   4   4   4   4   4   4
#     4  11  18  34  59  84 106 141 186 222 271 308
#     4  11  20  38  54  79 108 142 183 224 273 315
#     4  11  18  33  62  79 108 145 180 228 263 319
#     4   9  16  33  55  87 102 136 183 229 249 320
#     4   8  17  33  55  81 109 134 183 228 254 318
#     4  11  24  36  55  80 113 144 177 229 271 333
#     4   9  20  33  52  85 111 144 183 215 270 323
#
# _framework density 18.150860000000002
#
# number of rings (size 3 to 8) (size 9 to 14) (size 15 to 20)
#    0.857    1.143    2.857    3.000    0.000    1.714 
#    0.000    0.000    0.000    0.857    0.000    0.000 
#    0.000    0.000    0.000    0.000    0.000    0.000 
#
# Total GULP energy -347059.111567 kJ/mol
# GULP energy per Si atom -12394.968270 kJ/mol
# Density = 1.810955 g / cm^3
# Si number density = 18.150860 Si / 1000 Ang^3
#
#
#
# Elastic Constant Matrix: (Units=GPa)
#
#
# Indices 1 2 3 4 5 6 
#
# 1 121.9479 39.1023 46.5712 0.0000 -12.9599 0.0000
# 2 39.1023 51.4102 38.6709 0.0000 -1.3198 0.0000
# 3 46.5712 38.6709 127.9473 0.0000 -3.8869 0.0000
# 4 0.0000 0.0000 0.0000 30.5303 0.0000 3.8160
# 5 -12.9599 -1.3198 -3.8869 0.0000 22.2806 0.0000
# 6 0.0000 0.0000 0.0000 3.8160 0.0000 10.0655
#
#
#
# Elastic Compliance Matrix: (Units=1/GPa)
#
#
# Indices 1 2 3 4 5 6 
#
# 1 0.012003 -0.007540 -0.001902 0.000000 0.006204 0.000000
# 2 -0.007540 0.029912 -0.006409 0.000000 -0.003732 0.000000
# 3 -0.001902 -0.006409 0.010455 0.000000 0.000338 0.000000
# 4 0.000000 0.000000 0.000000 0.034384 0.000000 -0.013036
# 5 0.006204 -0.003732 0.000338 0.000000 0.048328 0.000000
# 6 0.000000 0.000000 0.000000 -0.013036 0.000000 0.104291
#
#
# Mechanical properties :
#
#
# Convention : Reuss Voigt Hill
#
# Bulk Modulus (GPa) = 48.38367 61.11046 54.74707
# Shear Modulus (GPa) = 17.98783 24.37268 21.18026
#
# Velocity S-wave (km/s) = 3.15146 3.66838 3.41970
# Velocity P-wave (km/s) = 6.32112 7.18915 6.76906
#
# Compressibility (1/GPa) = 0.02066813
#
# Stress axis : x y z
#
# Youngs Moduli (GPa) = 83.30928 33.43178 95.64439
#
# Poissons Ratio (x) = 0.25208 0.18189
# Poissons Ratio (y) = 0.62815 0.61303
# Poissons Ratio (z) = 0.15843 0.21428
#
# Static dielectric constant tensor:
#      x y z
#    x 3.119210 0.000000 0.032670 
#    y 0.000000 2.905370 0.000000 
#    z 0.032670 0.000000 3.619860 
# 
# 
# High freq. dielectric constant tensor:
#      x y z
#    x 1.689090 0.000000 0.002780 
#    y 0.000000 1.654540 0.000000 
#    z 0.002780 0.000000 1.721820 
# 
# From -- ./inp_files/54807.got.cif
#   From: 2010.03.12/outbox.cif.g09.slc.cpg/sg14_28_cif.got.tgz:54807.got - 2010.03.31 13:35:05.
