data_PCOD8128097
_publ_section_title
;
Structure prediction by ZEFSAII (Michael W. Deem and Ramdas Pophale) SiO2 
 PCOD8128097
Probable space group: P 21/C
;
_chemical_formula_sum "Si O2"
_cell_formula_units_Z 12
_cell_length_a 4.933644
_cell_length_b 4.923413
_cell_length_c 18.571885
_cell_angle_alpha 90.000000
_cell_angle_beta 67.773684
_cell_angle_gamma 90.000000
_cell_volume 417.598464
_symmetry_space_group_name_H-M "P 21/C"
_symmetry_group_IT_number 14
_symmetry_cell_setting 'monoclinic'
loop_
_space_group_symop_operation_xyz
x,y,z
-x,1/2+y,1/2-z
-x,-y,-z
x,1/2-y,1/2+z
loop_
_atom_site_type_symbol
_atom_site_label
_atom_site_fract_x
_atom_site_fract_y
_atom_site_fract_z
Si Si1 0.652114 0.390379 0.596668
Si Si2 0.126981 0.104210 0.700489
Si Si3 0.176648 0.753441 0.071343
O O1 0.459152 0.218282 0.672920
O O2 0.761013 0.198534 0.519225
O O3 0.466240 0.638927 0.581905
O O4 0.926541 0.520771 0.610078
O O5 0.896158 0.328845 0.750430
O O6 0.072584 0.026521 0.621065
#
# Coordination Sequence:
#
# PCOD8128097 Si02
#       3
#     4   4   4
#     4  10  23  48  78 108 147 200 262 317 373 452
#     4  12  25  50  73 116 160 206 248 322 391 470
#     4  10  23  48  78 108 147 200 262 317 373 452
#
# _framework density 28.735735999999999
#
# number of rings (size 3 to 8) (size 9 to 14) (size 15 to 20)
#    0.000    1.333    3.333    1.000    0.000    2.667 
#   12.000   10.000    0.000    0.000    0.000    0.000 
#    0.000    0.000    0.000    0.000    0.000    0.000 
#
# Total GULP energy -148843.678286 kJ/mol
# GULP energy per Si atom -12403.639857 kJ/mol
# Density = 2.867033 g / cm^3
# Si number density = 28.735736 Si / 1000 Ang^3
#
#
#
# Elastic Constant Matrix: (Units=GPa)
#
#
# Indices 1 2 3 4 5 6 
#
# 1 58.9581 8.4752 26.4128 0.0000 -14.2441 0.0000
# 2 8.4752 138.0852 54.7213 0.0000 -22.2187 0.0000
# 3 26.4128 54.7213 125.4454 0.0000 -37.5873 0.0000
# 4 0.0000 0.0000 0.0000 69.3318 0.0000 -12.3013
# 5 -14.2441 -22.2187 -37.5873 0.0000 38.4467 0.0000
# 6 0.0000 0.0000 0.0000 -12.3013 0.0000 12.1099
#
#
#
# Elastic Compliance Matrix: (Units=1/GPa)
#
#
# Indices 1 2 3 4 5 6 
#
# 1 0.019323 0.000753 -0.003000 0.000000 0.004661 0.000000
# 2 0.000753 0.008881 -0.003410 0.000000 0.002078 0.000000
# 3 -0.003000 -0.003410 0.012965 0.000000 0.009593 0.000000
# 4 0.000000 0.000000 0.000000 0.017595 0.000000 0.017873
# 5 0.004661 0.002078 0.009593 0.000000 0.038316 0.000000
# 6 0.000000 0.000000 0.000000 0.017873 0.000000 0.100733
#
#
# Mechanical properties :
#
#
# Convention : Reuss Voigt Hill
#
# Bulk Modulus (GPa) = 33.49584 55.74526 44.62055
# Shear Modulus (GPa) = 22.82271 39.50297 31.16284
#
# Velocity S-wave (km/s) = 2.82126 3.71172 3.29669
# Velocity P-wave (km/s) = 4.72171 6.14902 5.48202
#
# Compressibility (1/GPa) = 0.02985445
#
# Stress axis : x y z
#
# Youngs Moduli (GPa) = 51.75133 112.59458 77.12886
#
# Poissons Ratio (x) = -0.08478 0.23142
# Poissons Ratio (y) = -0.03897 0.26303
# Poissons Ratio (z) = 0.15528 0.38398
#
# Static dielectric constant tensor:
#      x y z
#    x 4.848190 0.000000 -0.399020 
#    y 0.000000 5.045830 0.000000 
#    z -0.399020 0.000000 5.763380 
# 
# 
# High freq. dielectric constant tensor:
#      x y z
#    x 2.145780 0.000000 -0.017790 
#    y 0.000000 2.171040 0.000000 
#    z -0.017790 0.000000 2.182260 
# 
# From -- ./inp_files/52405.got.cif
#   From: 2010.03.12/outbox.cif.g09.slc.cpg/sg14_27_cif.got.tgz:52405.got - 2010.03.31 13:35:05.
