data_PCOD8128744
_publ_section_title
;
Structure prediction by ZEFSAII (Michael W. Deem and Ramdas Pophale) SiO2 
 PCOD8128744
Probable space group: P 21/C
;
_chemical_formula_sum "Si O2"
_cell_formula_units_Z 28
_cell_length_a 9.467286
_cell_length_b 5.256626
_cell_length_c 33.360362
_cell_angle_alpha 90.000000
_cell_angle_beta 134.652662
_cell_angle_gamma 90.000000
_cell_volume 1181.041648
_symmetry_space_group_name_H-M "P 21/C"
_symmetry_group_IT_number 14
_symmetry_cell_setting 'monoclinic'
loop_
_space_group_symop_operation_xyz
x,y,z
-x,1/2+y,1/2-z
-x,-y,-z
x,1/2-y,1/2+z
loop_
_atom_site_type_symbol
_atom_site_label
_atom_site_fract_x
_atom_site_fract_y
_atom_site_fract_z
Si Si1 0.800436 0.251586 0.349307
Si Si2 0.512511 0.656404 0.652136
Si Si3 0.047972 0.756048 0.415284
Si Si4 0.589978 0.206456 0.572268
Si Si5 0.642789 0.313692 0.462604
Si Si6 0.177239 0.546066 0.811311
Si Si7 0.210245 0.831962 0.743291
O O1 0.606742 0.189298 0.337396
O O2 0.731127 0.259339 0.289070
O O3 0.894870 0.526591 0.377393
O O4 0.951033 0.027666 0.388665
O O5 0.355212 0.620972 0.584583
O O6 0.701807 0.786132 0.669417
O O7 0.592410 0.414564 0.693092
O O8 0.239620 0.748768 0.425728
O O9 0.131834 0.735890 0.477621
O O10 0.432846 0.426745 0.531818
O O11 0.493635 0.925581 0.550826
O O12 0.684253 0.243215 0.635964
O O13 0.119120 0.616461 0.754191
O O14 0.973796 0.528751 0.796690
#
# Coordination Sequence:
#
# PCOD8128744 Si02
#       7
#     4   4   4   4   4   4   4
#     4  12  31  44  72 103 150 186 230 283 356 424
#     4  11  28  46  69 106 138 191 231 286 353 419
#     4  12  26  47  70 105 143 188 231 289 351 415
#     4  11  22  43  71 110 138 176 237 295 349 405
#     4  11  24  45  76 102 140 182 239 292 344 410
#     4  11  24  42  74  99 139 178 242 288 348 412
#     4  12  25  45  72 101 139 186 234 295 346 417
#
# _framework density 23.707888000000001
#
# number of rings (size 3 to 8) (size 9 to 14) (size 15 to 20)
#    0.000    0.571    4.286    2.571   10.000    1.143 
#    0.000    0.000    0.000    0.000    0.000    0.000 
#    0.000    0.000    0.000    0.000    0.000    0.000 
#
# Total GULP energy -346960.749783 kJ/mol
# GULP energy per Si atom -12391.455349 kJ/mol
# Density = 2.365393 g / cm^3
# Si number density = 23.707888 Si / 1000 Ang^3
#
#
#
# Elastic Constant Matrix: (Units=GPa)
#
#
# Indices 1 2 3 4 5 6 
#
# 1 73.7762 -0.6115 19.1389 0.0000 -23.4993 0.0000
# 2 -0.6115 86.4486 11.0372 0.0000 0.9103 0.0000
# 3 19.1389 11.0372 151.0951 0.0000 -17.5681 0.0000
# 4 0.0000 0.0000 0.0000 37.7677 0.0000 2.0520
# 5 -23.4993 0.9103 -17.5681 0.0000 21.8914 0.0000
# 6 0.0000 0.0000 0.0000 2.0520 0.0000 19.5947
#
#
#
# Elastic Compliance Matrix: (Units=1/GPa)
#
#
# Indices 1 2 3 4 5 6 
#
# 1 0.020598 -0.000082 -0.000035 0.000000 0.022086 0.000000
# 2 -0.000082 0.011710 -0.001006 0.000000 -0.001382 0.000000
# 3 -0.000035 -0.001006 0.007386 0.000000 0.005931 0.000000
# 4 0.000000 0.000000 0.000000 0.026629 0.000000 -0.002789
# 5 0.022086 -0.001382 0.005931 0.000000 0.074206 0.000000
# 6 0.000000 0.000000 0.000000 -0.002789 0.000000 0.051326
#
#
# Mechanical properties :
#
#
# Convention : Reuss Voigt Hill
#
# Bulk Modulus (GPa) = 26.70420 41.16100 33.93260
# Shear Modulus (GPa) = 24.20329 34.63443 29.41886
#
# Velocity S-wave (km/s) = 3.19861 3.82630 3.52645
# Velocity P-wave (km/s) = 4.99297 6.07619 5.56102
#
# Compressibility (1/GPa) = 0.03744729
#
# Stress axis : x y z
#
# Youngs Moduli (GPa) = 48.54901 85.39748 135.39273
#
# Poissons Ratio (x) = 0.00703 0.00475
# Poissons Ratio (y) = 0.00400 0.13616
# Poissons Ratio (z) = 0.00170 0.08588
#
# Static dielectric constant tensor:
#      x y z
#    x 4.209690 0.000000 -0.084170 
#    y 0.000000 4.070350 0.000000 
#    z -0.084170 0.000000 4.986160 
# 
# 
# High freq. dielectric constant tensor:
#      x y z
#    x 1.927860 0.000000 -0.006520 
#    y 0.000000 1.932390 0.000000 
#    z -0.006520 0.000000 1.963130 
# 
# From -- ./inp_files/79291.got.cif
#   From: 2010.03.12/outbox.cif.g09.slc.cpg/sg14_40_cif.got.tgz:79291.got - 2010.03.31 13:35:05.
