data_PCOD8128482
_publ_section_title
;
Structure prediction by ZEFSAII (Michael W. Deem and Ramdas Pophale) SiO2 
 PCOD8128482
Probable space group: P 21/C
;
_chemical_formula_sum "Si O2"
_cell_formula_units_Z 28
_cell_length_a 14.902212
_cell_length_b 12.287074
_cell_length_c 11.385660
_cell_angle_alpha 90.000000
_cell_angle_beta 138.739270
_cell_angle_gamma 90.000000
_cell_volume 1374.875585
_symmetry_space_group_name_H-M "P 21/C"
_symmetry_group_IT_number 14
_symmetry_cell_setting 'monoclinic'
loop_
_space_group_symop_operation_xyz
x,y,z
-x,1/2+y,1/2-z
-x,-y,-z
x,1/2-y,1/2+z
loop_
_atom_site_type_symbol
_atom_site_label
_atom_site_fract_x
_atom_site_fract_y
_atom_site_fract_z
Si Si1 0.064490 0.049411 0.180658
Si Si2 0.638462 0.025760 0.488030
Si Si3 0.831279 0.947275 0.066881
Si Si4 0.107389 0.922294 0.666084
Si Si5 0.011092 0.243688 0.269896
Si Si6 0.373517 0.909446 0.267813
Si Si7 0.252637 0.677595 0.091348
O O1 0.030181 0.176868 0.166429
O O2 0.224088 0.039087 0.352453
O O3 0.987186 0.987647 0.208168
O O4 0.000000 0.000000 0.000000
O O5 0.609568 0.099292 0.574836
O O6 0.643103 0.098207 0.374530
O O7 0.518404 0.938027 0.352127
O O8 0.850022 0.816062 0.077603
O O9 0.793355 0.002293 0.154531
O O10 0.731383 0.992258 0.867706
O O11 0.018736 0.829820 0.645581
O O12 0.212497 0.867107 0.679334
O O13 0.000000 0.000000 0.500000
O O14 0.878888 0.317959 0.121368
O O15 0.321420 0.795706 0.167084
#
# Coordination Sequence:
#
# PCOD8128482 Si02
#       7
#     4   4   4   4   4   4   4
#     4  11  20  37  64  95 120 161 218 266 312 379
#     4  11  24  43  64  92 129 170 217 271 319 394
#     4  11  22  39  62 100 128 161 214 270 318 386
#     4  11  22  38  61 102 131 162 217 273 321 380
#     4  11  22  35  66  95 128 167 211 269 331 375
#     4  11  25  42  65  93 131 170 222 263 325 405
#     4  12  21  40  69  91 126 178 212 263 338 383
#
# _framework density 20.365479000000001
#
# number of rings (size 3 to 8) (size 9 to 14) (size 15 to 20)
#    0.000    0.857    7.143    1.714    2.000    1.143 
#    0.000    0.714    3.143    0.000    0.000    0.000 
#    0.000    0.000    0.000    0.000    0.000    0.000 
#
# Total GULP energy -346970.598151 kJ/mol
# GULP energy per Si atom -12391.807077 kJ/mol
# Density = 2.031913 g / cm^3
# Si number density = 20.365479 Si / 1000 Ang^3
#
#
#
# Elastic Constant Matrix: (Units=GPa)
#
#
# Indices 1 2 3 4 5 6 
#
# 1 117.7272 65.6925 46.0314 0.0000 -1.2280 0.0000
# 2 65.6925 113.2667 43.9290 0.0000 -3.8658 0.0000
# 3 46.0314 43.9290 82.6767 0.0000 5.6196 0.0000
# 4 0.0000 0.0000 0.0000 34.3825 0.0000 -3.7122
# 5 -1.2280 -3.8658 5.6196 0.0000 39.3427 0.0000
# 6 0.0000 0.0000 0.0000 -3.7122 0.0000 38.4948
#
#
#
# Elastic Compliance Matrix: (Units=1/GPa)
#
#
# Indices 1 2 3 4 5 6 
#
# 1 0.013670 -0.006235 -0.004327 0.000000 0.000432 0.000000
# 2 -0.006235 0.014115 -0.004150 0.000000 0.001785 0.000000
# 3 -0.004327 -0.004150 0.016911 0.000000 -0.002958 0.000000
# 4 0.000000 0.000000 0.000000 0.029391 0.000000 0.002834
# 5 0.000432 0.001785 -0.002958 0.000000 0.026029 0.000000
# 6 0.000000 0.000000 0.000000 0.002834 0.000000 0.026251
#
#
# Mechanical properties :
#
#
# Convention : Reuss Voigt Hill
#
# Bulk Modulus (GPa) = 65.48239 69.44184 67.46211
# Shear Modulus (GPa) = 31.07870 32.97850 32.02860
#
# Velocity S-wave (km/s) = 3.91070 4.02846 3.97002
# Velocity P-wave (km/s) = 7.25361 7.47060 7.36290
#
# Compressibility (1/GPa) = 0.01527128
#
# Stress axis : x y z
#
# Youngs Moduli (GPa) = 73.15261 70.84440 59.13454
#
# Poissons Ratio (x) = 0.44174 0.25589
# Poissons Ratio (y) = 0.45613 0.24539
# Poissons Ratio (z) = 0.31655 0.29399
#
# Static dielectric constant tensor:
#      x y z
#    x 4.275500 0.000000 -0.207400 
#    y 0.000000 4.114630 0.000000 
#    z -0.207400 0.000000 3.572470 
# 
# 
# High freq. dielectric constant tensor:
#      x y z
#    x 1.795790 0.000000 -0.013620 
#    y 0.000000 1.799690 0.000000 
#    z -0.013620 0.000000 1.779870 
# 
# From -- ./inp_files/32605.got.cif
#   From: 2010.03.12/outbox.cif.g09.slc.cpg/sg14_17_cif.got.tgz:32605.got - 2010.03.31 13:35:05.
