data_PCOD8128108
_publ_section_title
;
Structure prediction by ZEFSAII (Michael W. Deem and Ramdas Pophale) SiO2 
 PCOD8128108
Probable space group: P 21/C
;
_chemical_formula_sum "Si O2"
_cell_formula_units_Z 16
_cell_length_a 7.449332
_cell_length_b 13.997730
_cell_length_c 11.115383
_cell_angle_alpha 90.000000
_cell_angle_beta 38.442590
_cell_angle_gamma 90.000000
_cell_volume 720.611696
_symmetry_space_group_name_H-M "P 21/C"
_symmetry_group_IT_number 14
_symmetry_cell_setting 'monoclinic'
loop_
_space_group_symop_operation_xyz
x,y,z
-x,1/2+y,1/2-z
-x,-y,-z
x,1/2-y,1/2+z
loop_
_atom_site_type_symbol
_atom_site_label
_atom_site_fract_x
_atom_site_fract_y
_atom_site_fract_z
Si Si1 0.323232 0.835610 0.684220
Si Si2 0.097926 0.044632 0.237679
Si Si3 0.351900 0.912188 0.926670
Si Si4 0.977099 0.837166 0.315140
O O1 0.645117 0.806566 0.476020
O O2 0.178622 0.891124 0.648247
O O3 0.143383 0.739799 0.811013
O O4 0.326569 0.905517 0.797261
O O5 0.261041 0.017412 0.025292
O O6 0.313600 0.104578 0.209758
O O7 0.999284 0.945735 0.355788
O O8 0.139805 0.833904 0.099800
#
# Coordination Sequence:
#
# PCOD8128108 Si02
#       4
#     4   4   4   4
#     4  12  22  41  66  89 124 173 199 248 324 351
#     4   9  21  46  61  92 127 155 212 258 295 367
#     4   9  22  43  64  87 126 160 199 264 298 365
#     4  10  24  38  62  97 123 157 212 254 294 376
#
# _framework density 22.203358000000001
#
# number of rings (size 3 to 8) (size 9 to 14) (size 15 to 20)
#    1.500    0.500    0.000    3.000    0.000    5.000 
#    0.000    0.000    0.000    0.000    0.000    0.000 
#    0.000    0.000    0.000    0.000    0.000    0.000 
#
# Total GULP energy -198256.331685 kJ/mol
# GULP energy per Si atom -12391.020730 kJ/mol
# Density = 2.215282 g / cm^3
# Si number density = 22.203358 Si / 1000 Ang^3
#
#
#
# Elastic Constant Matrix: (Units=GPa)
#
#
# Indices 1 2 3 4 5 6 
#
# 1 109.7817 40.4867 47.0211 0.0000 -40.4666 0.0000
# 2 40.4867 88.7314 26.8780 0.0000 -16.7739 0.0000
# 3 47.0211 26.8780 80.5516 0.0000 -47.3023 0.0000
# 4 0.0000 0.0000 0.0000 26.1859 0.0000 -7.6936
# 5 -40.4666 -16.7739 -47.3023 0.0000 42.2279 0.0000
# 6 0.0000 0.0000 0.0000 -7.6936 0.0000 39.3283
#
#
#
# Elastic Compliance Matrix: (Units=1/GPa)
#
#
# Indices 1 2 3 4 5 6 
#
# 1 0.015693 -0.004709 0.000419 0.000000 0.013637 0.000000
# 2 -0.004709 0.013961 -0.003808 0.000000 -0.003232 0.000000
# 3 0.000419 -0.003808 0.037369 0.000000 0.040749 0.000000
# 4 0.000000 0.000000 0.000000 0.040517 0.000000 0.007926
# 5 0.013637 -0.003232 0.040749 0.000000 0.081110 0.000000
# 6 0.000000 0.000000 0.000000 0.007926 0.000000 0.026978
#
#
# Mechanical properties :
#
#
# Convention : Reuss Voigt Hill
#
# Bulk Modulus (GPa) = 19.67459 56.42626 38.05043
# Shear Modulus (GPa) = 20.09908 32.52703 26.31306
#
# Velocity S-wave (km/s) = 3.01196 3.83163 3.44625
# Velocity P-wave (km/s) = 4.57998 6.71147 5.74543
#
# Compressibility (1/GPa) = 0.05082697
#
# Stress axis : x y z
#
# Youngs Moduli (GPa) = 63.72209 71.62750 26.75995
#
# Poissons Ratio (x) = 0.33733 -0.01121
# Poissons Ratio (y) = 0.30010 0.10189
# Poissons Ratio (z) = -0.02668 0.27273
#
# Static dielectric constant tensor:
#      x y z
#    x 3.667290 0.000000 -0.354930 
#    y 0.000000 3.759840 0.000000 
#    z -0.354930 0.000000 3.777900 
# 
# 
# High freq. dielectric constant tensor:
#      x y z
#    x 1.855110 0.000000 -0.033670 
#    y 0.000000 1.860110 0.000000 
#    z -0.033670 0.000000 1.861880 
# 
# From -- ./inp_files/5254.got.cif
#   From: 2010.03.12/outbox.cif.g09.slc.cpg/sg14_3_cif.got.tgz:5254.got - 2010.03.31 13:35:05.
