data_PCOD8128695
_publ_section_title
;
Structure prediction by ZEFSAII (Michael W. Deem and Ramdas Pophale) SiO2 
 PCOD8128695
Probable space group: P 21/C
;
_chemical_formula_sum "Si O2"
_cell_formula_units_Z 28
_cell_length_a 10.366490
_cell_length_b 5.041124
_cell_length_c 22.401297
_cell_angle_alpha 90.000000
_cell_angle_beta 108.203300
_cell_angle_gamma 90.000000
_cell_volume 1112.077057
_symmetry_space_group_name_H-M "P 21/C"
_symmetry_group_IT_number 14
_symmetry_cell_setting 'monoclinic'
loop_
_space_group_symop_operation_xyz
x,y,z
-x,1/2+y,1/2-z
-x,-y,-z
x,1/2-y,1/2+z
loop_
_atom_site_type_symbol
_atom_site_label
_atom_site_fract_x
_atom_site_fract_y
_atom_site_fract_z
Si Si1 0.299794 0.091308 0.200198
Si Si2 0.667020 0.988233 0.403475
Si Si3 0.460451 0.341756 0.322298
Si Si4 0.355348 0.376827 0.968777
Si Si5 0.999289 0.906039 0.866980
Si Si6 0.290338 0.628693 0.386020
Si Si7 0.047514 0.615263 0.068798
O O1 0.328825 0.263424 0.145782
O O2 0.332909 0.226033 0.268121
O O3 0.142556 0.999070 0.184414
O O4 0.413990 0.863748 0.206701
O O5 0.521066 0.141939 0.381853
O O6 0.704863 0.861143 0.472946
O O7 0.791829 0.188714 0.407941
O O8 0.396115 0.603773 0.345509
O O9 0.347269 0.080356 0.942609
O O10 0.279555 0.579516 0.913091
O O11 0.500000 0.500000 0.000000
O O12 0.981915 0.606204 0.885642
O O13 0.029559 0.112141 0.925908
O O14 0.133154 0.931882 0.844215
O O15 0.000000 0.500000 0.000000
#
# Coordination Sequence:
#
# PCOD8128695 Si02
#       7
#     4   4   4   4   4   4   4
#     4  11  25  45  70 101 135 187 243 295 348 412
#     4  11  23  40  69 100 134 183 230 292 337 416
#     4  12  24  45  71  98 136 182 240 293 344 412
#     4  12  25  44  68 106 145 183 227 283 358 425
#     4  11  24  44  65  99 141 177 227 285 347 417
#     4  12  27  45  71 106 143 184 227 288 357 425
#     4  11  22  40  66  98 139 183 225 275 344 415
#
# _framework density 25.17811
#
# number of rings (size 3 to 8) (size 9 to 14) (size 15 to 20)
#    0.000    0.571    4.286    4.286    2.000    1.143 
#    0.000    5.714    0.000    0.000    0.000    0.000 
#    0.000    0.000    0.000    0.000    0.000    0.000 
#
# Total GULP energy -346936.072906 kJ/mol
# GULP energy per Si atom -12390.574032 kJ/mol
# Density = 2.512080 g / cm^3
# Si number density = 25.178110 Si / 1000 Ang^3
#
#
#
# Elastic Constant Matrix: (Units=GPa)
#
#
# Indices 1 2 3 4 5 6 
#
# 1 145.1987 -12.8588 20.1869 0.0000 25.1623 0.0000
# 2 -12.8588 57.5352 5.9352 0.0000 -1.7562 0.0000
# 3 20.1869 5.9352 80.7363 0.0000 2.7206 0.0000
# 4 0.0000 0.0000 0.0000 26.3124 0.0000 1.5190
# 5 25.1623 -1.7562 2.7206 0.0000 32.4826 0.0000
# 6 0.0000 0.0000 0.0000 1.5190 0.0000 24.9409
#
#
#
# Elastic Compliance Matrix: (Units=1/GPa)
#
#
# Indices 1 2 3 4 5 6 
#
# 1 0.008422 0.001901 -0.002035 0.000000 -0.006250 0.000000
# 2 0.001901 0.017979 -0.001785 0.000000 -0.000351 0.000000
# 3 -0.002035 -0.001785 0.013013 0.000000 0.000390 0.000000
# 4 0.000000 0.000000 0.000000 0.038139 0.000000 -0.002323
# 5 -0.006250 -0.000351 0.000390 0.000000 0.035576 0.000000
# 6 0.000000 0.000000 0.000000 -0.002323 0.000000 0.040236
#
#
# Mechanical properties :
#
#
# Convention : Reuss Voigt Hill
#
# Bulk Modulus (GPa) = 28.10889 34.44407 31.27648
# Shear Modulus (GPa) = 29.57515 34.76098 32.16807
#
# Velocity S-wave (km/s) = 3.43102 3.71968 3.57826
# Velocity P-wave (km/s) = 5.18499 5.67079 5.43332
#
# Compressibility (1/GPa) = 0.03557593
#
# Stress axis : x y z
#
# Youngs Moduli (GPa) = 118.74269 55.62033 76.84688
#
# Poissons Ratio (x) = -0.10575 0.15637
# Poissons Ratio (y) = -0.22577 0.13719
# Poissons Ratio (z) = 0.24162 0.09930
#
# Static dielectric constant tensor:
#      x y z
#    x 5.087430 0.000000 0.482410 
#    y 0.000000 -8.581420 0.000000 
#    z 0.482410 0.000000 1.124470 
# 
# 
# High freq. dielectric constant tensor:
#      x y z
#    x 2.025780 0.000000 0.014020 
#    y 0.000000 1.992430 0.000000 
#    z 0.014020 0.000000 1.985020 
# 
# From -- ./inp_files/66322.got.cif
#   From: 2010.03.12/outbox.cif.g09.slc.cpg/sg14_34_cif.got.tgz:66322.got - 2010.03.31 13:35:05.
