data_PCOD8128610
_publ_section_title
;
Structure prediction by ZEFSAII (Michael W. Deem and Ramdas Pophale) SiO2 
 PCOD8128610
Probable space group: P 21/C
;
_chemical_formula_sum "Si O2"
_cell_formula_units_Z 28
_cell_length_a 20.289586
_cell_length_b 9.369594
_cell_length_c 8.697454
_cell_angle_alpha 90.000000
_cell_angle_beta 48.745290
_cell_angle_gamma 90.000000
_cell_volume 1243.025687
_symmetry_space_group_name_H-M "P 21/C"
_symmetry_group_IT_number 14
_symmetry_cell_setting 'monoclinic'
loop_
_space_group_symop_operation_xyz
x,y,z
-x,1/2+y,1/2-z
-x,-y,-z
x,1/2-y,1/2+z
loop_
_atom_site_type_symbol
_atom_site_label
_atom_site_fract_x
_atom_site_fract_y
_atom_site_fract_z
Si Si1 0.587963 0.913949 0.332337
Si Si2 0.657779 0.664941 0.058402
Si Si3 0.171175 0.163111 0.116308
Si Si4 0.059678 0.552122 0.269378
Si Si5 0.944018 0.802220 0.437473
Si Si6 0.743834 0.093002 0.573933
Si Si7 0.729393 0.403283 0.461345
O O1 0.578866 0.761961 0.254300
O O2 0.639177 0.877040 0.410991
O O3 0.500000 0.000000 0.500000
O O4 0.638865 0.020805 0.142004
O O5 0.669230 0.518390 0.136109
O O6 0.745350 0.759539 0.936262
O O7 0.144884 0.227643 0.993040
O O8 0.080317 0.188182 0.347014
O O9 0.192144 0.993698 0.078832
O O10 0.037035 0.457925 0.156575
O O11 0.000000 0.500000 0.500000
O O12 0.032964 0.713913 0.273954
O O13 0.163375 0.541832 0.141150
O O14 0.722240 0.246182 0.539256
O O15 0.746964 0.100069 0.752582
#
# Coordination Sequence:
#
# PCOD8128610 Si02
#       7
#     4   4   4   4   4   4   4
#     4  11  26  47  76 114 139 181 226 286 356 424
#     4  11  22  46  76  99 143 185 232 277 349 430
#     4  11  21  43  66  94 125 187 228 284 342 426
#     4  12  27  41  63  98 137 183 244 298 362 401
#     4  12  24  41  64  92 135 175 240 290 360 392
#     4  12  25  45  67 102 137 193 239 294 343 429
#     4  11  25  42  69  99 140 177 241 285 356 419
#
# _framework density 22.525680999999999
#
# number of rings (size 3 to 8) (size 9 to 14) (size 15 to 20)
#    0.000    0.571    4.286    4.286    4.000    2.857 
#    0.000    2.143    0.000    0.000    0.000    0.000 
#    0.000    0.000    0.000    0.000    0.000    0.000 
#
# Total GULP energy -347093.755627 kJ/mol
# GULP energy per Si atom -12396.205558 kJ/mol
# Density = 2.247441 g / cm^3
# Si number density = 22.525681 Si / 1000 Ang^3
#
#
#
# Elastic Constant Matrix: (Units=GPa)
#
#
# Indices 1 2 3 4 5 6 
#
# 1 42.9871 11.3020 19.2742 0.0000 -6.9677 0.0000
# 2 11.3020 156.1508 37.7842 0.0000 -14.3982 0.0000
# 3 19.2742 37.7842 108.7754 0.0000 -10.5446 0.0000
# 4 0.0000 0.0000 0.0000 45.9100 0.0000 -6.6599
# 5 -6.9677 -14.3982 -10.5446 0.0000 22.0197 0.0000
# 6 0.0000 0.0000 0.0000 -6.6599 0.0000 37.1926
#
#
#
# Elastic Compliance Matrix: (Units=1/GPa)
#
#
# Indices 1 2 3 4 5 6 
#
# 1 0.026107 -0.000380 -0.003898 0.000000 0.006146 0.000000
# 2 -0.000380 0.007276 -0.002109 0.000000 0.003628 0.000000
# 3 -0.003898 -0.002109 0.010868 0.000000 0.002592 0.000000
# 4 0.000000 0.000000 0.000000 0.022363 0.000000 0.004004
# 5 0.006146 0.003628 0.002592 0.000000 0.050972 0.000000
# 6 0.000000 0.000000 0.000000 0.004004 0.000000 0.027604
#
#
# Mechanical properties :
#
#
# Convention : Reuss Voigt Hill
#
# Bulk Modulus (GPa) = 31.76841 49.40379 40.58610
# Shear Modulus (GPa) = 29.68152 36.99464 33.33808
#
# Velocity S-wave (km/s) = 3.63392 4.05697 3.85125
# Velocity P-wave (km/s) = 5.63391 6.62760 6.15086
#
# Compressibility (1/GPa) = 0.03147781
#
# Stress axis : x y z
#
# Youngs Moduli (GPa) = 38.30441 137.43296 92.01593
#
# Poissons Ratio (x) = 0.05217 0.35870
# Poissons Ratio (y) = 0.01454 0.19402
# Poissons Ratio (z) = 0.14932 0.28978
#
# Static dielectric constant tensor:
#      x y z
#    x 3.801170 0.000000 0.034690 
#    y 0.000000 4.732100 0.000000 
#    z 0.034690 0.000000 4.241880 
# 
# 
# High freq. dielectric constant tensor:
#      x y z
#    x 1.862110 0.000000 0.013940 
#    y 0.000000 1.910840 0.000000 
#    z 0.013940 0.000000 1.896730 
# 
# From -- ./inp_files/18719.got.cif
#   From: 2010.03.12/outbox.cif.g09.slc.cpg/sg14_10_cif.got.tgz:18719.got - 2010.03.31 13:35:05.
