data_PCOD8128257
_publ_section_title
;
Structure prediction by ZEFSAII (Michael W. Deem and Ramdas Pophale) SiO2 
 PCOD8128257
Probable space group: P 21/C
;
_chemical_formula_sum "Si O2"
_cell_formula_units_Z 32
_cell_length_a 8.673131
_cell_length_b 11.435134
_cell_length_c 16.619764
_cell_angle_alpha 90.000000
_cell_angle_beta 68.784676
_cell_angle_gamma 90.000000
_cell_volume 1536.610219
_symmetry_space_group_name_H-M "P 21/C"
_symmetry_group_IT_number 14
_symmetry_cell_setting 'monoclinic'
loop_
_space_group_symop_operation_xyz
x,y,z
-x,1/2+y,1/2-z
-x,-y,-z
x,1/2-y,1/2+z
loop_
_atom_site_type_symbol
_atom_site_label
_atom_site_fract_x
_atom_site_fract_y
_atom_site_fract_z
Si Si1 0.000599 0.691024 0.578712
Si Si2 0.339464 0.242311 0.420017
Si Si3 0.667681 0.007892 0.517279
Si Si4 0.860254 0.476183 0.323109
Si Si5 0.105370 0.596949 0.157918
Si Si6 0.572667 0.885587 0.944929
Si Si7 0.298681 0.750062 0.407955
Si Si8 0.677107 0.259005 0.281925
O O1 0.042637 0.571027 0.616930
O O2 0.997890 0.796947 0.642825
O O3 0.133137 0.710292 0.483785
O O4 0.819285 0.681324 0.574519
O O5 0.296050 0.105450 0.435272
O O6 0.407188 0.284401 0.493146
O O7 0.478559 0.260824 0.325655
O O8 0.500000 0.000000 0.500000
O O9 0.821337 0.018924 0.427459
O O10 0.654515 0.117881 0.578810
O O11 0.747522 0.586079 0.370061
O O12 0.744041 0.377628 0.307680
O O13 0.991448 0.514737 0.232497
O O14 0.257003 0.647915 0.180978
O O15 0.446567 0.837979 0.902045
O O16 0.500000 0.000000 0.000000
O O17 0.264383 0.744242 0.320063
#
# Coordination Sequence:
#
# PCOD8128257 Si02
#       8
#     4   4   4   4   4   4   4   4
#     4  10  25  44  64  99 135 169 223 276 333 399
#     4  12  25  43  70  99 131 174 229 271 332 398
#     4  11  22  45  71  93 129 177 220 271 329 395
#     4  11  25  45  67  95 138 178 219 276 337 395
#     4  10  24  44  66  93 135 172 220 275 329 394
#     4  12  23  45  68  92 134 180 210 266 339 397
#     4  11  25  43  68  98 133 174 220 273 336 394
#     4  11  25  44  63 100 136 167 222 284 328 394
#
# _framework density 20.825060000000001
#
# number of rings (size 3 to 8) (size 9 to 14) (size 15 to 20)
#    0.000    1.000    5.000    0.750    7.000    4.500 
#    0.000    0.000    0.000    0.000    0.000    0.000 
#    0.000    0.000    0.000    0.000    0.000    0.000 
#
# Total GULP energy -397041.348345 kJ/mol
# GULP energy per Si atom -12407.542136 kJ/mol
# Density = 2.077766 g / cm^3
# Si number density = 20.825060 Si / 1000 Ang^3
#
#
#
# Elastic Constant Matrix: (Units=GPa)
#
#
# Indices 1 2 3 4 5 6 
#
# 1 95.4309 18.0349 24.6946 0.0000 -11.1775 0.0000
# 2 18.0349 87.3821 31.7108 0.0000 -13.3217 0.0000
# 3 24.6946 31.7108 104.5811 0.0000 -5.5498 0.0000
# 4 0.0000 0.0000 0.0000 35.0964 0.0000 -5.8923
# 5 -11.1775 -13.3217 -5.5498 0.0000 36.4080 0.0000
# 6 0.0000 0.0000 0.0000 -5.8923 0.0000 19.7026
#
#
#
# Elastic Compliance Matrix: (Units=1/GPa)
#
#
# Indices 1 2 3 4 5 6 
#
# 1 0.011605 -0.001155 -0.002241 0.000000 0.002798 0.000000
# 2 -0.001155 0.013626 -0.003642 0.000000 0.004076 0.000000
# 3 -0.002241 -0.003642 0.011179 0.000000 -0.000317 0.000000
# 4 0.000000 0.000000 0.000000 0.029999 0.000000 0.008972
# 5 0.002798 0.004076 -0.000317 0.000000 0.029769 0.000000
# 6 0.000000 0.000000 0.000000 0.008972 0.000000 0.053438
#
#
# Mechanical properties :
#
#
# Convention : Reuss Voigt Hill
#
# Bulk Modulus (GPa) = 44.78029 48.47495 46.62762
# Shear Modulus (GPa) = 29.21636 32.43830 30.82733
#
# Velocity S-wave (km/s) = 3.74965 3.95100 3.85164
# Velocity P-wave (km/s) = 6.34793 6.64391 6.49761
#
# Compressibility (1/GPa) = 0.02233125
#
# Stress axis : x y z
#
# Youngs Moduli (GPa) = 86.17067 73.39122 89.45435
#
# Poissons Ratio (x) = 0.08477 0.20051
# Poissons Ratio (y) = 0.09953 0.32584
# Poissons Ratio (z) = 0.19315 0.26733
#
# Static dielectric constant tensor:
#      x y z
#    x 3.757730 0.000000 -0.017670 
#    y 0.000000 3.907110 0.000000 
#    z -0.017670 0.000000 3.829140 
# 
# 
# High freq. dielectric constant tensor:
#      x y z
#    x 1.819270 0.000000 -0.004950 
#    y 0.000000 1.818970 0.000000 
#    z -0.004950 0.000000 1.819580 
# 
# From -- ./inp_files/40302.got.cif
#   From: 2010.03.12/outbox.cif.g09.slc.cpg/sg14_21_cif.got.tgz:40302.got - 2010.03.31 13:35:05.
