data_PCOD8128510
_publ_section_title
;
Structure prediction by ZEFSAII (Michael W. Deem and Ramdas Pophale) SiO2 
 PCOD8128510
Probable space group: P 21/C
;
_chemical_formula_sum "Si O2"
_cell_formula_units_Z 32
_cell_length_a 9.741778
_cell_length_b 10.523486
_cell_length_c 13.948391
_cell_angle_alpha 90.000000
_cell_angle_beta 84.220476
_cell_angle_gamma 90.000000
_cell_volume 1422.684880
_symmetry_space_group_name_H-M "P 21/C"
_symmetry_group_IT_number 14
_symmetry_cell_setting 'monoclinic'
loop_
_space_group_symop_operation_xyz
x,y,z
-x,1/2+y,1/2-z
-x,-y,-z
x,1/2-y,1/2+z
loop_
_atom_site_type_symbol
_atom_site_label
_atom_site_fract_x
_atom_site_fract_y
_atom_site_fract_z
Si Si1 0.491800 0.708240 0.519943
Si Si2 0.873406 0.976899 0.700482
Si Si3 0.044671 0.684765 0.923947
Si Si4 0.868193 0.373048 0.732660
Si Si5 0.228385 0.335419 0.960902
Si Si6 0.258236 0.609828 0.049851
Si Si7 0.581932 0.128078 0.182896
Si Si8 0.401218 0.899363 0.217012
O O1 0.650777 0.734141 0.534143
O O2 0.415241 0.843979 0.529724
O O3 0.476483 0.638350 0.419803
O O4 0.426247 0.613784 0.602327
O O5 0.800088 0.856743 0.651778
O O6 0.990237 0.953928 0.772725
O O7 0.958179 0.035123 0.603370
O O8 0.758323 0.068515 0.753040
O O9 0.074713 0.744998 0.818322
O O10 0.171872 0.703913 0.987053
O O11 0.904106 0.731971 0.981662
O O12 0.799757 0.359381 0.841076
O O13 0.742275 0.420715 0.673417
O O14 0.259663 0.463858 0.018006
O O15 0.562588 0.266741 0.233041
O O16 0.494789 0.019132 0.245919
#
# Coordination Sequence:
#
# PCOD8128510 Si02
#       8
#     4   4   4   4   4   4   4   4
#     4  12  25  45  68 103 148 186 231 301 369 423
#     4  11  22  44  70 100 135 190 241 301 358 423
#     4  11  21  42  64 102 139 180 240 302 352 420
#     4  12  23  42  71 100 139 187 238 297 364 418
#     4  11  23  40  72 106 135 184 252 301 344 438
#     4  11  20  42  68  99 143 186 239 298 356 427
#     4  12  27  47  72 106 146 196 239 294 366 435
#     4  12  27  49  72 104 149 189 241 302 358 439
#
# _framework density 22.492681000000001
#
# number of rings (size 3 to 8) (size 9 to 14) (size 15 to 20)
#    0.000    0.500    6.250    3.000    3.500    0.000 
#    2.250    0.625    0.000    0.000    0.000    0.000 
#    0.000    0.000    0.000    0.000    0.000    0.000 
#
# Total GULP energy -396491.594439 kJ/mol
# GULP energy per Si atom -12390.362326 kJ/mol
# Density = 2.244149 g / cm^3
# Si number density = 22.492681 Si / 1000 Ang^3
#
#
#
# Elastic Constant Matrix: (Units=GPa)
#
#
# Indices 1 2 3 4 5 6 
#
# 1 159.6539 48.4404 32.9521 0.0000 5.6777 0.0000
# 2 48.4404 70.6982 27.1907 0.0000 0.3020 0.0000
# 3 32.9521 27.1907 90.8970 0.0000 -1.2513 0.0000
# 4 0.0000 0.0000 0.0000 27.7622 0.0000 1.4668
# 5 5.6777 0.3020 -1.2513 0.0000 30.9354 0.0000
# 6 0.0000 0.0000 0.0000 1.4668 0.0000 35.6501
#
#
#
# Elastic Compliance Matrix: (Units=1/GPa)
#
#
# Indices 1 2 3 4 5 6 
#
# 1 0.008140 -0.005003 -0.001475 0.000000 -0.001505 0.000000
# 2 -0.005003 0.019063 -0.003881 0.000000 0.000575 0.000000
# 3 -0.001475 -0.003881 0.012708 0.000000 0.000823 0.000000
# 4 0.000000 0.000000 0.000000 0.036099 0.000000 -0.001485
# 5 -0.001505 0.000575 0.000823 0.000000 0.032629 0.000000
# 6 0.000000 0.000000 0.000000 -0.001485 0.000000 0.028111
#
#
# Mechanical properties :
#
#
# Convention : Reuss Voigt Hill
#
# Bulk Modulus (GPa) = 52.10217 59.82396 55.96306
# Shear Modulus (GPa) = 30.51286 33.04726 31.78006
#
# Velocity S-wave (km/s) = 3.68716 3.83723 3.76294
# Velocity P-wave (km/s) = 6.42971 6.80348 6.61923
#
# Compressibility (1/GPa) = 0.01919306
#
# Stress axis : x y z
#
# Youngs Moduli (GPa) = 122.85762 52.45806 78.68883
#
# Poissons Ratio (x) = 0.26247 0.11605
# Poissons Ratio (y) = 0.61470 0.30537
# Poissons Ratio (z) = 0.18119 0.20357
#
# Static dielectric constant tensor:
#      x y z
#    x 4.456270 0.000000 0.156720 
#    y 0.000000 3.804450 0.000000 
#    z 0.156720 0.000000 4.095650 
# 
# 
# High freq. dielectric constant tensor:
#      x y z
#    x 1.904740 0.000000 -0.002320 
#    y 0.000000 1.859700 0.000000 
#    z -0.002320 0.000000 1.888260 
# 
# From -- ./inp_files/40321.got.cif
#   From: 2010.03.12/outbox.cif.g09.slc.cpg/sg14_21_cif.got.tgz:40321.got - 2010.03.31 13:35:05.
