data_PCOD8128214
_publ_section_title
;
Structure prediction by ZEFSAII (Michael W. Deem and Ramdas Pophale) SiO2 
 PCOD8128214
Probable space group: P 21/C
;
_chemical_formula_sum "Si O2"
_cell_formula_units_Z 28
_cell_length_a 15.966476
_cell_length_b 15.576685
_cell_length_c 13.310636
_cell_angle_alpha 90.000000
_cell_angle_beta 156.759902
_cell_angle_gamma 90.000000
_cell_volume 1306.241742
_symmetry_space_group_name_H-M "P 21/C"
_symmetry_group_IT_number 14
_symmetry_cell_setting 'monoclinic'
loop_
_space_group_symop_operation_xyz
x,y,z
-x,1/2+y,1/2-z
-x,-y,-z
x,1/2-y,1/2+z
loop_
_atom_site_type_symbol
_atom_site_label
_atom_site_fract_x
_atom_site_fract_y
_atom_site_fract_z
Si Si1 0.933372 0.010548 0.766687
Si Si2 0.158979 0.877380 0.143963
Si Si3 0.283119 0.601664 0.312387
Si Si4 0.547906 0.035236 0.211400
Si Si5 0.237513 0.357310 0.496133
Si Si6 0.093936 0.291736 0.139708
Si Si7 0.538506 0.762953 0.583724
O O1 0.839852 0.058946 0.760516
O O2 0.732685 0.985150 0.475852
O O3 0.095318 0.067157 0.882513
O O4 0.062833 0.925482 0.941122
O O5 0.399135 0.843309 0.387261
O O6 0.015783 0.796290 0.012663
O O7 0.346670 0.578341 0.269161
O O8 0.354607 0.527880 0.467783
O O9 0.387883 0.690615 0.463785
O O10 0.030031 0.623075 0.039249
O O11 0.447403 0.106932 0.172556
O O12 0.100628 0.300997 0.267434
O O13 0.301525 0.294566 0.655676
O O14 0.331519 0.286642 0.359555
#
# Coordination Sequence:
#
# PCOD8128214 Si02
#       7
#     4   4   4   4   4   4   4
#     4  11  23  43  65  97 131 175 225 273 328 404
#     4  10  24  43  66  92 134 173 220 276 334 389
#     4  10  24  43  66  92 134 173 220 276 334 389
#     4  11  23  43  65  97 131 175 225 273 328 404
#     4  12  24  40  66  96 132 176 220 272 340 388
#     4  11  23  43  67  97 131 173 219 279 330 401
#     4  11  23  43  67  97 131 173 219 279 330 401
#
# _framework density 21.435541000000001
#
# number of rings (size 3 to 8) (size 9 to 14) (size 15 to 20)
#    0.000    1.143    5.714    0.000    2.000    3.429 
#    0.000    0.000    0.000    0.000    0.000    0.000 
#    0.000    0.000    0.000    0.000    0.000    0.000 
#
# Total GULP energy -347163.243026 kJ/mol
# GULP energy per Si atom -12398.687251 kJ/mol
# Density = 2.138675 g / cm^3
# Si number density = 21.435541 Si / 1000 Ang^3
#
#
#
# Elastic Constant Matrix: (Units=GPa)
#
#
# Indices 1 2 3 4 5 6 
#
# 1 70.6679 16.3917 29.9016 0.0000 2.0129 0.0000
# 2 16.3917 72.5499 34.9896 0.0000 -2.7947 0.0000
# 3 29.9016 34.9896 126.1361 0.0000 -9.2820 0.0000
# 4 0.0000 0.0000 0.0000 44.9780 0.0000 -3.1575
# 5 2.0129 -2.7947 -9.2820 0.0000 35.8123 0.0000
# 6 0.0000 0.0000 0.0000 -3.1575 0.0000 30.3532
#
#
#
# Elastic Compliance Matrix: (Units=1/GPa)
#
#
# Indices 1 2 3 4 5 6 
#
# 1 0.016123 -0.002084 -0.003387 0.000000 -0.001947 0.000000
# 2 -0.002084 0.016182 -0.003969 0.000000 0.000351 0.000000
# 3 -0.003387 -0.003969 0.010014 0.000000 0.002476 0.000000
# 4 0.000000 0.000000 0.000000 0.022397 0.000000 0.002330
# 5 -0.001947 0.000351 0.002476 0.000000 0.028702 0.000000
# 6 0.000000 0.000000 0.000000 0.002330 0.000000 0.033188
#
#
# Mechanical properties :
#
#
# Convention : Reuss Voigt Hill
#
# Bulk Modulus (GPa) = 42.66481 47.99108 45.32794
# Shear Modulus (GPa) = 32.61603 34.76676 33.69140
#
# Velocity S-wave (km/s) = 3.90498 4.03168 3.96884
# Velocity P-wave (km/s) = 6.34656 6.64152 6.49571
#
# Compressibility (1/GPa) = 0.02343852
#
# Stress axis : x y z
#
# Youngs Moduli (GPa) = 62.02400 61.79635 99.85936
#
# Poissons Ratio (x) = 0.12879 0.33824
# Poissons Ratio (y) = 0.12927 0.39634
# Poissons Ratio (z) = 0.21009 0.24527
#
# Static dielectric constant tensor:
#      x y z
#    x 3.667820 0.000000 -0.047250 
#    y 0.000000 3.813810 0.000000 
#    z -0.047250 0.000000 4.205290 
# 
# 
# High freq. dielectric constant tensor:
#      x y z
#    x 1.826390 0.000000 -0.003020 
#    y 0.000000 1.839710 0.000000 
#    z -0.003020 0.000000 1.860580 
# 
# From -- ./inp_files/49252.got.cif
#   From: 2010.03.12/outbox.cif.g09.slc.cpg/sg14_25_cif.got.tgz:49252.got - 2010.03.31 13:35:05.
