data_PCOD8128963
_publ_section_title
;
Structure prediction by ZEFSAII (Michael W. Deem and Ramdas Pophale) SiO2 
 PCOD8128963
Probable space group: P 21/C
;
_chemical_formula_sum "Si O2"
_cell_formula_units_Z 28
_cell_length_a 6.590128
_cell_length_b 11.425544
_cell_length_c 19.506488
_cell_angle_alpha 90.000000
_cell_angle_beta 117.140112
_cell_angle_gamma 90.000000
_cell_volume 1307.037167
_symmetry_space_group_name_H-M "P 21/C"
_symmetry_group_IT_number 14
_symmetry_cell_setting 'monoclinic'
loop_
_space_group_symop_operation_xyz
x,y,z
-x,1/2+y,1/2-z
-x,-y,-z
x,1/2-y,1/2+z
loop_
_atom_site_type_symbol
_atom_site_label
_atom_site_fract_x
_atom_site_fract_y
_atom_site_fract_z
Si Si1 0.435781 0.512072 0.912637
Si Si2 0.345725 0.829423 0.741590
Si Si3 0.913001 0.556657 0.811296
Si Si4 0.979404 0.370373 0.468126
Si Si5 0.696664 0.723832 0.887231
Si Si6 0.544811 0.268111 0.884840
Si Si7 0.931672 0.674462 0.672469
O O1 0.525384 0.631289 0.893892
O O2 0.574170 0.406827 0.898740
O O3 0.162292 0.504640 0.864646
O O4 0.500000 0.500000 0.000000
O O5 0.537935 0.825359 0.829874
O O6 0.447770 0.750286 0.695802
O O7 0.110771 0.768875 0.728907
O O8 0.286007 0.960640 0.708794
O O9 0.859857 0.664758 0.854539
O O10 0.901094 0.582023 0.728356
O O11 0.164880 0.284970 0.530595
O O12 0.996885 0.382563 0.388658
O O13 0.000000 0.500000 0.500000
O O14 0.738851 0.310428 0.450686
O O15 0.306904 0.234378 0.881346
#
# Coordination Sequence:
#
# PCOD8128963 Si02
#       7
#     4   4   4   4   4   4   4
#     4  12  25  42  71 105 139 177 233 291 349 413
#     4  11  24  42  71 103 133 179 233 288 348 414
#     4  12  25  43  74 104 138 183 235 293 344 418
#     4  11  29  47  67 100 146 188 232 289 354 422
#     4  12  26  45  70 104 140 185 232 287 356 413
#     4  11  23  45  70  97 140 180 228 293 344 409
#     4  11  24  46  69 102 138 184 236 283 353 420
#
# _framework density 21.422495999999999
#
# number of rings (size 3 to 8) (size 9 to 14) (size 15 to 20)
#    0.000    0.571    5.714    1.714    4.000    4.000 
#    2.571    0.000    0.000    0.000    0.000    0.000 
#    0.000    0.000    0.000    0.000    0.000    0.000 
#
# Total GULP energy -347148.406912 kJ/mol
# GULP energy per Si atom -12398.157390 kJ/mol
# Density = 2.137374 g / cm^3
# Si number density = 21.422496 Si / 1000 Ang^3
#
#
#
# Elastic Constant Matrix: (Units=GPa)
#
#
# Indices 1 2 3 4 5 6 
#
# 1 92.6401 25.5113 34.4819 0.0000 2.7673 0.0000
# 2 25.5113 91.6838 33.0159 0.0000 3.4288 0.0000
# 3 34.4819 33.0159 122.0017 0.0000 -1.4727 0.0000
# 4 0.0000 0.0000 0.0000 38.5848 0.0000 1.0272
# 5 2.7673 3.4288 -1.4727 0.0000 34.9493 0.0000
# 6 0.0000 0.0000 0.0000 1.0272 0.0000 36.8358
#
#
#
# Elastic Compliance Matrix: (Units=1/GPa)
#
#
# Indices 1 2 3 4 5 6 
#
# 1 0.012569 -0.002417 -0.002909 0.000000 -0.000881 0.000000
# 2 -0.002417 0.012611 -0.002744 0.000000 -0.001161 0.000000
# 3 -0.002909 -0.002744 0.009772 0.000000 0.000911 0.000000
# 4 0.000000 0.000000 0.000000 0.025936 0.000000 -0.000723
# 5 -0.000881 -0.001161 0.000911 0.000000 0.028835 0.000000
# 6 0.000000 0.000000 0.000000 -0.000723 0.000000 0.027168
#
#
# Mechanical properties :
#
#
# Convention : Reuss Voigt Hill
#
# Bulk Modulus (GPa) = 53.15425 54.70486 53.92955
# Shear Modulus (GPa) = 35.89333 36.29507 36.09420
#
# Velocity S-wave (km/s) = 4.09772 4.12059 4.10917
# Velocity P-wave (km/s) = 6.87420 6.94483 6.90961
#
# Compressibility (1/GPa) = 0.01881317
#
# Stress axis : x y z
#
# Youngs Moduli (GPa) = 79.56005 79.29572 102.33005
#
# Poissons Ratio (x) = 0.19165 0.29768
# Poissons Ratio (y) = 0.19229 0.28076
# Poissons Ratio (z) = 0.23144 0.21756
#
# Static dielectric constant tensor:
#      x y z
#    x 4.849700 0.000000 -0.021630 
#    y 0.000000 3.681570 0.000000 
#    z -0.021630 0.000000 3.897090 
# 
# 
# High freq. dielectric constant tensor:
#      x y z
#    x 1.851500 0.000000 0.002570 
#    y 0.000000 1.834790 0.000000 
#    z 0.002570 0.000000 1.850690 
# 
# From -- ./inp_files/61264.got.cif
#   From: 2010.03.12/outbox.cif.g09.slc.cpg/sg14_31_cif.got.tgz:61264.got - 2010.03.31 13:35:05.
