data_PCOD8128006
_publ_section_title
;
Structure prediction by ZEFSAII (Michael W. Deem and Ramdas Pophale) SiO2 
 PCOD8128006
Probable space group: P 21/C
;
_chemical_formula_sum "Si O2"
_cell_formula_units_Z 16
_cell_length_a 12.970596
_cell_length_b 4.864972
_cell_length_c 13.734222
_cell_angle_alpha 90.000000
_cell_angle_beta 134.051945
_cell_angle_gamma 90.000000
_cell_volume 622.870638
_symmetry_space_group_name_H-M "P 21/C"
_symmetry_group_IT_number 14
_symmetry_cell_setting 'monoclinic'
loop_
_space_group_symop_operation_xyz
x,y,z
-x,1/2+y,1/2-z
-x,-y,-z
x,1/2-y,1/2+z
loop_
_atom_site_type_symbol
_atom_site_label
_atom_site_fract_x
_atom_site_fract_y
_atom_site_fract_z
Si Si1 0.679639 0.292126 0.969594
Si Si2 0.366937 0.146471 0.738315
Si Si3 0.246208 0.646926 0.762666
Si Si4 0.028634 0.973228 0.832887
O O1 0.537708 0.105950 0.864351
O O2 0.674078 0.563213 0.898306
O O3 0.696662 0.402338 0.090397
O O4 0.814772 0.106323 0.023851
O O5 0.328082 0.460823 0.737299
O O6 0.721605 0.040172 0.244163
O O7 0.075012 0.586340 0.649152
O O8 0.952700 0.705419 0.736996
#
# Coordination Sequence:
#
# PCOD8128006 Si02
#       4
#     4   4   4   4
#     4  11  26  47  70 103 146 177 230 289 339 410
#     4  12  26  43  72 104 135 184 228 279 349 407
#     4  11  25  46  71 100 137 183 231 281 340 408
#     4  10  23  44  71  99 137 186 227 281 345 400
#
# _framework density 25.687515000000001
#
# number of rings (size 3 to 8) (size 9 to 14) (size 15 to 20)
#    0.000    1.000    0.000    6.000    0.000   18.000 
#    0.000    0.000    0.000    0.000    0.000    0.000 
#    0.000    0.000    0.000    0.000    0.000    0.000 
#
# Total GULP energy -198469.761892 kJ/mol
# GULP energy per Si atom -12404.360118 kJ/mol
# Density = 2.562905 g / cm^3
# Si number density = 25.687515 Si / 1000 Ang^3
#
#
#
# Elastic Constant Matrix: (Units=GPa)
#
#
# Indices 1 2 3 4 5 6 
#
# 1 108.9263 -4.8881 20.0845 0.0000 18.2700 0.0000
# 2 -4.8881 65.5103 3.4640 0.0000 2.6927 0.0000
# 3 20.0845 3.4640 56.4248 0.0000 -9.1580 0.0000
# 4 0.0000 0.0000 0.0000 43.7852 0.0000 2.0360
# 5 18.2700 2.6927 -9.1580 0.0000 50.8749 0.0000
# 6 0.0000 0.0000 0.0000 2.0360 0.0000 34.4797
#
#
#
# Elastic Compliance Matrix: (Units=1/GPa)
#
#
# Indices 1 2 3 4 5 6 
#
# 1 0.010927 0.001266 -0.004754 0.000000 -0.004847 0.000000
# 2 0.001266 0.015512 -0.001658 0.000000 -0.001574 0.000000
# 3 -0.004754 -0.001658 0.020404 0.000000 0.005468 0.000000
# 4 0.000000 0.000000 0.000000 0.022902 0.000000 -0.001352
# 5 -0.004847 -0.001574 0.005468 0.000000 0.022464 0.000000
# 6 0.000000 0.000000 0.000000 -0.001352 0.000000 0.029082
#
#
# Mechanical properties :
#
#
# Convention : Reuss Voigt Hill
#
# Bulk Modulus (GPa) = 27.35976 29.79802 28.57889
# Shear Modulus (GPa) = 34.77859 39.97468 37.37664
#
# Velocity S-wave (km/s) = 3.68354 3.94914 3.81865
# Velocity P-wave (km/s) = 5.36334 5.69382 5.53105
#
# Compressibility (1/GPa) = 0.03655002
#
# Stress axis : x y z
#
# Youngs Moduli (GPa) = 91.51821 64.46782 49.00977
#
# Poissons Ratio (x) = -0.08161 0.23298
# Poissons Ratio (y) = -0.11585 0.08128
# Poissons Ratio (z) = 0.43506 0.10691
#
# Static dielectric constant tensor:
#      x y z
#    x 4.733090 0.000000 0.235970 
#    y 0.000000 4.699830 0.000000 
#    z 0.235970 0.000000 4.534710 
# 
# 
# High freq. dielectric constant tensor:
#      x y z
#    x 2.042610 0.000000 0.008010 
#    y 0.000000 2.031770 0.000000 
#    z 0.008010 0.000000 2.020660 
# 
# From -- ./inp_files/46023.got.cif
#   From: 2010.03.12/outbox.cif.g09.slc.cpg/sg14_24_cif.got.tgz:46023.got - 2010.03.31 13:35:05.
