data_PCOD8128090
_publ_section_title
;
Structure prediction by ZEFSAII (Michael W. Deem and Ramdas Pophale) SiO2 
 PCOD8128090
Probable space group: P 21/C
;
_chemical_formula_sum "Si O2"
_cell_formula_units_Z 16
_cell_length_a 9.467133
_cell_length_b 5.021200
_cell_length_c 13.948956
_cell_angle_alpha 90.000000
_cell_angle_beta 62.195568
_cell_angle_gamma 90.000000
_cell_volume 586.526426
_symmetry_space_group_name_H-M "P 21/C"
_symmetry_group_IT_number 14
_symmetry_cell_setting 'monoclinic'
loop_
_space_group_symop_operation_xyz
x,y,z
-x,1/2+y,1/2-z
-x,-y,-z
x,1/2-y,1/2+z
loop_
_atom_site_type_symbol
_atom_site_label
_atom_site_fract_x
_atom_site_fract_y
_atom_site_fract_z
Si Si1 0.636905 0.180575 0.915954
Si Si2 0.328156 0.375862 0.950373
Si Si3 0.855453 0.922065 0.689032
Si Si4 0.044208 0.429697 0.591156
O O1 0.722184 0.368762 0.968948
O O2 0.769085 0.019244 0.812843
O O3 0.522176 0.364549 0.882987
O O4 0.500000 0.000000 0.000000
O O5 0.266376 0.396660 0.861036
O O6 0.240846 0.108137 0.028365
O O7 0.990316 0.130669 0.622361
O O8 0.951423 0.647290 0.686571
O O9 0.000000 0.500000 0.500000
#
# Coordination Sequence:
#
# PCOD8128090 Si02
#       4
#     4   4   4   4
#     4  11  28  45  74 115 153 199 257 312 386 463
#     4  10  25  47  76 111 161 196 254 323 380 469
#     4  11  26  47  81 108 150 205 251 310 392 448
#     4  10  23  47  78 111 144 200 256 309 379 455
#
# _framework density 27.279247999999999
#
# number of rings (size 3 to 8) (size 9 to 14) (size 15 to 20)
#    0.000    1.500    0.000    3.000   21.000    0.000 
#    4.500    0.000    0.000    0.000    0.000    0.000 
#    0.000    0.000    0.000    0.000    0.000    0.000 
#
# Total GULP energy -198214.074647 kJ/mol
# GULP energy per Si atom -12388.379665 kJ/mol
# Density = 2.721716 g / cm^3
# Si number density = 27.279248 Si / 1000 Ang^3
#
#
#
# Elastic Constant Matrix: (Units=GPa)
#
#
# Indices 1 2 3 4 5 6 
#
# 1 144.0770 17.0873 23.5735 0.0000 -12.7119 0.0000
# 2 17.0873 147.9309 22.7014 0.0000 -14.1081 0.0000
# 3 23.5735 22.7014 104.9230 0.0000 -1.2410 0.0000
# 4 0.0000 0.0000 0.0000 56.1989 0.0000 -10.8417
# 5 -12.7119 -14.1081 -1.2410 0.0000 53.9456 0.0000
# 6 0.0000 0.0000 0.0000 -10.8417 0.0000 43.2964
#
#
#
# Elastic Compliance Matrix: (Units=1/GPa)
#
#
# Indices 1 2 3 4 5 6 
#
# 1 0.007388 -0.000466 -0.001540 0.000000 0.001584 0.000000
# 2 -0.000466 0.007200 -0.001432 0.000000 0.001740 0.000000
# 3 -0.001540 -0.001432 0.010181 0.000000 -0.000503 0.000000
# 4 0.000000 0.000000 0.000000 0.018697 0.000000 0.004682
# 5 0.001584 0.001740 -0.000503 0.000000 0.019354 0.000000
# 6 0.000000 0.000000 0.000000 0.004682 0.000000 0.024269
#
#
# Mechanical properties :
#
#
# Convention : Reuss Voigt Hill
#
# Bulk Modulus (GPa) = 55.89489 58.18392 57.03941
# Shear Modulus (GPa) = 50.03554 52.92610 51.48082
#
# Velocity S-wave (km/s) = 4.28740 4.40950 4.34888
# Velocity P-wave (km/s) = 6.71144 6.87752 6.79499
#
# Compressibility (1/GPa) = 0.01789072
#
# Stress axis : x y z
#
# Youngs Moduli (GPa) = 135.35952 138.89846 98.22379
#
# Poissons Ratio (x) = 0.06472 0.15129
# Poissons Ratio (y) = 0.06307 0.14070
# Poissons Ratio (z) = 0.20849 0.19896
#
# Static dielectric constant tensor:
#      x y z
#    x 9.440130 0.000000 -1.810850 
#    y 0.000000 5.796860 0.000000 
#    z -1.810850 0.000000 5.958860 
# 
# 
# High freq. dielectric constant tensor:
#      x y z
#    x 2.156670 0.000000 0.001310 
#    y 0.000000 2.127290 0.000000 
#    z 0.001310 0.000000 2.091460 
# 
# From -- ./inp_files/56394.got.cif
#   From: 2010.03.12/outbox.cif.g09.slc.cpg/sg14_29_cif.got.tgz:56394.got - 2010.03.31 13:35:05.
