data_PCOD8128883
_publ_section_title
;
Structure prediction by ZEFSAII (Michael W. Deem and Ramdas Pophale) SiO2 
 PCOD8128883
Probable space group: P 21/C
;
_chemical_formula_sum "Si O2"
_cell_formula_units_Z 32
_cell_length_a 11.104869
_cell_length_b 14.798067
_cell_length_c 9.029108
_cell_angle_alpha 90.000000
_cell_angle_beta 104.053375
_cell_angle_gamma 90.000000
_cell_volume 1439.349705
_symmetry_space_group_name_H-M "P 21/C"
_symmetry_group_IT_number 14
_symmetry_cell_setting 'monoclinic'
loop_
_space_group_symop_operation_xyz
x,y,z
-x,1/2+y,1/2-z
-x,-y,-z
x,1/2-y,1/2+z
loop_
_atom_site_type_symbol
_atom_site_label
_atom_site_fract_x
_atom_site_fract_y
_atom_site_fract_z
Si Si1 0.435686 0.279887 0.880123
Si Si2 0.010033 0.861561 0.672759
Si Si3 0.008325 0.177757 0.668203
Si Si4 0.715584 0.894129 0.246124
Si Si5 0.784855 0.103345 0.770703
Si Si6 0.759208 0.068218 0.099959
Si Si7 0.260824 0.066303 0.414239
Si Si8 0.392073 0.770017 0.822629
O O1 0.383792 0.182964 0.816055
O O2 0.328067 0.354441 0.842635
O O3 0.551673 0.309001 0.812388
O O4 0.490551 0.274476 0.060747
O O5 0.001855 0.781069 0.786907
O O6 0.035814 0.825309 0.515259
O O7 0.123277 0.925240 0.754817
O O8 0.886411 0.920468 0.639264
O O9 0.921273 0.114949 0.742583
O O10 0.148065 0.146421 0.731369
O O11 0.693607 0.934251 0.403151
O O12 0.693505 0.973442 0.119953
O O13 0.714644 0.198269 0.744626
O O14 0.708039 0.029501 0.652392
O O15 0.800683 0.067653 0.942071
O O16 0.664028 0.149822 0.096457
#
# Coordination Sequence:
#
# PCOD8128883 Si02
#       8
#     4   4   4   4   4   4   4   4
#     4  12  26  49  70  98 139 182 234 279 342 401
#     4  11  23  42  72 104 138 177 221 282 347 410
#     4  11  23  42  72 104 139 175 223 279 350 411
#     4  11  26  46  72 105 138 179 226 284 345 407
#     4  12  27  45  71 105 137 182 229 282 345 405
#     4  12  27  45  71 104 139 180 229 285 340 408
#     4  11  26  46  72 104 139 180 224 284 347 407
#     4  12  28  47  68 100 137 184 232 285 335 401
#
# _framework density 22.232261000000001
#
# number of rings (size 3 to 8) (size 9 to 14) (size 15 to 20)
#    0.000    0.500    5.000    2.250    5.250    7.000 
#    0.000    0.000    0.000    0.000    0.000    0.000 
#    0.000    0.000    0.000    0.000    0.000    0.000 
#
# Total GULP energy -397043.113844 kJ/mol
# GULP energy per Si atom -12407.597308 kJ/mol
# Density = 2.218166 g / cm^3
# Si number density = 22.232261 Si / 1000 Ang^3
#
#
#
# Elastic Constant Matrix: (Units=GPa)
#
#
# Indices 1 2 3 4 5 6 
#
# 1 83.7140 10.8451 29.5133 0.0000 -14.8818 0.0000
# 2 10.8451 54.7981 4.6812 0.0000 -16.8730 0.0000
# 3 29.5133 4.6812 92.5590 0.0000 -16.2285 0.0000
# 4 0.0000 0.0000 0.0000 37.3393 0.0000 -4.5076
# 5 -14.8818 -16.8730 -16.2285 0.0000 39.3652 0.0000
# 6 0.0000 0.0000 0.0000 -4.5076 0.0000 15.4180
#
#
#
# Elastic Compliance Matrix: (Units=1/GPa)
#
#
# Indices 1 2 3 4 5 6 
#
# 1 0.014049 -0.001504 -0.003865 0.000000 0.003073 0.000000
# 2 -0.001504 0.021211 0.000971 0.000000 0.008924 0.000000
# 3 -0.003865 0.000971 0.012724 0.000000 0.004201 0.000000
# 4 0.000000 0.000000 0.000000 0.027761 0.000000 0.008116
# 5 0.003073 0.008924 0.004201 0.000000 0.032122 0.000000
# 6 0.000000 0.000000 0.000000 0.008116 0.000000 0.067232
#
#
# Mechanical properties :
#
#
# Convention : Reuss Voigt Hill
#
# Bulk Modulus (GPa) = 25.51735 35.68338 30.60036
# Shear Modulus (GPa) = 25.38630 30.82660 28.10645
#
# Velocity S-wave (km/s) = 3.38282 3.72771 3.55944
# Velocity P-wave (km/s) = 5.17305 5.88327 5.53956
#
# Compressibility (1/GPa) = 0.03918903
#
# Stress axis : x y z
#
# Youngs Moduli (GPa) = 71.17870 47.14506 78.59394
#
# Poissons Ratio (x) = 0.07091 0.30375
# Poissons Ratio (y) = 0.10705 -0.07634
# Poissons Ratio (z) = 0.27509 -0.04580
#
# Static dielectric constant tensor:
#      x y z
#    x 4.025690 0.000000 -0.118570 
#    y 0.000000 3.978070 0.000000 
#    z -0.118570 0.000000 4.001980 
# 
# 
# High freq. dielectric constant tensor:
#      x y z
#    x 1.882700 0.000000 -0.008930 
#    y 0.000000 1.880090 0.000000 
#    z -0.008930 0.000000 1.881600 
# 
# From -- ./inp_files/13359.got.cif
#   From: 2010.03.12/outbox.cif.g09.slc.cpg/sg14_7_cif.got.tgz:13359.got - 2010.03.31 13:35:05.
