data_PCOD8128547
_publ_section_title
;
Structure prediction by ZEFSAII (Michael W. Deem and Ramdas Pophale) SiO2 
 PCOD8128547
Probable space group: P 21/C
;
_chemical_formula_sum "Si O2"
_cell_formula_units_Z 32
_cell_length_a 11.827401
_cell_length_b 13.717003
_cell_length_c 9.122551
_cell_angle_alpha 90.000000
_cell_angle_beta 99.027748
_cell_angle_gamma 90.000000
_cell_volume 1461.677015
_symmetry_space_group_name_H-M "P 21/C"
_symmetry_group_IT_number 14
_symmetry_cell_setting 'monoclinic'
loop_
_space_group_symop_operation_xyz
x,y,z
-x,1/2+y,1/2-z
-x,-y,-z
x,1/2-y,1/2+z
loop_
_atom_site_type_symbol
_atom_site_label
_atom_site_fract_x
_atom_site_fract_y
_atom_site_fract_z
Si Si1 0.680704 0.461012 0.748761
Si Si2 0.796549 0.713384 0.176864
Si Si3 0.887528 0.517880 0.286220
Si Si4 0.870797 0.573657 0.616333
Si Si5 0.690946 0.083186 0.580254
Si Si6 0.480547 0.923486 0.211495
Si Si7 0.365306 0.274134 0.112054
Si Si8 0.605467 0.201496 0.060480
O O1 0.770853 0.531577 0.694147
O O2 0.549633 0.484001 0.662438
O O3 0.691233 0.350184 0.693826
O O4 0.693706 0.471216 0.925782
O O5 0.883387 0.621339 0.198805
O O6 0.867377 0.809164 0.140040
O O7 0.735629 0.717858 0.323170
O O8 0.691720 0.687964 0.048292
O O9 0.850926 0.539436 0.445922
O O10 0.806787 0.437657 0.193053
O O11 0.011938 0.470917 0.299625
O O12 0.588606 0.041980 0.659765
O O13 0.667159 0.196608 0.542883
O O14 0.593339 0.862227 0.279603
O O15 0.397594 0.862438 0.089090
O O16 0.476602 0.209484 0.096478
#
# Coordination Sequence:
#
# PCOD8128547 Si02
#       8
#     4   4   4   4   4   4   4   4
#     4  12  24  41  67 100 135 179 227 282 335 406
#     4  12  23  44  70 100 132 178 227 284 333 401
#     4  11  27  47  73  95 136 180 227 285 337 405
#     4  11  26  49  69 100 132 178 233 278 345 399
#     4  11  25  42  63 101 136 177 224 280 338 400
#     4  11  22  39  63  98 139 179 222 273 337 407
#     4  11  21  38  66  99 136 178 225 273 334 399
#     4  11  24  40  64  98 146 184 219 273 346 406
#
# _framework density 21.892662000000001
#
# number of rings (size 3 to 8) (size 9 to 14) (size 15 to 20)
#    0.000    0.750    3.750    3.750    3.500    1.500 
#    0.000    2.500    0.000    0.000    0.000    0.000 
#    0.000    0.000    0.000    0.000    0.000    0.000 
#
# Total GULP energy -396662.525912 kJ/mol
# GULP energy per Si atom -12395.703935 kJ/mol
# Density = 2.184283 g / cm^3
# Si number density = 21.892662 Si / 1000 Ang^3
#
#
#
# Elastic Constant Matrix: (Units=GPa)
#
#
# Indices 1 2 3 4 5 6 
#
# 1 84.1983 46.2168 55.0869 0.0000 17.7245 0.0000
# 2 46.2168 96.7294 40.2819 0.0000 10.7149 0.0000
# 3 55.0869 40.2819 109.3737 0.0000 4.4983 0.0000
# 4 0.0000 0.0000 0.0000 19.5035 0.0000 17.4100
# 5 17.7245 10.7149 4.4983 0.0000 33.4760 0.0000
# 6 0.0000 0.0000 0.0000 17.4100 0.0000 18.0313
#
#
#
# Elastic Compliance Matrix: (Units=1/GPa)
#
#
# Indices 1 2 3 4 5 6 
#
# 1 0.023076 -0.006311 -0.008928 0.000000 -0.008999 0.000000
# 2 -0.006311 0.014316 -0.002054 0.000000 -0.000965 0.000000
# 3 -0.008928 -0.002054 0.014254 0.000000 0.003469 0.000000
# 4 0.000000 0.000000 0.000000 0.371290 0.000000 -0.358497
# 5 -0.008999 -0.000965 0.003469 0.000000 0.034479 0.000000
# 6 0.000000 0.000000 0.000000 -0.358497 0.000000 0.401605
#
#
# Mechanical properties :
#
#
# Convention : Reuss Voigt Hill
#
# Bulk Modulus (GPa) = 58.61998 63.71916 61.16957
# Shear Modulus (GPa) = 5.55992 24.11653 14.83823
#
# Velocity S-wave (km/s) = 1.59535 3.32261 2.60623
# Velocity P-wave (km/s) = 5.49798 6.62481 6.08752
#
# Compressibility (1/GPa) = 0.01705903
#
# Stress axis : x y z
#
# Youngs Moduli (GPa) = 43.33427 69.85308 70.15769
#
# Poissons Ratio (x) = 0.44084 0.62638
# Poissons Ratio (y) = 0.27348 0.14412
# Poissons Ratio (z) = 0.38690 0.14349
#
# Static dielectric constant tensor:
#      x y z
#    x 3.705980 0.000000 0.044190 
#    y 0.000000 4.080980 0.000000 
#    z 0.044190 0.000000 4.066560 
# 
# 
# High freq. dielectric constant tensor:
#      x y z
#    x 1.838680 0.000000 0.002760 
#    y 0.000000 1.872420 0.000000 
#    z 0.002760 0.000000 1.876830 
# 
# From -- ./inp_files/13351.got.cif
#   From: 2010.03.12/outbox.cif.g09.slc.cpg/sg14_7_cif.got.tgz:13351.got - 2010.03.31 13:35:05.
