data_PCOD8128035
_publ_section_title
;
Structure prediction by ZEFSAII (Michael W. Deem and Ramdas Pophale) SiO2 
 PCOD8128035
Probable space group: P 21/C
;
_chemical_formula_sum "Si O2"
_cell_formula_units_Z 24
_cell_length_a 23.087363
_cell_length_b 11.750931
_cell_length_c 11.444240
_cell_angle_alpha 90.000000
_cell_angle_beta 158.161136
_cell_angle_gamma 90.000000
_cell_volume 1154.977808
_symmetry_space_group_name_H-M "P 21/C"
_symmetry_group_IT_number 14
_symmetry_cell_setting 'monoclinic'
loop_
_space_group_symop_operation_xyz
x,y,z
-x,1/2+y,1/2-z
-x,-y,-z
x,1/2-y,1/2+z
loop_
_atom_site_type_symbol
_atom_site_label
_atom_site_fract_x
_atom_site_fract_y
_atom_site_fract_z
Si Si1 0.919278 0.093667 0.269672
Si Si2 0.391748 0.329033 0.320524
Si Si3 0.492240 0.017994 0.802486
Si Si4 0.575520 0.399115 0.213161
Si Si5 0.054455 0.174931 0.092677
Si Si6 0.858806 0.464470 0.394626
O O1 0.018944 0.208223 0.461190
O O2 0.747742 0.124481 0.991652
O O3 0.919495 0.048186 0.138865
O O4 0.000000 0.000000 0.500000
O O5 0.404375 0.416733 0.451342
O O6 0.475729 0.379984 0.363920
O O7 0.469669 0.211068 0.499623
O O8 0.210373 0.309518 0.959417
O O9 0.584071 0.068107 0.864909
O O10 0.327250 0.965698 0.455848
O O11 0.500000 0.500000 0.000000
O O12 0.070994 0.081473 0.022601
O O13 0.915943 0.140262 0.921470
#
# Coordination Sequence:
#
# PCOD8128035 Si02
#       6
#     4   4   4   4   4   4
#     4  12  27  42  66 101 133 173 224 274 333 386
#     4  10  24  44  69  98 129 176 219 270 332 389
#     4  10  23  45  69  95 132 174 221 268 329 395
#     4  12  25  42  67  97 134 172 227 273 323 386
#     4  10  24  44  71  95 134 177 215 273 332 391
#     4  10  23  46  66  97 136 172 221 265 330 399
#
# _framework density 20.779619
#
# number of rings (size 3 to 8) (size 9 to 14) (size 15 to 20)
#    0.000    1.333    1.667    2.000    7.000    4.000 
#    0.000    0.000    0.000    0.000    0.000    0.000 
#    0.000    0.000    0.000    0.000    0.000    0.000 
#
# Total GULP energy -297771.750807 kJ/mol
# GULP energy per Si atom -12407.156284 kJ/mol
# Density = 2.073232 g / cm^3
# Si number density = 20.779619 Si / 1000 Ang^3
#
#
#
# Elastic Constant Matrix: (Units=GPa)
#
#
# Indices 1 2 3 4 5 6 
#
# 1 127.1171 53.5191 47.7856 0.0000 -24.6272 0.0000
# 2 53.5191 114.9308 57.2632 0.0000 -16.1593 0.0000
# 3 47.7856 57.2632 107.9653 0.0000 -15.5561 0.0000
# 4 0.0000 0.0000 0.0000 38.9341 0.0000 -6.0673
# 5 -24.6272 -16.1593 -15.5561 0.0000 39.0472 0.0000
# 6 0.0000 0.0000 0.0000 -6.0673 0.0000 23.3099
#
#
#
# Elastic Compliance Matrix: (Units=1/GPa)
#
#
# Indices 1 2 3 4 5 6 
#
# 1 0.011080 -0.003258 -0.002508 0.000000 0.004641 0.000000
# 2 -0.003258 0.013026 -0.005290 0.000000 0.001229 0.000000
# 3 -0.002508 -0.005290 0.013404 0.000000 0.001569 0.000000
# 4 0.000000 0.000000 0.000000 0.026770 0.000000 0.006968
# 5 0.004641 0.001229 0.001569 0.000000 0.029671 0.000000
# 6 0.000000 0.000000 0.000000 0.006968 0.000000 0.044714
#
#
# Mechanical properties :
#
#
# Convention : Reuss Voigt Hill
#
# Bulk Modulus (GPa) = 64.93599 74.12768 69.53184
# Shear Modulus (GPa) = 30.13691 33.02125 31.57908
#
# Velocity S-wave (km/s) = 3.81243 3.99070 3.90258
# Velocity P-wave (km/s) = 7.12019 7.54884 7.33765
#
# Compressibility (1/GPa) = 0.01539978
#
# Stress axis : x y z
#
# Youngs Moduli (GPa) = 90.25184 76.76736 74.60478
#
# Poissons Ratio (x) = 0.25009 0.18707
# Poissons Ratio (y) = 0.29401 0.39467
# Poissons Ratio (z) = 0.22631 0.40611
#
# Static dielectric constant tensor:
#      x y z
#    x 3.483520 0.000000 -0.029160 
#    y 0.000000 4.468650 0.000000 
#    z -0.029160 0.000000 3.932500 
# 
# 
# High freq. dielectric constant tensor:
#      x y z
#    x 1.821160 0.000000 -0.005360 
#    y 0.000000 1.823370 0.000000 
#    z -0.005360 0.000000 1.824710 
# 
# From -- ./inp_files/35889.got.cif
#   From: 2010.03.12/outbox.cif.g09.slc.cpg/sg14_18_cif.got.tgz:35889.got - 2010.03.31 13:35:05.
