data_PCOD8128118
_publ_section_title
;
Structure prediction by ZEFSAII (Michael W. Deem and Ramdas Pophale) SiO2 
 PCOD8128118
Probable space group: P 21/C
;
_chemical_formula_sum "Si O2"
_cell_formula_units_Z 28
_cell_length_a 6.766245
_cell_length_b 29.906230
_cell_length_c 8.878142
_cell_angle_alpha 90.000000
_cell_angle_beta 129.861657
_cell_angle_gamma 90.000000
_cell_volume 1378.996568
_symmetry_space_group_name_H-M "P 21/C"
_symmetry_group_IT_number 14
_symmetry_cell_setting 'monoclinic'
loop_
_space_group_symop_operation_xyz
x,y,z
-x,1/2+y,1/2-z
-x,-y,-z
x,1/2-y,1/2+z
loop_
_atom_site_type_symbol
_atom_site_label
_atom_site_fract_x
_atom_site_fract_y
_atom_site_fract_z
Si Si1 0.013344 0.952231 0.080506
Si Si2 0.501134 0.246227 0.498171
Si Si3 0.507836 0.096690 0.180059
Si Si4 0.285511 0.689614 0.635512
Si Si5 0.710791 0.689235 0.366430
Si Si6 0.014160 0.951312 0.435724
Si Si7 0.489358 0.903056 0.170805
O O1 0.029113 0.957398 0.265948
O O2 0.268783 0.927719 0.153501
O O3 0.760073 0.925913 0.904285
O O4 0.000000 0.000000 0.000000
O O5 0.668576 0.214571 0.685744
O O6 0.693826 0.275950 0.492570
O O7 0.329235 0.215252 0.308146
O O8 0.313494 0.277204 0.504913
O O9 0.492871 0.149068 0.214729
O O10 0.737022 0.074878 0.385335
O O11 0.562231 0.089909 0.030689
O O12 0.488015 0.649417 0.711842
O O13 0.998669 0.669457 0.503200
O O14 0.762732 0.922676 0.356805
O O15 0.000000 0.000000 0.500000
#
# Coordination Sequence:
#
# PCOD8128118 Si02
#       7
#     4   4   4   4   4   4   4
#     4  11  24  44  69  93 126 168 211 269 328 386
#     4  10  24  40  63  94 128 170 210 264 316 378
#     4  11  24  42  66  95 133 166 212 266 319 380
#     4  11  22  43  64  95 130 168 217 260 320 375
#     4  11  22  42  64  94 128 168 213 260 316 375
#     4  11  26  45  66  98 130 168 217 263 323 393
#     4  11  24  42  66  95 133 168 209 270 317 380
#
# _framework density 20.30462
#
# number of rings (size 3 to 8) (size 9 to 14) (size 15 to 20)
#    0.000    1.143    2.857    2.571    2.000    6.857 
#   10.286    0.000    0.000    0.000    0.000    0.000 
#    0.000    0.000    0.000    0.000    0.000    0.000 
#
# Total GULP energy -347337.320844 kJ/mol
# GULP energy per Si atom -12404.904316 kJ/mol
# Density = 2.025841 g / cm^3
# Si number density = 20.304620 Si / 1000 Ang^3
#
#
#
# Elastic Constant Matrix: (Units=GPa)
#
#
# Indices 1 2 3 4 5 6 
#
# 1 118.3379 51.7049 68.7236 0.0000 10.0029 0.0000
# 2 51.7049 142.7272 69.4986 0.0000 5.4333 0.0000
# 3 68.7236 69.4986 129.3301 0.0000 7.8395 0.0000
# 4 0.0000 0.0000 0.0000 6.9395 0.0000 26.4338
# 5 10.0029 5.4333 7.8395 0.0000 32.6098 0.0000
# 6 0.0000 0.0000 0.0000 26.4338 0.0000 13.8060
#
#
#
# Elastic Compliance Matrix: (Units=1/GPa)
#
#
# Indices 1 2 3 4 5 6 
#
# 1 0.012699 -0.001754 -0.005669 0.000000 -0.002240 0.000000
# 2 -0.001754 0.009736 -0.004296 0.000000 -0.000051 0.000000
# 3 -0.005669 -0.004296 0.013096 0.000000 -0.000693 0.000000
# 4 0.000000 0.000000 0.000000 -0.022898 0.000000 0.043842
# 5 -0.002240 -0.000051 -0.000693 0.000000 0.031528 0.000000
# 6 0.000000 0.000000 0.000000 0.043842 0.000000 -0.011510
#
#
# Mechanical properties :
#
#
# Convention : Reuss Voigt Hill
#
# Bulk Modulus (GPa) = 82.71430 85.58326 84.14878
# Shear Modulus (GPa) = 83.16577 24.03561 53.60069
#
# Velocity S-wave (km/s) = 6.40687 3.44430 5.14350
# Velocity P-wave (km/s) = 9.77526 7.61963 8.76397
#
# Compressibility (1/GPa) = 0.01208981
#
# Stress axis : x y z
#
# Youngs Moduli (GPa) = 78.74850 102.71159 76.36190
#
# Poissons Ratio (x) = 0.18020 0.43291
# Poissons Ratio (y) = 0.13816 0.32809
# Poissons Ratio (z) = 0.44644 0.44130
#
# Static dielectric constant tensor:
#      x y z
#    x 3.753960 0.000000 -0.081420 
#    y 0.000000 3.692980 0.000000 
#    z -0.081420 0.000000 3.666370 
# 
# 
# High freq. dielectric constant tensor:
#      x y z
#    x 1.806810 0.000000 -0.006830 
#    y 0.000000 1.810520 0.000000 
#    z -0.006830 0.000000 1.793420 
# 
# From -- ./inp_files/6734.got.cif
#   From: 2010.03.12/outbox.cif.g09.slc.cpg/sg14_4_cif.got.tgz:6734.got - 2010.03.31 13:35:05.
