data_PCOD8128977
_publ_section_title
;
Structure prediction by ZEFSAII (Michael W. Deem and Ramdas Pophale) SiO2 
 PCOD8128977
Probable space group: P 21/C
;
_chemical_formula_sum "Si O2"
_cell_formula_units_Z 32
_cell_length_a 6.294675
_cell_length_b 12.870995
_cell_length_c 17.613853
_cell_angle_alpha 90.000000
_cell_angle_beta 72.929767
_cell_angle_gamma 90.000000
_cell_volume 1364.184159
_symmetry_space_group_name_H-M "P 21/C"
_symmetry_group_IT_number 14
_symmetry_cell_setting 'monoclinic'
loop_
_space_group_symop_operation_xyz
x,y,z
-x,1/2+y,1/2-z
-x,-y,-z
x,1/2-y,1/2+z
loop_
_atom_site_type_symbol
_atom_site_label
_atom_site_fract_x
_atom_site_fract_y
_atom_site_fract_z
Si Si1 0.443374 0.172856 0.643281
Si Si2 0.743753 0.755707 0.478714
Si Si3 0.462522 0.807798 0.731671
Si Si4 0.285605 0.732411 0.092009
Si Si5 0.967547 0.596904 0.558554
Si Si6 0.085895 0.088006 0.324404
Si Si7 0.806892 0.993553 0.233381
Si Si8 0.121113 0.919842 0.434825
O O1 0.313056 0.257939 0.605150
O O2 0.579050 0.232215 0.693729
O O3 0.629260 0.116578 0.570264
O O4 0.270164 0.090375 0.696041
O O5 0.521455 0.807851 0.535932
O O6 0.786655 0.656658 0.526526
O O7 0.966026 0.820815 0.453746
O O8 0.329612 0.750993 0.677538
O O9 0.386535 0.923675 0.761076
O O10 0.727011 0.822207 0.690381
O O11 0.113102 0.637033 0.103251
O O12 0.187769 0.834733 0.057990
O O13 0.861841 0.561957 0.648924
O O14 0.000000 0.500000 0.500000
O O15 0.011999 0.061078 0.245916
O O16 0.154320 0.976946 0.350775
O O17 0.000000 0.000000 0.500000
#
# Coordination Sequence:
#
# PCOD8128977 Si02
#       8
#     4   4   4   4   4   4   4   4
#     4  12  26  45  75 112 147 197 250 311 380 448
#     4  12  27  46  71 108 150 195 244 310 376 445
#     4  11  26  46  77 108 150 194 249 311 375 443
#     4  11  25  48  74 106 148 194 245 307 375 445
#     4  12  30  51  74 108 151 205 250 307 376 459
#     4  11  23  45  76 111 144 189 244 316 373 445
#     4  11  26  47  76 111 145 197 257 306 378 451
#     4  12  25  42  74 110 151 188 247 311 379 448
#
# _framework density 23.457245
#
# number of rings (size 3 to 8) (size 9 to 14) (size 15 to 20)
#    0.000    0.500    2.500    5.250    8.750    3.500 
#    0.000    0.000    0.000    0.000    0.000    0.000 
#    0.000    0.000    0.000    0.000    0.000    0.000 
#
# Total GULP energy -396447.120257 kJ/mol
# GULP energy per Si atom -12388.972508 kJ/mol
# Density = 2.340385 g / cm^3
# Si number density = 23.457245 Si / 1000 Ang^3
#
#
#
# Elastic Constant Matrix: (Units=GPa)
#
#
# Indices 1 2 3 4 5 6 
#
# 1 121.7581 49.8248 53.6916 0.0000 10.8950 0.0000
# 2 49.8248 97.4498 45.2794 0.0000 17.3582 0.0000
# 3 53.6916 45.2794 93.3088 0.0000 6.3521 0.0000
# 4 0.0000 0.0000 0.0000 51.1076 0.0000 9.7114
# 5 10.8950 17.3582 6.3521 0.0000 45.6294 0.0000
# 6 0.0000 0.0000 0.0000 9.7114 0.0000 32.8777
#
#
#
# Elastic Compliance Matrix: (Units=1/GPa)
#
#
# Indices 1 2 3 4 5 6 
#
# 1 0.012019 -0.003638 -0.005098 0.000000 -0.000776 0.000000
# 2 -0.003638 0.015192 -0.004992 0.000000 -0.004216 0.000000
# 3 -0.005098 -0.004992 0.016012 0.000000 0.000887 0.000000
# 4 0.000000 0.000000 0.000000 0.020730 0.000000 -0.006123
# 5 -0.000776 -0.004216 0.000887 0.000000 0.023581 0.000000
# 6 0.000000 0.000000 0.000000 -0.006123 0.000000 0.032224
#
#
# Mechanical properties :
#
#
# Convention : Reuss Voigt Hill
#
# Bulk Modulus (GPa) = 63.41844 67.78981 65.60412
# Shear Modulus (GPa) = 32.79309 36.83765 34.81537
#
# Velocity S-wave (km/s) = 3.74303 3.96715 3.85672
# Velocity P-wave (km/s) = 6.76571 7.06728 6.91814
#
# Compressibility (1/GPa) = 0.01576829
#
# Stress axis : x y z
#
# Youngs Moduli (GPa) = 83.19975 65.82313 62.45209
#
# Poissons Ratio (x) = 0.23949 0.31836
# Poissons Ratio (y) = 0.30272 0.31174
# Poissons Ratio (z) = 0.42412 0.32856
#
# Static dielectric constant tensor:
#      x y z
#    x 4.757480 0.000000 0.389920 
#    y 0.000000 4.110560 0.000000 
#    z 0.389920 0.000000 4.443050 
# 
# 
# High freq. dielectric constant tensor:
#      x y z
#    x 1.943530 0.000000 0.010770 
#    y 0.000000 1.918480 0.000000 
#    z 0.010770 0.000000 1.936150 
# 
# From -- ./inp_files/53441.got.cif
#   From: 2010.03.12/outbox.cif.g09.slc.cpg/sg14_27_cif.got.tgz:53441.got - 2010.03.31 13:35:05.
