data_PCOD8128626
_publ_section_title
;
Structure prediction by ZEFSAII (Michael W. Deem and Ramdas Pophale) SiO2 
 PCOD8128626
Probable space group: P 21/C
;
_chemical_formula_sum "Si O2"
_cell_formula_units_Z 32
_cell_length_a 8.766980
_cell_length_b 6.673228
_cell_length_c 27.670971
_cell_angle_alpha 90.000000
_cell_angle_beta 98.428045
_cell_angle_gamma 90.000000
_cell_volume 1601.381466
_symmetry_space_group_name_H-M "P 21/C"
_symmetry_group_IT_number 14
_symmetry_cell_setting 'monoclinic'
loop_
_space_group_symop_operation_xyz
x,y,z
-x,1/2+y,1/2-z
-x,-y,-z
x,1/2-y,1/2+z
loop_
_atom_site_type_symbol
_atom_site_label
_atom_site_fract_x
_atom_site_fract_y
_atom_site_fract_z
Si Si1 0.706443 0.272866 0.085058
Si Si2 0.642524 0.307440 0.813004
Si Si3 0.629494 0.878325 0.035081
Si Si4 0.150533 0.439263 0.235499
Si Si5 0.174626 0.717637 0.805857
Si Si6 0.181062 0.034324 0.498519
Si Si7 0.645026 0.548965 0.252817
Si Si8 0.562539 0.442957 0.915677
O O1 0.816634 0.297259 0.136182
O O2 0.531575 0.347105 0.088754
O O3 0.710743 0.037094 0.073741
O O4 0.777824 0.393330 0.044154
O O5 0.801437 0.419929 0.807638
O O6 0.527130 0.380827 0.765517
O O7 0.657356 0.067478 0.805136
O O8 0.588810 0.355859 0.863956
O O9 0.544225 0.710652 0.061340
O O10 0.763522 0.764358 0.010013
O O11 0.500000 0.000000 0.000000
O O12 0.174602 0.552083 0.287836
O O13 0.972707 0.397634 0.220645
O O14 0.242665 0.235008 0.239613
O O15 0.317377 0.600428 0.789413
O O16 0.273476 0.965800 0.550526
O O17 0.000000 0.000000 0.500000
#
# Coordination Sequence:
#
# PCOD8128626 Si02
#       8
#     4   4   4   4   4   4   4   4
#     4  11  23  42  70  95 122 177 222 261 327 399
#     4  11  24  38  65  92 125 164 210 260 320 379
#     4  11  21  44  69  91 126 175 221 261 324 394
#     4  11  24  42  61  88 132 165 211 269 321 377
#     4  11  24  41  66  90 126 172 214 263 323 388
#     4  11  25  44  64  96 140 166 213 287 329 380
#     4  11  22  42  60  91 128 164 207 263 315 380
#     4  11  23  42  67  95 127 170 215 268 323 392
#
# _framework density 19.982745999999999
#
# number of rings (size 3 to 8) (size 9 to 14) (size 15 to 20)
#    0.000    1.000    6.250    0.750    3.500    1.500 
#    2.250    0.000    0.000    0.000    0.000    0.000 
#    0.000    0.000    0.000    0.000    0.000    0.000 
#
# Total GULP energy -396717.277759 kJ/mol
# GULP energy per Si atom -12397.414930 kJ/mol
# Density = 1.993726 g / cm^3
# Si number density = 19.982746 Si / 1000 Ang^3
#
#
#
# Elastic Constant Matrix: (Units=GPa)
#
#
# Indices 1 2 3 4 5 6 
#
# 1 97.8662 41.3119 33.7859 0.0000 -4.7282 0.0000
# 2 41.3119 115.0895 28.7346 0.0000 6.2731 0.0000
# 3 33.7859 28.7346 95.8100 0.0000 6.2493 0.0000
# 4 0.0000 0.0000 0.0000 23.4619 0.0000 -1.5308
# 5 -4.7282 6.2731 6.2493 0.0000 22.3455 0.0000
# 6 0.0000 0.0000 0.0000 -1.5308 0.0000 34.3200
#
#
#
# Elastic Compliance Matrix: (Units=1/GPa)
#
#
# Indices 1 2 3 4 5 6 
#
# 1 0.013566 -0.004184 -0.003863 0.000000 0.005125 0.000000
# 2 -0.004184 0.010761 -0.001525 0.000000 -0.003480 0.000000
# 3 -0.003863 -0.001525 0.012511 0.000000 -0.003888 0.000000
# 4 0.000000 0.000000 0.000000 0.042747 0.000000 0.001907
# 5 0.005125 -0.003480 -0.003888 0.000000 0.047901 0.000000
# 6 0.000000 0.000000 0.000000 0.001907 0.000000 0.029223
#
#
# Mechanical properties :
#
#
# Convention : Reuss Voigt Hill
#
# Bulk Modulus (GPa) = 56.52024 57.38115 56.95070
# Shear Modulus (GPa) = 27.51041 29.68772 28.59906
#
# Velocity S-wave (km/s) = 3.71443 3.85862 3.78721
# Velocity P-wave (km/s) = 6.83680 6.97349 6.90549
#
# Compressibility (1/GPa) = 0.01769278
#
# Stress axis : x y z
#
# Youngs Moduli (GPa) = 73.71595 92.92588 79.93273
#
# Poissons Ratio (x) = 0.38883 0.30879
# Poissons Ratio (y) = 0.30845 0.12189
# Poissons Ratio (z) = 0.28477 0.14171
#
# Static dielectric constant tensor:
#      x y z
#    x 3.894100 0.000000 0.027680 
#    y 0.000000 3.879280 0.000000 
#    z 0.027680 0.000000 3.899180 
# 
# 
# High freq. dielectric constant tensor:
#      x y z
#    x 1.779440 0.000000 -0.003400 
#    y 0.000000 1.795970 0.000000 
#    z -0.003400 0.000000 1.771830 
# 
# From -- ./inp_files/79244.got.cif
#   From: 2010.03.12/outbox.cif.g09.slc.cpg/sg14_40_cif.got.tgz:79244.got - 2010.03.31 13:35:05.
