data_PCOD8128071
_publ_section_title
;
Structure prediction by ZEFSAII (Michael W. Deem and Ramdas Pophale) SiO2 
 PCOD8128071
Probable space group: P 21/C
;
_chemical_formula_sum "Si O2"
_cell_formula_units_Z 20
_cell_length_a 8.073085
_cell_length_b 16.724263
_cell_length_c 10.048257
_cell_angle_alpha 90.000000
_cell_angle_beta 37.951789
_cell_angle_gamma 90.000000
_cell_volume 834.355413
_symmetry_space_group_name_H-M "P 21/C"
_symmetry_group_IT_number 14
_symmetry_cell_setting 'monoclinic'
loop_
_space_group_symop_operation_xyz
x,y,z
-x,1/2+y,1/2-z
-x,-y,-z
x,1/2-y,1/2+z
loop_
_atom_site_type_symbol
_atom_site_label
_atom_site_fract_x
_atom_site_fract_y
_atom_site_fract_z
Si Si1 0.809610 0.104401 0.548701
Si Si2 0.582780 0.257756 0.817527
Si Si3 0.631616 0.493685 0.617418
Si Si4 0.173513 0.584871 0.251971
Si Si5 0.392897 0.341752 0.688342
O O1 0.743819 0.193050 0.633984
O O2 0.691116 0.084715 0.478071
O O3 0.131269 0.101572 0.345439
O O4 0.651296 0.038701 0.737016
O O5 0.809823 0.322614 0.712938
O O6 0.375539 0.296745 0.842330
O O7 0.427379 0.220352 0.044176
O O8 0.662877 0.473155 0.754243
O O9 0.634403 0.408747 0.535625
O O10 0.865998 0.555182 0.429640
#
# Coordination Sequence:
#
# PCOD8128071 Si02
#       5
#     4   4   4   4   4
#     4  12  24  40  74 102 142 181 236 287 352 413
#     4  11  25  45  70 104 139 188 233 289 350 417
#     4  10  24  46  71 104 142 182 234 288 352 414
#     4  10  23  46  72 102 141 185 230 288 348 421
#     4  11  26  45  71 103 143 183 238 290 347 417
#
# _framework density 23.970600999999998
#
# number of rings (size 3 to 8) (size 9 to 14) (size 15 to 20)
#    0.000    1.200    2.000    2.400    5.600    4.800 
#    0.000    4.000    0.000    0.000    0.000    0.000 
#    0.000    0.000    0.000    0.000    0.000    0.000 
#
# Total GULP energy -247767.116312 kJ/mol
# GULP energy per Si atom -12388.355816 kJ/mol
# Density = 2.391604 g / cm^3
# Si number density = 23.970601 Si / 1000 Ang^3
#
#
#
# Elastic Constant Matrix: (Units=GPa)
#
#
# Indices 1 2 3 4 5 6 
#
# 1 104.4590 52.4289 44.4246 0.0000 7.1197 0.0000
# 2 52.4289 150.4147 59.6004 0.0000 -7.5996 0.0000
# 3 44.4246 59.6004 77.9625 0.0000 -7.3078 0.0000
# 4 0.0000 0.0000 0.0000 42.1963 0.0000 -3.5712
# 5 7.1197 -7.5996 -7.3078 0.0000 31.2713 0.0000
# 6 0.0000 0.0000 0.0000 -3.5712 0.0000 37.2558
#
#
#
# Elastic Compliance Matrix: (Units=1/GPa)
#
#
# Indices 1 2 3 4 5 6 
#
# 1 0.013994 -0.002567 -0.006511 0.000000 -0.005332 0.000000
# 2 -0.002567 0.010020 -0.006047 0.000000 0.001607 0.000000
# 3 -0.006511 -0.006047 0.021635 0.000000 0.005069 0.000000
# 4 0.000000 0.000000 0.000000 0.023893 0.000000 0.002290
# 5 -0.005332 0.001607 0.005069 0.000000 0.034767 0.000000
# 6 0.000000 0.000000 0.000000 0.002290 0.000000 0.027061
#
#
# Mechanical properties :
#
#
# Convention : Reuss Voigt Hill
#
# Bulk Modulus (GPa) = 64.94161 71.74935 68.34548
# Shear Modulus (GPa) = 29.98436 33.90349 31.94393
#
# Velocity S-wave (km/s) = 3.54062 3.76490 3.65448
# Velocity P-wave (km/s) = 6.62311 6.99260 6.81036
#
# Compressibility (1/GPa) = 0.01539845
#
# Stress axis : x y z
#
# Youngs Moduli (GPa) = 71.45814 99.79772 46.22179
#
# Poissons Ratio (x) = 0.25619 0.30097
# Poissons Ratio (y) = 0.18344 0.27950
# Poissons Ratio (z) = 0.46529 0.60346
#
# Static dielectric constant tensor:
#      x y z
#    x 4.580060 0.000000 0.208320 
#    y 0.000000 4.431640 0.000000 
#    z 0.208320 0.000000 3.840240 
# 
# 
# High freq. dielectric constant tensor:
#      x y z
#    x 1.962070 0.000000 0.014880 
#    y 0.000000 1.973400 0.000000 
#    z 0.014880 0.000000 1.920060 
# 
# From -- ./inp_files/25701.got.cif
#   From: 2010.03.12/outbox.cif.g09.slc.cpg/sg14_13_cif.got.tgz:25701.got - 2010.03.31 13:35:05.
