data_PCOD8128020
_publ_section_title
;
Structure prediction by ZEFSAII (Michael W. Deem and Ramdas Pophale) SiO2 
 PCOD8128020
Probable space group: P 21/C
;
_chemical_formula_sum "Si O2"
_cell_formula_units_Z 32
_cell_length_a 20.116739
_cell_length_b 14.433636
_cell_length_c 13.591072
_cell_angle_alpha 90.000000
_cell_angle_beta 156.163837
_cell_angle_gamma 90.000000
_cell_volume 1594.778215
_symmetry_space_group_name_H-M "P 21/C"
_symmetry_group_IT_number 14
_symmetry_cell_setting 'monoclinic'
loop_
_space_group_symop_operation_xyz
x,y,z
-x,1/2+y,1/2-z
-x,-y,-z
x,1/2-y,1/2+z
loop_
_atom_site_type_symbol
_atom_site_label
_atom_site_fract_x
_atom_site_fract_y
_atom_site_fract_z
Si Si1 0.323024 0.524283 0.719568
Si Si2 0.676444 0.998003 0.288726
Si Si3 0.267468 0.336612 0.994908
Si Si4 0.392729 0.648494 0.640194
Si Si5 0.810853 0.491173 0.764612
Si Si6 0.669643 0.877078 0.924147
Si Si7 0.674369 0.359827 0.966573
Si Si8 0.066738 0.912804 0.035574
O O1 0.348267 0.612956 0.686530
O O2 0.256355 0.438302 0.564085
O O3 0.183823 0.551078 0.608000
O O4 0.500000 0.500000 0.000000
O O5 0.802102 0.017208 0.370590
O O6 0.697773 0.074063 0.403533
O O7 0.713092 0.895183 0.378869
O O8 0.500000 0.000000 0.000000
O O9 0.414262 0.370278 0.121588
O O10 0.284029 0.227862 0.037705
O O11 0.085979 0.351613 0.706713
O O12 0.278094 0.599185 0.402913
O O13 0.363161 0.756292 0.615547
O O14 0.733399 0.586336 0.616482
O O15 0.000000 0.500000 0.000000
O O16 0.473554 0.894775 0.663846
O O17 0.835651 0.353857 0.251758
O O18 0.000000 0.000000 0.000000
#
# Coordination Sequence:
#
# PCOD8128020 Si02
#       8
#     4   4   4   4   4   4   4   4
#     4  11  22  43  70  95 130 175 218 268 332 394
#     4  12  22  43  67  95 130 173 220 266 332 398
#     4  11  24  44  66 100 134 172 222 275 332 393
#     4  10  24  44  67  95 133 173 222 272 333 393
#     4  11  25  43  65  93 134 173 214 275 332 390
#     4  10  23  45  66  96 133 172 222 270 333 392
#     4  11  23  43  68  99 130 175 221 271 331 393
#     4  12  25  43  67  95 136 175 220 276 328 390
#
# _framework density 20.065487000000001
#
# number of rings (size 3 to 8) (size 9 to 14) (size 15 to 20)
#    0.000    1.000    5.000    1.500    5.250    2.000 
#    4.500    0.000    0.000    0.000    0.000    0.000 
#    0.000    0.000    0.000    0.000    0.000    0.000 
#
# Total GULP energy -396690.949236 kJ/mol
# GULP energy per Si atom -12396.592164 kJ/mol
# Density = 2.001982 g / cm^3
# Si number density = 20.065487 Si / 1000 Ang^3
#
#
#
# Elastic Constant Matrix: (Units=GPa)
#
#
# Indices 1 2 3 4 5 6 
#
# 1 153.6983 56.6320 54.8405 0.0000 9.3675 0.0000
# 2 56.6320 112.7568 35.6511 0.0000 -0.8250 0.0000
# 3 54.8405 35.6511 152.5465 0.0000 5.9210 0.0000
# 4 0.0000 0.0000 0.0000 19.0142 0.0000 -0.6657
# 5 9.3675 -0.8250 5.9210 0.0000 38.7412 0.0000
# 6 0.0000 0.0000 0.0000 -0.6657 0.0000 16.3029
#
#
#
# Elastic Compliance Matrix: (Units=1/GPa)
#
#
# Indices 1 2 3 4 5 6 
#
# 1 0.008782 -0.003724 -0.002214 0.000000 -0.001864 0.000000
# 2 -0.003724 0.011167 -0.001323 0.000000 0.001341 0.000000
# 3 -0.002214 -0.001323 0.007687 0.000000 -0.000667 0.000000
# 4 0.000000 0.000000 0.000000 0.052668 0.000000 0.002150
# 5 -0.001864 0.001341 -0.000667 0.000000 0.026394 0.000000
# 6 0.000000 0.000000 0.000000 0.002150 0.000000 0.061427
#
#
# Mechanical properties :
#
#
# Convention : Reuss Voigt Hill
#
# Bulk Modulus (GPa) = 76.26295 79.24988 77.75641
# Shear Modulus (GPa) = 26.73529 32.93686 29.83607
#
# Velocity S-wave (km/s) = 3.65417 4.05590 3.86026
# Velocity P-wave (km/s) = 7.47619 7.84316 7.66187
#
# Compressibility (1/GPa) = 0.01311253
#
# Stress axis : x y z
#
# Youngs Moduli (GPa) = 113.86528 89.54704 130.09685
#
# Poissons Ratio (x) = 0.33351 0.28810
# Poissons Ratio (y) = 0.42408 0.17212
# Poissons Ratio (z) = 0.25215 0.11847
#
# Static dielectric constant tensor:
#      x y z
#    x 5.250070 0.000000 -0.252610 
#    y 0.000000 3.575670 0.000000 
#    z -0.252610 0.000000 3.643720 
# 
# 
# High freq. dielectric constant tensor:
#      x y z
#    x 1.788300 0.000000 0.001720 
#    y 0.000000 1.787590 0.000000 
#    z 0.001720 0.000000 1.795370 
# 
# From -- ./inp_files/50637.got.cif
#   From: 2010.03.12/outbox.cif.g09.slc.cpg/sg14_26_cif.got.tgz:50637.got - 2010.03.31 13:35:05.
