data_PCOD8128563
_publ_section_title
;
Structure prediction by ZEFSAII (Michael W. Deem and Ramdas Pophale) SiO2 
 PCOD8128563
Probable space group: P 21/C
;
_chemical_formula_sum "Si O2"
_cell_formula_units_Z 16
_cell_length_a 9.626660
_cell_length_b 10.536595
_cell_length_c 13.452221
_cell_angle_alpha 90.000000
_cell_angle_beta 30.829026
_cell_angle_gamma 90.000000
_cell_volume 699.270321
_symmetry_space_group_name_H-M "P 21/C"
_symmetry_group_IT_number 14
_symmetry_cell_setting 'monoclinic'
loop_
_space_group_symop_operation_xyz
x,y,z
-x,1/2+y,1/2-z
-x,-y,-z
x,1/2-y,1/2+z
loop_
_atom_site_type_symbol
_atom_site_label
_atom_site_fract_x
_atom_site_fract_y
_atom_site_fract_z
Si Si1 0.885001 0.921639 0.941003
Si Si2 0.584606 0.062674 0.281626
Si Si3 0.879278 0.303583 0.104317
Si Si4 0.997064 0.964361 0.653056
O O1 0.174275 0.988180 0.793785
O O2 0.885526 0.778736 0.985764
O O3 0.850935 0.920360 0.843251
O O4 0.636360 0.001590 0.140337
O O5 0.607172 0.217541 0.261804
O O6 0.293560 0.019429 0.498012
O O7 0.818783 0.427259 0.208443
O O8 0.982979 0.343198 0.931435
#
# Coordination Sequence:
#
# PCOD8128563 Si02
#       4
#     4   4   4   4
#     4   9  21  38  60  86 117 155 196 234 291 346
#     4   9  21  38  60  86 117 155 196 234 291 346
#     4   9  23  37  58  95 114 145 208 239 278 367
#     4  11  21  40  62  86 121 155 188 246 298 333
#
# _framework density 22.880994999999999
#
# number of rings (size 3 to 8) (size 9 to 14) (size 15 to 20)
#    1.500    1.000    0.000    0.750    7.000    0.000 
#    0.000   10.000    0.000    0.000    0.000    0.000 
#    0.000    0.000    0.000    0.000    0.000    0.000 
#
# Total GULP energy -198254.082639 kJ/mol
# GULP energy per Si atom -12390.880165 kJ/mol
# Density = 2.282892 g / cm^3
# Si number density = 22.880995 Si / 1000 Ang^3
#
#
#
# Elastic Constant Matrix: (Units=GPa)
#
#
# Indices 1 2 3 4 5 6 
#
# 1 73.8994 20.2010 31.0496 0.0000 36.7124 0.0000
# 2 20.2010 94.8444 14.4336 0.0000 13.6299 0.0000
# 3 31.0496 14.4336 63.8746 0.0000 20.9302 0.0000
# 4 0.0000 0.0000 0.0000 5.5561 0.0000 19.2119
# 5 36.7124 13.6299 20.9302 0.0000 48.3755 0.0000
# 6 0.0000 0.0000 0.0000 19.2119 0.0000 13.5922
#
#
#
# Elastic Compliance Matrix: (Units=1/GPa)
#
#
# Indices 1 2 3 4 5 6 
#
# 1 0.024262 -0.002028 -0.006396 0.000000 -0.015074 0.000000
# 2 -0.002028 0.011321 -0.001202 0.000000 -0.001131 0.000000
# 3 -0.006396 -0.001202 0.020199 0.000000 -0.003546 0.000000
# 4 0.000000 0.000000 0.000000 -0.046299 0.000000 0.065441
# 5 -0.015074 -0.001131 -0.003546 0.000000 0.033964 0.000000
# 6 0.000000 0.000000 0.000000 0.065441 0.000000 -0.018926
#
#
# Mechanical properties :
#
#
# Convention : Reuss Voigt Hill
#
# Bulk Modulus (GPa) = 27.37518 40.44297 33.90908
# Shear Modulus (GPa) = 89.36416 24.63372 56.99894
#
# Velocity S-wave (km/s) = 6.25626 3.28472 4.99651
# Velocity P-wave (km/s) = 8.01111 5.66565 6.93821
#
# Compressibility (1/GPa) = 0.03652943
#
# Stress axis : x y z
#
# Youngs Moduli (GPa) = 41.21612 88.33205 49.50844
#
# Poissons Ratio (x) = 0.17914 0.31667
# Poissons Ratio (y) = 0.08359 0.05950
# Poissons Ratio (z) = 0.26363 0.10616
#
# Static dielectric constant tensor:
#      x y z
#    x 3.937480 0.000000 0.086420 
#    y 0.000000 3.981300 0.000000 
#    z 0.086420 0.000000 3.555640 
# 
# 
# High freq. dielectric constant tensor:
#      x y z
#    x 1.903990 0.000000 -0.000270 
#    y 0.000000 1.898450 0.000000 
#    z -0.000270 0.000000 1.873930 
# 
# From -- ./inp_files/20232.got.cif
#   From: 2010.03.12/outbox.cif.g09.slc.cpg/sg14_11_cif.got.tgz:20232.got - 2010.03.31 13:35:05.
