data_PCOD8128490
_publ_section_title
;
Structure prediction by ZEFSAII (Michael W. Deem and Ramdas Pophale) SiO2 
 PCOD8128490
Probable space group: P 21/C
;
_chemical_formula_sum "Si O2"
_cell_formula_units_Z 16
_cell_length_a 9.844201
_cell_length_b 7.387718
_cell_length_c 22.335674
_cell_angle_alpha 90.000000
_cell_angle_beta 25.595714
_cell_angle_gamma 90.000000
_cell_volume 701.765436
_symmetry_space_group_name_H-M "P 21/C"
_symmetry_group_IT_number 14
_symmetry_cell_setting 'monoclinic'
loop_
_space_group_symop_operation_xyz
x,y,z
-x,1/2+y,1/2-z
-x,-y,-z
x,1/2-y,1/2+z
loop_
_atom_site_type_symbol
_atom_site_label
_atom_site_fract_x
_atom_site_fract_y
_atom_site_fract_z
Si Si1 0.013604 0.660700 0.544095
Si Si2 0.369827 0.546793 0.833269
Si Si3 0.738287 0.278978 0.239605
Si Si4 0.375252 0.058753 0.985903
O O1 0.093654 0.856667 0.482907
O O2 0.287551 0.618922 0.482677
O O3 0.000000 0.500000 0.500000
O O4 0.686306 0.669605 0.710409
O O5 0.253295 0.550670 0.809790
O O6 0.461213 0.349744 0.822434
O O7 0.649924 0.335942 0.341795
O O8 0.072789 0.185573 0.111689
O O9 0.500000 0.000000 0.000000
#
# Coordination Sequence:
#
# PCOD8128490 Si02
#       4
#     4   4   4   4
#     4  11  21  40  61  98 129 168 218 273 317 378
#     4  11  20  38  67  96 126 163 225 272 319 372
#     4  11  22  41  67  98 128 175 218 273 330 378
#     4  11  25  43  62  93 140 169 215 268 329 402
#
# _framework density 22.799641000000001
#
# number of rings (size 3 to 8) (size 9 to 14) (size 15 to 20)
#    0.000    1.000    7.500    0.000    0.000   10.000 
#    0.000    2.500    0.000    0.000    0.000    0.000 
#    0.000    0.000    0.000    0.000    0.000    0.000 
#
# Total GULP energy -198360.663192 kJ/mol
# GULP energy per Si atom -12397.541449 kJ/mol
# Density = 2.274775 g / cm^3
# Si number density = 22.799641 Si / 1000 Ang^3
#
#
#
# Elastic Constant Matrix: (Units=GPa)
#
#
# Indices 1 2 3 4 5 6 
#
# 1 179.7944 41.5112 24.0018 0.0000 20.8114 0.0000
# 2 41.5112 92.8461 3.5968 0.0000 19.5543 0.0000
# 3 24.0018 3.5968 115.1524 0.0000 20.2954 0.0000
# 4 0.0000 0.0000 0.0000 36.4546 0.0000 8.9277
# 5 20.8114 19.5543 20.2954 0.0000 35.7759 0.0000
# 6 0.0000 0.0000 0.0000 8.9277 0.0000 40.8461
#
#
#
# Elastic Compliance Matrix: (Units=1/GPa)
#
#
# Indices 1 2 3 4 5 6 
#
# 1 0.006474 -0.002460 -0.000940 0.000000 -0.001888 0.000000
# 2 -0.002460 0.013188 0.001243 0.000000 -0.006482 0.000000
# 3 -0.000940 0.001243 0.009849 0.000000 -0.005720 0.000000
# 4 0.000000 0.000000 0.000000 0.028983 0.000000 -0.006335
# 5 -0.001888 -0.006482 -0.005720 0.000000 0.035838 0.000000
# 6 0.000000 0.000000 0.000000 -0.006335 0.000000 0.025867
#
#
# Mechanical properties :
#
#
# Convention : Reuss Voigt Hill
#
# Bulk Modulus (GPa) = 39.68681 58.44584 49.06632
# Shear Modulus (GPa) = 37.61903 43.86086 40.73994
#
# Velocity S-wave (km/s) = 4.06641 4.39082 4.23172
# Velocity P-wave (km/s) = 6.28427 7.16909 6.74122
#
# Compressibility (1/GPa) = 0.02519729
#
# Stress axis : x y z
#
# Youngs Moduli (GPa) = 154.46449 75.82884 101.52896
#
# Poissons Ratio (x) = 0.18657 0.09542
# Poissons Ratio (y) = 0.38005 -0.12624
# Poissons Ratio (z) = 0.14516 -0.09428
#
# Static dielectric constant tensor:
#      x y z
#    x 4.021530 0.000000 -0.022560 
#    y 0.000000 4.224910 0.000000 
#    z -0.022560 0.000000 4.749600 
# 
# 
# High freq. dielectric constant tensor:
#      x y z
#    x 1.867380 0.000000 -0.004650 
#    y 0.000000 1.904150 0.000000 
#    z -0.004650 0.000000 1.941590 
# 
# From -- ./inp_files/11696.got.cif
#   From: 2010.03.12/outbox.cif.g09.slc.cpg/sg14_6_cif.got.tgz:11696.got - 2010.03.31 13:35:05.
