data_PCOD8128931
_publ_section_title
;
Structure prediction by ZEFSAII (Michael W. Deem and Ramdas Pophale) SiO2 
 PCOD8128931
Probable space group: P 21/C
;
_chemical_formula_sum "Si O2"
_cell_formula_units_Z 28
_cell_length_a 18.385471
_cell_length_b 8.658588
_cell_length_c 14.082566
_cell_angle_alpha 90.000000
_cell_angle_beta 35.521040
_cell_angle_gamma 90.000000
_cell_volume 1302.510292
_symmetry_space_group_name_H-M "P 21/C"
_symmetry_group_IT_number 14
_symmetry_cell_setting 'monoclinic'
loop_
_space_group_symop_operation_xyz
x,y,z
-x,1/2+y,1/2-z
-x,-y,-z
x,1/2-y,1/2+z
loop_
_atom_site_type_symbol
_atom_site_label
_atom_site_fract_x
_atom_site_fract_y
_atom_site_fract_z
Si Si1 0.439508 0.779574 0.390669
Si Si2 0.070300 0.799082 0.970502
Si Si3 0.359615 0.216682 0.167959
Si Si4 0.749405 0.432757 0.304523
Si Si5 0.885000 0.620282 0.512173
Si Si6 0.596819 0.639107 0.069846
Si Si7 0.148563 0.187053 0.168651
O O1 0.562703 0.745877 0.320919
O O2 0.320367 0.697834 0.561842
O O3 0.475353 0.710838 0.250394
O O4 0.404790 0.956762 0.414955
O O5 0.015915 0.835486 0.923342
O O6 0.961608 0.779704 0.163476
O O7 0.157824 0.648412 0.869416
O O8 0.151553 0.944329 0.921556
O O9 0.217380 0.266789 0.334973
O O10 0.351549 0.036264 0.146020
O O11 0.422584 0.319044 0.019211
O O12 0.826202 0.533877 0.297695
O O13 0.897734 0.639848 0.386209
O O14 0.727299 0.707793 0.970456
#
# Coordination Sequence:
#
# PCOD8128931 Si02
#       7
#     4   4   4   4   4   4   4
#     4  12  25  44  69  98 138 173 224 273 336 401
#     4  11  25  45  69  98 140 176 229 280 338 405
#     4  11  23  45  69  96 139 174 223 275 333 396
#     4  11  25  44  67 103 135 179 222 280 335 400
#     4  11  24  43  69  97 137 178 227 278 340 394
#     4  11  23  44  68  99 135 175 220 277 332 397
#     4  11  24  45  68 101 139 176 227 281 337 402
#
# _framework density 21.496953000000001
#
# number of rings (size 3 to 8) (size 9 to 14) (size 15 to 20)
#    0.000    0.857    4.286    3.857    4.000    0.000 
#    2.571    0.000    0.000    0.000    0.000    0.000 
#    0.000    0.000    0.000    0.000    0.000    0.000 
#
# Total GULP energy -347332.212467 kJ/mol
# GULP energy per Si atom -12404.721874 kJ/mol
# Density = 2.144803 g / cm^3
# Si number density = 21.496953 Si / 1000 Ang^3
#
#
#
# Elastic Constant Matrix: (Units=GPa)
#
#
# Indices 1 2 3 4 5 6 
#
# 1 67.6532 -2.3351 2.5589 0.0000 21.9146 0.0000
# 2 -2.3351 118.8435 29.8692 0.0000 11.7035 0.0000
# 3 2.5589 29.8692 93.7067 0.0000 10.9853 0.0000
# 4 0.0000 0.0000 0.0000 45.2116 0.0000 1.3423
# 5 21.9146 11.7035 10.9853 0.0000 27.1345 0.0000
# 6 0.0000 0.0000 0.0000 1.3423 0.0000 19.3564
#
#
#
# Elastic Compliance Matrix: (Units=1/GPa)
#
#
# Indices 1 2 3 4 5 6 
#
# 1 0.020589 0.001931 0.000913 0.000000 -0.017831 0.000000
# 2 0.001931 0.009551 -0.002553 0.000000 -0.004646 0.000000
# 3 0.000913 -0.002553 0.011987 0.000000 -0.004489 0.000000
# 4 0.000000 0.000000 0.000000 0.022164 0.000000 -0.001537
# 5 -0.017831 -0.004646 -0.004489 0.000000 0.055075 0.000000
# 6 0.000000 0.000000 0.000000 -0.001537 0.000000 0.051769
#
#
# Mechanical properties :
#
#
# Convention : Reuss Voigt Hill
#
# Bulk Modulus (GPa) = 23.41409 37.82106 30.61757
# Shear Modulus (GPa) = 27.05777 35.01453 31.03615
#
# Velocity S-wave (km/s) = 3.55164 4.04023 3.80379
# Velocity P-wave (km/s) = 5.26634 6.27667 5.79357
#
# Compressibility (1/GPa) = 0.04270933
#
# Stress axis : x y z
#
# Youngs Moduli (GPa) = 48.56897 104.69617 83.42686
#
# Poissons Ratio (x) = -0.20218 -0.07613
# Poissons Ratio (y) = -0.09379 0.21296
# Poissons Ratio (z) = -0.04432 0.26725
#
# Static dielectric constant tensor:
#      x y z
#    x 3.804950 0.000000 0.128030 
#    y 0.000000 3.984280 0.000000 
#    z 0.128030 0.000000 3.900780 
# 
# 
# High freq. dielectric constant tensor:
#      x y z
#    x 1.835950 0.000000 0.010680 
#    y 0.000000 1.856760 0.000000 
#    z 0.010680 0.000000 1.853490 
# 
# From -- ./inp_files/50120.got.cif
#   From: 2010.03.12/outbox.cif.g09.slc.cpg/sg14_26_cif.got.tgz:50120.got - 2010.03.31 13:35:05.
