data_PCOD8128080
_publ_section_title
;
Structure prediction by ZEFSAII (Michael W. Deem and Ramdas Pophale) SiO2 
 PCOD8128080
Probable space group: P 21/C
;
_chemical_formula_sum "Si O2"
_cell_formula_units_Z 24
_cell_length_a 11.534511
_cell_length_b 11.552525
_cell_length_c 8.732302
_cell_angle_alpha 90.000000
_cell_angle_beta 79.159569
_cell_angle_gamma 90.000000
_cell_volume 1142.838299
_symmetry_space_group_name_H-M "P 21/C"
_symmetry_group_IT_number 14
_symmetry_cell_setting 'monoclinic'
loop_
_space_group_symop_operation_xyz
x,y,z
-x,1/2+y,1/2-z
-x,-y,-z
x,1/2-y,1/2+z
loop_
_atom_site_type_symbol
_atom_site_label
_atom_site_fract_x
_atom_site_fract_y
_atom_site_fract_z
Si Si1 0.812469 0.995094 0.607810
Si Si2 0.079477 0.610105 0.455491
Si Si3 0.974966 0.340650 0.871512
Si Si4 0.580188 0.899281 0.547821
Si Si5 0.690255 0.049281 0.940204
Si Si6 0.458629 0.162584 0.092867
O O1 0.715196 0.941636 0.519138
O O2 0.892191 0.890314 0.653837
O O3 0.890394 0.087401 0.501602
O O4 0.749987 0.065258 0.759903
O O5 0.027667 0.707077 0.581156
O O6 0.074493 0.655533 0.285795
O O7 0.214233 0.574425 0.453230
O O8 0.000000 0.500000 0.500000
O O9 0.576926 0.794088 0.429151
O O10 0.535953 0.861846 0.727096
O O11 0.500000 0.000000 0.500000
O O12 0.637548 0.919639 0.966203
O O13 0.585974 0.141948 0.985106
#
# Coordination Sequence:
#
# PCOD8128080 Si02
#       6
#     4   4   4   4   4   4
#     4  10  24  47  70  98 143 175 235 280 343 401
#     4  12  26  43  73 100 138 182 230 276 350 400
#     4  11  26  44  69 104 135 185 227 286 335 412
#     4  11  27  44  71 105 135 184 229 283 346 409
#     4  10  23  47  68 100 135 186 225 285 335 407
#     4  10  26  44  72  99 143 176 233 281 345 405
#
# _framework density 21.000347999999999
#
# number of rings (size 3 to 8) (size 9 to 14) (size 15 to 20)
#    0.000    1.333    1.667    1.000   16.333    0.000 
#    0.000    0.000    0.000    0.000    0.000    0.000 
#    0.000    0.000    0.000    0.000    0.000    0.000 
#
# Total GULP energy -297726.638495 kJ/mol
# GULP energy per Si atom -12405.276604 kJ/mol
# Density = 2.095255 g / cm^3
# Si number density = 21.000348 Si / 1000 Ang^3
#
#
#
# Elastic Constant Matrix: (Units=GPa)
#
#
# Indices 1 2 3 4 5 6 
#
# 1 129.9613 36.9549 45.8601 0.0000 16.5521 0.0000
# 2 36.9549 121.3752 44.7879 0.0000 19.1533 0.0000
# 3 45.8601 44.7879 107.8600 0.0000 15.2075 0.0000
# 4 0.0000 0.0000 0.0000 38.1417 0.0000 9.1571
# 5 16.5521 19.1533 15.2075 0.0000 41.8507 0.0000
# 6 0.0000 0.0000 0.0000 9.1571 0.0000 24.8844
#
#
#
# Elastic Compliance Matrix: (Units=1/GPa)
#
#
# Indices 1 2 3 4 5 6 
#
# 1 0.009459 -0.001405 -0.003163 0.000000 -0.001948 0.000000
# 2 -0.001405 0.010348 -0.003278 0.000000 -0.002989 0.000000
# 3 -0.003163 -0.003278 0.012215 0.000000 -0.001687 0.000000
# 4 0.000000 0.000000 0.000000 0.028759 0.000000 -0.010583
# 5 -0.001948 -0.002989 -0.001687 0.000000 0.026646 0.000000
# 6 0.000000 0.000000 0.000000 -0.010583 0.000000 0.044080
#
#
# Mechanical properties :
#
#
# Convention : Reuss Voigt Hill
#
# Bulk Modulus (GPa) = 61.24155 68.26691 64.75423
# Shear Modulus (GPa) = 32.75610 36.41491 34.58550
#
# Velocity S-wave (km/s) = 3.95370 4.16867 4.06261
# Velocity P-wave (km/s) = 7.07586 7.46649 7.27380
#
# Compressibility (1/GPa) = 0.01632878
#
# Stress axis : x y z
#
# Youngs Moduli (GPa) = 105.72397 96.63707 81.86362
#
# Poissons Ratio (x) = 0.13578 0.25897
# Poissons Ratio (y) = 0.14855 0.26836
# Poissons Ratio (z) = 0.33446 0.31678
#
# Static dielectric constant tensor:
#      x y z
#    x 4.131900 0.000000 -0.042140 
#    y 0.000000 3.811910 0.000000 
#    z -0.042140 0.000000 3.182130 
# 
# 
# High freq. dielectric constant tensor:
#      x y z
#    x 1.838120 0.000000 0.002470 
#    y 0.000000 1.828010 0.000000 
#    z 0.002470 0.000000 1.827830 
# 
# From -- ./inp_files/12419.got.cif
#   From: 2010.03.12/outbox.cif.g09.slc.cpg/sg14_7_cif.got.tgz:12419.got - 2010.03.31 13:35:05.
