data_PCOD8128268
_publ_section_title
;
Structure prediction by ZEFSAII (Michael W. Deem and Ramdas Pophale) SiO2 
 PCOD8128268
Probable space group: P 21/C
;
_chemical_formula_sum "Si O2"
_cell_formula_units_Z 24
_cell_length_a 6.859380
_cell_length_b 23.161374
_cell_length_c 8.748106
_cell_angle_alpha 90.000000
_cell_angle_beta 55.408804
_cell_angle_gamma 90.000000
_cell_volume 1144.144924
_symmetry_space_group_name_H-M "P 21/C"
_symmetry_group_IT_number 14
_symmetry_cell_setting 'monoclinic'
loop_
_space_group_symop_operation_xyz
x,y,z
-x,1/2+y,1/2-z
-x,-y,-z
x,1/2-y,1/2+z
loop_
_atom_site_type_symbol
_atom_site_label
_atom_site_fract_x
_atom_site_fract_y
_atom_site_fract_z
Si Si1 0.016330 0.889145 0.983521
Si Si2 0.697253 0.205032 0.975596
Si Si3 0.206733 0.820113 0.407347
Si Si4 0.770758 0.864422 0.775504
Si Si5 0.521517 0.449720 0.781253
Si Si6 0.455878 0.079524 0.651957
O O1 0.136508 0.829425 0.981071
O O2 0.211261 0.939859 0.896192
O O3 0.914489 0.881253 0.860865
O O4 0.817063 0.907521 0.192140
O O5 0.685217 0.271365 0.030991
O O6 0.431126 0.181360 0.093832
O O7 0.808455 0.202192 0.758302
O O8 0.376557 0.875411 0.337476
O O9 0.941999 0.835826 0.574966
O O10 0.662768 0.923514 0.757296
O O11 0.468203 0.517203 0.817818
O O12 0.490877 0.416733 0.955417
#
# Coordination Sequence:
#
# PCOD8128268 Si02
#       6
#     4   4   4   4   4   4
#     4  11  22  46  66  99 132 174 218 272 330 387
#     4  11  27  43  67  96 132 172 220 271 331 389
#     4  12  25  44  68  97 129 178 218 271 334 388
#     4  11  24  44  69  96 134 171 220 274 326 397
#     4  10  24  44  67  98 135 177 218 272 330 393
#     4  11  23  43  68  98 136 174 222 273 329 393
#
# _framework density 20.976362999999999
#
# number of rings (size 3 to 8) (size 9 to 14) (size 15 to 20)
#    0.000    1.000    3.333    2.500    4.667    2.667 
#    3.000    0.000    0.000    0.000    0.000    0.000 
#    0.000    0.000    0.000    0.000    0.000    0.000 
#
# Total GULP energy -297809.580696 kJ/mol
# GULP energy per Si atom -12408.732529 kJ/mol
# Density = 2.092862 g / cm^3
# Si number density = 20.976363 Si / 1000 Ang^3
#
#
#
# Elastic Constant Matrix: (Units=GPa)
#
#
# Indices 1 2 3 4 5 6 
#
# 1 96.9236 41.2944 36.5101 0.0000 14.8676 0.0000
# 2 41.2944 104.9935 22.1970 0.0000 6.5378 0.0000
# 3 36.5101 22.1970 110.0467 0.0000 -13.5537 0.0000
# 4 0.0000 0.0000 0.0000 28.8614 0.0000 4.4898
# 5 14.8676 6.5378 -13.5537 0.0000 31.7651 0.0000
# 6 0.0000 0.0000 0.0000 4.4898 0.0000 19.0005
#
#
#
# Elastic Compliance Matrix: (Units=1/GPa)
#
#
# Indices 1 2 3 4 5 6 
#
# 1 0.015542 -0.004450 -0.005321 0.000000 -0.008629 0.000000
# 2 -0.004450 0.011514 -0.000930 0.000000 -0.000684 0.000000
# 3 -0.005321 -0.000930 0.012001 0.000000 0.007803 0.000000
# 4 0.000000 0.000000 0.000000 0.035971 0.000000 -0.008500
# 5 -0.008629 -0.000684 0.007803 0.000000 0.038990 0.000000
# 6 0.000000 0.000000 0.000000 -0.008500 0.000000 0.054639
#
#
# Mechanical properties :
#
#
# Convention : Reuss Voigt Hill
#
# Bulk Modulus (GPa) = 56.64718 56.88518 56.76618
# Shear Modulus (GPa) = 25.51753 30.05621 27.78687
#
# Velocity S-wave (km/s) = 3.49161 3.78942 3.64356
# Velocity P-wave (km/s) = 6.58171 6.80616 6.69488
#
# Compressibility (1/GPa) = 0.01765313
#
# Stress axis : x y z
#
# Youngs Moduli (GPa) = 64.34378 86.85131 83.32548
#
# Poissons Ratio (x) = 0.38651 0.44340
# Poissons Ratio (y) = 0.28635 0.07751
# Poissons Ratio (z) = 0.34239 0.08079
#
# Static dielectric constant tensor:
#      x y z
#    x 3.699460 0.000000 -0.141970 
#    y 0.000000 3.752830 0.000000 
#    z -0.141970 0.000000 4.075590 
# 
# 
# High freq. dielectric constant tensor:
#      x y z
#    x 1.824440 0.000000 -0.005120 
#    y 0.000000 1.825280 0.000000 
#    z -0.005120 0.000000 1.842780 
# 
# From -- ./inp_files/6238.got.cif
#   From: 2010.03.12/outbox.cif.g09.slc.cpg/sg14_4_cif.got.tgz:6238.got - 2010.03.31 13:35:05.
