data_PCOD8128033
_publ_section_title
;
Structure prediction by ZEFSAII (Michael W. Deem and Ramdas Pophale) SiO2 
 PCOD8128033
Probable space group: P 21/C
;
_chemical_formula_sum "Si O2"
_cell_formula_units_Z 28
_cell_length_a 12.247505
_cell_length_b 13.417611
_cell_length_c 9.239538
_cell_angle_alpha 90.000000
_cell_angle_beta 63.628251
_cell_angle_gamma 90.000000
_cell_volume 1360.340375
_symmetry_space_group_name_H-M "P 21/C"
_symmetry_group_IT_number 14
_symmetry_cell_setting 'monoclinic'
loop_
_space_group_symop_operation_xyz
x,y,z
-x,1/2+y,1/2-z
-x,-y,-z
x,1/2-y,1/2+z
loop_
_atom_site_type_symbol
_atom_site_label
_atom_site_fract_x
_atom_site_fract_y
_atom_site_fract_z
Si Si1 0.454345 0.139703 0.634474
Si Si2 0.865882 0.573303 0.301174
Si Si3 0.168015 0.111335 0.499462
Si Si4 0.906765 0.337080 0.663698
Si Si5 0.309700 0.961474 0.592241
Si Si6 0.068330 0.642944 0.685369
Si Si7 0.662749 0.784780 0.022737
O O1 0.596692 0.120818 0.522330
O O2 0.408789 0.228000 0.559593
O O3 0.438159 0.172684 0.809070
O O4 0.377025 0.039538 0.656454
O O5 0.898228 0.591893 0.113839
O O6 0.851476 0.456125 0.341379
O O7 0.737172 0.623536 0.411728
O O8 0.973474 0.618374 0.333126
O O9 0.245693 0.212377 0.444680
O O10 0.070016 0.121937 0.684924
O O11 0.253279 0.017367 0.486769
O O12 0.793338 0.410060 0.750650
O O13 0.874014 0.230311 0.751547
O O14 0.934480 0.322637 0.478824
#
# Coordination Sequence:
#
# PCOD8128033 Si02
#       7
#     4   4   4   4   4   4   4
#     4  10  23  45  69  93 123 179 222 275 315 388
#     4  12  24  41  68 101 136 169 217 271 333 395
#     4  11  23  41  68  99 130 172 213 270 327 403
#     4  12  26  41  65 101 136 179 211 273 332 396
#     4  10  24  44  69  89 136 172 224 266 335 378
#     4  12  26  39  64 100 141 172 216 263 335 398
#     4  11  22  41  70  97 126 166 226 266 327 388
#
# _framework density 20.583083999999999
#
# number of rings (size 3 to 8) (size 9 to 14) (size 15 to 20)
#    0.000    0.857    4.286    2.571    6.000    1.143 
#    0.000    2.143    0.000    0.000    0.000    0.000 
#    0.000    0.000    0.000    0.000    0.000    0.000 
#
# Total GULP energy -347385.001821 kJ/mol
# GULP energy per Si atom -12406.607208 kJ/mol
# Density = 2.053624 g / cm^3
# Si number density = 20.583084 Si / 1000 Ang^3
#
#
#
# Elastic Constant Matrix: (Units=GPa)
#
#
# Indices 1 2 3 4 5 6 
#
# 1 55.7500 20.1026 48.7340 0.0000 1.3359 0.0000
# 2 20.1026 114.6205 49.5593 0.0000 8.6492 0.0000
# 3 48.7340 49.5593 153.2746 0.0000 10.8603 0.0000
# 4 0.0000 0.0000 0.0000 32.0668 0.0000 -11.6917
# 5 1.3359 8.6492 10.8603 0.0000 31.6077 0.0000
# 6 0.0000 0.0000 0.0000 -11.6917 0.0000 32.3180
#
#
#
# Elastic Compliance Matrix: (Units=1/GPa)
#
#
# Indices 1 2 3 4 5 6 
#
# 1 0.025073 -0.001205 -0.007718 0.000000 0.001922 0.000000
# 2 -0.001205 0.010289 -0.002816 0.000000 -0.001797 0.000000
# 3 -0.007718 -0.002816 0.010056 0.000000 -0.002358 0.000000
# 4 0.000000 0.000000 0.000000 0.035923 0.000000 0.012996
# 5 0.001922 -0.001797 -0.002358 0.000000 0.032859 0.000000
# 6 0.000000 0.000000 0.000000 0.012996 0.000000 0.035644
#
#
# Mechanical properties :
#
#
# Convention : Reuss Voigt Hill
#
# Bulk Modulus (GPa) = 45.58281 62.27077 53.92679
# Shear Modulus (GPa) = 27.67988 32.88179 30.28083
#
# Velocity S-wave (km/s) = 3.67111 4.00123 3.83972
# Velocity P-wave (km/s) = 6.33745 7.18787 6.77602
#
# Compressibility (1/GPa) = 0.02193809
#
# Stress axis : x y z
#
# Youngs Moduli (GPa) = 39.88381 97.18996 99.44232
#
# Poissons Ratio (x) = 0.11713 0.76754
# Poissons Ratio (y) = 0.04806 0.28007
# Poissons Ratio (z) = 0.30784 0.27372
#
# Static dielectric constant tensor:
#      x y z
#    x 3.535600 0.000000 -0.023890 
#    y 0.000000 4.067930 0.000000 
#    z -0.023890 0.000000 3.717040 
# 
# 
# High freq. dielectric constant tensor:
#      x y z
#    x 1.787960 0.000000 0.002800 
#    y 0.000000 1.820010 0.000000 
#    z 0.002800 0.000000 1.812570 
# 
# From -- ./inp_files/12897.got.cif
#   From: 2010.03.12/outbox.cif.g09.slc.cpg/sg14_7_cif.got.tgz:12897.got - 2010.03.31 13:35:05.
