data_PCOD8128675
_publ_section_title
;
Structure prediction by ZEFSAII (Michael W. Deem and Ramdas Pophale) SiO2 
 PCOD8128675
Probable space group: P 21/C
;
_chemical_formula_sum "Si O2"
_cell_formula_units_Z 32
_cell_length_a 10.987410
_cell_length_b 21.590605
_cell_length_c 16.601343
_cell_angle_alpha 90.000000
_cell_angle_beta 23.392953
_cell_angle_gamma 90.000000
_cell_volume 1563.623429
_symmetry_space_group_name_H-M "P 21/C"
_symmetry_group_IT_number 14
_symmetry_cell_setting 'monoclinic'
loop_
_space_group_symop_operation_xyz
x,y,z
-x,1/2+y,1/2-z
-x,-y,-z
x,1/2-y,1/2+z
loop_
_atom_site_type_symbol
_atom_site_label
_atom_site_fract_x
_atom_site_fract_y
_atom_site_fract_z
Si Si1 0.799743 0.142617 0.816200
Si Si2 0.251219 0.175527 0.050779
Si Si3 0.688706 0.705256 0.091197
Si Si4 0.253927 0.922442 0.690107
Si Si5 0.255384 0.210503 0.811611
Si Si6 0.153363 0.888806 0.923092
Si Si7 0.923211 0.557889 0.728335
Si Si8 0.112806 0.745565 0.612956
O O1 0.730807 0.200151 0.917029
O O2 0.110947 0.157248 0.579889
O O3 0.850335 0.080892 0.838319
O O4 0.531557 0.133087 0.913115
O O5 0.970446 0.135431 0.186751
O O6 0.130253 0.208025 0.203568
O O7 0.376792 0.229646 0.915683
O O8 0.854270 0.728011 0.072874
O O9 0.382034 0.668922 0.302175
O O10 0.281794 0.930157 0.770956
O O11 0.585845 0.910351 0.446365
O O12 0.109873 0.984422 0.740585
O O13 0.621509 0.212291 0.586051
O O14 0.081405 0.205277 0.832143
O O15 0.163222 0.145847 0.911547
O O16 0.083435 0.929546 0.044711
#
# Coordination Sequence:
#
# PCOD8128675 Si02
#       8
#     4   4   4   4   4   4   4   4
#     4  11  22  39  59  89 124 168 205 260 318 375
#     4  11  24  38  60  93 131 165 201 266 326 379
#     4  11  23  35  62  93 130 163 204 258 326 387
#     4  11  25  45  66  94 123 171 221 265 308 374
#     4  12  20  36  57  92 125 162 202 250 319 381
#     4  12  22  40  66  95 125 163 213 264 310 376
#     4  11  24  44  70  89 122 172 226 263 306 368
#     4  11  23  35  59  92 127 162 207 254 318 391
#
# _framework density 20.465284
#
# number of rings (size 3 to 8) (size 9 to 14) (size 15 to 20)
#    0.000    0.750    6.250    1.875    1.750    0.500 
#    0.000    0.000    0.000    0.750    0.000    0.000 
#    0.000    0.000    0.000    0.000    0.000    0.000 
#
# Total GULP energy -396558.312986 kJ/mol
# GULP energy per Si atom -12392.447281 kJ/mol
# Density = 2.041870 g / cm^3
# Si number density = 20.465284 Si / 1000 Ang^3
#
#
#
# Elastic Constant Matrix: (Units=GPa)
#
#
# Indices 1 2 3 4 5 6 
#
# 1 65.5883 -1.6008 29.9938 0.0000 4.6481 0.0000
# 2 -1.6008 46.2118 21.4858 0.0000 0.4346 0.0000
# 3 29.9938 21.4858 83.1792 0.0000 13.2132 0.0000
# 4 0.0000 0.0000 0.0000 28.3286 0.0000 -0.1734
# 5 4.6481 0.4346 13.2132 0.0000 34.2690 0.0000
# 6 0.0000 0.0000 0.0000 -0.1734 0.0000 23.7995
#
#
#
# Elastic Compliance Matrix: (Units=1/GPa)
#
#
# Indices 1 2 3 4 5 6 
#
# 1 0.019010 0.004406 -0.008069 0.000000 0.000477 0.000000
# 2 0.004406 0.025782 -0.008630 0.000000 0.002403 0.000000
# 3 -0.008069 -0.008630 0.018077 0.000000 -0.005766 0.000000
# 4 0.000000 0.000000 0.000000 0.035302 0.000000 0.000257
# 5 0.000477 0.002403 -0.005766 0.000000 0.031309 0.000000
# 6 0.000000 0.000000 0.000000 0.000257 0.000000 0.042020
#
#
# Mechanical properties :
#
#
# Convention : Reuss Voigt Hill
#
# Bulk Modulus (GPa) = 26.12139 32.74852 29.43496
# Shear Modulus (GPa) = 23.94103 26.95277 25.44690
#
# Velocity S-wave (km/s) = 3.42400 3.63299 3.53004
# Velocity P-wave (km/s) = 5.33134 5.79956 5.57037
#
# Compressibility (1/GPa) = 0.03828280
#
# Stress axis : x y z
#
# Youngs Moduli (GPa) = 52.60336 38.78681 55.31927
#
# Poissons Ratio (x) = -0.17088 0.44635
# Poissons Ratio (y) = -0.23174 0.47740
# Poissons Ratio (z) = 0.42444 0.33473
#
# Static dielectric constant tensor:
#      x y z
#    x 3.672890 0.000000 0.293560 
#    y 0.000000 3.420200 0.000000 
#    z 0.293560 0.000000 3.838620 
# 
# 
# High freq. dielectric constant tensor:
#      x y z
#    x 1.795420 0.000000 0.020600 
#    y 0.000000 1.773010 0.000000 
#    z 0.020600 0.000000 1.815400 
# 
# From -- ./inp_files/10203.got.cif
#   From: 2010.03.12/outbox.cif.g09.slc.cpg/sg14_6_cif.got.tgz:10203.got - 2010.03.31 13:35:05.
