data_PCOD8128015
_publ_section_title
;
Structure prediction by ZEFSAII (Michael W. Deem and Ramdas Pophale) SiO2 
 PCOD8128015
Probable space group: P 21/C
;
_chemical_formula_sum "Si O2"
_cell_formula_units_Z 28
_cell_length_a 9.068132
_cell_length_b 21.295165
_cell_length_c 13.800162
_cell_angle_alpha 90.000000
_cell_angle_beta 149.795894
_cell_angle_gamma 90.000000
_cell_volume 1340.669423
_symmetry_space_group_name_H-M "P 21/C"
_symmetry_group_IT_number 14
_symmetry_cell_setting 'monoclinic'
loop_
_space_group_symop_operation_xyz
x,y,z
-x,1/2+y,1/2-z
-x,-y,-z
x,1/2-y,1/2+z
loop_
_atom_site_type_symbol
_atom_site_label
_atom_site_fract_x
_atom_site_fract_y
_atom_site_fract_z
Si Si1 0.718156 0.443716 0.643184
Si Si2 0.219002 0.108093 0.974324
Si Si3 0.555486 0.628663 0.199473
Si Si4 0.871265 0.749308 0.575145
Si Si5 0.700230 0.249218 0.848731
Si Si6 0.223190 0.972670 0.398945
Si Si7 0.932530 0.336359 0.642011
O O1 0.500000 0.500000 0.500000
O O2 0.560749 0.402901 0.637372
O O3 0.761682 0.399561 0.573987
O O4 0.040309 0.472354 0.851086
O O5 0.219554 0.102289 0.091377
O O6 0.117726 0.177228 0.882141
O O7 0.992845 0.058152 0.802896
O O8 0.377328 0.686200 0.142766
O O9 0.742941 0.648800 0.212659
O O10 0.321558 0.576299 0.036038
O O11 0.537095 0.771032 0.367346
O O12 0.000786 0.756453 0.540584
O O13 0.032589 0.792267 0.744440
O O14 0.731967 0.196178 0.947914
O O15 0.500000 0.000000 0.500000
#
# Coordination Sequence:
#
# PCOD8128015 Si02
#       7
#     4   4   4   4   4   4   4
#     4  10  24  45  66  92 131 179 222 268 327 382
#     4  10  23  45  64  96 136 165 217 278 326 388
#     4  11  24  41  67  99 130 170 222 269 330 399
#     4  11  25  40  68  98 136 169 211 271 339 397
#     4  11  24  42  63 104 130 169 217 266 343 403
#     4  11  23  43  67  95 127 176 227 268 323 385
#     4  12  23  41  69  95 135 172 214 276 330 391
#
# _framework density 20.885089000000001
#
# number of rings (size 3 to 8) (size 9 to 14) (size 15 to 20)
#    0.000    1.143    4.286    2.571    6.000    3.429 
#    0.000    0.000    0.000    0.000    0.000    0.000 
#    0.000    0.000    0.000    0.000    0.000    0.000 
#
# Total GULP energy -347169.847996 kJ/mol
# GULP energy per Si atom -12398.923143 kJ/mol
# Density = 2.083755 g / cm^3
# Si number density = 20.885089 Si / 1000 Ang^3
#
#
#
# Elastic Constant Matrix: (Units=GPa)
#
#
# Indices 1 2 3 4 5 6 
#
# 1 100.1882 61.7729 26.7481 0.0000 9.5812 0.0000
# 2 61.7729 111.2981 43.7351 0.0000 8.0706 0.0000
# 3 26.7481 43.7351 87.2550 0.0000 2.5609 0.0000
# 4 0.0000 0.0000 0.0000 36.6326 0.0000 9.3258
# 5 9.5812 8.0706 2.5609 0.0000 38.4464 0.0000
# 6 0.0000 0.0000 0.0000 9.3258 0.0000 35.2168
#
#
#
# Elastic Compliance Matrix: (Units=1/GPa)
#
#
# Indices 1 2 3 4 5 6 
#
# 1 0.015356 -0.008152 -0.000560 0.000000 -0.002078 0.000000
# 2 -0.008152 0.015669 -0.005328 0.000000 -0.000903 0.000000
# 3 -0.000560 -0.005328 0.014294 0.000000 0.000306 0.000000
# 4 0.000000 0.000000 0.000000 0.029271 0.000000 -0.007751
# 5 -0.002078 -0.000903 0.000306 0.000000 0.026697 0.000000
# 6 0.000000 0.000000 0.000000 -0.007751 0.000000 0.030448
#
#
# Mechanical properties :
#
#
# Convention : Reuss Voigt Hill
#
# Bulk Modulus (GPa) = 58.01247 62.58373 60.29810
# Shear Modulus (GPa) = 30.20020 33.15818 31.67919
#
# Velocity S-wave (km/s) = 3.80678 3.98885 3.89888
# Velocity P-wave (km/s) = 6.86727 7.15859 7.01444
#
# Compressibility (1/GPa) = 0.01723767
#
# Stress axis : x y z
#
# Youngs Moduli (GPa) = 65.12205 63.82210 69.95905
#
# Poissons Ratio (x) = 0.52027 0.03920
# Poissons Ratio (y) = 0.53087 0.37275
# Poissons Ratio (z) = 0.03649 0.34005
#
# Static dielectric constant tensor:
#      x y z
#    x 3.992300 0.000000 0.193590 
#    y 0.000000 4.025040 0.000000 
#    z 0.193590 0.000000 3.825900 
# 
# 
# High freq. dielectric constant tensor:
#      x y z
#    x 1.823860 0.000000 0.015220 
#    y 0.000000 1.827130 0.000000 
#    z 0.015220 0.000000 1.812690 
# 
# From -- ./inp_files/10357.got.cif
#   From: 2010.03.12/outbox.cif.g09.slc.cpg/sg14_6_cif.got.tgz:10357.got - 2010.03.31 13:35:05.
