data_PCOD8128136
_publ_section_title
;
Structure prediction by ZEFSAII (Michael W. Deem and Ramdas Pophale) SiO2 
 PCOD8128136
Probable space group: P 21/C
;
_chemical_formula_sum "Si O2"
_cell_formula_units_Z 24
_cell_length_a 22.016581
_cell_length_b 5.096190
_cell_length_c 21.168271
_cell_angle_alpha 90.000000
_cell_angle_beta 152.972326
_cell_angle_gamma 90.000000
_cell_volume 1079.292309
_symmetry_space_group_name_H-M "P 21/C"
_symmetry_group_IT_number 14
_symmetry_cell_setting 'monoclinic'
loop_
_space_group_symop_operation_xyz
x,y,z
-x,1/2+y,1/2-z
-x,-y,-z
x,1/2-y,1/2+z
loop_
_atom_site_type_symbol
_atom_site_label
_atom_site_fract_x
_atom_site_fract_y
_atom_site_fract_z
Si Si1 0.076854 0.109453 0.345323
Si Si2 0.701053 0.599450 0.722747
Si Si3 0.945501 0.572593 0.029793
Si Si4 0.885810 0.558002 0.328615
Si Si5 0.413038 0.548020 0.510761
Si Si6 0.707367 0.532942 0.048458
O O1 0.087967 0.155195 0.430152
O O2 0.229643 0.087189 0.461865
O O3 0.006555 0.349085 0.245261
O O4 0.756966 0.892444 0.755511
O O5 0.564956 0.614255 0.635157
O O6 0.677472 0.428746 0.636862
O O7 0.812236 0.472349 0.871198
O O8 0.051408 0.344906 0.121785
O O9 0.009251 0.830577 0.052709
O O10 0.833583 0.481912 0.211037
O O11 0.393317 0.261704 0.522732
O O12 0.372752 0.760482 0.525911
#
# Coordination Sequence:
#
# PCOD8128136 Si02
#       6
#     4   4   4   4   4   4
#     4  12  22  40  64  90 123 157 202 252 311 362
#     4  10  24  41  62  90 128 164 204 245 310 361
#     4  12  23  39  61  96 122 159 199 259 306 365
#     4  11  22  37  62  93 126 154 197 255 310 361
#     4  10  24  41  62  87 123 169 201 249 290 371
#     4  11  21  40  63  89 120 161 210 242 303 358
#
# _framework density 22.236792999999999
#
# number of rings (size 3 to 8) (size 9 to 14) (size 15 to 20)
#    0.000    1.000    3.333    4.000    0.000   11.333 
#    0.000    1.667    0.000    0.000    0.000    0.000 
#    0.000    0.000    0.000    0.000    0.000    0.000 
#
# Total GULP energy -297574.812890 kJ/mol
# GULP energy per Si atom -12398.950537 kJ/mol
# Density = 2.218618 g / cm^3
# Si number density = 22.236793 Si / 1000 Ang^3
#
#
#
# Elastic Constant Matrix: (Units=GPa)
#
#
# Indices 1 2 3 4 5 6 
#
# 1 131.8424 25.1275 31.5959 0.0000 29.7743 0.0000
# 2 25.1275 110.4079 11.8535 0.0000 24.5369 0.0000
# 3 31.5959 11.8535 78.2297 0.0000 24.7823 0.0000
# 4 0.0000 0.0000 0.0000 24.8510 0.0000 6.3601
# 5 29.7743 24.5369 24.7823 0.0000 33.9811 0.0000
# 6 0.0000 0.0000 0.0000 6.3601 0.0000 30.5530
#
#
#
# Elastic Compliance Matrix: (Units=1/GPa)
#
#
# Indices 1 2 3 4 5 6 
#
# 1 0.009625 -0.000483 -0.001630 0.000000 -0.006896 0.000000
# 2 -0.000483 0.010884 0.001172 0.000000 -0.008291 0.000000
# 3 -0.001630 0.001172 0.017009 0.000000 -0.011823 0.000000
# 4 0.000000 0.000000 0.000000 0.042504 0.000000 -0.008848
# 5 -0.006896 -0.008291 -0.011823 0.000000 0.050080 0.000000
# 6 0.000000 0.000000 0.000000 -0.008848 0.000000 0.034572
#
#
# Mechanical properties :
#
#
# Convention : Reuss Voigt Hill
#
# Bulk Modulus (GPa) = 28.06053 50.84820 39.45437
# Shear Modulus (GPa) = 28.02177 34.67056 31.34616
#
# Velocity S-wave (km/s) = 3.55372 3.95289 3.75861
# Velocity P-wave (km/s) = 5.43000 6.61439 6.05124
#
# Compressibility (1/GPa) = 0.03563724
#
# Stress axis : x y z
#
# Youngs Moduli (GPa) = 103.89906 91.87878 58.79293
#
# Poissons Ratio (x) = 0.04437 0.09580
# Poissons Ratio (y) = 0.05018 -0.06893
# Poissons Ratio (z) = 0.16931 -0.10771
#
# Static dielectric constant tensor:
#      x y z
#    x 4.249780 0.000000 0.058170 
#    y 0.000000 3.920820 0.000000 
#    z 0.058170 0.000000 3.871030 
# 
# 
# High freq. dielectric constant tensor:
#      x y z
#    x 1.882720 0.000000 0.013940 
#    y 0.000000 1.881040 0.000000 
#    z 0.013940 0.000000 1.854950 
# 
# From -- ./inp_files/69557.got.cif
#   From: 2010.03.12/outbox.cif.g09.slc.cpg/sg14_35_cif.got.tgz:69557.got - 2010.03.31 13:35:05.
