data_PCOD8128990
_publ_section_title
;
Structure prediction by ZEFSAII (Michael W. Deem and Ramdas Pophale) SiO2 
 PCOD8128990
Probable space group: P 21/C
;
_chemical_formula_sum "Si O2"
_cell_formula_units_Z 32
_cell_length_a 13.348591
_cell_length_b 18.256562
_cell_length_c 11.510606
_cell_angle_alpha 90.000000
_cell_angle_beta 33.132706
_cell_angle_gamma 90.000000
_cell_volume 1533.226791
_symmetry_space_group_name_H-M "P 21/C"
_symmetry_group_IT_number 14
_symmetry_cell_setting 'monoclinic'
loop_
_space_group_symop_operation_xyz
x,y,z
-x,1/2+y,1/2-z
-x,-y,-z
x,1/2-y,1/2+z
loop_
_atom_site_type_symbol
_atom_site_label
_atom_site_fract_x
_atom_site_fract_y
_atom_site_fract_z
Si Si1 0.158863 0.050971 0.891359
Si Si2 0.923662 0.320878 0.705000
Si Si3 0.397302 0.014217 0.873046
Si Si4 0.000700 0.332408 0.228415
Si Si5 0.677692 0.367178 0.145408
Si Si6 0.696977 0.203534 0.202875
Si Si7 0.634679 0.899174 0.521824
Si Si8 0.152080 0.947311 0.302670
O O1 0.310769 0.054378 0.643982
O O2 0.245529 0.013243 0.919800
O O3 0.082323 0.131701 0.991884
O O4 0.000000 0.000000 0.000000
O O5 0.022887 0.250406 0.662574
O O6 0.771626 0.293333 0.761303
O O7 0.826231 0.370700 0.897542
O O8 0.553728 0.953906 0.696811
O O9 0.487986 0.094791 0.790626
O O10 0.299496 0.994685 0.088479
O O11 0.847094 0.336111 0.476972
O O12 0.942279 0.384885 0.181514
O O13 0.194256 0.356986 0.090317
O O14 0.641834 0.283272 0.211317
O O15 0.747853 0.410317 0.187759
O O16 0.511921 0.158655 0.379586
O O17 0.000000 0.000000 0.500000
#
# Coordination Sequence:
#
# PCOD8128990 Si02
#       8
#     4   4   4   4   4   4   4   4
#     4  12  24  43  72 105 142 185 233 292 355 413
#     4  11  23  46  71 100 145 183 237 290 349 420
#     4  12  25  44  68 108 140 182 241 289 353 426
#     4  11  24  45  70 103 138 191 231 287 353 412
#     4  11  25  43  69 102 139 191 228 293 350 414
#     4  11  23  47  69 101 143 179 236 296 346 408
#     4  12  24  43  75 102 140 182 237 286 354 416
#     4  12  24  47  68  98 146 186 231 289 352 426
#
# _framework density 20.871015
#
# number of rings (size 3 to 8) (size 9 to 14) (size 15 to 20)
#    0.000    0.500    3.750    5.250    1.750    0.000 
#    4.500    0.000    0.000    0.000    0.000    0.000 
#    0.000    0.000    0.000    0.000    0.000    0.000 
#
# Total GULP energy -397055.222329 kJ/mol
# GULP energy per Si atom -12407.975698 kJ/mol
# Density = 2.082351 g / cm^3
# Si number density = 20.871015 Si / 1000 Ang^3
#
#
#
# Elastic Constant Matrix: (Units=GPa)
#
#
# Indices 1 2 3 4 5 6 
#
# 1 124.4928 31.5635 41.1596 0.0000 -3.3639 0.0000
# 2 31.5635 91.2137 58.6630 0.0000 -2.8835 0.0000
# 3 41.1596 58.6630 142.3704 0.0000 6.9517 0.0000
# 4 0.0000 0.0000 0.0000 45.2352 0.0000 -0.7050
# 5 -3.3639 -2.8835 6.9517 0.0000 38.6559 0.0000
# 6 0.0000 0.0000 0.0000 -0.7050 0.0000 45.1541
#
#
#
# Elastic Compliance Matrix: (Units=1/GPa)
#
#
# Indices 1 2 3 4 5 6 
#
# 1 0.009177 -0.001913 -0.001914 0.000000 0.001000 0.000000
# 2 -0.001913 0.015509 -0.005938 0.000000 0.002058 0.000000
# 3 -0.001914 -0.005938 0.010143 0.000000 -0.002433 0.000000
# 4 0.000000 0.000000 0.000000 0.022112 0.000000 0.000345
# 5 0.001000 0.002058 -0.002433 0.000000 0.026547 0.000000
# 6 0.000000 0.000000 0.000000 0.000345 0.000000 0.022152
#
#
# Mechanical properties :
#
#
# Convention : Reuss Voigt Hill
#
# Bulk Modulus (GPa) = 65.36124 68.98323 67.17224
# Shear Modulus (GPa) = 38.38172 40.92176 39.65174
#
# Velocity S-wave (km/s) = 4.29300 4.43278 4.36345
# Velocity P-wave (km/s) = 7.48050 7.70216 7.59214
#
# Compressibility (1/GPa) = 0.01529959
#
# Stress axis : x y z
#
# Youngs Moduli (GPa) = 108.96316 64.47735 98.59341
#
# Poissons Ratio (x) = 0.12337 0.18867
# Poissons Ratio (y) = 0.20849 0.58544
# Poissons Ratio (z) = 0.20852 0.38286
#
# Static dielectric constant tensor:
#      x y z
#    x 3.937290 0.000000 0.135320 
#    y 0.000000 4.119000 0.000000 
#    z 0.135320 0.000000 3.931100 
# 
# 
# High freq. dielectric constant tensor:
#      x y z
#    x 1.832120 0.000000 0.006050 
#    y 0.000000 1.831930 0.000000 
#    z 0.006050 0.000000 1.824220 
# 
# From -- ./inp_files/32968.got.cif
#   From: 2010.03.12/outbox.cif.g09.slc.cpg/sg14_17_cif.got.tgz:32968.got - 2010.03.31 13:35:05.
