data_PCOD8128318
_publ_section_title
;
Structure prediction by ZEFSAII (Michael W. Deem and Ramdas Pophale) SiO2 
 PCOD8128318
Probable space group: P 21/C
;
_chemical_formula_sum "Si O2"
_cell_formula_units_Z 28
_cell_length_a 8.457376
_cell_length_b 13.755344
_cell_length_c 13.969994
_cell_angle_alpha 90.000000
_cell_angle_beta 52.743471
_cell_angle_gamma 90.000000
_cell_volume 1293.539926
_symmetry_space_group_name_H-M "P 21/C"
_symmetry_group_IT_number 14
_symmetry_cell_setting 'monoclinic'
loop_
_space_group_symop_operation_xyz
x,y,z
-x,1/2+y,1/2-z
-x,-y,-z
x,1/2-y,1/2+z
loop_
_atom_site_type_symbol
_atom_site_label
_atom_site_fract_x
_atom_site_fract_y
_atom_site_fract_z
Si Si1 0.040802 0.758046 0.901177
Si Si2 0.909834 0.462368 0.129745
Si Si3 0.377311 0.858250 0.681069
Si Si4 0.170591 0.450010 0.209527
Si Si5 0.549768 0.899929 0.815079
Si Si6 0.347434 0.263900 0.070600
Si Si7 0.888979 0.079653 0.980776
O O1 0.135589 0.650982 0.870627
O O2 0.160144 0.814370 0.775592
O O3 0.813325 0.760434 0.952010
O O4 0.067221 0.812082 0.993665
O O5 0.712278 0.516523 0.238528
O O6 0.090616 0.480697 0.135756
O O7 0.000000 0.500000 0.000000
O O8 0.514440 0.845541 0.725922
O O9 0.462996 0.803196 0.557523
O O10 0.337026 0.973155 0.681688
O O11 0.281055 0.347573 0.166995
O O12 0.972082 0.432420 0.344275
O O13 0.613571 0.827812 0.876392
O O14 0.344166 0.946394 0.928287
O O15 0.000000 0.000000 0.000000
#
# Coordination Sequence:
#
# PCOD8128318 Si02
#       7
#     4   4   4   4   4   4   4
#     4  10  24  46  66  97 139 179 221 286 346 397
#     4  11  26  46  70 100 137 179 232 285 338 413
#     4  11  24  46  65 103 135 179 233 276 353 407
#     4  11  24  45  71  99 141 182 223 286 351 401
#     4  11  25  43  71 106 133 187 232 279 347 411
#     4  11  26  41  73 100 138 180 230 287 332 419
#     4  11  24  46  68  99 143 177 225 281 344 407
#
# _framework density 21.646027
#
# number of rings (size 3 to 8) (size 9 to 14) (size 15 to 20)
#    0.000    1.143    2.857    3.000    8.000    6.286 
#    0.000    0.000    0.000    0.000    0.000    0.000 
#    0.000    0.000    0.000    0.000    0.000    0.000 
#
# Total GULP energy -347134.693448 kJ/mol
# GULP energy per Si atom -12397.667623 kJ/mol
# Density = 2.159676 g / cm^3
# Si number density = 21.646027 Si / 1000 Ang^3
#
#
#
# Elastic Constant Matrix: (Units=GPa)
#
#
# Indices 1 2 3 4 5 6 
#
# 1 83.4649 49.3142 41.0578 0.0000 -4.0941 0.0000
# 2 49.3142 113.5515 41.3451 0.0000 -1.0019 0.0000
# 3 41.0578 41.3451 128.1077 0.0000 4.1616 0.0000
# 4 0.0000 0.0000 0.0000 43.1519 0.0000 -1.0180
# 5 -4.0941 -1.0019 4.1616 0.0000 35.4376 0.0000
# 6 0.0000 0.0000 0.0000 -1.0180 0.0000 35.3229
#
#
#
# Elastic Compliance Matrix: (Units=1/GPa)
#
#
# Indices 1 2 3 4 5 6 
#
# 1 0.017627 -0.006290 -0.003694 0.000000 0.002292 0.000000
# 2 -0.006290 0.012239 -0.001929 0.000000 -0.000154 0.000000
# 3 -0.003694 -0.001929 0.009665 0.000000 -0.001616 0.000000
# 4 0.000000 0.000000 0.000000 0.023190 0.000000 0.000668
# 5 0.002292 -0.000154 -0.001616 0.000000 0.028669 0.000000
# 6 0.000000 0.000000 0.000000 0.000668 0.000000 0.028329
#
#
# Mechanical properties :
#
#
# Convention : Reuss Voigt Hill
#
# Bulk Modulus (GPa) = 63.67309 65.39537 64.53423
# Shear Modulus (GPa) = 33.60662 35.67629 34.64145
#
# Velocity S-wave (km/s) = 3.94452 4.06417 4.00479
# Velocity P-wave (km/s) = 7.08697 7.23188 7.15979
#
# Compressibility (1/GPa) = 0.01570522
#
# Stress axis : x y z
#
# Youngs Moduli (GPa) = 56.73139 81.70382 103.46738
#
# Poissons Ratio (x) = 0.51392 0.38219
# Poissons Ratio (y) = 0.35684 0.19961
# Poissons Ratio (z) = 0.20955 0.15762
#
# Static dielectric constant tensor:
#      x y z
#    x 0.000000 0.000000 0.000000 
#    y 0.000000 0.000000 0.000000 
#    z 0.000000 0.000000 0.000000 
# 
# 
# High freq. dielectric constant tensor:
#      x y z
#    x 1.848370 0.000000 -0.001420 
#    y 0.000000 1.854720 0.000000 
#    z -0.001420 0.000000 1.867160 
# 
# From -- ./inp_files/41131.got.cif
#   From: 2010.03.12/outbox.cif.g09.slc.cpg/sg14_21_cif.got.tgz:41131.got - 2010.03.31 13:35:05.
