data_PCOD8128904
_publ_section_title
;
Structure prediction by ZEFSAII (Michael W. Deem and Ramdas Pophale) SiO2 
 PCOD8128904
Probable space group: P 21/C
;
_chemical_formula_sum "Si O2"
_cell_formula_units_Z 24
_cell_length_a 8.453960
_cell_length_b 14.076149
_cell_length_c 16.737505
_cell_angle_alpha 90.000000
_cell_angle_beta 34.917362
_cell_angle_gamma 90.000000
_cell_volume 1140.066329
_symmetry_space_group_name_H-M "P 21/C"
_symmetry_group_IT_number 14
_symmetry_cell_setting 'monoclinic'
loop_
_space_group_symop_operation_xyz
x,y,z
-x,1/2+y,1/2-z
-x,-y,-z
x,1/2-y,1/2+z
loop_
_atom_site_type_symbol
_atom_site_label
_atom_site_fract_x
_atom_site_fract_y
_atom_site_fract_z
Si Si1 0.135776 0.741576 0.106669
Si Si2 0.278647 0.565694 0.634826
Si Si3 0.461524 0.242143 0.704778
Si Si4 0.740635 0.054067 0.355615
Si Si5 0.743788 0.404074 0.673844
Si Si6 0.344426 0.409446 0.378940
O O1 0.192780 0.846852 0.114920
O O2 0.245384 0.663387 0.122965
O O3 0.809330 0.725016 0.231038
O O4 0.284431 0.728998 0.960398
O O5 0.500000 0.500000 0.500000
O O6 0.402155 0.606476 0.665813
O O7 0.017498 0.501326 0.763172
O O8 0.541025 0.316514 0.740983
O O9 0.401117 0.142905 0.772500
O O10 0.678967 0.052644 0.287063
O O11 0.500000 0.000000 0.500000
O O12 0.686867 0.479526 0.627367
O O13 0.063977 0.371353 0.536744
#
# Coordination Sequence:
#
# PCOD8128904 Si02
#       6
#     4   4   4   4   4   4
#     4  12  25  44  67 101 137 177 231 283 338 412
#     4  12  24  44  73  99 134 188 228 274 343 413
#     4  12  25  44  70  99 136 179 225 281 342 399
#     4  12  26  44  69 103 140 174 228 287 344 397
#     4  11  23  44  68  97 137 178 222 279 338 407
#     4  11  23  43  69  97 134 179 228 273 339 409
#
# _framework density 21.051407000000001
#
# number of rings (size 3 to 8) (size 9 to 14) (size 15 to 20)
#    0.000    0.333    3.333    7.000    0.000    1.333 
#    6.000    3.333    0.000    0.000    0.000    0.000 
#    0.000    0.000    0.000    0.000    0.000    0.000 
#
# Total GULP energy -297811.284534 kJ/mol
# GULP energy per Si atom -12408.803522 kJ/mol
# Density = 2.100349 g / cm^3
# Si number density = 21.051407 Si / 1000 Ang^3
#
#
#
# Elastic Constant Matrix: (Units=GPa)
#
#
# Indices 1 2 3 4 5 6 
#
# 1 111.8494 26.1908 32.9262 0.0000 -6.3994 0.0000
# 2 26.1908 102.1613 35.5737 0.0000 -8.8700 0.0000
# 3 32.9262 35.5737 113.7385 0.0000 -6.7284 0.0000
# 4 0.0000 0.0000 0.0000 34.8113 0.0000 2.4848
# 5 -6.3994 -8.8700 -6.7284 0.0000 38.7874 0.0000
# 6 0.0000 0.0000 0.0000 2.4848 0.0000 50.1654
#
#
#
# Elastic Compliance Matrix: (Units=1/GPa)
#
#
# Indices 1 2 3 4 5 6 
#
# 1 0.010074 -0.001694 -0.002335 0.000000 0.000870 0.000000
# 2 -0.001694 0.011415 -0.002973 0.000000 0.001815 0.000000
# 3 -0.002335 -0.002973 0.010442 0.000000 0.000746 0.000000
# 4 0.000000 0.000000 0.000000 0.028828 0.000000 -0.001428
# 5 0.000870 0.001815 0.000746 0.000000 0.026470 0.000000
# 6 0.000000 0.000000 0.000000 -0.001428 0.000000 0.020005
#
#
# Mechanical properties :
#
#
# Convention : Reuss Voigt Hill
#
# Bulk Modulus (GPa) = 55.77799 57.45897 56.61848
# Shear Modulus (GPa) = 39.30374 40.29003 39.79689
#
# Velocity S-wave (km/s) = 4.32561 4.37955 4.35266
# Velocity P-wave (km/s) = 7.17645 7.27515 7.22597
#
# Compressibility (1/GPa) = 0.01792822
#
# Stress axis : x y z
#
# Youngs Moduli (GPa) = 99.26074 87.60052 95.76734
#
# Poissons Ratio (x) = 0.14841 0.22363
# Poissons Ratio (y) = 0.16816 0.28467
# Poissons Ratio (z) = 0.23179 0.26040
#
# Static dielectric constant tensor:
#      x y z
#    x 3.851820 0.000000 -0.088580 
#    y 0.000000 3.837050 0.000000 
#    z -0.088580 0.000000 3.800930 
# 
# 
# High freq. dielectric constant tensor:
#      x y z
#    x 1.836690 0.000000 -0.001790 
#    y 0.000000 1.833690 0.000000 
#    z -0.001790 0.000000 1.830030 
# 
# From -- ./inp_files/55895.got.cif
#   From: 2010.03.12/outbox.cif.g09.slc.cpg/sg14_28_cif.got.tgz:55895.got - 2010.03.31 13:35:05.
