data_PCOD8128474
_publ_section_title
;
Structure prediction by ZEFSAII (Michael W. Deem and Ramdas Pophale) SiO2 
 PCOD8128474
Probable space group: P 21/C
;
_chemical_formula_sum "Si O2"
_cell_formula_units_Z 20
_cell_length_a 10.078535
_cell_length_b 8.826177
_cell_length_c 13.300212
_cell_angle_alpha 90.000000
_cell_angle_beta 63.358116
_cell_angle_gamma 90.000000
_cell_volume 1057.503755
_symmetry_space_group_name_H-M "P 21/C"
_symmetry_group_IT_number 14
_symmetry_cell_setting 'monoclinic'
loop_
_space_group_symop_operation_xyz
x,y,z
-x,1/2+y,1/2-z
-x,-y,-z
x,1/2-y,1/2+z
loop_
_atom_site_type_symbol
_atom_site_label
_atom_site_fract_x
_atom_site_fract_y
_atom_site_fract_z
Si Si1 0.063149 0.324947 0.264487
Si Si2 0.830949 0.145261 0.230427
Si Si3 0.296300 0.381153 0.594605
Si Si4 0.170136 0.619605 0.505372
Si Si5 0.598384 0.302310 0.425343
O O1 0.117538 0.496080 0.226663
O O2 0.202682 0.212237 0.208270
O O3 0.937983 0.285613 0.223417
O O4 0.985917 0.312235 0.400574
O O5 0.832098 0.114553 0.112377
O O6 0.662445 0.186684 0.320547
O O7 0.186903 0.447033 0.544258
O O8 0.423682 0.272681 0.502910
O O9 0.378298 0.523128 0.621475
O O10 0.308006 0.718656 0.501923
#
# Coordination Sequence:
#
# PCOD8128474 Si02
#       5
#     4   4   4   4   4
#     4  11  20  33  59  81 112 143 183 233 268 326
#     4  11  20  37  57  83 110 149 187 223 277 329
#     4   9  18  39  58  76 114 149 173 232 284 311
#     4   9  19  36  60  76 110 151 177 221 284 330
#     4   8  19  39  58  77 113 148 179 229 276 327
#
# _framework density 18.912462000000001
#
# number of rings (size 3 to 8) (size 9 to 14) (size 15 to 20)
#    1.200    1.200    2.000    0.600    0.000    0.800 
#    3.600    9.000    0.000    0.000    0.000    0.000 
#    0.000    0.000    0.000    0.000    0.000    0.000 
#
# Total GULP energy -247768.749808 kJ/mol
# GULP energy per Si atom -12388.437490 kJ/mol
# Density = 1.886942 g / cm^3
# Si number density = 18.912462 Si / 1000 Ang^3
#
#
#
# Elastic Constant Matrix: (Units=GPa)
#
#
# Indices 1 2 3 4 5 6 
#
# 1 61.4602 30.9236 58.4006 0.0000 -17.7695 0.0000
# 2 30.9236 65.7690 50.9183 0.0000 -0.6412 0.0000
# 3 58.4006 50.9183 95.8452 0.0000 -11.4121 0.0000
# 4 0.0000 0.0000 0.0000 20.2418 0.0000 -10.8804
# 5 -17.7695 -0.6412 -11.4121 0.0000 35.7151 0.0000
# 6 0.0000 0.0000 0.0000 -10.8804 0.0000 27.8976
#
#
#
# Elastic Compliance Matrix: (Units=1/GPa)
#
#
# Indices 1 2 3 4 5 6 
#
# 1 0.044638 -0.001892 -0.024485 0.000000 0.014351 0.000000
# 2 -0.001892 0.026491 -0.013490 0.000000 -0.004776 0.000000
# 3 -0.024485 -0.013490 0.032268 0.000000 -0.002114 0.000000
# 4 0.000000 0.000000 0.000000 0.062507 0.000000 0.024378
# 5 0.014351 -0.004776 -0.002114 0.000000 0.034378 0.000000
# 6 0.000000 0.000000 0.000000 0.024378 0.000000 0.045353
#
#
# Mechanical properties :
#
#
# Convention : Reuss Voigt Hill
#
# Bulk Modulus (GPa) = 42.25869 55.95104 49.10487
# Shear Modulus (GPa) = 15.00348 22.29301 18.64824
#
# Velocity S-wave (km/s) = 2.81963 3.43701 3.14352
# Velocity P-wave (km/s) = 5.74398 6.73789 6.26069
#
# Compressibility (1/GPa) = 0.02366377
#
# Stress axis : x y z
#
# Youngs Moduli (GPa) = 22.40241 37.74822 30.99091
#
# Poissons Ratio (x) = 0.07142 0.75882
# Poissons Ratio (y) = 0.04238 0.41805
# Poissons Ratio (z) = 0.54853 0.50921
#
# Static dielectric constant tensor:
#      x y z
#    x 3.343510 0.000000 -0.360870 
#    y 0.000000 3.383370 0.000000 
#    z -0.360870 0.000000 3.295590 
# 
# 
# High freq. dielectric constant tensor:
#      x y z
#    x 1.720860 0.000000 -0.034180 
#    y 0.000000 1.712090 0.000000 
#    z -0.034180 0.000000 1.721020 
# 
# From -- ./inp_files/42770.got.cif
#   From: 2010.03.12/outbox.cif.g09.slc.cpg/sg14_22_cif.got.tgz:42770.got - 2010.03.31 13:35:05.
