data_PCOD8128028
_publ_section_title
;
Structure prediction by ZEFSAII (Michael W. Deem and Ramdas Pophale) SiO2 
 PCOD8128028
Probable space group: P 21/C
;
_chemical_formula_sum "Si O2"
_cell_formula_units_Z 16
_cell_length_a 10.246686
_cell_length_b 7.829030
_cell_length_c 8.430134
_cell_angle_alpha 90.000000
_cell_angle_beta 123.293779
_cell_angle_gamma 90.000000
_cell_volume 565.279227
_symmetry_space_group_name_H-M "P 21/C"
_symmetry_group_IT_number 14
_symmetry_cell_setting 'monoclinic'
loop_
_space_group_symop_operation_xyz
x,y,z
-x,1/2+y,1/2-z
-x,-y,-z
x,1/2-y,1/2+z
loop_
_atom_site_type_symbol
_atom_site_label
_atom_site_fract_x
_atom_site_fract_y
_atom_site_fract_z
Si Si1 0.307730 0.389676 0.211626
Si Si2 0.356582 0.775899 0.586814
Si Si3 0.837289 0.941575 0.056063
Si Si4 0.812352 0.543670 0.192467
O O1 0.471580 0.294626 0.310473
O O2 0.340060 0.594999 0.227841
O O3 0.228940 0.351310 0.330044
O O4 0.197980 0.343878 0.979467
O O5 0.225294 0.632238 0.509743
O O6 0.320385 0.896465 0.408415
O O7 0.785705 0.857437 0.845793
O O8 0.022446 0.948829 0.192085
#
# Coordination Sequence:
#
# PCOD8128028 Si02
#       4
#     4   4   4   4
#     4  10  23  45  70 106 149 189 238 302 369 431
#     4  10  23  45  68 108 145 185 243 295 363 447
#     4  11  20  45  70 101 145 190 239 305 356 426
#     4   9  24  42  70 107 139 188 253 289 358 445
#
# _framework density 28.304596
#
# number of rings (size 3 to 8) (size 9 to 14) (size 15 to 20)
#    1.500    0.500    0.000    3.000    0.000    1.000 
#    9.000    2.500    0.000    0.000    0.000    0.000 
#    0.000    0.000    0.000    0.000    0.000    0.000 
#
# Total GULP energy -198407.848178 kJ/mol
# GULP energy per Si atom -12400.490511 kJ/mol
# Density = 2.824017 g / cm^3
# Si number density = 28.304596 Si / 1000 Ang^3
#
#
#
# Elastic Constant Matrix: (Units=GPa)
#
#
# Indices 1 2 3 4 5 6 
#
# 1 137.3341 56.6303 92.0485 0.0000 -13.3413 0.0000
# 2 56.6303 157.7740 98.7371 0.0000 -34.6984 0.0000
# 3 92.0485 98.7371 213.0701 0.0000 -13.3366 0.0000
# 4 0.0000 0.0000 0.0000 68.1905 0.0000 -12.3764
# 5 -13.3413 -34.6984 -13.3366 0.0000 63.9306 0.0000
# 6 0.0000 0.0000 0.0000 -12.3764 0.0000 44.8044
#
#
#
# Elastic Compliance Matrix: (Units=1/GPa)
#
#
# Indices 1 2 3 4 5 6 
#
# 1 0.010467 -0.001114 -0.003959 0.000000 0.000754 0.000000
# 2 -0.001114 0.010206 -0.003968 0.000000 0.004479 0.000000
# 3 -0.003959 -0.003968 0.008162 0.000000 -0.001277 0.000000
# 4 0.000000 0.000000 0.000000 0.015439 0.000000 0.004265
# 5 0.000754 0.004479 -0.001277 0.000000 0.017964 0.000000
# 6 0.000000 0.000000 0.000000 0.004265 0.000000 0.023497
#
#
# Mechanical properties :
#
#
# Convention : Reuss Voigt Hill
#
# Bulk Modulus (GPa) = 92.98104 111.44556 102.21330
# Shear Modulus (GPa) = 46.55389 52.76924 49.66157
#
# Velocity S-wave (km/s) = 4.05995 4.32248 4.19327
# Velocity P-wave (km/s) = 7.40939 8.02315 7.72237
#
# Compressibility (1/GPa) = 0.01075488
#
# Stress axis : x y z
#
# Youngs Moduli (GPa) = 95.53503 97.97799 122.51388
#
# Poissons Ratio (x) = 0.10914 0.48499
# Poissons Ratio (y) = 0.10642 0.48614
# Poissons Ratio (z) = 0.37819 0.38878
#
# Static dielectric constant tensor:
#      x y z
#    x 4.829830 0.000000 -0.501070 
#    y 0.000000 5.958160 0.000000 
#    z -0.501070 0.000000 5.876650 
# 
# 
# High freq. dielectric constant tensor:
#      x y z
#    x 2.130140 0.000000 -0.026790 
#    y 0.000000 2.234230 0.000000 
#    z -0.026790 0.000000 2.188670 
# 
# From -- ./inp_files/12277.got.cif
#   From: 2010.03.12/outbox.cif.g09.slc.cpg/sg14_7_cif.got.tgz:12277.got - 2010.03.31 13:35:05.
