data_PCOD8128304
_publ_section_title
;
Structure prediction by ZEFSAII (Michael W. Deem and Ramdas Pophale) SiO2 
 PCOD8128304
Probable space group: P 21/C
;
_chemical_formula_sum "Si O2"
_cell_formula_units_Z 20
_cell_length_a 23.462832
_cell_length_b 4.831903
_cell_length_c 10.011374
_cell_angle_alpha 90.000000
_cell_angle_beta 143.705639
_cell_angle_gamma 90.000000
_cell_volume 671.839456
_symmetry_space_group_name_H-M "P 21/C"
_symmetry_group_IT_number 14
_symmetry_cell_setting 'monoclinic'
loop_
_space_group_symop_operation_xyz
x,y,z
-x,1/2+y,1/2-z
-x,-y,-z
x,1/2-y,1/2+z
loop_
_atom_site_type_symbol
_atom_site_label
_atom_site_fract_x
_atom_site_fract_y
_atom_site_fract_z
Si Si1 0.617090 0.162338 0.911442
Si Si2 0.889281 0.915311 0.386973
Si Si3 0.088560 0.795265 0.308871
Si Si4 0.256601 0.425749 0.984197
Si Si5 0.594852 0.837580 0.545124
O O1 0.519008 0.204799 0.640234
O O2 0.706005 0.272189 0.990750
O O3 0.614634 0.345061 0.042631
O O4 0.626815 0.846012 0.977376
O O5 0.787173 0.758879 0.219899
O O6 0.973054 0.681385 0.566540
O O7 0.887230 0.014325 0.226515
O O8 0.898889 0.179832 0.505651
O O9 0.161821 0.033708 0.397433
O O10 0.343693 0.241048 0.209366
#
# Coordination Sequence:
#
# PCOD8128304 Si02
#       5
#     4   4   4   4   4
#     4  10  24  45  70 108 154 204 249 316 388 458
#     4  11  29  49  74 110 149 206 251 325 386 467
#     4  11  29  49  74 106 154 195 259 314 395 462
#     4  12  26  43  75 111 143 198 262 320 379 466
#     4  10  24  45  71 106 157 201 252 315 386 460
#
# _framework density 29.769019
#
# number of rings (size 3 to 8) (size 9 to 14) (size 15 to 20)
#    0.000    1.200    0.000    2.400   16.800    0.000 
#    0.000    6.000    0.000    0.000    0.000    0.000 
#    0.000    0.000    0.000    0.000    0.000    0.000 
#
# Total GULP energy -247766.706091 kJ/mol
# GULP energy per Si atom -12388.335305 kJ/mol
# Density = 2.970126 g / cm^3
# Si number density = 29.769019 Si / 1000 Ang^3
#
#
#
# Elastic Constant Matrix: (Units=GPa)
#
#
# Indices 1 2 3 4 5 6 
#
# 1 102.0226 -6.9711 44.4366 0.0000 4.7252 0.0000
# 2 -6.9711 43.6570 6.0671 0.0000 -6.5132 0.0000
# 3 44.4366 6.0671 154.8914 0.0000 9.9629 0.0000
# 4 0.0000 0.0000 0.0000 48.0645 0.0000 -5.5225
# 5 4.7252 -6.5132 9.9629 0.0000 42.9969 0.0000
# 6 0.0000 0.0000 0.0000 -5.5225 0.0000 20.4189
#
#
#
# Elastic Compliance Matrix: (Units=1/GPa)
#
#
# Indices 1 2 3 4 5 6 
#
# 1 0.011426 0.002271 -0.003358 0.000000 -0.000133 0.000000
# 2 0.002271 0.024095 -0.001842 0.000000 0.003827 0.000000
# 3 -0.003358 -0.001842 0.007599 0.000000 -0.001671 0.000000
# 4 0.000000 0.000000 0.000000 0.021473 0.000000 0.005808
# 5 -0.000133 0.003827 -0.001671 0.000000 0.024239 0.000000
# 6 0.000000 0.000000 0.000000 0.005808 0.000000 0.050545
#
#
# Mechanical properties :
#
#
# Convention : Reuss Voigt Hill
#
# Bulk Modulus (GPa) = 26.83615 43.07070 34.95342
# Shear Modulus (GPa) = 31.71471 39.43193 35.57332
#
# Velocity S-wave (km/s) = 3.26753 3.64345 3.46060
# Velocity P-wave (km/s) = 4.82390 5.67445 5.26637
#
# Compressibility (1/GPa) = 0.03726317
#
# Stress axis : x y z
#
# Youngs Moduli (GPa) = 87.52065 41.50169 131.59267
#
# Poissons Ratio (x) = -0.09426 0.44193
# Poissons Ratio (y) = -0.19878 0.24234
# Poissons Ratio (z) = 0.29392 0.07643
#
# Static dielectric constant tensor:
#      x y z
#    x 5.241140 0.000000 0.313290 
#    y 0.000000 5.145270 0.000000 
#    z 0.313290 0.000000 5.810120 
# 
# 
# High freq. dielectric constant tensor:
#      x y z
#    x 2.216380 0.000000 0.022540 
#    y 0.000000 2.213130 0.000000 
#    z 0.022540 0.000000 2.231050 
# 
# From -- ./inp_files/36043.got.cif
#   From: 2010.03.12/outbox.cif.g09.slc.cpg/sg14_19_cif.got.tgz:36043.got - 2010.03.31 13:35:05.
