data_PCOD8128872
_publ_section_title
;
Structure prediction by ZEFSAII (Michael W. Deem and Ramdas Pophale) SiO2 
 PCOD8128872
Probable space group: P 21/C
;
_chemical_formula_sum "Si O2"
_cell_formula_units_Z 24
_cell_length_a 25.712376
_cell_length_b 7.336021
_cell_length_c 12.416632
_cell_angle_alpha 90.000000
_cell_angle_beta 26.906668
_cell_angle_gamma 90.000000
_cell_volume 1059.893214
_symmetry_space_group_name_H-M "P 21/C"
_symmetry_group_IT_number 14
_symmetry_cell_setting 'monoclinic'
loop_
_space_group_symop_operation_xyz
x,y,z
-x,1/2+y,1/2-z
-x,-y,-z
x,1/2-y,1/2+z
loop_
_atom_site_type_symbol
_atom_site_label
_atom_site_fract_x
_atom_site_fract_y
_atom_site_fract_z
Si Si1 0.777051 0.671768 0.383589
Si Si2 0.396209 0.215265 0.470162
Si Si3 0.624401 0.055015 0.308940
Si Si4 0.881257 0.418304 0.033897
Si Si5 0.369380 0.881231 0.066926
Si Si6 0.048988 0.389351 0.309967
O O1 0.679374 0.781637 0.498877
O O2 0.719018 0.495425 0.546076
O O3 0.830544 0.800891 0.375840
O O4 0.876736 0.596522 0.119880
O O5 0.348619 0.050794 0.629779
O O6 0.382970 0.403003 0.562107
O O7 0.530370 0.190056 0.196655
O O8 0.500000 0.000000 0.500000
O O9 0.627473 0.271901 0.325805
O O10 0.929099 0.475046 0.829170
O O11 0.961524 0.267014 0.936934
O O12 0.752495 0.339424 0.263860
O O13 0.000000 0.500000 0.500000
#
# Coordination Sequence:
#
# PCOD8128872 Si02
#       6
#     4   4   4   4   4   4
#     4  11  24  46  71 103 141 182 232 289 356 421
#     4  11  23  45  67 107 144 185 228 290 345 429
#     4  12  24  43  72 105 142 187 231 284 354 429
#     4  11  27  48  69 103 142 178 241 295 346 425
#     4  11  23  42  70 100 143 183 227 287 350 410
#     4  12  28  47  74 102 134 190 238 296 359 411
#
# _framework density 22.643791
#
# number of rings (size 3 to 8) (size 9 to 14) (size 15 to 20)
#    0.000    0.667    3.333    4.500    7.000    0.667 
#    3.000    0.000    0.000    0.000    0.000    0.000 
#    0.000    0.000    0.000    0.000    0.000    0.000 
#
# Total GULP energy -297681.399469 kJ/mol
# GULP energy per Si atom -12403.391645 kJ/mol
# Density = 2.259225 g / cm^3
# Si number density = 22.643791 Si / 1000 Ang^3
#
#
#
# Elastic Constant Matrix: (Units=GPa)
#
#
# Indices 1 2 3 4 5 6 
#
# 1 99.5506 35.1468 40.4543 0.0000 -6.1278 0.0000
# 2 35.1468 77.9422 23.9259 0.0000 -7.8458 0.0000
# 3 40.4543 23.9259 107.6139 0.0000 2.7552 0.0000
# 4 0.0000 0.0000 0.0000 46.4643 0.0000 7.1375
# 5 -6.1278 -7.8458 2.7552 0.0000 48.5982 0.0000
# 6 0.0000 0.0000 0.0000 7.1375 0.0000 53.3158
#
#
#
# Elastic Compliance Matrix: (Units=1/GPa)
#
#
# Indices 1 2 3 4 5 6 
#
# 1 0.013410 -0.004694 -0.004027 0.000000 0.001161 0.000000
# 2 -0.004694 0.015698 -0.001778 0.000000 0.002043 0.000000
# 3 -0.004027 -0.001778 0.011238 0.000000 -0.001432 0.000000
# 4 0.000000 0.000000 0.000000 0.021974 0.000000 -0.002942
# 5 0.001161 0.002043 -0.001432 0.000000 0.021134 0.000000
# 6 0.000000 0.000000 0.000000 -0.002942 0.000000 0.019150
#
#
# Mechanical properties :
#
#
# Convention : Reuss Voigt Hill
#
# Bulk Modulus (GPa) = 51.68390 53.79562 52.73976
# Shear Modulus (GPa) = 38.44578 42.04767 40.24672
#
# Velocity S-wave (km/s) = 4.12497 4.31387 4.22048
# Velocity P-wave (km/s) = 6.74992 6.97292 6.86233
#
# Compressibility (1/GPa) = 0.01934838
#
# Stress axis : x y z
#
# Youngs Moduli (GPa) = 74.56850 63.70170 88.98060
#
# Poissons Ratio (x) = 0.29902 0.35836
# Poissons Ratio (y) = 0.35003 0.15820
# Poissons Ratio (z) = 0.30032 0.11326
#
# Static dielectric constant tensor:
#      x y z
#    x 6.104350 0.000000 -0.649640 
#    y 0.000000 4.214020 0.000000 
#    z -0.649640 0.000000 4.444330 
# 
# 
# High freq. dielectric constant tensor:
#      x y z
#    x 1.897940 0.000000 -0.000100 
#    y 0.000000 1.891990 0.000000 
#    z -0.000100 0.000000 1.902500 
# 
# From -- ./inp_files/35675.got.cif
#   From: 2010.03.12/outbox.cif.g09.slc.cpg/sg14_18_cif.got.tgz:35675.got - 2010.03.31 13:35:05.
