data_PCOD8128089
_publ_section_title
;
Structure prediction by ZEFSAII (Michael W. Deem and Ramdas Pophale) SiO2 
 PCOD8128089
Probable space group: P 21/C
;
_chemical_formula_sum "Si O2"
_cell_formula_units_Z 20
_cell_length_a 17.859789
_cell_length_b 6.988004
_cell_length_c 10.150180
_cell_angle_alpha 90.000000
_cell_angle_beta 38.730842
_cell_angle_gamma 90.000000
_cell_volume 792.580630
_symmetry_space_group_name_H-M "P 21/C"
_symmetry_group_IT_number 14
_symmetry_cell_setting 'monoclinic'
loop_
_space_group_symop_operation_xyz
x,y,z
-x,1/2+y,1/2-z
-x,-y,-z
x,1/2-y,1/2+z
loop_
_atom_site_type_symbol
_atom_site_label
_atom_site_fract_x
_atom_site_fract_y
_atom_site_fract_z
Si Si1 0.570832 0.076088 0.025006
Si Si2 0.662778 0.715235 0.031730
Si Si3 0.135038 0.346822 0.585869
Si Si4 0.997271 0.227545 0.025555
Si Si5 0.768904 0.131250 0.230504
O O1 0.472832 0.144766 0.265166
O O2 0.658184 0.920019 0.967143
O O3 0.648225 0.254704 0.866962
O O4 0.500000 0.000000 0.000000
O O5 0.737129 0.739005 0.066391
O O6 0.739512 0.570693 0.839175
O O7 0.163483 0.564168 0.497041
O O8 0.066403 0.354582 0.820605
O O9 0.053855 0.227984 0.591613
O O10 0.854719 0.266409 0.203470
O O11 0.000000 0.000000 0.000000
#
# Coordination Sequence:
#
# PCOD8128089 Si02
#       5
#     4   4   4   4   4
#     4  12  29  47  77 117 157 213 269 324 397 472
#     4  12  25  49  79 110 158 210 268 322 396 472
#     4  11  23  46  82 113 153 207 261 324 395 476
#     4  10  23  47  77 115 154 202 262 322 399 474
#     4  11  26  52  77 112 163 206 259 336 391 469
#
# _framework density 25.234026
#
# number of rings (size 3 to 8) (size 9 to 14) (size 15 to 20)
#    0.000    0.800    6.000    1.200    2.800    6.400 
#    7.200    5.000    0.000    0.000    0.000    0.000 
#    0.000    0.000    0.000    0.000    0.000    0.000 
#
# Total GULP energy -247940.250552 kJ/mol
# GULP energy per Si atom -12397.012528 kJ/mol
# Density = 2.517659 g / cm^3
# Si number density = 25.234026 Si / 1000 Ang^3
#
#
#
# Elastic Constant Matrix: (Units=GPa)
#
#
# Indices 1 2 3 4 5 6 
#
# 1 181.4576 49.3151 46.6335 0.0000 -14.0424 0.0000
# 2 49.3151 82.7968 31.0775 0.0000 -6.7894 0.0000
# 3 46.6335 31.0775 122.4587 0.0000 -10.4020 0.0000
# 4 0.0000 0.0000 0.0000 51.7561 0.0000 -7.8086
# 5 -14.0424 -6.7894 -10.4020 0.0000 45.7744 0.0000
# 6 0.0000 0.0000 0.0000 -7.8086 0.0000 38.2631
#
#
#
# Elastic Compliance Matrix: (Units=1/GPa)
#
#
# Indices 1 2 3 4 5 6 
#
# 1 0.006968 -0.003417 -0.001680 0.000000 0.001249 0.000000
# 2 -0.003417 0.015094 -0.002476 0.000000 0.000628 0.000000
# 3 -0.001680 -0.002476 0.009543 0.000000 0.001286 0.000000
# 4 0.000000 0.000000 0.000000 0.019935 0.000000 0.004068
# 5 0.001249 0.000628 0.001286 0.000000 0.022615 0.000000
# 6 0.000000 0.000000 0.000000 0.004068 0.000000 0.026965
#
#
# Mechanical properties :
#
#
# Convention : Reuss Voigt Hill
#
# Bulk Modulus (GPa) = 60.75779 71.19614 65.97697
# Shear Modulus (GPa) = 41.06663 44.47119 42.76891
#
# Velocity S-wave (km/s) = 4.03852 4.20259 4.12137
# Velocity P-wave (km/s) = 6.77320 7.19893 6.98931
#
# Compressibility (1/GPa) = 0.01645879
#
# Stress axis : x y z
#
# Youngs Moduli (GPa) = 143.51126 66.25189 104.78419
#
# Poissons Ratio (x) = 0.22640 0.17606
# Poissons Ratio (y) = 0.49041 0.25943
# Poissons Ratio (z) = 0.24113 0.16403
#
# Static dielectric constant tensor:
#      x y z
#    x 5.138330 0.000000 -0.670750 
#    y 0.000000 4.796060 0.000000 
#    z -0.670750 0.000000 5.309300 
# 
# 
# High freq. dielectric constant tensor:
#      x y z
#    x 2.020560 0.000000 -0.022800 
#    y 0.000000 1.999660 0.000000 
#    z -0.022800 0.000000 2.013120 
# 
# From -- ./inp_files/33465.got.cif
#   From: 2010.03.12/outbox.cif.g09.slc.cpg/sg14_17_cif.got.tgz:33465.got - 2010.03.31 13:35:05.
