data_PCOD8128162
_publ_section_title
;
Structure prediction by ZEFSAII (Michael W. Deem and Ramdas Pophale) SiO2 
 PCOD8128162
Probable space group: P 21/C
;
_chemical_formula_sum "Si O2"
_cell_formula_units_Z 24
_cell_length_a 15.669482
_cell_length_b 16.722415
_cell_length_c 8.825572
_cell_angle_alpha 90.000000
_cell_angle_beta 148.861338
_cell_angle_gamma 90.000000
_cell_volume 1195.859829
_symmetry_space_group_name_H-M "P 21/C"
_symmetry_group_IT_number 14
_symmetry_cell_setting 'monoclinic'
loop_
_space_group_symop_operation_xyz
x,y,z
-x,1/2+y,1/2-z
-x,-y,-z
x,1/2-y,1/2+z
loop_
_atom_site_type_symbol
_atom_site_label
_atom_site_fract_x
_atom_site_fract_y
_atom_site_fract_z
Si Si1 0.060916 0.076878 0.675580
Si Si2 0.456873 0.078206 0.765670
Si Si3 0.164552 0.014266 0.156278
Si Si4 0.705797 0.344697 0.064194
Si Si5 0.759025 0.317661 0.797010
Si Si6 0.383387 0.415121 0.498611
O O1 0.916317 0.141802 0.458395
O O2 0.121640 0.048592 0.929620
O O3 0.210397 0.113079 0.804667
O O4 0.000000 0.000000 0.500000
O O5 0.291292 0.082352 0.412250
O O6 0.559035 0.002326 0.857537
O O7 0.586632 0.151268 0.961356
O O8 0.376873 0.071650 0.809394
O O9 0.247748 0.927185 0.283308
O O10 0.000000 0.000000 0.000000
O O11 0.764588 0.275968 0.267610
O O12 0.780226 0.334020 0.008358
O O13 0.508629 0.345577 0.740958
#
# Coordination Sequence:
#
# PCOD8128162 Si02
#       6
#     4   4   4   4   4   4
#     4  12  23  38  67  99 124 162 222 265 309 376
#     4   9  19  40  66  83 126 163 204 252 314 379
#     4  11  22  41  66  94 123 167 218 259 310 375
#     4  10  24  42  63  89 130 171 205 261 324 375
#     4  11  23  43  62  93 130 166 208 265 326 369
#     4   9  19  39  63  93 118 164 207 252 309 378
#
# _framework density 20.069241999999999
#
# number of rings (size 3 to 8) (size 9 to 14) (size 15 to 20)
#    0.000    1.667    3.333    2.000    2.333    4.000 
#    3.000    1.667    0.000    0.000    0.000    0.000 
#    0.000    0.000    0.000    0.000    0.000    0.000 
#
# Total GULP energy -297374.550457 kJ/mol
# GULP energy per Si atom -12390.606269 kJ/mol
# Density = 2.002356 g / cm^3
# Si number density = 20.069242 Si / 1000 Ang^3
#
#
#
# Elastic Constant Matrix: (Units=GPa)
#
#
# Indices 1 2 3 4 5 6 
#
# 1 85.3555 18.2593 40.7716 0.0000 28.1772 0.0000
# 2 18.2593 77.8655 27.9449 0.0000 -1.1685 0.0000
# 3 40.7716 27.9449 115.5360 0.0000 4.2875 0.0000
# 4 0.0000 0.0000 0.0000 33.9489 0.0000 -5.2671
# 5 28.1772 -1.1685 4.2875 0.0000 41.0248 0.0000
# 6 0.0000 0.0000 0.0000 -5.2671 0.0000 22.9118
#
#
#
# Elastic Compliance Matrix: (Units=1/GPa)
#
#
# Indices 1 2 3 4 5 6 
#
# 1 0.019155 -0.002654 -0.005648 0.000000 -0.012641 0.000000
# 2 -0.002654 0.014455 -0.002653 0.000000 0.002512 0.000000
# 3 -0.005648 -0.002653 0.011192 0.000000 0.002634 0.000000
# 4 0.000000 0.000000 0.000000 0.030545 0.000000 0.007022
# 5 -0.012641 0.002512 0.002634 0.000000 0.032854 0.000000
# 6 0.000000 0.000000 0.000000 0.007022 0.000000 0.045260
#
#
# Mechanical properties :
#
#
# Convention : Reuss Voigt Hill
#
# Bulk Modulus (GPa) = 43.68520 50.30096 46.99308
# Shear Modulus (GPa) = 27.32199 32.36252 29.84226
#
# Velocity S-wave (km/s) = 3.69370 4.02001 3.86030
# Velocity P-wave (km/s) = 6.32501 6.83121 6.58297
#
# Compressibility (1/GPa) = 0.02289105
#
# Stress axis : x y z
#
# Youngs Moduli (GPa) = 52.20653 69.18109 89.34593
#
# Poissons Ratio (x) = 0.18363 0.50466
# Poissons Ratio (y) = 0.13857 0.23701
# Poissons Ratio (z) = 0.29488 0.18352
#
# Static dielectric constant tensor:
#      x y z
#    x 3.807480 0.000000 0.279500 
#    y 0.000000 3.397780 0.000000 
#    z 0.279500 0.000000 3.763560 
# 
# 
# High freq. dielectric constant tensor:
#      x y z
#    x 1.785000 0.000000 0.006170 
#    y 0.000000 1.759390 0.000000 
#    z 0.006170 0.000000 1.797020 
# 
# From -- ./inp_files/16708.got.cif
#   From: 2010.03.12/outbox.cif.g09.slc.cpg/sg14_9_cif.got.tgz:16708.got - 2010.03.31 13:35:05.
