data_PCOD8128059
_publ_section_title
;
Structure prediction by ZEFSAII (Michael W. Deem and Ramdas Pophale) SiO2 
 PCOD8128059
Probable space group: P 21/C
;
_chemical_formula_sum "Si O2"
_cell_formula_units_Z 12
_cell_length_a 5.146752
_cell_length_b 6.994761
_cell_length_c 13.689342
_cell_angle_alpha 90.000000
_cell_angle_beta 60.904016
_cell_angle_gamma 90.000000
_cell_volume 430.629593
_symmetry_space_group_name_H-M "P 21/C"
_symmetry_group_IT_number 14
_symmetry_cell_setting 'monoclinic'
loop_
_space_group_symop_operation_xyz
x,y,z
-x,1/2+y,1/2-z
-x,-y,-z
x,1/2-y,1/2+z
loop_
_atom_site_type_symbol
_atom_site_label
_atom_site_fract_x
_atom_site_fract_y
_atom_site_fract_z
Si Si1 0.813589 0.596893 0.429312
Si Si2 0.832537 0.848721 0.593417
Si Si3 0.185214 0.011128 0.692235
O O1 0.500000 0.500000 0.500000
O O2 0.918039 0.650023 0.521627
O O3 0.764078 0.794560 0.376594
O O4 0.047883 0.462237 0.327138
O O5 0.482443 0.889018 0.653599
O O6 0.000000 0.000000 0.500000
O O7 0.951697 0.868351 0.681740
#
# Coordination Sequence:
#
# PCOD8128059 Si02
#       3
#     4   4   4
#     4  11  24  45  73 104 143 191 237 295 358 425
#     4  10  23  46  69 100 142 185 234 295 354 422
#     4  11  25  45  70 106 143 186 240 292 355 429
#
# _framework density 27.866174999999998
#
# number of rings (size 3 to 8) (size 9 to 14) (size 15 to 20)
#    0.000    1.333    0.000    6.000    0.000   10.667 
#    0.000   21.667    0.000    0.000    0.000    0.000 
#    0.000    0.000    0.000    0.000    0.000    0.000 
#
# Total GULP energy -148722.170052 kJ/mol
# GULP energy per Si atom -12393.514171 kJ/mol
# Density = 2.780275 g / cm^3
# Si number density = 27.866175 Si / 1000 Ang^3
#
#
#
# Elastic Constant Matrix: (Units=GPa)
#
#
# Indices 1 2 3 4 5 6 
#
# 1 149.6447 10.2828 63.7954 0.0000 13.1829 0.0000
# 2 10.2828 130.0918 50.1291 0.0000 5.5523 0.0000
# 3 63.7954 50.1291 219.1863 0.0000 11.6473 0.0000
# 4 0.0000 0.0000 0.0000 58.4292 0.0000 -6.6940
# 5 13.1829 5.5523 11.6473 0.0000 60.8126 0.0000
# 6 0.0000 0.0000 0.0000 -6.6940 0.0000 35.9800
#
#
#
# Elastic Compliance Matrix: (Units=1/GPa)
#
#
# Indices 1 2 3 4 5 6 
#
# 1 0.007734 0.000312 -0.002255 0.000000 -0.001273 0.000000
# 2 0.000312 0.008452 -0.002000 0.000000 -0.000456 0.000000
# 3 -0.002255 -0.002000 0.005698 0.000000 -0.000420 0.000000
# 4 0.000000 0.000000 0.000000 0.017487 0.000000 0.003254
# 5 -0.001273 -0.000456 -0.000420 0.000000 0.016842 0.000000
# 6 0.000000 0.000000 0.000000 0.003254 0.000000 0.028399
#
#
# Mechanical properties :
#
#
# Convention : Reuss Voigt Hill
#
# Bulk Modulus (GPa) = 71.42940 83.03750 77.23345
# Shear Modulus (GPa) = 51.45896 56.02539 53.74217
#
# Velocity S-wave (km/s) = 4.30192 4.48874 4.39633
# Velocity P-wave (km/s) = 7.09676 7.53183 7.31753
#
# Compressibility (1/GPa) = 0.01399984
#
# Stress axis : x y z
#
# Youngs Moduli (GPa) = 129.29090 118.31209 175.49263
#
# Poissons Ratio (x) = -0.03690 0.39571
# Poissons Ratio (y) = -0.04032 0.35091
# Poissons Ratio (z) = 0.29153 0.23658
#
# Static dielectric constant tensor:
#      x y z
#    x 0.645940 0.000000 -1.046640 
#    y 0.000000 9.556140 0.000000 
#    z -1.046640 0.000000 4.741230 
# 
# 
# High freq. dielectric constant tensor:
#      x y z
#    x 2.122650 0.000000 0.029210 
#    y 0.000000 2.173710 0.000000 
#    z 0.029210 0.000000 2.162180 
# 
# From -- ./inp_files/20113.got.cif
#   From: 2010.03.12/outbox.cif.g09.slc.cpg/sg14_11_cif.got.tgz:20113.got - 2010.03.31 13:35:05.
