data_PCOD8128930
_publ_section_title
;
Structure prediction by ZEFSAII (Michael W. Deem and Ramdas Pophale) SiO2 
 PCOD8128930
Probable space group: P 21/C
;
_chemical_formula_sum "Si O2"
_cell_formula_units_Z 20
_cell_length_a 4.802687
_cell_length_b 12.356629
_cell_length_c 11.853312
_cell_angle_alpha 90.000000
_cell_angle_beta 83.689738
_cell_angle_gamma 90.000000
_cell_volume 699.173143
_symmetry_space_group_name_H-M "P 21/C"
_symmetry_group_IT_number 14
_symmetry_cell_setting 'monoclinic'
loop_
_space_group_symop_operation_xyz
x,y,z
-x,1/2+y,1/2-z
-x,-y,-z
x,1/2-y,1/2+z
loop_
_atom_site_type_symbol
_atom_site_label
_atom_site_fract_x
_atom_site_fract_y
_atom_site_fract_z
Si Si1 0.100460 0.664344 0.538411
Si Si2 0.049825 0.842274 0.290887
Si Si3 0.021912 0.595966 0.306255
Si Si4 0.625240 0.809723 0.493023
Si Si5 0.452112 0.481189 0.824310
O O1 0.075375 0.606004 0.662117
O O2 0.009611 0.581592 0.442684
O O3 0.408503 0.710777 0.498377
O O4 0.893959 0.766863 0.549729
O O5 0.141557 0.717203 0.277405
O O6 0.741689 0.848319 0.363898
O O7 0.287425 0.904933 0.354907
O O8 0.231215 0.507883 0.239129
O O9 0.717979 0.585387 0.263509
O O10 0.517271 0.916124 0.560567
#
# Coordination Sequence:
#
# PCOD8128930 Si02
#       5
#     4   4   4   4   4
#     4  11  24  43  71  94 143 181 219 276 344 400
#     4  11  25  44  73  98 137 187 221 278 349 389
#     4  11  25  45  64 103 139 174 227 283 327 409
#     4  11  23  44  68 103 135 175 231 281 329 404
#     4  12  24  44  71 102 137 174 231 277 339 403
#
# _framework density 28.605217
#
# number of rings (size 3 to 8) (size 9 to 14) (size 15 to 20)
#    0.000    0.800    4.000    3.000    0.000    8.000 
#    0.000    7.000    0.000    0.000    0.000    0.000 
#    0.000    0.000    0.000    0.000    0.000    0.000 
#
# Total GULP energy -248070.080289 kJ/mol
# GULP energy per Si atom -12403.504014 kJ/mol
# Density = 2.854011 g / cm^3
# Si number density = 28.605217 Si / 1000 Ang^3
#
#
#
# Elastic Constant Matrix: (Units=GPa)
#
#
# Indices 1 2 3 4 5 6 
#
# 1 122.3002 -7.2295 45.8045 0.0000 -18.7347 0.0000
# 2 -7.2295 49.1263 23.2861 0.0000 -11.9386 0.0000
# 3 45.8045 23.2861 167.6139 0.0000 -31.0952 0.0000
# 4 0.0000 0.0000 0.0000 77.2885 0.0000 3.8815
# 5 -18.7347 -11.9386 -31.0952 0.0000 43.4920 0.0000
# 6 0.0000 0.0000 0.0000 3.8815 0.0000 28.9491
#
#
#
# Elastic Compliance Matrix: (Units=1/GPa)
#
#
# Indices 1 2 3 4 5 6 
#
# 1 0.009855 0.003480 -0.002550 0.000000 0.003377 0.000000
# 2 0.003480 0.023775 -0.003188 0.000000 0.005746 0.000000
# 3 -0.002550 -0.003188 0.007770 0.000000 0.003582 0.000000
# 4 0.000000 0.000000 0.000000 0.013026 0.000000 -0.001747
# 5 0.003377 0.005746 0.003582 0.000000 0.028586 0.000000
# 6 0.000000 0.000000 0.000000 -0.001747 0.000000 0.034778
#
#
# Mechanical properties :
#
#
# Convention : Reuss Voigt Hill
#
# Bulk Modulus (GPa) = 27.11227 51.41805 39.26516
# Shear Modulus (GPa) = 37.14688 48.42455 42.78572
#
# Velocity S-wave (km/s) = 3.60753 4.11890 3.87166
# Velocity P-wave (km/s) = 5.18179 6.37452 5.80885
#
# Compressibility (1/GPa) = 0.03688367
#
# Stress axis : x y z
#
# Youngs Moduli (GPa) = 101.47527 42.06060 128.69471
#
# Poissons Ratio (x) = -0.14635 0.32816
# Poissons Ratio (y) = -0.35309 0.41027
# Poissons Ratio (z) = 0.25875 0.13409
#
# Static dielectric constant tensor:
#      x y z
#    x 5.012870 0.000000 0.073650 
#    y 0.000000 5.284110 0.000000 
#    z 0.073650 0.000000 5.383650 
# 
# 
# High freq. dielectric constant tensor:
#      x y z
#    x 2.168450 0.000000 0.005740 
#    y 0.000000 2.189730 0.000000 
#    z 0.005740 0.000000 2.174760 
# 
# From -- ./inp_files/20627.got.cif
#   From: 2010.03.12/outbox.cif.g09.slc.cpg/sg14_11_cif.got.tgz:20627.got - 2010.03.31 13:35:05.
