data_PCOD8128630
_publ_section_title
;
Structure prediction by ZEFSAII (Michael W. Deem and Ramdas Pophale) SiO2 
 PCOD8128630
Probable space group: P 21/C
;
_chemical_formula_sum "Si O2"
_cell_formula_units_Z 32
_cell_length_a 11.026663
_cell_length_b 9.478122
_cell_length_c 14.570733
_cell_angle_alpha 90.000000
_cell_angle_beta 73.737780
_cell_angle_gamma 90.000000
_cell_volume 1461.889591
_symmetry_space_group_name_H-M "P 21/C"
_symmetry_group_IT_number 14
_symmetry_cell_setting 'monoclinic'
loop_
_space_group_symop_operation_xyz
x,y,z
-x,1/2+y,1/2-z
-x,-y,-z
x,1/2-y,1/2+z
loop_
_atom_site_type_symbol
_atom_site_label
_atom_site_fract_x
_atom_site_fract_y
_atom_site_fract_z
Si Si1 0.494738 0.186930 0.101758
Si Si2 0.735200 0.341115 0.089079
Si Si3 0.833220 0.403002 0.699349
Si Si4 0.101972 0.527802 0.609171
Si Si5 0.301816 0.193778 0.784815
Si Si6 0.098168 0.655423 0.114228
Si Si7 0.842178 0.955823 0.704856
Si Si8 0.653994 0.589209 0.536329
O O1 0.599578 0.309285 0.072903
O O2 0.418143 0.233863 0.207454
O O3 0.559598 0.032998 0.092259
O O4 0.401049 0.182020 0.035101
O O5 0.781694 0.203082 0.133866
O O6 0.740495 0.468856 0.160617
O O7 0.813460 0.396539 0.985961
O O8 0.737293 0.534019 0.730531
O O9 0.835895 0.335893 0.800021
O O10 0.975191 0.435621 0.634646
O O11 0.058981 0.685884 0.594979
O O12 0.171391 0.524267 0.692629
O O13 0.206715 0.474248 0.514268
O O14 0.181912 0.289012 0.785467
O O15 0.334262 0.202535 0.885284
O O16 0.986809 0.538215 0.139367
#
# Coordination Sequence:
#
# PCOD8128630 Si02
#       8
#     4   4   4   4   4   4   4   4
#     4  11  26  44  69  98 137 184 238 276 338 415
#     4  12  25  44  69 102 137 191 225 285 354 415
#     4  11  25  42  71 105 138 177 233 286 349 415
#     4  11  21  44  74 100 140 182 225 288 350 414
#     4  12  25  44  68 103 135 179 232 283 340 415
#     4  11  23  42  68 102 139 174 230 288 344 414
#     4  11  25  42  68 103 143 177 224 290 354 405
#     4  11  25  46  72 101 135 191 231 281 344 433
#
# _framework density 21.889478
#
# number of rings (size 3 to 8) (size 9 to 14) (size 15 to 20)
#    0.000    0.750    6.250    0.375    3.500    3.000 
#    0.000    1.250    0.000    0.000    0.000    0.000 
#    0.000    0.000    0.000    0.000    0.000    0.000 
#
# Total GULP energy -396621.367608 kJ/mol
# GULP energy per Si atom -12394.417738 kJ/mol
# Density = 2.183966 g / cm^3
# Si number density = 21.889478 Si / 1000 Ang^3
#
#
#
# Elastic Constant Matrix: (Units=GPa)
#
#
# Indices 1 2 3 4 5 6 
#
# 1 67.6556 17.0149 26.3646 0.0000 -4.9024 0.0000
# 2 17.0149 67.5108 22.9636 0.0000 -8.5677 0.0000
# 3 26.3646 22.9636 114.5200 0.0000 -19.9783 0.0000
# 4 0.0000 0.0000 0.0000 38.5368 0.0000 7.4165
# 5 -4.9024 -8.5677 -19.9783 0.0000 28.9955 0.0000
# 6 0.0000 0.0000 0.0000 7.4165 0.0000 28.1811
#
#
#
# Elastic Compliance Matrix: (Units=1/GPa)
#
#
# Indices 1 2 3 4 5 6 
#
# 1 0.016839 -0.003166 -0.003306 0.000000 -0.000366 0.000000
# 2 -0.003166 0.016701 -0.002106 0.000000 0.002949 0.000000
# 3 -0.003306 -0.002106 0.011036 0.000000 0.006423 0.000000
# 4 0.000000 0.000000 0.000000 0.027334 0.000000 -0.007194
# 5 -0.000366 0.002949 0.006423 0.000000 0.039723 0.000000
# 6 0.000000 0.000000 0.000000 -0.007194 0.000000 0.037378
#
#
# Mechanical properties :
#
#
# Convention : Reuss Voigt Hill
#
# Bulk Modulus (GPa) = 36.46845 42.48584 39.47715
# Shear Modulus (GPa) = 28.52188 31.36557 29.94372
#
# Velocity S-wave (km/s) = 3.61362 3.78948 3.70259
# Velocity P-wave (km/s) = 5.84016 6.21275 6.02933
#
# Compressibility (1/GPa) = 0.02742096
#
# Stress axis : x y z
#
# Youngs Moduli (GPa) = 59.38748 59.87746 90.61436
#
# Poissons Ratio (x) = 0.18957 0.29953
# Poissons Ratio (y) = 0.18802 0.19080
# Poissons Ratio (z) = 0.19631 0.12608
#
# Static dielectric constant tensor:
#      x y z
#    x 4.083720 0.000000 0.062150 
#    y 0.000000 3.798550 0.000000 
#    z 0.062150 0.000000 4.089500 
# 
# 
# High freq. dielectric constant tensor:
#      x y z
#    x 1.862330 0.000000 0.005060 
#    y 0.000000 1.852280 0.000000 
#    z 0.005060 0.000000 1.871410 
# 
# From -- ./inp_files/43702.got.cif
#   From: 2010.03.12/outbox.cif.g09.slc.cpg/sg14_22_cif.got.tgz:43702.got - 2010.03.31 13:35:05.
