data_PCOD8128336
_publ_section_title
;
Structure prediction by ZEFSAII (Michael W. Deem and Ramdas Pophale) SiO2 
 PCOD8128336
Probable space group: P 21/C
;
_chemical_formula_sum "Si O2"
_cell_formula_units_Z 28
_cell_length_a 13.977522
_cell_length_b 7.618717
_cell_length_c 22.514505
_cell_angle_alpha 90.000000
_cell_angle_beta 148.867871
_cell_angle_gamma 90.000000
_cell_volume 1239.584774
_symmetry_space_group_name_H-M "P 21/C"
_symmetry_group_IT_number 14
_symmetry_cell_setting 'monoclinic'
loop_
_space_group_symop_operation_xyz
x,y,z
-x,1/2+y,1/2-z
-x,-y,-z
x,1/2-y,1/2+z
loop_
_atom_site_type_symbol
_atom_site_label
_atom_site_fract_x
_atom_site_fract_y
_atom_site_fract_z
Si Si1 0.432322 0.243756 0.435504
Si Si2 0.905064 0.920268 0.066622
Si Si3 0.953789 0.892375 0.754451
Si Si4 0.152809 0.625837 0.144517
Si Si5 0.513365 0.903280 0.911266
Si Si6 0.226312 0.605151 0.931721
Si Si7 0.097006 0.696968 0.985052
O O1 0.219177 0.206083 0.306971
O O2 0.455624 0.270709 0.518057
O O3 0.494655 0.403705 0.427627
O O4 0.568309 0.084557 0.486914
O O5 0.986083 0.753707 0.075488
O O6 0.684812 0.894527 0.956768
O O7 0.000656 0.933451 0.182602
O O8 0.949761 0.100354 0.054060
O O9 0.138817 0.779068 0.855202
O O10 0.902008 0.943937 0.659147
O O11 0.332180 0.656293 0.279554
O O12 0.203947 0.677574 0.103991
O O13 0.089108 0.422117 0.113221
O O14 0.230278 0.616887 0.004623
#
# Coordination Sequence:
#
# PCOD8128336 Si02
#       7
#     4   4   4   4   4   4   4
#     4  11  23  40  65  98 139 166 220 276 341 396
#     4  11  23  47  69  99 136 174 226 272 341 397
#     4  11  23  38  65  99 129 180 206 280 338 400
#     4  11  25  46  71  96 135 181 227 277 331 395
#     4  11  23  42  67 103 133 174 221 280 332 401
#     4  11  23  40  64  96 135 168 223 267 340 399
#     4  10  24  47  67  97 135 181 225 276 331 393
#
# _framework density 22.588207000000001
#
# number of rings (size 3 to 8) (size 9 to 14) (size 15 to 20)
#    0.000    1.143    2.857    4.286    8.000    0.000 
#    5.143    0.000    0.000    0.000    0.000    0.000 
#    0.000    0.000    0.000    0.000    0.000    0.000 
#
# Total GULP energy -347186.017840 kJ/mol
# GULP energy per Si atom -12399.500637 kJ/mol
# Density = 2.253680 g / cm^3
# Si number density = 22.588207 Si / 1000 Ang^3
#
#
#
# Elastic Constant Matrix: (Units=GPa)
#
#
# Indices 1 2 3 4 5 6 
#
# 1 114.1500 35.5924 42.2764 0.0000 -1.7703 0.0000
# 2 35.5924 71.7123 29.1157 0.0000 7.1386 0.0000
# 3 42.2764 29.1157 97.3385 0.0000 4.3520 0.0000
# 4 0.0000 0.0000 0.0000 32.0617 0.0000 1.2145
# 5 -1.7703 7.1386 4.3520 0.0000 34.0003 0.0000
# 6 0.0000 0.0000 0.0000 1.2145 0.0000 32.8876
#
#
#
# Elastic Compliance Matrix: (Units=1/GPa)
#
#
# Indices 1 2 3 4 5 6 
#
# 1 0.011571 -0.004401 -0.003799 0.000000 0.002013 0.000000
# 2 -0.004401 0.017804 -0.003255 0.000000 -0.003550 0.000000
# 3 -0.003799 -0.003255 0.012950 0.000000 -0.001172 0.000000
# 4 0.000000 0.000000 0.000000 0.031234 0.000000 -0.001153
# 5 0.002013 -0.003550 -0.001172 0.000000 0.030412 0.000000
# 6 0.000000 0.000000 0.000000 -0.001153 0.000000 0.030449
#
#
# Mechanical properties :
#
#
# Convention : Reuss Voigt Hill
#
# Bulk Modulus (GPa) = 51.50958 55.24109 53.37534
# Shear Modulus (GPa) = 30.52490 31.53767 31.03128
#
# Velocity S-wave (km/s) = 3.68008 3.74063 3.71048
# Velocity P-wave (km/s) = 6.39614 6.57003 6.48366
#
# Compressibility (1/GPa) = 0.01941386
#
# Stress axis : x y z
#
# Youngs Moduli (GPa) = 86.42428 56.16740 77.22237
#
# Poissons Ratio (x) = 0.24718 0.29338
# Poissons Ratio (y) = 0.38033 0.25139
# Poissons Ratio (z) = 0.32834 0.18285
#
# Static dielectric constant tensor:
#      x y z
#    x 4.127570 0.000000 -0.111900 
#    y 0.000000 4.134110 0.000000 
#    z -0.111900 0.000000 3.971870 
# 
# 
# High freq. dielectric constant tensor:
#      x y z
#    x 1.888650 0.000000 0.000700 
#    y 0.000000 1.901350 0.000000 
#    z 0.000700 0.000000 1.879400 
# 
# From -- ./inp_files/73654.got.cif
#   From: 2010.03.12/outbox.cif.g09.slc.cpg/sg14_37_cif.got.tgz:73654.got - 2010.03.31 13:35:05.
