data_PCOD8128786
_publ_section_title
;
Structure prediction by ZEFSAII (Michael W. Deem and Ramdas Pophale) SiO2 
 PCOD8128786
Probable space group: P 21/C
;
_chemical_formula_sum "Si O2"
_cell_formula_units_Z 28
_cell_length_a 9.437106
_cell_length_b 11.140892
_cell_length_c 13.347548
_cell_angle_alpha 90.000000
_cell_angle_beta 63.038202
_cell_angle_gamma 90.000000
_cell_volume 1250.802074
_symmetry_space_group_name_H-M "P 21/C"
_symmetry_group_IT_number 14
_symmetry_cell_setting 'monoclinic'
loop_
_space_group_symop_operation_xyz
x,y,z
-x,1/2+y,1/2-z
-x,-y,-z
x,1/2-y,1/2+z
loop_
_atom_site_type_symbol
_atom_site_label
_atom_site_fract_x
_atom_site_fract_y
_atom_site_fract_z
Si Si1 0.613095 0.321255 0.045380
Si Si2 0.130819 0.620010 0.738525
Si Si3 0.063445 0.940076 0.578996
Si Si4 0.196232 0.668795 0.355485
Si Si5 0.353688 0.425830 0.274418
Si Si6 0.533513 0.109898 0.916946
Si Si7 0.018834 0.175366 0.907082
O O1 0.701884 0.247685 0.101749
O O2 0.466756 0.389527 0.145764
O O3 0.745278 0.420495 0.968351
O O4 0.550537 0.236098 0.973691
O O5 0.119693 0.751791 0.792022
O O6 0.309837 0.573924 0.697198
O O7 0.996068 0.525839 0.813173
O O8 0.119356 0.634316 0.623633
O O9 0.968149 0.817390 0.604599
O O10 0.000000 0.000000 0.500000
O O11 0.318256 0.568117 0.278059
O O12 0.039213 0.622792 0.466494
O O13 0.404657 0.381718 0.369425
O O14 0.185155 0.366267 0.312046
O O15 0.500000 0.000000 0.000000
#
# Coordination Sequence:
#
# PCOD8128786 Si02
#       7
#     4   4   4   4   4   4   4
#     4  11  24  45  69 111 141 186 242 297 359 429
#     4  12  24  46  76  95 144 197 228 300 358 419
#     4  11  22  46  73  97 140 189 241 287 352 423
#     4  11  23  48  70 101 147 184 241 294 354 427
#     4  12  26  44  74 106 147 186 233 302 362 425
#     4  12  24  45  72 103 147 190 235 296 362 434
#     4  11  26  44  70 109 136 188 247 286 360 429
#
# _framework density 22.385636000000002
#
# number of rings (size 3 to 8) (size 9 to 14) (size 15 to 20)
#    0.000    0.571    8.571    0.429    4.000    2.286 
#    0.000    1.429    0.000    0.000    0.000    0.000 
#    0.000    0.000    0.000    0.000    0.000    0.000 
#
# Total GULP energy -346904.929626 kJ/mol
# GULP energy per Si atom -12389.461772 kJ/mol
# Density = 2.233469 g / cm^3
# Si number density = 22.385636 Si / 1000 Ang^3
#
#
#
# Elastic Constant Matrix: (Units=GPa)
#
#
# Indices 1 2 3 4 5 6 
#
# 1 49.9123 12.6080 11.4553 0.0000 -6.1651 0.0000
# 2 12.6080 81.4089 42.1934 0.0000 -13.1527 0.0000
# 3 11.4553 42.1934 116.0067 0.0000 -22.3277 0.0000
# 4 0.0000 0.0000 0.0000 34.1416 0.0000 -8.9404
# 5 -6.1651 -13.1527 -22.3277 0.0000 40.5003 0.0000
# 6 0.0000 0.0000 0.0000 -8.9404 0.0000 37.9177
#
#
#
# Elastic Compliance Matrix: (Units=1/GPa)
#
#
# Indices 1 2 3 4 5 6 
#
# 1 0.021099 -0.002547 -0.000781 0.000000 0.001954 0.000000
# 2 -0.002547 0.015607 -0.005061 0.000000 0.001890 0.000000
# 3 -0.000781 -0.005061 0.011409 0.000000 0.004528 0.000000
# 4 0.000000 0.000000 0.000000 0.031217 0.000000 0.007361
# 5 0.001954 0.001890 0.004528 0.000000 0.028099 0.000000
# 6 0.000000 0.000000 0.000000 0.007361 0.000000 0.028108
#
#
# Mechanical properties :
#
#
# Convention : Reuss Voigt Hill
#
# Bulk Modulus (GPa) = 31.91113 42.20458 37.05786
# Shear Modulus (GPa) = 30.71942 34.58334 32.65138
#
# Velocity S-wave (km/s) = 3.70845 3.93477 3.82329
# Velocity P-wave (km/s) = 5.71165 6.28789 6.00669
#
# Compressibility (1/GPa) = 0.03133703
#
# Stress axis : x y z
#
# Youngs Moduli (GPa) = 47.39521 64.07526 87.64647
#
# Poissons Ratio (x) = 0.16322 0.06844
# Poissons Ratio (y) = 0.12073 0.44358
# Poissons Ratio (z) = 0.03701 0.32428
#
# Static dielectric constant tensor:
#      x y z
#    x 4.202750 0.000000 -0.556340 
#    y 0.000000 4.117420 0.000000 
#    z -0.556340 0.000000 6.288170 
# 
# 
# High freq. dielectric constant tensor:
#      x y z
#    x 1.883170 0.000000 0.001050 
#    y 0.000000 1.881890 0.000000 
#    z 0.001050 0.000000 1.897580 
# 
# From -- ./inp_files/40213.got.cif
#   From: 2010.03.12/outbox.cif.g09.slc.cpg/sg14_21_cif.got.tgz:40213.got - 2010.03.31 13:35:05.
