data_PCOD8128414
_publ_section_title
;
Structure prediction by ZEFSAII (Michael W. Deem and Ramdas Pophale) SiO2 
 PCOD8128414
Probable space group: P 21/C
;
_chemical_formula_sum "Si O2"
_cell_formula_units_Z 28
_cell_length_a 14.435191
_cell_length_b 12.699762
_cell_length_c 8.774806
_cell_angle_alpha 90.000000
_cell_angle_beta 132.077978
_cell_angle_gamma 90.000000
_cell_volume 1193.977586
_symmetry_space_group_name_H-M "P 21/C"
_symmetry_group_IT_number 14
_symmetry_cell_setting 'monoclinic'
loop_
_space_group_symop_operation_xyz
x,y,z
-x,1/2+y,1/2-z
-x,-y,-z
x,1/2-y,1/2+z
loop_
_atom_site_type_symbol
_atom_site_label
_atom_site_fract_x
_atom_site_fract_y
_atom_site_fract_z
Si Si1 0.506795 0.890913 0.249627
Si Si2 0.161789 0.289886 0.226477
Si Si3 0.400567 0.396540 0.615885
Si Si4 0.283095 0.425678 0.807751
Si Si5 0.011577 0.738894 0.211599
Si Si6 0.178157 0.658414 0.649657
Si Si7 0.573383 0.233818 0.116139
O O1 0.643467 0.931904 0.448621
O O2 0.457333 0.850837 0.358825
O O3 0.416417 0.981622 0.086526
O O4 0.507958 0.800592 0.121392
O O5 0.293637 0.347815 0.390275
O O6 0.179190 0.164100 0.217528
O O7 0.077133 0.310577 0.280528
O O8 0.081303 0.332998 0.994625
O O9 0.370447 0.388267 0.761656
O O10 0.532383 0.340923 0.714150
O O11 0.227501 0.539981 0.714848
O O12 0.100770 0.663229 0.407421
O O13 0.091266 0.819290 0.197890
O O14 0.279875 0.754931 0.759770
#
# Coordination Sequence:
#
# PCOD8128414 Si02
#       7
#     4   4   4   4   4   4   4
#     4  12  27  44  72 114 151 189 236 293 378 446
#     4  11  24  49  75 103 149 187 249 305 357 435
#     4  12  26  47  73 116 143 194 238 301 374 440
#     4  12  26  45  78 105 149 196 244 298 372 443
#     4  10  25  48  74 101 145 195 248 300 361 423
#     4  11  26  49  75 107 143 200 245 304 364 432
#     4  12  26  47  74 107 158 184 237 303 369 443
#
# _framework density 23.451027
#
# number of rings (size 3 to 8) (size 9 to 14) (size 15 to 20)
#    0.000    0.571    4.286    2.571    6.000    2.286 
#    0.000    2.143    0.000    0.000    0.000    0.000 
#    0.000    0.000    0.000    0.000    0.000    0.000 
#
# Total GULP energy -346928.926431 kJ/mol
# GULP energy per Si atom -12390.318801 kJ/mol
# Density = 2.339765 g / cm^3
# Si number density = 23.451027 Si / 1000 Ang^3
#
#
#
# Elastic Constant Matrix: (Units=GPa)
#
#
# Indices 1 2 3 4 5 6 
#
# 1 125.0899 51.0165 54.0870 0.0000 -4.2458 0.0000
# 2 51.0165 130.7183 77.1009 0.0000 9.4545 0.0000
# 3 54.0870 77.1009 163.5387 0.0000 -4.4934 0.0000
# 4 0.0000 0.0000 0.0000 35.6275 0.0000 -1.1943
# 5 -4.2458 9.4545 -4.4934 0.0000 32.5352 0.0000
# 6 0.0000 0.0000 0.0000 -1.1943 0.0000 30.6805
#
#
#
# Elastic Compliance Matrix: (Units=1/GPa)
#
#
# Indices 1 2 3 4 5 6 
#
# 1 0.010082 -0.002961 -0.001886 0.000000 0.001916 0.000000
# 2 -0.002961 0.011952 -0.004779 0.000000 -0.004520 0.000000
# 3 -0.001886 -0.004779 0.009058 0.000000 0.002394 0.000000
# 4 0.000000 0.000000 0.000000 0.028105 0.000000 0.001094
# 5 0.001916 -0.004520 0.002394 0.000000 0.032630 0.000000
# 6 0.000000 0.000000 0.000000 0.001094 0.000000 0.032637
#
#
# Mechanical properties :
#
#
# Convention : Reuss Voigt Hill
#
# Bulk Modulus (GPa) = 84.46965 87.08395 85.77680
# Shear Modulus (GPa) = 33.86110 35.57817 34.71963
#
# Velocity S-wave (km/s) = 3.80400 3.89926 3.85192
# Velocity P-wave (km/s) = 7.44256 7.58204 7.51262
#
# Compressibility (1/GPa) = 0.01183857
#
# Stress axis : x y z
#
# Youngs Moduli (GPa) = 99.18310 83.67033 110.40530
#
# Poissons Ratio (x) = 0.24776 0.20821
# Poissons Ratio (y) = 0.29370 0.52768
# Poissons Ratio (z) = 0.18704 0.39990
#
# Static dielectric constant tensor:
#      x y z
#    x 4.426630 0.000000 -0.000590 
#    y 0.000000 3.979870 0.000000 
#    z -0.000590 0.000000 4.442280 
# 
# 
# High freq. dielectric constant tensor:
#      x y z
#    x 1.940180 0.000000 -0.008030 
#    y 0.000000 1.905460 0.000000 
#    z -0.008030 0.000000 1.940180 
# 
# From -- ./inp_files/16281.got.cif
#   From: 2010.03.12/outbox.cif.g09.slc.cpg/sg14_9_cif.got.tgz:16281.got - 2010.03.31 13:35:05.
