data_PCOD8128467
_publ_section_title
;
Structure prediction by ZEFSAII (Michael W. Deem and Ramdas Pophale) SiO2 
 PCOD8128467
Probable space group: P 21/C
;
_chemical_formula_sum "Si O2"
_cell_formula_units_Z 32
_cell_length_a 14.902919
_cell_length_b 16.738466
_cell_length_c 12.783870
_cell_angle_alpha 90.000000
_cell_angle_beta 150.872949
_cell_angle_gamma 90.000000
_cell_volume 1552.220416
_symmetry_space_group_name_H-M "P 21/C"
_symmetry_group_IT_number 14
_symmetry_cell_setting 'monoclinic'
loop_
_space_group_symop_operation_xyz
x,y,z
-x,1/2+y,1/2-z
-x,-y,-z
x,1/2-y,1/2+z
loop_
_atom_site_type_symbol
_atom_site_label
_atom_site_fract_x
_atom_site_fract_y
_atom_site_fract_z
Si Si1 0.713969 0.581726 0.185967
Si Si2 0.183989 0.716113 0.691916
Si Si3 0.127404 0.472048 0.432747
Si Si4 0.278656 0.571687 0.921889
Si Si5 0.378422 0.146084 0.116920
Si Si6 0.985873 0.361955 0.659707
Si Si7 0.155717 0.270828 0.017962
Si Si8 0.433760 0.241342 0.964193
O O1 0.760535 0.553167 0.349520
O O2 0.625168 0.508138 0.028999
O O3 0.593201 0.662307 0.058598
O O4 0.907507 0.599412 0.328702
O O5 0.238198 0.627478 0.782044
O O6 0.120637 0.711616 0.504702
O O7 0.037408 0.750010 0.624616
O O8 0.361514 0.774281 0.872236
O O9 0.240492 0.428706 0.453348
O O10 0.144238 0.567361 0.429099
O O11 0.912027 0.446632 0.211494
O O12 0.420737 0.615651 0.143522
O O13 0.266939 0.193266 0.093630
O O14 0.407052 0.204894 0.050503
O O15 0.120301 0.331831 0.888013
O O16 0.289559 0.306278 0.243601
#
# Coordination Sequence:
#
# PCOD8128467 Si02
#       8
#     4   4   4   4   4   4   4   4
#     4  11  19  40  66  95 129 158 206 275 323 375
#     4  12  22  38  61  98 128 164 210 264 315 385
#     4  11  21  41  66  97 130 157 214 275 322 376
#     4  11  21  35  64  95 127 155 204 266 325 371
#     4  12  24  40  63  94 130 172 210 262 323 385
#     4  11  22  39  68  96 127 169 209 269 329 374
#     4  12  23  42  61  93 132 170 213 258 320 387
#     4  12  26  40  63  93 132 173 210 261 321 383
#
# _framework density 20.615628999999998
#
# number of rings (size 3 to 8) (size 9 to 14) (size 15 to 20)
#    0.000    0.500    8.750    0.750    3.500    2.000 
#    0.000    0.625    0.000    3.750    0.000    0.000 
#    0.000    0.000    0.000    0.000    0.000    0.000 
#
# Total GULP energy -396543.646783 kJ/mol
# GULP energy per Si atom -12391.988962 kJ/mol
# Density = 2.056871 g / cm^3
# Si number density = 20.615629 Si / 1000 Ang^3
#
#
#
# Elastic Constant Matrix: (Units=GPa)
#
#
# Indices 1 2 3 4 5 6 
#
# 1 54.3083 16.4792 28.5490 0.0000 0.4347 0.0000
# 2 16.4792 60.3938 38.6529 0.0000 -11.1494 0.0000
# 3 28.5490 38.6529 108.1926 0.0000 -13.5389 0.0000
# 4 0.0000 0.0000 0.0000 35.1005 0.0000 -3.9041
# 5 0.4347 -11.1494 -13.5389 0.0000 20.9233 0.0000
# 6 0.0000 0.0000 0.0000 -3.9041 0.0000 19.5094
#
#
#
# Elastic Compliance Matrix: (Units=1/GPa)
#
#
# Indices 1 2 3 4 5 6 
#
# 1 0.022399 -0.003822 -0.005286 0.000000 -0.005923 0.000000
# 2 -0.003822 0.023118 -0.006201 0.000000 0.008386 0.000000
# 3 -0.005286 -0.006201 0.013551 0.000000 0.005574 0.000000
# 4 0.000000 0.000000 0.000000 0.029138 0.000000 0.005831
# 5 -0.005923 0.008386 0.005574 0.000000 0.055992 0.000000
# 6 0.000000 0.000000 0.000000 0.005831 0.000000 0.052424
#
#
# Mechanical properties :
#
#
# Convention : Reuss Voigt Hill
#
# Bulk Modulus (GPa) = 35.15087 43.36189 39.25638
# Shear Modulus (GPa) = 21.12167 24.38754 22.75461
#
# Velocity S-wave (km/s) = 3.20433 3.44316 3.32589
# Velocity P-wave (km/s) = 5.54778 6.07341 5.81653
#
# Compressibility (1/GPa) = 0.02844880
#
# Stress axis : x y z
#
# Youngs Moduli (GPa) = 44.64392 43.25671 73.79760
#
# Poissons Ratio (x) = 0.16533 0.39011
# Poissons Ratio (y) = 0.17063 0.45763
# Poissons Ratio (z) = 0.23600 0.26824
#
# Static dielectric constant tensor:
#      x y z
#    x 3.645800 0.000000 0.250180 
#    y 0.000000 3.812490 0.000000 
#    z 0.250180 0.000000 3.832400 
# 
# 
# High freq. dielectric constant tensor:
#      x y z
#    x 1.793720 0.000000 0.019980 
#    y 0.000000 1.788220 0.000000 
#    z 0.019980 0.000000 1.810240 
# 
# From -- ./inp_files/33061.got.cif
#   From: 2010.03.12/outbox.cif.g09.slc.cpg/sg14_17_cif.got.tgz:33061.got - 2010.03.31 13:35:05.
