data_PCOD8128233
_publ_section_title
;
Structure prediction by ZEFSAII (Michael W. Deem and Ramdas Pophale) SiO2 
 PCOD8128233
Probable space group: P 21/C
;
_chemical_formula_sum "Si O2"
_cell_formula_units_Z 28
_cell_length_a 20.600186
_cell_length_b 10.257971
_cell_length_c 8.159271
_cell_angle_alpha 90.000000
_cell_angle_beta 42.608454
_cell_angle_gamma 90.000000
_cell_volume 1167.246926
_symmetry_space_group_name_H-M "P 21/C"
_symmetry_group_IT_number 14
_symmetry_cell_setting 'monoclinic'
loop_
_space_group_symop_operation_xyz
x,y,z
-x,1/2+y,1/2-z
-x,-y,-z
x,1/2-y,1/2+z
loop_
_atom_site_type_symbol
_atom_site_label
_atom_site_fract_x
_atom_site_fract_y
_atom_site_fract_z
Si Si1 0.835308 0.338381 0.863506
Si Si2 0.806811 0.660593 0.472360
Si Si3 0.609443 0.648867 0.015986
Si Si4 0.368477 0.613448 0.890308
Si Si5 0.915016 0.412466 0.391034
Si Si6 0.132987 0.086207 0.486904
Si Si7 0.483790 0.804228 0.470374
O O1 0.916275 0.377997 0.581502
O O2 0.861651 0.199111 0.887971
O O3 0.828657 0.448881 0.015482
O O4 0.735015 0.325338 0.953556
O O5 0.701318 0.684178 0.738385
O O6 0.859444 0.547810 0.475262
O O7 0.862126 0.798148 0.388728
O O8 0.802234 0.624393 0.289573
O O9 0.523755 0.606335 0.046499
O O10 0.632806 0.543009 0.113434
O O11 0.572375 0.774390 0.184209
O O12 0.445482 0.668988 0.620517
O O13 0.395213 0.637224 0.032871
O O14 0.023711 0.430418 0.128985
#
# Coordination Sequence:
#
# PCOD8128233 Si02
#       7
#     4   4   4   4   4   4   4
#     4  12  25  44  72 101 140 177 230 289 337 412
#     4  12  25  44  70 100 140 178 232 281 340 410
#     4  11  23  44  66  99 133 176 226 275 341 399
#     4  11  23  44  66 101 132 174 227 275 344 397
#     4  12  24  46  70 102 137 181 230 282 345 408
#     4  12  26  45  70 101 137 184 227 284 345 407
#     4  10  24  43  70  94 135 176 221 283 335 411
#
# _framework density 23.988071000000001
#
# number of rings (size 3 to 8) (size 9 to 14) (size 15 to 20)
#    0.000    0.571    1.429    6.857    2.000    0.000 
#    5.143    0.000    0.000    0.000    0.000    0.000 
#    0.000    0.000    0.000    0.000    0.000    0.000 
#
# Total GULP energy -347248.147743 kJ/mol
# GULP energy per Si atom -12401.719562 kJ/mol
# Density = 2.393347 g / cm^3
# Si number density = 23.988071 Si / 1000 Ang^3
#
#
#
# Elastic Constant Matrix: (Units=GPa)
#
#
# Indices 1 2 3 4 5 6 
#
# 1 107.7644 24.1761 21.4230 0.0000 -14.5634 0.0000
# 2 24.1761 65.7564 -2.5277 0.0000 -17.6645 0.0000
# 3 21.4230 -2.5277 101.1442 0.0000 -2.6033 0.0000
# 4 0.0000 0.0000 0.0000 27.8462 0.0000 0.9781
# 5 -14.5634 -17.6645 -2.6033 0.0000 37.8731 0.0000
# 6 0.0000 0.0000 0.0000 0.9781 0.0000 44.0835
#
#
#
# Elastic Compliance Matrix: (Units=1/GPa)
#
#
# Indices 1 2 3 4 5 6 
#
# 1 0.010834 -0.003425 -0.002318 0.000000 0.002409 0.000000
# 2 -0.003425 0.018511 0.001379 0.000000 0.007411 0.000000
# 3 -0.002318 0.001379 0.010424 0.000000 0.000468 0.000000
# 4 0.000000 0.000000 0.000000 0.035940 0.000000 -0.000797
# 5 0.002409 0.007411 0.000468 0.000000 0.030819 0.000000
# 6 0.000000 0.000000 0.000000 -0.000797 0.000000 0.022702
#
#
# Mechanical properties :
#
#
# Convention : Reuss Voigt Hill
#
# Bulk Modulus (GPa) = 32.21634 40.08975 36.15305
# Shear Modulus (GPa) = 33.71385 37.40014 35.55699
#
# Velocity S-wave (km/s) = 3.75299 3.95285 3.85421
# Velocity P-wave (km/s) = 5.67796 6.13041 5.90852
#
# Compressibility (1/GPa) = 0.03104015
#
# Stress axis : x y z
#
# Youngs Moduli (GPa) = 92.29853 54.02196 95.92843
#
# Poissons Ratio (x) = 0.18504 0.22240
# Poissons Ratio (y) = 0.31615 -0.13227
# Poissons Ratio (z) = 0.21398 -0.07449
#
# Static dielectric constant tensor:
#      x y z
#    x 4.473500 0.000000 0.064680 
#    y 0.000000 4.172660 0.000000 
#    z 0.064680 0.000000 4.219700 
# 
# 
# High freq. dielectric constant tensor:
#      x y z
#    x 1.964890 0.000000 0.003430 
#    y 0.000000 1.948820 0.000000 
#    z 0.003430 0.000000 1.952280 
# 
# From -- ./inp_files/18921.got.cif
#   From: 2010.03.12/outbox.cif.g09.slc.cpg/sg14_10_cif.got.tgz:18921.got - 2010.03.31 13:35:05.
