data_PCOD8128865
_publ_section_title
;
Structure prediction by ZEFSAII (Michael W. Deem and Ramdas Pophale) SiO2 
 PCOD8128865
Probable space group: P 21/C
;
_chemical_formula_sum "Si O2"
_cell_formula_units_Z 28
_cell_length_a 20.944899
_cell_length_b 10.803539
_cell_length_c 26.439448
_cell_angle_alpha 90.000000
_cell_angle_beta 167.925285
_cell_angle_gamma 90.000000
_cell_volume 1251.501786
_symmetry_space_group_name_H-M "P 21/C"
_symmetry_group_IT_number 14
_symmetry_cell_setting 'monoclinic'
loop_
_space_group_symop_operation_xyz
x,y,z
-x,1/2+y,1/2-z
-x,-y,-z
x,1/2-y,1/2+z
loop_
_atom_site_type_symbol
_atom_site_label
_atom_site_fract_x
_atom_site_fract_y
_atom_site_fract_z
Si Si1 0.875022 0.034688 0.232148
Si Si2 0.191967 0.549965 0.877139
Si Si3 0.674401 0.830235 0.149385
Si Si4 0.742052 0.221566 0.860367
Si Si5 0.559174 0.342855 0.116795
Si Si6 0.203262 0.438821 0.600070
Si Si7 0.809398 0.781780 0.008851
O O1 0.958678 0.996829 0.239773
O O2 0.113978 0.136297 0.437440
O O3 0.878244 0.913125 0.269629
O O4 0.535133 0.091465 0.974903
O O5 0.041773 0.658824 0.728984
O O6 0.269070 0.433689 0.899661
O O7 0.508104 0.607223 0.143404
O O8 0.907122 0.760866 0.366393
O O9 0.473239 0.730718 0.961025
O O10 0.588030 0.251680 0.686307
O O11 0.539160 0.296525 0.743207
O O12 0.722068 0.077170 0.859254
O O13 0.866548 0.426741 0.364260
O O14 0.166535 0.347460 0.525196
#
# Coordination Sequence:
#
# PCOD8128865 Si02
#       7
#     4   4   4   4   4   4   4
#     4  11  24  45  66  97 134 177 217 272 329 397
#     4  11  24  44  67  96 133 171 225 277 321 393
#     4  11  25  45  67  94 143 172 216 279 334 387
#     4  11  24  42  67  99 130 173 224 271 324 394
#     4  11  23  42  68 100 130 171 221 277 329 390
#     4  11  24  42  67 100 131 172 223 274 328 391
#     4  12  24  44  68  94 132 174 222 263 337 393
#
# _framework density 22.37312
#
# number of rings (size 3 to 8) (size 9 to 14) (size 15 to 20)
#    0.000    0.857    4.286    4.286    4.000    1.143 
#    2.571    9.286    0.000    0.000    0.000    0.000 
#    0.000    0.000    0.000    0.000    0.000    0.000 
#
# Total GULP energy -347152.612014 kJ/mol
# GULP energy per Si atom -12398.307572 kJ/mol
# Density = 2.232220 g / cm^3
# Si number density = 22.373120 Si / 1000 Ang^3
#
#
#
# Elastic Constant Matrix: (Units=GPa)
#
#
# Indices 1 2 3 4 5 6 
#
# 1 43.8136 13.0564 11.0150 0.0000 14.9750 0.0000
# 2 13.0564 62.5612 29.7113 0.0000 -8.7695 0.0000
# 3 11.0150 29.7113 109.1628 0.0000 2.1128 0.0000
# 4 0.0000 0.0000 0.0000 26.7814 0.0000 8.8070
# 5 14.9750 -8.7695 2.1128 0.0000 37.4468 0.0000
# 6 0.0000 0.0000 0.0000 8.8070 0.0000 17.1845
#
#
#
# Elastic Compliance Matrix: (Units=1/GPa)
#
#
# Indices 1 2 3 4 5 6 
#
# 1 0.030073 -0.007928 -0.000609 0.000000 -0.013849 0.000000
# 2 -0.007928 0.021269 -0.005152 0.000000 0.008442 0.000000
# 3 -0.000609 -0.005152 0.010655 0.000000 -0.001564 0.000000
# 4 0.000000 0.000000 0.000000 0.044908 0.000000 -0.023015
# 5 -0.013849 0.008442 -0.001564 0.000000 0.034308 0.000000
# 6 0.000000 0.000000 0.000000 -0.023015 0.000000 0.069987
#
#
# Mechanical properties :
#
#
# Convention : Reuss Voigt Hill
#
# Bulk Modulus (GPa) = 28.88647 35.90034 32.39341
# Shear Modulus (GPa) = 19.99058 27.06619 23.52838
#
# Velocity S-wave (km/s) = 2.99240 3.48194 3.24641
# Velocity P-wave (km/s) = 4.98784 5.67858 5.34438
#
# Compressibility (1/GPa) = 0.03461829
#
# Stress axis : x y z
#
# Youngs Moduli (GPa) = 33.25253 47.01609 93.85580
#
# Poissons Ratio (x) = 0.37276 0.05712
# Poissons Ratio (y) = 0.26364 0.48358
# Poissons Ratio (z) = 0.02024 0.24224
#
# Static dielectric constant tensor:
#      x y z
#    x 4.043580 0.000000 0.245340 
#    y 0.000000 3.989560 0.000000 
#    z 0.245340 0.000000 4.214090 
# 
# 
# High freq. dielectric constant tensor:
#      x y z
#    x 1.887030 0.000000 0.020690 
#    y 0.000000 1.876380 0.000000 
#    z 0.020690 0.000000 1.888480 
# 
# From -- ./inp_files/80665.got.cif
#   From: 2010.03.12/outbox.cif.g09.slc.cpg/sg14_41_cif.got.tgz:80665.got - 2010.03.31 13:35:05.
