data_PCOD8128324
_publ_section_title
;
Structure prediction by ZEFSAII (Michael W. Deem and Ramdas Pophale) SiO2 
 PCOD8128324
Probable space group: P 21/C
;
_chemical_formula_sum "Si O2"
_cell_formula_units_Z 28
_cell_length_a 13.402298
_cell_length_b 12.186540
_cell_length_c 9.002660
_cell_angle_alpha 90.000000
_cell_angle_beta 119.524497
_cell_angle_gamma 90.000000
_cell_volume 1279.446721
_symmetry_space_group_name_H-M "P 21/C"
_symmetry_group_IT_number 14
_symmetry_cell_setting 'monoclinic'
loop_
_space_group_symop_operation_xyz
x,y,z
-x,1/2+y,1/2-z
-x,-y,-z
x,1/2-y,1/2+z
loop_
_atom_site_type_symbol
_atom_site_label
_atom_site_fract_x
_atom_site_fract_y
_atom_site_fract_z
Si Si1 0.188406 0.944081 0.819596
Si Si2 0.864562 0.025181 0.893658
Si Si3 0.897539 0.833434 0.318118
Si Si4 0.557831 0.384106 0.543009
Si Si5 0.952304 0.268180 0.329665
Si Si6 0.561197 0.741888 0.798707
Si Si7 0.713386 0.838242 0.658196
O O1 0.306950 0.900193 0.843643
O O2 0.101947 0.844005 0.762932
O O3 0.139813 0.040731 0.676725
O O4 0.196110 0.991529 0.992062
O O5 0.857701 0.152544 0.837200
O O6 0.794472 0.945923 0.730092
O O7 0.000000 0.000000 0.000000
O O8 0.787208 0.769901 0.176689
O O9 0.000317 0.835905 0.275075
O O10 0.939113 0.765554 0.491046
O O11 0.500000 0.500000 0.500000
O O12 0.515237 0.318191 0.653674
O O13 0.527058 0.324621 0.367233
O O14 0.642041 0.818689 0.756626
O O15 0.631978 0.654556 0.952768
#
# Coordination Sequence:
#
# PCOD8128324 Si02
#       7
#     4   4   4   4   4   4   4
#     4  12  25  43  68  96 137 181 222 280 344 394
#     4  12  22  42  66  98 138 175 215 275 331 417
#     4  12  23  42  69  97 135 176 218 272 328 422
#     4  11  25  48  70  99 139 178 239 299 342 404
#     4  12  25  42  63 100 138 170 220 266 339 412
#     4  10  24  46  70 102 130 181 238 290 340 408
#     4  11  21  43  73  99 130 180 227 272 348 404
#
# _framework density 21.884457999999999
#
# number of rings (size 3 to 8) (size 9 to 14) (size 15 to 20)
#    0.000    0.571    4.286    4.714    2.000    0.000 
#    7.714    2.143    0.000    0.000    0.000    0.000 
#    0.000    0.000    0.000    0.000    0.000    0.000 
#
# Total GULP energy -347255.666386 kJ/mol
# GULP energy per Si atom -12401.988085 kJ/mol
# Density = 2.183465 g / cm^3
# Si number density = 21.884458 Si / 1000 Ang^3
#
#
#
# Elastic Constant Matrix: (Units=GPa)
#
#
# Indices 1 2 3 4 5 6 
#
# 1 106.4641 38.8299 28.7314 0.0000 3.3047 0.0000
# 2 38.8299 147.4216 44.4008 0.0000 10.7608 0.0000
# 3 28.7314 44.4008 79.7428 0.0000 -2.7361 0.0000
# 4 0.0000 0.0000 0.0000 31.3083 0.0000 6.7709
# 5 3.3047 10.7608 -2.7361 0.0000 29.2769 0.0000
# 6 0.0000 0.0000 0.0000 6.7709 0.0000 42.4641
#
#
#
# Elastic Compliance Matrix: (Units=1/GPa)
#
#
# Indices 1 2 3 4 5 6 
#
# 1 0.010903 -0.001951 -0.002869 0.000000 -0.000782 0.000000
# 2 -0.001951 0.008858 -0.004347 0.000000 -0.003442 0.000000
# 3 -0.002869 -0.004347 0.016112 0.000000 0.003427 0.000000
# 4 0.000000 0.000000 0.000000 0.033081 0.000000 -0.005275
# 5 -0.000782 -0.003442 0.003427 0.000000 0.035830 0.000000
# 6 0.000000 0.000000 0.000000 -0.005275 0.000000 0.024390
#
#
# Mechanical properties :
#
#
# Convention : Reuss Voigt Hill
#
# Bulk Modulus (GPa) = 57.01607 61.95032 59.48320
# Shear Modulus (GPa) = 32.60427 35.38761 33.99594
#
# Velocity S-wave (km/s) = 3.86403 4.02558 3.94563
# Velocity P-wave (km/s) = 6.78361 7.06940 6.92798
#
# Compressibility (1/GPa) = 0.01753891
#
# Stress axis : x y z
#
# Youngs Moduli (GPa) = 91.71968 112.89809 62.06496
#
# Poissons Ratio (x) = 0.22021 0.17807
# Poissons Ratio (y) = 0.17890 0.26981
# Poissons Ratio (z) = 0.26315 0.49079
#
# Static dielectric constant tensor:
#      x y z
#    x 3.655370 0.000000 -0.186940 
#    y 0.000000 4.124230 0.000000 
#    z -0.186940 0.000000 3.863030 
# 
# 
# High freq. dielectric constant tensor:
#      x y z
#    x 1.864370 0.000000 -0.005690 
#    y 0.000000 1.868840 0.000000 
#    z -0.005690 0.000000 1.856610 
# 
# From -- ./inp_files/15625.got.cif
#   From: 2010.03.12/outbox.cif.g09.slc.cpg/sg14_8_cif.got.tgz:15625.got - 2010.03.31 13:35:05.
