data_PCOD8128478
_publ_section_title
;
Structure prediction by ZEFSAII (Michael W. Deem and Ramdas Pophale) SiO2 
 PCOD8128478
Probable space group: P 21/C
;
_chemical_formula_sum "Si O2"
_cell_formula_units_Z 28
_cell_length_a 13.101271
_cell_length_b 5.388376
_cell_length_c 21.211989
_cell_angle_alpha 90.000000
_cell_angle_beta 51.143145
_cell_angle_gamma 90.000000
_cell_volume 1166.089009
_symmetry_space_group_name_H-M "P 21/C"
_symmetry_group_IT_number 14
_symmetry_cell_setting 'monoclinic'
loop_
_space_group_symop_operation_xyz
x,y,z
-x,1/2+y,1/2-z
-x,-y,-z
x,1/2-y,1/2+z
loop_
_atom_site_type_symbol
_atom_site_label
_atom_site_fract_x
_atom_site_fract_y
_atom_site_fract_z
Si Si1 0.892201 0.698218 0.660916
Si Si2 0.461392 0.527384 0.117840
Si Si3 0.616473 0.694015 0.458480
Si Si4 0.110809 0.303990 0.972861
Si Si5 0.325679 0.680967 0.887840
Si Si6 0.258554 0.780360 0.272065
Si Si7 0.161850 0.961593 0.055069
O O1 0.889412 0.624608 0.587572
O O2 0.826647 0.457790 0.718274
O O3 0.046488 0.726683 0.622656
O O4 0.816885 0.957110 0.705155
O O5 0.368218 0.349434 0.111808
O O6 0.522653 0.362739 0.151117
O O7 0.381386 0.764705 0.175939
O O8 0.584078 0.617841 0.028035
O O9 0.500000 0.500000 0.500000
O O10 0.754334 0.554452 0.417735
O O11 0.254227 0.419384 0.922211
O O12 0.000000 0.500000 0.000000
O O13 0.079077 0.180450 0.052501
O O14 0.315977 0.770563 0.819573
O O15 0.258862 0.870747 0.962476
#
# Coordination Sequence:
#
# PCOD8128478 Si02
#       7
#     4   4   4   4   4   4   4
#     4  11  24  41  68 107 148 193 233 298 372 438
#     4  11  26  47  69 106 147 192 254 304 374 446
#     4  11  25  45  76 101 138 198 254 317 352 424
#     4  11  20  36  63 105 148 180 232 303 363 430
#     4  11  22  38  69 107 146 188 236 306 376 440
#     4  11  27  44  71 107 154 193 230 301 387 454
#     4  12  21  39  72 107 142 188 257 297 359 435
#
# _framework density 24.011890000000001
#
# number of rings (size 3 to 8) (size 9 to 14) (size 15 to 20)
#    0.000    0.857    5.714    2.143    2.000    3.429 
#    0.000    0.000    3.143    0.000    0.000    0.000 
#    0.000    0.000    0.000    0.000    0.000    0.000 
#
# Total GULP energy -347020.808857 kJ/mol
# GULP energy per Si atom -12393.600316 kJ/mol
# Density = 2.395724 g / cm^3
# Si number density = 24.011890 Si / 1000 Ang^3
#
#
#
# Elastic Constant Matrix: (Units=GPa)
#
#
# Indices 1 2 3 4 5 6 
#
# 1 170.3548 64.0642 47.5393 0.0000 -5.4291 0.0000
# 2 64.0642 103.6373 28.7064 0.0000 -3.6458 0.0000
# 3 47.5393 28.7064 79.5864 0.0000 -10.5194 0.0000
# 4 0.0000 0.0000 0.0000 36.6611 0.0000 -6.9995
# 5 -5.4291 -3.6458 -10.5194 0.0000 17.9697 0.0000
# 6 0.0000 0.0000 0.0000 -6.9995 0.0000 43.1777
#
#
#
# Elastic Compliance Matrix: (Units=1/GPa)
#
#
# Indices 1 2 3 4 5 6 
#
# 1 0.008451 -0.004250 -0.003568 0.000000 -0.000397 0.000000
# 2 -0.004250 0.012857 -0.002085 0.000000 0.000104 0.000000
# 3 -0.003568 -0.002085 0.016529 0.000000 0.008175 0.000000
# 4 0.000000 0.000000 0.000000 0.028148 0.000000 0.004563
# 5 -0.000397 0.000104 0.008175 0.000000 0.060336 0.000000
# 6 0.000000 0.000000 0.000000 0.004563 0.000000 0.023900
#
#
# Mechanical properties :
#
#
# Convention : Reuss Voigt Hill
#
# Bulk Modulus (GPa) = 55.45864 70.46649 62.96256
# Shear Modulus (GPa) = 28.40300 33.77961 31.09130
#
# Velocity S-wave (km/s) = 3.44302 3.75478 3.60228
# Velocity P-wave (km/s) = 6.24118 6.94320 6.60153
#
# Compressibility (1/GPa) = 0.01803146
#
# Stress axis : x y z
#
# Youngs Moduli (GPa) = 118.32451 77.77596 60.50049
#
# Poissons Ratio (x) = 0.33055 0.21585
# Poissons Ratio (y) = 0.50288 0.12616
# Poissons Ratio (z) = 0.42216 0.16218
#
# Static dielectric constant tensor:
#      x y z
#    x 4.451990 0.000000 0.026850 
#    y 0.000000 4.441090 0.000000 
#    z 0.026850 0.000000 4.587260 
# 
# 
# High freq. dielectric constant tensor:
#      x y z
#    x 1.954160 0.000000 -0.008190 
#    y 0.000000 1.955000 0.000000 
#    z -0.008190 0.000000 1.925440 
# 
# From -- ./inp_files/66394.got.cif
#   From: 2010.03.12/outbox.cif.g09.slc.cpg/sg14_34_cif.got.tgz:66394.got - 2010.03.31 13:35:05.
