data_PCOD8128307
_publ_section_title
;
Structure prediction by ZEFSAII (Michael W. Deem and Ramdas Pophale) SiO2 
 PCOD8128307
Probable space group: P 21/C
;
_chemical_formula_sum "Si O2"
_cell_formula_units_Z 20
_cell_length_a 10.772559
_cell_length_b 9.759745
_cell_length_c 16.936942
_cell_angle_alpha 90.000000
_cell_angle_beta 150.639237
_cell_angle_gamma 90.000000
_cell_volume 873.092911
_symmetry_space_group_name_H-M "P 21/C"
_symmetry_group_IT_number 14
_symmetry_cell_setting 'monoclinic'
loop_
_space_group_symop_operation_xyz
x,y,z
-x,1/2+y,1/2-z
-x,-y,-z
x,1/2-y,1/2+z
loop_
_atom_site_type_symbol
_atom_site_label
_atom_site_fract_x
_atom_site_fract_y
_atom_site_fract_z
Si Si1 0.928326 0.458140 0.548119
Si Si2 0.360492 0.531378 0.228408
Si Si3 0.979237 0.345113 0.258670
Si Si4 0.543615 0.350196 0.562419
Si Si5 0.945106 0.145069 0.568236
O O1 0.628933 0.461962 0.385985
O O2 0.008523 0.304646 0.612391
O O3 0.000000 0.500000 0.500000
O O4 0.054878 0.555389 0.684981
O O5 0.331375 0.642696 0.281754
O O6 0.159996 0.410347 0.128808
O O7 0.320382 0.608516 0.122321
O O8 0.749553 0.235200 0.127041
O O9 0.950488 0.424286 0.158311
O O10 0.264397 0.279530 0.415679
O O11 0.500000 0.500000 0.500000
#
# Coordination Sequence:
#
# PCOD8128307 Si02
#       5
#     4   4   4   4   4
#     4  11  26  46  69 106 138 184 243 295 346 438
#     4  10  24  45  71  96 145 187 227 296 363 420
#     4  11  24  44  77 103 144 186 240 298 361 427
#     4  11  22  47  69 105 143 190 234 295 358 430
#     4  11  24  44  70 101 141 185 233 290 366 419
#
# _framework density 22.907070999999998
#
# number of rings (size 3 to 8) (size 9 to 14) (size 15 to 20)
#    0.000    1.200    2.000    3.600    2.800    0.000 
#   10.800    5.000    0.000    0.000    0.000    0.000 
#    0.000    0.000    0.000    0.000    0.000    0.000 
#
# Total GULP energy -247882.384469 kJ/mol
# GULP energy per Si atom -12394.119223 kJ/mol
# Density = 2.285493 g / cm^3
# Si number density = 22.907071 Si / 1000 Ang^3
#
#
#
# Elastic Constant Matrix: (Units=GPa)
#
#
# Indices 1 2 3 4 5 6 
#
# 1 120.1210 43.4967 47.5994 0.0000 -23.8370 0.0000
# 2 43.4967 99.1932 48.5312 0.0000 -0.0704 0.0000
# 3 47.5994 48.5312 129.1866 0.0000 -27.7875 0.0000
# 4 0.0000 0.0000 0.0000 30.3547 0.0000 -2.6556
# 5 -23.8370 -0.0704 -27.7875 0.0000 59.3640 0.0000
# 6 0.0000 0.0000 0.0000 -2.6556 0.0000 32.3307
#
#
#
# Elastic Compliance Matrix: (Units=1/GPa)
#
#
# Indices 1 2 3 4 5 6 
#
# 1 0.011235 -0.004021 -0.001845 0.000000 0.003643 0.000000
# 2 -0.004021 0.014106 -0.004627 0.000000 -0.003764 0.000000
# 3 -0.001845 -0.004627 0.011118 0.000000 0.004458 0.000000
# 4 0.000000 0.000000 0.000000 0.033182 0.000000 0.002726
# 5 0.003643 -0.003764 0.004458 0.000000 0.020390 0.000000
# 6 0.000000 0.000000 0.000000 0.002726 0.000000 0.031154
#
#
# Mechanical properties :
#
#
# Convention : Reuss Voigt Hill
#
# Bulk Modulus (GPa) = 64.63569 69.75058 67.19313
# Shear Modulus (GPa) = 33.93747 38.33478 36.13612
#
# Velocity S-wave (km/s) = 3.85324 4.09527 3.97610
# Velocity P-wave (km/s) = 6.93357 7.27167 7.10463
#
# Compressibility (1/GPa) = 0.01547133
#
# Stress axis : x y z
#
# Youngs Moduli (GPa) = 89.00590 70.89288 89.94632
#
# Poissons Ratio (x) = 0.28507 0.16600
# Poissons Ratio (y) = 0.35791 0.41618
# Poissons Ratio (z) = 0.16426 0.32802
#
# Static dielectric constant tensor:
#      x y z
#    x 4.842180 0.000000 -0.226480 
#    y 0.000000 3.936950 0.000000 
#    z -0.226480 0.000000 4.559260 
# 
# 
# High freq. dielectric constant tensor:
#      x y z
#    x 1.918170 0.000000 -0.013050 
#    y 0.000000 1.874630 0.000000 
#    z -0.013050 0.000000 1.924620 
# 
# From -- ./inp_files/55300.got.cif
#   From: 2010.03.12/outbox.cif.g09.slc.cpg/sg14_28_cif.got.tgz:55300.got - 2010.03.31 13:35:05.
