data_PCOD8128901
_publ_section_title
;
Structure prediction by ZEFSAII (Michael W. Deem and Ramdas Pophale) SiO2 
 PCOD8128901
Probable space group: P 21/C
;
_chemical_formula_sum "Si O2"
_cell_formula_units_Z 28
_cell_length_a 20.230288
_cell_length_b 8.886602
_cell_length_c 9.541076
_cell_angle_alpha 90.000000
_cell_angle_beta 131.419385
_cell_angle_gamma 90.000000
_cell_volume 1286.267036
_symmetry_space_group_name_H-M "P 21/C"
_symmetry_group_IT_number 14
_symmetry_cell_setting 'monoclinic'
loop_
_space_group_symop_operation_xyz
x,y,z
-x,1/2+y,1/2-z
-x,-y,-z
x,1/2-y,1/2+z
loop_
_atom_site_type_symbol
_atom_site_label
_atom_site_fract_x
_atom_site_fract_y
_atom_site_fract_z
Si Si1 0.886472 0.251288 0.615221
Si Si2 0.596961 0.347034 0.983465
Si Si3 0.505869 0.838484 0.939773
Si Si4 0.218550 0.147888 0.891017
Si Si5 0.679250 0.837084 0.677391
Si Si6 0.964028 0.554402 0.800347
Si Si7 0.773211 0.314819 0.705334
O O1 0.928057 0.416593 0.656879
O O2 0.848620 0.233591 0.718412
O O3 0.799718 0.230106 0.399198
O O4 0.959448 0.127543 0.684226
O O5 0.521565 0.348956 0.760485
O O6 0.555691 0.281188 0.067369
O O7 0.631039 0.513769 0.058455
O O8 0.676178 0.244898 0.037604
O O9 0.607733 0.794007 0.090761
O O10 0.500000 0.000000 0.000000
O O11 0.248709 0.286698 0.836834
O O12 0.115726 0.172613 0.786212
O O13 0.226911 0.993288 0.816472
O O14 0.275760 0.135695 0.111049
O O15 0.000000 0.500000 0.000000
#
# Coordination Sequence:
#
# PCOD8128901 Si02
#       7
#     4   4   4   4   4   4   4
#     4  11  23  43  69  94 139 171 227 275 346 401
#     4  12  24  43  69  98 135 176 230 278 339 397
#     4  12  25  44  68  97 136 181 226 279 340 408
#     4  11  25  44  66  95 139 170 227 279 341 406
#     4  12  26  44  68 102 133 180 227 283 342 402
#     4  11  24  45  67 102 136 178 223 288 340 409
#     4  11  24  44  65  98 131 178 218 282 330 412
#
# _framework density 21.768418
#
# number of rings (size 3 to 8) (size 9 to 14) (size 15 to 20)
#    0.000    0.571    2.857    7.286    2.000    2.857 
#    0.000    0.000    0.000    0.000    0.000    0.000 
#    0.000    0.000    0.000    0.000    0.000    0.000 
#
# Total GULP energy -347351.086364 kJ/mol
# GULP energy per Si atom -12405.395942 kJ/mol
# Density = 2.171887 g / cm^3
# Si number density = 21.768418 Si / 1000 Ang^3
#
#
#
# Elastic Constant Matrix: (Units=GPa)
#
#
# Indices 1 2 3 4 5 6 
#
# 1 68.3513 5.3356 14.1313 0.0000 5.8404 0.0000
# 2 5.3356 61.9238 40.5978 0.0000 -9.4400 0.0000
# 3 14.1313 40.5978 120.8337 0.0000 2.8147 0.0000
# 4 0.0000 0.0000 0.0000 38.5934 0.0000 6.3630
# 5 5.8404 -9.4400 2.8147 0.0000 37.7454 0.0000
# 6 0.0000 0.0000 0.0000 6.3630 0.0000 47.9073
#
#
#
# Elastic Compliance Matrix: (Units=1/GPa)
#
#
# Indices 1 2 3 4 5 6 
#
# 1 0.015199 -0.000705 -0.001484 0.000000 -0.002417 0.000000
# 2 -0.000705 0.022049 -0.007470 0.000000 0.006180 0.000000
# 3 -0.001484 -0.007470 0.011016 0.000000 -0.002460 0.000000
# 4 0.000000 0.000000 0.000000 0.026491 0.000000 -0.003519
# 5 -0.002417 0.006180 -0.002460 0.000000 0.028596 0.000000
# 6 0.000000 0.000000 0.000000 -0.003519 0.000000 0.021341
#
#
# Mechanical properties :
#
#
# Convention : Reuss Voigt Hill
#
# Bulk Modulus (GPa) = 34.54661 41.24867 37.89764
# Shear Modulus (GPa) = 32.53957 37.58550 35.06253
#
# Velocity S-wave (km/s) = 3.87047 4.15975 4.01771
# Velocity P-wave (km/s) = 5.98987 6.48548 6.24259
#
# Compressibility (1/GPa) = 0.02894640
#
# Stress axis : x y z
#
# Youngs Moduli (GPa) = 65.79488 45.35376 90.77429
#
# Poissons Ratio (x) = 0.03197 0.13474
# Poissons Ratio (y) = 0.04638 0.67804
# Poissons Ratio (z) = 0.09766 0.33877
#
# Static dielectric constant tensor:
#      x y z
#    x 4.233460 0.000000 0.142060 
#    y 0.000000 3.939880 0.000000 
#    z 0.142060 0.000000 4.254100 
# 
# 
# High freq. dielectric constant tensor:
#      x y z
#    x 1.868340 0.000000 0.008120 
#    y 0.000000 1.854850 0.000000 
#    z 0.008120 0.000000 1.870220 
# 
# From -- ./inp_files/18701.got.cif
#   From: 2010.03.12/outbox.cif.g09.slc.cpg/sg14_10_cif.got.tgz:18701.got - 2010.03.31 13:35:05.
