data_PCOD8128779
_publ_section_title
;
Structure prediction by ZEFSAII (Michael W. Deem and Ramdas Pophale) SiO2 
 PCOD8128779
Probable space group: P 21/C
;
_chemical_formula_sum "Si O2"
_cell_formula_units_Z 24
_cell_length_a 8.851769
_cell_length_b 7.752149
_cell_length_c 29.599216
_cell_angle_alpha 90.000000
_cell_angle_beta 149.010709
_cell_angle_gamma 90.000000
_cell_volume 1045.771024
_symmetry_space_group_name_H-M "P 21/C"
_symmetry_group_IT_number 14
_symmetry_cell_setting 'monoclinic'
loop_
_space_group_symop_operation_xyz
x,y,z
-x,1/2+y,1/2-z
-x,-y,-z
x,1/2-y,1/2+z
loop_
_atom_site_type_symbol
_atom_site_label
_atom_site_fract_x
_atom_site_fract_y
_atom_site_fract_z
Si Si1 0.187827 0.179393 0.843860
Si Si2 0.491371 0.384454 0.283728
Si Si3 0.966940 0.357717 0.871768
Si Si4 0.730878 0.574029 0.958972
Si Si5 0.236496 0.107841 0.278692
Si Si6 0.338006 0.038199 0.081788
O O1 0.050967 0.262136 0.762690
O O2 0.178662 0.314463 0.883258
O O3 0.507099 0.091014 0.915069
O O4 0.958468 0.030658 0.796217
O O5 0.258144 0.481334 0.192108
O O6 0.795199 0.323116 0.338140
O O7 0.379063 0.200689 0.272747
O O8 0.527614 0.515731 0.334223
O O9 0.184206 0.423539 0.966590
O O10 0.465135 0.450759 0.876688
O O11 0.621918 0.764359 0.919715
O O12 0.000000 0.500000 0.000000
O O13 0.000000 0.000000 0.000000
#
# Coordination Sequence:
#
# PCOD8128779 Si02
#       6
#     4   4   4   4   4   4
#     4  11  24  43  70 102 137 184 239 294 349 421
#     4  11  24  44  70 102 139 185 229 284 354 427
#     4  12  25  42  69 108 139 179 239 298 347 413
#     4  12  24  44  70 101 141 188 232 286 350 425
#     4  11  22  46  68  97 139 188 230 280 360 427
#     4  11  23  47  72  95 136 189 232 280 360 432
#
# _framework density 22.949573999999998
#
# number of rings (size 3 to 8) (size 9 to 14) (size 15 to 20)
#    0.000    0.667    3.333    6.000    2.333    1.333 
#    0.000    0.000    0.000    0.000    0.000    0.000 
#    0.000    0.000    0.000    0.000    0.000    0.000 
#
# Total GULP energy -297365.986974 kJ/mol
# GULP energy per Si atom -12390.249457 kJ/mol
# Density = 2.289734 g / cm^3
# Si number density = 22.949574 Si / 1000 Ang^3
#
#
#
# Elastic Constant Matrix: (Units=GPa)
#
#
# Indices 1 2 3 4 5 6 
#
# 1 101.8438 15.5240 16.2881 0.0000 -0.1792 0.0000
# 2 15.5240 84.5247 25.1048 0.0000 -7.8327 0.0000
# 3 16.2881 25.1048 98.0026 0.0000 -1.8231 0.0000
# 4 0.0000 0.0000 0.0000 48.9571 0.0000 -1.6438
# 5 -0.1792 -7.8327 -1.8231 0.0000 27.1816 0.0000
# 6 0.0000 0.0000 0.0000 -1.6438 0.0000 32.1946
#
#
#
# Elastic Compliance Matrix: (Units=1/GPa)
#
#
# Indices 1 2 3 4 5 6 
#
# 1 0.010263 -0.001536 -0.001321 0.000000 -0.000463 0.000000
# 2 -0.001536 0.013371 -0.003102 0.000000 0.003635 0.000000
# 3 -0.001321 -0.003102 0.011215 0.000000 -0.000150 0.000000
# 4 0.000000 0.000000 0.000000 0.020461 0.000000 0.001045
# 5 -0.000463 0.003635 -0.000150 0.000000 0.037824 0.000000
# 6 0.000000 0.000000 0.000000 0.001045 0.000000 0.031114
#
#
# Mechanical properties :
#
#
# Convention : Reuss Voigt Hill
#
# Bulk Modulus (GPa) = 43.60741 44.24499 43.92620
# Shear Modulus (GPa) = 34.76777 36.83028 35.79902
#
# Velocity S-wave (km/s) = 3.89648 4.01039 3.95384
# Velocity P-wave (km/s) = 6.26786 6.38477 6.32658
#
# Compressibility (1/GPa) = 0.02293188
#
# Stress axis : x y z
#
# Youngs Moduli (GPa) = 97.43276 74.78782 89.16393
#
# Poissons Ratio (x) = 0.11484 0.11779
# Poissons Ratio (y) = 0.14962 0.27662
# Poissons Ratio (z) = 0.12871 0.23202
#
# Static dielectric constant tensor:
#      x y z
#    x 4.212290 0.000000 0.139840 
#    y 0.000000 3.843150 0.000000 
#    z 0.139840 0.000000 4.110500 
# 
# 
# High freq. dielectric constant tensor:
#      x y z
#    x 1.916860 0.000000 0.004370 
#    y 0.000000 1.923220 0.000000 
#    z 0.004370 0.000000 1.892130 
# 
# From -- ./inp_files/79526.got.cif
#   From: 2010.03.12/outbox.cif.g09.slc.cpg/sg14_40_cif.got.tgz:79526.got - 2010.03.31 13:35:05.
