data_PCOD8128501
_publ_section_title
;
Structure prediction by ZEFSAII (Michael W. Deem and Ramdas Pophale) SiO2 
 PCOD8128501
Probable space group: P 21/C
;
_chemical_formula_sum "Si O2"
_cell_formula_units_Z 32
_cell_length_a 13.658165
_cell_length_b 16.494529
_cell_length_c 11.685014
_cell_angle_alpha 90.000000
_cell_angle_beta 147.376429
_cell_angle_gamma 90.000000
_cell_volume 1419.203891
_symmetry_space_group_name_H-M "P 21/C"
_symmetry_group_IT_number 14
_symmetry_cell_setting 'monoclinic'
loop_
_space_group_symop_operation_xyz
x,y,z
-x,1/2+y,1/2-z
-x,-y,-z
x,1/2-y,1/2+z
loop_
_atom_site_type_symbol
_atom_site_label
_atom_site_fract_x
_atom_site_fract_y
_atom_site_fract_z
Si Si1 0.763829 0.113484 0.968344
Si Si2 0.300049 0.951458 0.611251
Si Si3 0.303760 0.406972 0.459471
Si Si4 0.839626 0.423835 0.779164
Si Si5 0.058969 0.336299 0.607906
Si Si6 0.958266 0.560861 0.623858
Si Si7 0.644399 0.873963 0.414536
Si Si8 0.808991 0.825181 0.362402
O O1 0.554850 0.121276 0.725457
O O2 0.759589 0.134596 0.100424
O O3 0.881249 0.178265 0.012442
O O4 0.865370 0.027953 0.042656
O O5 0.241534 0.913117 0.674991
O O6 0.161844 0.929700 0.373901
O O7 0.315240 0.047915 0.624435
O O8 0.502441 0.918665 0.789079
O O9 0.207831 0.486530 0.311327
O O10 0.168986 0.377776 0.427781
O O11 0.321156 0.341133 0.375366
O O12 0.053869 0.402858 0.991459
O O13 0.031908 0.412829 0.497708
O O14 0.079119 0.255838 0.553344
O O15 0.229265 0.360270 0.852950
O O16 0.689549 0.807884 0.359682
#
# Coordination Sequence:
#
# PCOD8128501 Si02
#       8
#     4   4   4   4   4   4   4   4
#     4  11  24  45  72 102 135 177 235 286 340 406
#     4  12  21  40  77 106 132 167 232 303 340 385
#     4  11  22  40  70 109 131 171 236 294 334 393
#     4  11  20  40  72 103 128 173 228 290 341 387
#     4  12  29  47  64  97 148 193 220 271 353 427
#     4  11  24  42  71 101 134 181 233 280 336 414
#     4  12  24  45  72 101 133 177 231 295 346 393
#     4  12  25  44  70  98 147 180 224 288 351 412
#
# _framework density 22.547853
#
# number of rings (size 3 to 8) (size 9 to 14) (size 15 to 20)
#    0.000    0.500    7.500    2.625    1.750    1.500 
#    4.500    0.000    0.000    0.000    0.000    0.000 
#    0.000    0.000    0.000    0.000    0.000    0.000 
#
# Total GULP energy -396421.691439 kJ/mol
# GULP energy per Si atom -12388.177857 kJ/mol
# Density = 2.249653 g / cm^3
# Si number density = 22.547853 Si / 1000 Ang^3
#
#
#
# Elastic Constant Matrix: (Units=GPa)
#
#
# Indices 1 2 3 4 5 6 
#
# 1 101.6844 38.6810 75.4479 0.0000 1.1487 0.0000
# 2 38.6810 39.7458 41.5239 0.0000 9.4625 0.0000
# 3 75.4479 41.5239 155.4946 0.0000 18.6915 0.0000
# 4 0.0000 0.0000 0.0000 9.7237 0.0000 5.2090
# 5 1.1487 9.4625 18.6915 0.0000 40.3276 0.0000
# 6 0.0000 0.0000 0.0000 5.2090 0.0000 22.7717
#
#
#
# Elastic Compliance Matrix: (Units=1/GPa)
#
#
# Indices 1 2 3 4 5 6 
#
# 1 0.020015 -0.013847 -0.006709 0.000000 0.005789 0.000000
# 2 -0.013847 0.045126 -0.004349 0.000000 -0.008178 0.000000
# 3 -0.006709 -0.004349 0.011334 0.000000 -0.004042 0.000000
# 4 0.000000 0.000000 0.000000 0.117203 0.000000 -0.026810
# 5 0.005789 -0.008178 -0.004042 0.000000 0.028424 0.000000
# 6 0.000000 0.000000 0.000000 -0.026810 0.000000 0.050047
#
#
# Mechanical properties :
#
#
# Convention : Reuss Voigt Hill
#
# Bulk Modulus (GPa) = 37.50354 67.58115 52.54234
# Shear Modulus (GPa) = 15.11270 23.98275 19.54773
#
# Velocity S-wave (km/s) = 2.59173 3.26488 2.94759
# Velocity P-wave (km/s) = 5.06212 6.65207 5.91080
#
# Compressibility (1/GPa) = 0.02666415
#
# Stress axis : x y z
#
# Youngs Moduli (GPa) = 49.96329 22.15995 88.23194
#
# Poissons Ratio (x) = 0.30685 0.59199
# Poissons Ratio (y) = 0.69184 0.38371
# Poissons Ratio (z) = 0.33523 0.09637
#
# Static dielectric constant tensor:
#      x y z
#    x 4.567810 0.000000 -0.157780 
#    y 0.000000 3.759730 0.000000 
#    z -0.157780 0.000000 4.211630 
# 
# 
# High freq. dielectric constant tensor:
#      x y z
#    x 1.903930 0.000000 -0.004570 
#    y 0.000000 1.846750 0.000000 
#    z -0.004570 0.000000 1.896380 
# 
# From -- ./inp_files/33060.got.cif
#   From: 2010.03.12/outbox.cif.g09.slc.cpg/sg14_17_cif.got.tgz:33060.got - 2010.03.31 13:35:05.
