data_PCOD8128062
_publ_section_title
;
Structure prediction by ZEFSAII (Michael W. Deem and Ramdas Pophale) SiO2 
 PCOD8128062
Probable space group: P 21/C
;
_chemical_formula_sum "Si O2"
_cell_formula_units_Z 16
_cell_length_a 9.002738
_cell_length_b 7.890553
_cell_length_c 9.993058
_cell_angle_alpha 90.000000
_cell_angle_beta 52.213489
_cell_angle_gamma 90.000000
_cell_volume 561.011870
_symmetry_space_group_name_H-M "P 21/C"
_symmetry_group_IT_number 14
_symmetry_cell_setting 'monoclinic'
loop_
_space_group_symop_operation_xyz
x,y,z
-x,1/2+y,1/2-z
-x,-y,-z
x,1/2-y,1/2+z
loop_
_atom_site_type_symbol
_atom_site_label
_atom_site_fract_x
_atom_site_fract_y
_atom_site_fract_z
Si Si1 0.370657 0.052695 0.949952
Si Si2 0.044055 0.634659 0.721561
Si Si3 0.756876 0.242419 0.627912
Si Si4 0.370376 0.432711 0.954537
O O1 0.156110 0.043062 0.126855
O O2 0.372089 0.915725 0.822880
O O3 0.430940 0.242674 0.872875
O O4 0.500000 0.000000 0.000000
O O5 0.071496 0.752180 0.573993
O O6 0.154744 0.737937 0.775419
O O7 0.833590 0.590308 0.868139
O O8 0.640770 0.066239 0.663820
O O9 0.500000 0.500000 0.000000
#
# Coordination Sequence:
#
# PCOD8128062 Si02
#       4
#     4   4   4   4
#     4  10  23  46  69 109 146 191 250 301 370 456
#     4  10  24  48  75 110 150 191 254 305 379 449
#     4  10  24  48  70 108 148 192 247 309 374 438
#     4  12  22  44  74 106 147 198 241 309 374 439
#
# _framework density 28.519895000000002
#
# number of rings (size 3 to 8) (size 9 to 14) (size 15 to 20)
#    1.500    0.000    2.500    2.250    0.000    1.000 
#   13.500    2.500    0.000    0.000    0.000    0.000 
#    0.000    0.000    0.000    0.000    0.000    0.000 
#
# Total GULP energy -198435.995482 kJ/mol
# GULP energy per Si atom -12402.249718 kJ/mol
# Density = 2.845498 g / cm^3
# Si number density = 28.519895 Si / 1000 Ang^3
#
#
#
# Elastic Constant Matrix: (Units=GPa)
#
#
# Indices 1 2 3 4 5 6 
#
# 1 136.8789 56.7812 55.9006 0.0000 -16.2652 0.0000
# 2 56.7812 211.4403 89.6012 0.0000 -26.0452 0.0000
# 3 55.9006 89.6012 142.8071 0.0000 -4.9382 0.0000
# 4 0.0000 0.0000 0.0000 63.3419 0.0000 5.1134
# 5 -16.2652 -26.0452 -4.9382 0.0000 51.1723 0.0000
# 6 0.0000 0.0000 0.0000 5.1134 0.0000 36.6314
#
#
#
# Elastic Compliance Matrix: (Units=1/GPa)
#
#
# Indices 1 2 3 4 5 6 
#
# 1 0.009144 -0.000963 -0.002901 0.000000 0.002136 0.000000
# 2 -0.000963 0.007003 -0.003917 0.000000 0.002880 0.000000
# 3 -0.002901 -0.003917 0.010530 0.000000 -0.001900 0.000000
# 4 0.000000 0.000000 0.000000 0.015967 0.000000 -0.002229
# 5 0.002136 0.002880 -0.001900 0.000000 0.021503 0.000000
# 6 0.000000 0.000000 0.000000 -0.002229 0.000000 0.027610
#
#
# Mechanical properties :
#
#
# Convention : Reuss Voigt Hill
#
# Bulk Modulus (GPa) = 89.97604 99.52138 94.74871
# Shear Modulus (GPa) = 45.03477 49.48534 47.26006
#
# Velocity S-wave (km/s) = 3.97806 4.16999 4.07515
# Velocity P-wave (km/s) = 7.26064 7.62603 7.44558
#
# Compressibility (1/GPa) = 0.01111407
#
# Stress axis : x y z
#
# Youngs Moduli (GPa) = 109.36258 142.79939 94.96481
#
# Poissons Ratio (x) = 0.13751 0.27552
# Poissons Ratio (y) = 0.10531 0.37200
# Poissons Ratio (z) = 0.31729 0.55938
#
# Static dielectric constant tensor:
#      x y z
#    x 5.056890 0.000000 -0.712440 
#    y 0.000000 6.109980 0.000000 
#    z -0.712440 0.000000 6.086710 
# 
# 
# High freq. dielectric constant tensor:
#      x y z
#    x 2.145570 0.000000 -0.037810 
#    y 0.000000 2.183050 0.000000 
#    z -0.037810 0.000000 2.235850 
# 
# From -- ./inp_files/22690.got.cif
#   From: 2010.03.12/outbox.cif.g09.slc.cpg/sg14_12_cif.got.tgz:22690.got - 2010.03.31 13:35:05.
