data_PCOD8128900
_publ_section_title
;
Structure prediction by ZEFSAII (Michael W. Deem and Ramdas Pophale) SiO2 
 PCOD8128900
Probable space group: P 21/C
;
_chemical_formula_sum "Si O2"
_cell_formula_units_Z 32
_cell_length_a 9.260958
_cell_length_b 14.019243
_cell_length_c 11.018558
_cell_angle_alpha 90.000000
_cell_angle_beta 92.091963
_cell_angle_gamma 90.000000
_cell_volume 1429.603810
_symmetry_space_group_name_H-M "P 21/C"
_symmetry_group_IT_number 14
_symmetry_cell_setting 'monoclinic'
loop_
_space_group_symop_operation_xyz
x,y,z
-x,1/2+y,1/2-z
-x,-y,-z
x,1/2-y,1/2+z
loop_
_atom_site_type_symbol
_atom_site_label
_atom_site_fract_x
_atom_site_fract_y
_atom_site_fract_z
Si Si1 0.514596 0.729584 0.196709
Si Si2 0.108376 0.925904 0.179751
Si Si3 0.918831 0.149208 0.085512
Si Si4 0.188450 0.011011 0.752005
Si Si5 0.718936 0.195504 0.648997
Si Si6 0.588672 0.909204 0.053740
Si Si7 0.229524 0.132855 0.168517
Si Si8 0.370624 0.940041 0.548607
O O1 0.433743 0.756050 0.320527
O O2 0.498090 0.820666 0.106463
O O3 0.679955 0.694387 0.228885
O O4 0.429301 0.642021 0.137399
O O5 0.197757 0.834088 0.225317
O O6 0.198388 0.023311 0.206502
O O7 0.075504 0.915452 0.035256
O O8 0.957763 0.926455 0.249633
O O9 0.849570 0.091352 0.194248
O O10 0.815063 0.238427 0.064626
O O11 0.077880 0.183676 0.132220
O O12 0.251657 0.002147 0.617808
O O13 0.313052 0.058858 0.833168
O O14 0.704394 0.099693 0.572923
O O15 0.677713 0.864203 0.949077
O O16 0.500000 0.000000 0.000000
O O17 0.500000 0.000000 0.500000
#
# Coordination Sequence:
#
# PCOD8128900 Si02
#       8
#     4   4   4   4   4   4   4   4
#     4  12  26  44  70 106 142 190 246 294 361 427
#     4  11  23  47  73 103 139 192 242 299 362 439
#     4  11  23  44  71 104 141 177 244 297 357 436
#     4  11  23  45  71 101 140 184 241 295 362 432
#     4  12  26  44  71 102 145 190 234 296 370 427
#     4  12  24  41  73 104 142 187 240 295 362 428
#     4  11  23  43  69 102 138 182 235 301 350 425
#     4  12  26  47  67 102 149 189 239 298 356 437
#
# _framework density 22.383825000000002
#
# number of rings (size 3 to 8) (size 9 to 14) (size 15 to 20)
#    0.000    0.500    3.750    5.250    3.500    0.500 
#    2.250    0.000    0.000    0.000    0.000    0.000 
#    0.000    0.000    0.000    0.000    0.000    0.000 
#
# Total GULP energy -396749.074451 kJ/mol
# GULP energy per Si atom -12398.408577 kJ/mol
# Density = 2.233288 g / cm^3
# Si number density = 22.383825 Si / 1000 Ang^3
#
#
#
# Elastic Constant Matrix: (Units=GPa)
#
#
# Indices 1 2 3 4 5 6 
#
# 1 115.7087 39.7626 35.3589 0.0000 -21.6221 0.0000
# 2 39.7626 84.1858 23.2157 0.0000 -8.4933 0.0000
# 3 35.3589 23.2157 87.0224 0.0000 -20.5777 0.0000
# 4 0.0000 0.0000 0.0000 45.2489 0.0000 2.2081
# 5 -21.6221 -8.4933 -20.5777 0.0000 43.2068 0.0000
# 6 0.0000 0.0000 0.0000 2.2081 0.0000 34.8029
#
#
#
# Elastic Compliance Matrix: (Units=1/GPa)
#
#
# Indices 1 2 3 4 5 6 
#
# 1 0.011666 -0.004394 -0.002695 0.000000 0.003691 0.000000
# 2 -0.004394 0.014516 -0.002177 0.000000 -0.000383 0.000000
# 3 -0.002695 -0.002177 0.014365 0.000000 0.005065 0.000000
# 4 0.000000 0.000000 0.000000 0.022169 0.000000 -0.001406
# 5 0.003691 -0.000383 0.005065 0.000000 0.027328 0.000000
# 6 0.000000 0.000000 0.000000 -0.001406 0.000000 0.028822
#
#
# Mechanical properties :
#
#
# Convention : Reuss Voigt Hill
#
# Bulk Modulus (GPa) = 45.42834 53.73237 49.58035
# Shear Modulus (GPa) = 34.54539 37.22371 35.88455
#
# Velocity S-wave (km/s) = 3.93277 4.08238 4.00827
# Velocity P-wave (km/s) = 6.40012 6.80281 6.60453
#
# Compressibility (1/GPa) = 0.02201269
#
# Stress axis : x y z
#
# Youngs Moduli (GPa) = 85.72146 68.88989 69.61436
#
# Poissons Ratio (x) = 0.30273 0.18761
# Poissons Ratio (y) = 0.37670 0.15158
# Poissons Ratio (z) = 0.23102 0.15001
#
# Static dielectric constant tensor:
#      x y z
#    x 4.424680 0.000000 -0.312180 
#    y 0.000000 3.952670 0.000000 
#    z -0.312180 0.000000 4.300920 
# 
# 
# High freq. dielectric constant tensor:
#      x y z
#    x 1.896110 0.000000 -0.004510 
#    y 0.000000 1.880800 0.000000 
#    z -0.004510 0.000000 1.877640 
# 
# From -- ./inp_files/25513.got.cif
#   From: 2010.03.12/outbox.cif.g09.slc.cpg/sg14_13_cif.got.tgz:25513.got - 2010.03.31 13:35:05.
