data_PCOD8128098
_publ_section_title
;
Structure prediction by ZEFSAII (Michael W. Deem and Ramdas Pophale) SiO2 
 PCOD8128098
Probable space group: P 21/C
;
_chemical_formula_sum "Si O2"
_cell_formula_units_Z 32
_cell_length_a 14.176847
_cell_length_b 9.212262
_cell_length_c 22.711370
_cell_angle_alpha 90.000000
_cell_angle_beta 30.757304
_cell_angle_gamma 90.000000
_cell_volume 1516.883509
_symmetry_space_group_name_H-M "P 21/C"
_symmetry_group_IT_number 14
_symmetry_cell_setting 'monoclinic'
loop_
_space_group_symop_operation_xyz
x,y,z
-x,1/2+y,1/2-z
-x,-y,-z
x,1/2-y,1/2+z
loop_
_atom_site_type_symbol
_atom_site_label
_atom_site_fract_x
_atom_site_fract_y
_atom_site_fract_z
Si Si1 0.452214 0.139265 0.604590
Si Si2 0.423635 0.819325 0.586358
Si Si3 0.109861 0.766987 0.460305
Si Si4 0.121256 0.665250 0.822105
Si Si5 0.612756 0.030910 0.633653
Si Si6 0.246648 0.353960 0.788350
Si Si7 0.376148 0.974930 0.861817
Si Si8 0.280779 0.247298 0.483204
O O1 0.567913 0.206675 0.488296
O O2 0.591920 0.119757 0.584355
O O3 0.287475 0.246789 0.711714
O O4 0.366280 0.985145 0.631256
O O5 0.277927 0.712959 0.693340
O O6 0.623541 0.778552 0.505311
O O7 0.136651 0.750205 0.375963
O O8 0.204590 0.917265 0.430059
O O9 0.207497 0.633614 0.440991
O O10 0.892811 0.772345 0.591907
O O11 0.141300 0.493704 0.819786
O O12 0.930544 0.705831 0.893525
O O13 0.431269 0.056035 0.771411
O O14 0.629314 0.859170 0.613476
O O15 0.439210 0.391635 0.716672
O O16 0.309800 0.088291 0.946343
#
# Coordination Sequence:
#
# PCOD8128098 Si02
#       8
#     4   4   4   4   4   4   4   4
#     4  10  24  43  71  91 132 178 226 272 333 397
#     4  10  23  49  66  93 130 180 228 275 327 394
#     4  12  24  39  65 103 138 169 219 278 342 411
#     4  12  24  42  66  98 135 177 218 280 337 400
#     4  11  20  41  65  94 134 175 209 272 337 397
#     4  12  24  42  67 102 135 175 220 280 340 407
#     4  12  24  40  66 100 137 177 220 271 349 413
#     4  11  24  41  65  95 131 175 223 272 338 391
#
# _framework density 21.095884999999999
#
# number of rings (size 3 to 8) (size 9 to 14) (size 15 to 20)
#    0.000    0.750    5.000    3.375    3.500    1.000 
#    2.250    0.000    0.000    0.000    0.000    0.000 
#    0.000    0.000    0.000    0.000    0.000    0.000 
#
# Total GULP energy -396903.513639 kJ/mol
# GULP energy per Si atom -12403.234801 kJ/mol
# Density = 2.104787 g / cm^3
# Si number density = 21.095885 Si / 1000 Ang^3
#
#
#
# Elastic Constant Matrix: (Units=GPa)
#
#
# Indices 1 2 3 4 5 6 
#
# 1 98.0257 36.2025 61.5311 0.0000 -1.7194 0.0000
# 2 36.2025 90.9598 42.9045 0.0000 -0.7121 0.0000
# 3 61.5311 42.9045 118.8804 0.0000 0.5249 0.0000
# 4 0.0000 0.0000 0.0000 41.4849 0.0000 -0.4825
# 5 -1.7194 -0.7121 0.5249 0.0000 42.2827 0.0000
# 6 0.0000 0.0000 0.0000 -0.4825 0.0000 21.9435
#
#
#
# Elastic Compliance Matrix: (Units=1/GPa)
#
#
# Indices 1 2 3 4 5 6 
#
# 1 0.015747 -0.002912 -0.007103 0.000000 0.000679 0.000000
# 2 -0.002912 0.013791 -0.003471 0.000000 0.000157 0.000000
# 3 -0.007103 -0.003471 0.013343 0.000000 -0.000513 0.000000
# 4 0.000000 0.000000 0.000000 0.024111 0.000000 0.000530
# 5 0.000679 0.000157 -0.000513 0.000000 0.023687 0.000000
# 6 0.000000 0.000000 0.000000 0.000530 0.000000 0.045583
#
#
# Mechanical properties :
#
#
# Convention : Reuss Voigt Hill
#
# Bulk Modulus (GPa) = 62.85134 65.46023 64.15579
# Shear Modulus (GPa) = 29.66712 32.29075 30.97894
#
# Velocity S-wave (km/s) = 3.75413 3.91662 3.83624
# Velocity P-wave (km/s) = 6.97490 7.17986 7.07812
#
# Compressibility (1/GPa) = 0.01591056
#
# Stress axis : x y z
#
# Youngs Moduli (GPa) = 63.50403 72.51000 74.94607
#
# Poissons Ratio (x) = 0.21114 0.53231
# Poissons Ratio (y) = 0.18492 0.26013
# Poissons Ratio (z) = 0.45104 0.25167
#
# Static dielectric constant tensor:
#      x y z
#    x 3.933490 0.000000 0.031770 
#    y 0.000000 3.918140 0.000000 
#    z 0.031770 0.000000 3.777320 
# 
# 
# High freq. dielectric constant tensor:
#      x y z
#    x 1.817760 0.000000 -0.002330 
#    y 0.000000 1.834030 0.000000 
#    z -0.002330 0.000000 1.818980 
# 
# From -- ./inp_files/73845.got.cif
#   From: 2010.03.12/outbox.cif.g09.slc.cpg/sg14_37_cif.got.tgz:73845.got - 2010.03.31 13:35:05.
