data_PCOD8128398
_publ_section_title
;
Structure prediction by ZEFSAII (Michael W. Deem and Ramdas Pophale) SiO2 
 PCOD8128398
Probable space group: P 21/C
;
_chemical_formula_sum "Si O2"
_cell_formula_units_Z 32
_cell_length_a 15.214337
_cell_length_b 12.654595
_cell_length_c 9.884781
_cell_angle_alpha 90.000000
_cell_angle_beta 44.885755
_cell_angle_gamma 90.000000
_cell_volume 1343.029787
_symmetry_space_group_name_H-M "P 21/C"
_symmetry_group_IT_number 14
_symmetry_cell_setting 'monoclinic'
loop_
_space_group_symop_operation_xyz
x,y,z
-x,1/2+y,1/2-z
-x,-y,-z
x,1/2-y,1/2+z
loop_
_atom_site_type_symbol
_atom_site_label
_atom_site_fract_x
_atom_site_fract_y
_atom_site_fract_z
Si Si1 0.436132 0.008814 0.874707
Si Si2 0.768536 0.446023 0.615850
Si Si3 0.833041 0.256359 0.889361
Si Si4 0.379281 0.802991 0.054882
Si Si5 0.530305 0.739405 0.634245
Si Si6 0.284645 0.962769 0.515527
Si Si7 0.893270 0.669381 0.482722
Si Si8 0.213046 0.181739 0.619011
O O1 0.400947 0.126164 0.958464
O O2 0.577599 0.004759 0.673576
O O3 0.352977 0.965810 0.841829
O O4 0.411817 0.928491 0.026767
O O5 0.839877 0.339065 0.489906
O O6 0.724876 0.428588 0.816810
O O7 0.864733 0.544627 0.498631
O O8 0.757375 0.360173 0.027306
O O9 0.967712 0.300423 0.706842
O O10 0.764999 0.213970 0.826865
O O11 0.469207 0.749266 0.846370
O O12 0.416694 0.744667 0.152700
O O13 0.642642 0.820693 0.487173
O O14 0.191798 0.061744 0.588866
O O15 0.873758 0.706995 0.658250
O O16 0.802300 0.734086 0.483111
#
# Coordination Sequence:
#
# PCOD8128398 Si02
#       8
#     4   4   4   4   4   4   4   4
#     4  11  22  42  65 105 139 179 227 294 365 414
#     4  10  25  46  70 103 141 185 243 291 355 418
#     4  11  27  43  68 106 139 185 240 293 351 413
#     4  11  26  40  68 103 143 182 225 300 352 426
#     4  12  23  43  69 101 142 179 234 289 360 419
#     4  11  24  40  73 102 138 187 230 296 358 435
#     4  11  26  48  72  96 144 194 239 292 336 429
#     4  11  25  45  72 103 135 190 243 284 353 418
#
# _framework density 23.826725
#
# number of rings (size 3 to 8) (size 9 to 14) (size 15 to 20)
#    0.000    1.000    3.750    1.500    8.750    1.000 
#    0.000    1.875    0.000    0.000    0.000    0.000 
#    0.000    0.000    0.000    0.000    0.000    0.000 
#
# Total GULP energy -396767.482743 kJ/mol
# GULP energy per Si atom -12398.983836 kJ/mol
# Density = 2.377249 g / cm^3
# Si number density = 23.826725 Si / 1000 Ang^3
#
#
#
# Elastic Constant Matrix: (Units=GPa)
#
#
# Indices 1 2 3 4 5 6 
#
# 1 54.1886 24.7404 15.6867 0.0000 -14.0185 0.0000
# 2 24.7404 126.6668 21.5284 0.0000 5.2480 0.0000
# 3 15.6867 21.5284 88.0926 0.0000 -18.8506 0.0000
# 4 0.0000 0.0000 0.0000 32.3868 0.0000 6.0465
# 5 -14.0185 5.2480 -18.8506 0.0000 30.8109 0.0000
# 6 0.0000 0.0000 0.0000 6.0465 0.0000 29.8082
#
#
#
# Elastic Compliance Matrix: (Units=1/GPa)
#
#
# Indices 1 2 3 4 5 6 
#
# 1 0.023858 -0.005030 -0.000590 0.000000 0.011350 0.000000
# 2 -0.005030 0.009551 -0.002619 0.000000 -0.005518 0.000000
# 3 -0.000590 -0.002619 0.013963 0.000000 0.008720 0.000000
# 4 0.000000 0.000000 0.000000 0.032092 0.000000 -0.006510
# 5 0.011350 -0.005518 0.008720 0.000000 0.043895 0.000000
# 6 0.000000 0.000000 0.000000 -0.006510 0.000000 0.034868
#
#
# Mechanical properties :
#
#
# Convention : Reuss Voigt Hill
#
# Bulk Modulus (GPa) = 32.36979 43.65102 38.01040
# Shear Modulus (GPa) = 27.02654 32.40070 29.71362
#
# Velocity S-wave (km/s) = 3.37158 3.69161 3.53522
# Velocity P-wave (km/s) = 5.36393 6.04406 5.71412
#
# Compressibility (1/GPa) = 0.03089300
#
# Stress axis : x y z
#
# Youngs Moduli (GPa) = 41.91518 104.70220 71.61838
#
# Poissons Ratio (x) = 0.52663 0.04228
# Poissons Ratio (y) = 0.21082 0.18758
# Poissons Ratio (z) = 0.02474 0.27423
#
# Static dielectric constant tensor:
#      x y z
#    x 4.254940 0.000000 -0.030830 
#    y 0.000000 4.988930 0.000000 
#    z -0.030830 0.000000 4.002520 
# 
# 
# High freq. dielectric constant tensor:
#      x y z
#    x 1.933330 0.000000 -0.001340 
#    y 0.000000 1.976890 0.000000 
#    z -0.001340 0.000000 1.935900 
# 
# From -- ./inp_files/33914.got.cif
#   From: 2010.03.12/outbox.cif.g09.slc.cpg/sg14_17_cif.got.tgz:33914.got - 2010.03.31 13:35:05.
