data_PCOD8128928
_publ_section_title
;
Structure prediction by ZEFSAII (Michael W. Deem and Ramdas Pophale) SiO2 
 PCOD8128928
Probable space group: P 21/C
;
_chemical_formula_sum "Si O2"
_cell_formula_units_Z 28
_cell_length_a 8.313352
_cell_length_b 21.776824
_cell_length_c 9.363486
_cell_angle_alpha 90.000000
_cell_angle_beta 131.692145
_cell_angle_gamma 90.000000
_cell_volume 1265.818715
_symmetry_space_group_name_H-M "P 21/C"
_symmetry_group_IT_number 14
_symmetry_cell_setting 'monoclinic'
loop_
_space_group_symop_operation_xyz
x,y,z
-x,1/2+y,1/2-z
-x,-y,-z
x,1/2-y,1/2+z
loop_
_atom_site_type_symbol
_atom_site_label
_atom_site_fract_x
_atom_site_fract_y
_atom_site_fract_z
Si Si1 0.348407 0.872831 0.034611
Si Si2 0.676174 0.467651 0.007250
Si Si3 0.422460 0.435253 0.588950
Si Si4 0.579865 0.744776 0.604709
Si Si5 0.943789 0.024903 0.125800
Si Si6 0.698853 0.349232 0.191662
Si Si7 0.815286 0.815384 0.991614
O O1 0.376858 0.800002 0.023552
O O2 0.414063 0.882742 0.239187
O O3 0.493740 0.908872 0.009447
O O4 0.103398 0.901407 0.888305
O O5 0.739461 0.399510 0.095166
O O6 0.884483 0.510065 0.150704
O O7 0.500000 0.500000 0.000000
O O8 0.609607 0.460796 0.803308
O O9 0.277816 0.492655 0.459881
O O10 0.283968 0.383453 0.591443
O O11 0.474076 0.800687 0.461210
O O12 0.753657 0.709028 0.611839
O O13 0.711895 0.768037 0.818923
O O14 0.000000 0.000000 0.000000
O O15 0.925951 0.317593 0.369486
#
# Coordination Sequence:
#
# PCOD8128928 Si02
#       7
#     4   4   4   4   4   4   4
#     4  11  25  44  69  98 140 180 225 292 341 407
#     4  12  24  41  73 102 134 183 225 279 346 411
#     4  11  23  44  67 102 138 175 228 288 340 405
#     4  11  25  45  66 101 137 178 231 289 344 413
#     4  12  22  43  71 101 139 182 228 279 352 413
#     4  12  24  45  69  98 136 181 230 280 351 414
#     4  11  24  43  70  95 134 181 228 282 346 414
#
# _framework density 22.120069999999998
#
# number of rings (size 3 to 8) (size 9 to 14) (size 15 to 20)
#    0.000    0.571    7.143    0.429    2.000    0.571 
#    0.000    1.429    0.000    0.000    0.000    0.000 
#    0.000    0.000    0.000    0.000    0.000    0.000 
#
# Total GULP energy -347008.487788 kJ/mol
# GULP energy per Si atom -12393.160278 kJ/mol
# Density = 2.206972 g / cm^3
# Si number density = 22.120070 Si / 1000 Ang^3
#
#
#
# Elastic Constant Matrix: (Units=GPa)
#
#
# Indices 1 2 3 4 5 6 
#
# 1 76.4492 17.8875 42.7230 0.0000 -4.1341 0.0000
# 2 17.8875 88.1644 38.0348 0.0000 6.8338 0.0000
# 3 42.7230 38.0348 119.7452 0.0000 9.3571 0.0000
# 4 0.0000 0.0000 0.0000 35.0023 0.0000 -2.4228
# 5 -4.1341 6.8338 9.3571 0.0000 28.5100 0.0000
# 6 0.0000 0.0000 0.0000 -2.4228 0.0000 36.7407
#
#
#
# Elastic Compliance Matrix: (Units=1/GPa)
#
#
# Indices 1 2 3 4 5 6 
#
# 1 0.017002 -0.001205 -0.006054 0.000000 0.004741 0.000000
# 2 -0.001205 0.013322 -0.003631 0.000000 -0.002176 0.000000
# 3 -0.006054 -0.003631 0.011972 0.000000 -0.003937 0.000000
# 4 0.000000 0.000000 0.000000 0.028701 0.000000 0.001893
# 5 0.004741 -0.002176 -0.003937 0.000000 0.037577 0.000000
# 6 0.000000 0.000000 0.000000 0.001893 0.000000 0.027343
#
#
# Mechanical properties :
#
#
# Convention : Reuss Voigt Hill
#
# Bulk Modulus (GPa) = 48.74405 53.51660 51.13033
# Shear Modulus (GPa) = 30.38859 32.43150 31.41004
#
# Velocity S-wave (km/s) = 3.71050 3.83320 3.77235
# Velocity P-wave (km/s) = 6.35933 6.62098 6.49147
#
# Compressibility (1/GPa) = 0.02051532
#
# Stress axis : x y z
#
# Youngs Moduli (GPa) = 58.81657 75.06190 83.52844
#
# Poissons Ratio (x) = 0.09048 0.50565
# Poissons Ratio (y) = 0.07090 0.30333
# Poissons Ratio (z) = 0.35605 0.27258
#
# Static dielectric constant tensor:
#      x y z
#    x 4.103690 0.000000 0.026350 
#    y 0.000000 4.409980 0.000000 
#    z 0.026350 0.000000 4.010000 
# 
# 
# High freq. dielectric constant tensor:
#      x y z
#    x 1.869410 0.000000 -0.009110 
#    y 0.000000 1.887030 0.000000 
#    z -0.009110 0.000000 1.862790 
# 
# From -- ./inp_files/10441.got.cif
#   From: 2010.03.12/outbox.cif.g09.slc.cpg/sg14_6_cif.got.tgz:10441.got - 2010.03.31 13:35:05.
