data_PCOD8128352
_publ_section_title
;
Structure prediction by ZEFSAII (Michael W. Deem and Ramdas Pophale) SiO2 
 PCOD8128352
Probable space group: P 21/C
;
_chemical_formula_sum "Si O2"
_cell_formula_units_Z 28
_cell_length_a 6.496699
_cell_length_b 10.914203
_cell_length_c 19.732940
_cell_angle_alpha 90.000000
_cell_angle_beta 64.222706
_cell_angle_gamma 90.000000
_cell_volume 1259.957895
_symmetry_space_group_name_H-M "P 21/C"
_symmetry_group_IT_number 14
_symmetry_cell_setting 'monoclinic'
loop_
_space_group_symop_operation_xyz
x,y,z
-x,1/2+y,1/2-z
-x,-y,-z
x,1/2-y,1/2+z
loop_
_atom_site_type_symbol
_atom_site_label
_atom_site_fract_x
_atom_site_fract_y
_atom_site_fract_z
Si Si1 0.956442 0.250917 0.923984
Si Si2 0.187499 0.058413 0.727919
Si Si3 0.096849 0.709582 0.278642
Si Si4 0.096573 0.243510 0.550059
Si Si5 0.433401 0.335399 0.313932
Si Si6 0.531930 0.112761 0.947025
Si Si7 0.265912 0.496193 0.070920
O O1 0.798011 0.147910 0.913304
O O2 0.860028 0.376681 0.910954
O O3 0.213668 0.247393 0.860852
O O4 0.941440 0.228340 0.006951
O O5 0.372408 0.072124 0.761612
O O6 0.030087 0.181686 0.745361
O O7 0.052390 0.928064 0.755763
O O8 0.324207 0.048515 0.638311
O O9 0.364985 0.743363 0.236457
O O10 0.014650 0.695757 0.367940
O O11 0.359467 0.284003 0.499994
O O12 0.094641 0.097780 0.559342
O O13 0.486634 0.415028 0.374026
O O14 0.500000 0.000000 0.000000
O O15 0.500000 0.500000 0.000000
#
# Coordination Sequence:
#
# PCOD8128352 Si02
#       7
#     4   4   4   4   4   4   4
#     4  11  24  45  72  99 141 182 229 288 352 420
#     4  11  26  46  72 102 147 185 239 294 355 421
#     4  11  27  46  71 108 143 187 240 294 356 419
#     4  10  25  41  71 106 133 183 232 285 350 415
#     4  11  26  44  69 103 139 185 232 287 359 416
#     4  11  25  43  70  99 136 180 232 289 341 414
#     4  11  22  43  71  99 141 180 229 284 346 421
#
# _framework density 22.222964999999999
#
# number of rings (size 3 to 8) (size 9 to 14) (size 15 to 20)
#    0.000    1.143    1.429    3.000   10.000    4.571 
#    0.000    0.000    0.000    0.000    0.000    0.000 
#    0.000    0.000    0.000    0.000    0.000    0.000 
#
# Total GULP energy -347096.106909 kJ/mol
# GULP energy per Si atom -12396.289532 kJ/mol
# Density = 2.217238 g / cm^3
# Si number density = 22.222965 Si / 1000 Ang^3
#
#
#
# Elastic Constant Matrix: (Units=GPa)
#
#
# Indices 1 2 3 4 5 6 
#
# 1 117.3044 31.3454 60.2862 0.0000 19.3659 0.0000
# 2 31.3454 113.2703 21.3016 0.0000 17.4820 0.0000
# 3 60.2862 21.3016 141.6820 0.0000 17.1320 0.0000
# 4 0.0000 0.0000 0.0000 27.9895 0.0000 7.7210
# 5 19.3659 17.4820 17.1320 0.0000 39.8265 0.0000
# 6 0.0000 0.0000 0.0000 7.7210 0.0000 25.5815
#
#
#
# Elastic Compliance Matrix: (Units=1/GPa)
#
#
# Indices 1 2 3 4 5 6 
#
# 1 0.011786 -0.001981 -0.004356 0.000000 -0.002988 0.000000
# 2 -0.001981 0.009932 -0.000253 0.000000 -0.003287 0.000000
# 3 -0.004356 -0.000253 0.009156 0.000000 -0.001710 0.000000
# 4 0.000000 0.000000 0.000000 0.038972 0.000000 -0.011763
# 5 -0.002988 -0.003287 -0.001710 0.000000 0.028740 0.000000
# 6 0.000000 0.000000 0.000000 -0.011763 0.000000 0.042641
#
#
# Mechanical properties :
#
#
# Convention : Reuss Voigt Hill
#
# Bulk Modulus (GPa) = 56.51538 66.45810 61.48674
# Shear Modulus (GPa) = 31.19052 35.96774 33.57913
#
# Velocity S-wave (km/s) = 3.75043 4.02742 3.89139
# Velocity P-wave (km/s) = 6.65136 7.18309 6.92233
#
# Compressibility (1/GPa) = 0.01769430
#
# Stress axis : x y z
#
# Youngs Moduli (GPa) = 84.84562 100.68858 109.21531
#
# Poissons Ratio (x) = 0.19949 0.47573
# Poissons Ratio (y) = 0.16811 0.02759
# Poissons Ratio (z) = 0.36958 0.02544
#
# Static dielectric constant tensor:
#      x y z
#    x 4.680570 0.000000 -0.112380 
#    y 0.000000 4.067290 0.000000 
#    z -0.112380 0.000000 4.451750 
# 
# 
# High freq. dielectric constant tensor:
#      x y z
#    x 1.868410 0.000000 0.008370 
#    y 0.000000 1.870800 0.000000 
#    z 0.008370 0.000000 1.902120 
# 
# From -- ./inp_files/63287.got.cif
#   From: 2010.03.12/outbox.cif.g09.slc.cpg/sg14_32_cif.got.tgz:63287.got - 2010.03.31 13:35:05.
