data_PCOD8128654
_publ_section_title
;
Structure prediction by ZEFSAII (Michael W. Deem and Ramdas Pophale) SiO2 
 PCOD8128654
Probable space group: P 21/C
;
_chemical_formula_sum "Si O2"
_cell_formula_units_Z 32
_cell_length_a 30.069994
_cell_length_b 9.253772
_cell_length_c 21.409323
_cell_angle_alpha 90.000000
_cell_angle_beta 15.509527
_cell_angle_gamma 90.000000
_cell_volume 1592.994234
_symmetry_space_group_name_H-M "P 21/C"
_symmetry_group_IT_number 14
_symmetry_cell_setting 'monoclinic'
loop_
_space_group_symop_operation_xyz
x,y,z
-x,1/2+y,1/2-z
-x,-y,-z
x,1/2-y,1/2+z
loop_
_atom_site_type_symbol
_atom_site_label
_atom_site_fract_x
_atom_site_fract_y
_atom_site_fract_z
Si Si1 0.017913 0.632132 0.021271
Si Si2 0.139319 0.519525 0.981155
Si Si3 0.063065 0.878444 0.870817
Si Si4 0.258344 0.697985 0.928139
Si Si5 0.772084 0.977175 0.033395
Si Si6 0.606639 0.470947 0.144327
Si Si7 0.108160 0.301499 0.519418
Si Si8 0.669278 0.693560 0.556598
O O1 0.847735 0.694322 0.281113
O O2 0.141602 0.588639 0.909430
O O3 0.000000 0.500000 0.000000
O O4 0.106915 0.746634 0.856548
O O5 0.200577 0.353527 0.896465
O O6 0.955505 0.511874 0.257686
O O7 0.260387 0.619148 0.858396
O O8 0.916135 0.846352 0.019801
O O9 0.231000 0.924153 0.611560
O O10 0.000000 0.000000 0.000000
O O11 0.383780 0.604716 0.800844
O O12 0.072613 0.700227 0.205305
O O13 0.316422 0.865302 0.843987
O O14 0.777225 0.913559 0.096949
O O15 0.672270 0.870625 0.122563
O O16 0.444556 0.411646 0.329960
O O17 0.597631 0.644649 0.159820
#
# Coordination Sequence:
#
# PCOD8128654 Si02
#       8
#     4   4   4   4   4   4   4   4
#     4  11  22  37  59  86 117 151 186 231 284 337
#     4   9  17  30  51  79 110 143 184 229 276 326
#     4  11  22  37  57  86 117 149 187 231 283 334
#     4   9  18  31  52  79 108 143 187 233 276 323
#     4   9  18  31  52  79 108 143 187 231 277 324
#     4  11  23  38  59  83 115 149 189 234 281 335
#     4   9  17  30  51  78 111 143 183 233 274 324
#     4  11  23  38  59  84 114 150 189 233 281 334
#
# _framework density 20.087958
#
# number of rings (size 3 to 8) (size 9 to 14) (size 15 to 20)
#    0.000    2.000    2.500    1.500    5.250    3.000 
#    0.000    0.000    0.000    3.000    0.000    0.000 
#    0.000    0.000    0.000    0.000    0.000    0.000 
#
# Total GULP energy -396671.810870 kJ/mol
# GULP energy per Si atom -12395.994090 kJ/mol
# Density = 2.004224 g / cm^3
# Si number density = 20.087958 Si / 1000 Ang^3
#
#
#
# Elastic Constant Matrix: (Units=GPa)
#
#
# Indices 1 2 3 4 5 6 
#
# 1 157.7872 64.9931 8.9684 0.0000 -8.8852 0.0000
# 2 64.9931 166.7794 7.9806 0.0000 -6.5903 0.0000
# 3 8.9684 7.9806 17.3141 0.0000 -10.2655 0.0000
# 4 0.0000 0.0000 0.0000 24.3631 0.0000 -3.6628
# 5 -8.8852 -6.5903 -10.2655 0.0000 19.1367 0.0000
# 6 0.0000 0.0000 0.0000 -3.6628 0.0000 46.6742
#
#
#
# Elastic Compliance Matrix: (Units=1/GPa)
#
#
# Indices 1 2 3 4 5 6 
#
# 1 0.007704 -0.002855 -0.001667 0.000000 0.001700 0.000000
# 2 -0.002855 0.007199 -0.001694 0.000000 0.000245 0.000000
# 3 -0.001667 -0.001694 0.085924 0.000000 0.044735 0.000000
# 4 0.000000 0.000000 0.000000 0.041536 0.000000 0.003260
# 5 0.001700 0.000245 0.044735 0.000000 0.077126 0.000000
# 6 0.000000 0.000000 0.000000 0.003260 0.000000 0.021681
#
#
# Mechanical properties :
#
#
# Convention : Reuss Voigt Hill
#
# Bulk Modulus (GPa) = 11.31294 56.19610 33.75452
# Shear Modulus (GPa) = 17.66360 35.36404 26.51382
#
# Velocity S-wave (km/s) = 2.96854 4.20034 3.63697
# Velocity P-wave (km/s) = 4.17056 7.18049 5.87167
#
# Compressibility (1/GPa) = 0.08839439
#
# Stress axis : x y z
#
# Youngs Moduli (GPa) = 129.79862 138.90011 11.63823
#
# Poissons Ratio (x) = 0.39661 0.01940
# Poissons Ratio (y) = 0.37063 0.01972
# Poissons Ratio (z) = 0.21635 0.23534
#
# Static dielectric constant tensor:
#      x y z
#    x 3.949550 0.000000 -0.146450 
#    y 0.000000 3.865080 0.000000 
#    z -0.146450 0.000000 3.082330 
# 
# 
# High freq. dielectric constant tensor:
#      x y z
#    x 1.802760 0.000000 -0.009390 
#    y 0.000000 1.806230 0.000000 
#    z -0.009390 0.000000 1.722640 
# 
# From -- ./inp_files/66877.got.cif
#   From: 2010.03.12/outbox.cif.g09.slc.cpg/sg14_34_cif.got.tgz:66877.got - 2010.03.31 13:35:05.
