data_PCOD8128158
_publ_section_title
;
Structure prediction by ZEFSAII (Michael W. Deem and Ramdas Pophale) SiO2 
 PCOD8128158
Probable space group: P 21/C
;
_chemical_formula_sum "Si O2"
_cell_formula_units_Z 28
_cell_length_a 12.265326
_cell_length_b 13.752960
_cell_length_c 9.367582
_cell_angle_alpha 90.000000
_cell_angle_beta 124.595876
_cell_angle_gamma 90.000000
_cell_volume 1300.756882
_symmetry_space_group_name_H-M "P 21/C"
_symmetry_group_IT_number 14
_symmetry_cell_setting 'monoclinic'
loop_
_space_group_symop_operation_xyz
x,y,z
-x,1/2+y,1/2-z
-x,-y,-z
x,1/2-y,1/2+z
loop_
_atom_site_type_symbol
_atom_site_label
_atom_site_fract_x
_atom_site_fract_y
_atom_site_fract_z
Si Si1 0.517386 0.519928 0.761959
Si Si2 0.977970 0.273663 0.624977
Si Si3 0.791558 0.226039 0.239688
Si Si4 0.035035 0.055393 0.667669
Si Si5 0.112061 0.030791 0.191948
Si Si6 0.366605 0.589961 0.894299
Si Si7 0.313094 0.984898 0.860612
O O1 0.458514 0.606301 0.819140
O O2 0.648296 0.540272 0.761036
O O3 0.414423 0.489411 0.562182
O O4 0.546773 0.437307 0.902582
O O5 0.850472 0.274783 0.426583
O O6 0.918582 0.296232 0.736107
O O7 0.046231 0.170219 0.658614
O O8 0.095218 0.352370 0.687681
O O9 0.697815 0.309080 0.106211
O O10 0.703113 0.129278 0.192636
O O11 0.177716 0.022599 0.827757
O O12 0.000000 0.000000 0.500000
O O13 0.918139 0.027082 0.686214
O O14 0.261695 0.995963 0.269968
O O15 0.000000 0.000000 0.000000
#
# Coordination Sequence:
#
# PCOD8128158 Si02
#       7
#     4   4   4   4   4   4   4
#     4  10  24  42  62  84 126 172 222 244 324 356
#     4  12  22  38  61 106 127 172 204 262 336 392
#     4  12  22  38  69  96 125 160 234 250 312 396
#     4  12  22  39  64  95 135 160 206 274 328 375
#     4  12  22  39  64  95 135 160 206 274 328 375
#     4  11  22  42  63  95 127 172 210 270 303 392
#     4  11  22  42  63  95 127 172 210 270 303 392
#
# _framework density 21.525929000000001
#
# number of rings (size 3 to 8) (size 9 to 14) (size 15 to 20)
#    0.000    0.571    5.714    3.429    0.000    0.000 
#    0.000    8.571    0.000    0.000    0.000    0.000 
#    0.000    0.000    0.000    0.000    0.000    0.000 
#
# Total GULP energy -346906.671876 kJ/mol
# GULP energy per Si atom -12389.523996 kJ/mol
# Density = 2.147694 g / cm^3
# Si number density = 21.525929 Si / 1000 Ang^3
#
#
#
# Elastic Constant Matrix: (Units=GPa)
#
#
# Indices 1 2 3 4 5 6 
#
# 1 76.8097 25.1110 24.8205 0.0000 -6.3582 0.0000
# 2 25.1110 135.1764 20.9493 0.0000 9.9425 0.0000
# 3 24.8205 20.9493 94.1473 0.0000 -4.9423 0.0000
# 4 0.0000 0.0000 0.0000 24.3155 0.0000 -1.5432
# 5 -6.3582 9.9425 -4.9423 0.0000 39.1972 0.0000
# 6 0.0000 0.0000 0.0000 -1.5432 0.0000 23.7861
#
#
#
# Elastic Compliance Matrix: (Units=1/GPa)
#
#
# Indices 1 2 3 4 5 6 
#
# 1 0.015119 -0.002495 -0.003291 0.000000 0.002670 0.000000
# 2 -0.002495 0.008262 -0.001321 0.000000 -0.002667 0.000000
# 3 -0.003291 -0.001321 0.011851 0.000000 0.001295 0.000000
# 4 0.000000 0.000000 0.000000 0.041296 0.000000 0.002679
# 5 0.002670 -0.002667 0.001295 0.000000 0.026785 0.000000
# 6 0.000000 0.000000 0.000000 0.002679 0.000000 0.042215
#
#
# Mechanical properties :
#
#
# Convention : Reuss Voigt Hill
#
# Bulk Modulus (GPa) = 47.57430 49.76611 48.67020
# Shear Modulus (GPa) = 29.98540 33.14328 31.56434
#
# Velocity S-wave (km/s) = 3.73633 3.92815 3.83344
# Velocity P-wave (km/s) = 6.38455 6.61386 6.50021
#
# Compressibility (1/GPa) = 0.02101975
#
# Stress axis : x y z
#
# Youngs Moduli (GPa) = 66.14071 121.03505 84.38075
#
# Poissons Ratio (x) = 0.30199 0.27766
# Poissons Ratio (y) = 0.16503 0.11144
# Poissons Ratio (z) = 0.21764 0.15985
#
# Static dielectric constant tensor:
#      x y z
#    x 4.051360 0.000000 -0.016710 
#    y 0.000000 3.888840 0.000000 
#    z -0.016710 0.000000 4.022930 
# 
# 
# High freq. dielectric constant tensor:
#      x y z
#    x 1.850770 0.000000 -0.010910 
#    y 0.000000 1.824740 0.000000 
#    z -0.010910 0.000000 1.858850 
# 
# From -- ./inp_files/13422.got.cif
#   From: 2010.03.12/outbox.cif.g09.slc.cpg/sg14_7_cif.got.tgz:13422.got - 2010.03.31 13:35:05.
