data_PCOD8128895
_publ_section_title
;
Structure prediction by ZEFSAII (Michael W. Deem and Ramdas Pophale) SiO2 
 PCOD8128895
Probable space group: P 21/C
;
_chemical_formula_sum "Si O2"
_cell_formula_units_Z 32
_cell_length_a 9.147323
_cell_length_b 5.074943
_cell_length_c 31.179931
_cell_angle_alpha 90.000000
_cell_angle_beta 63.973783
_cell_angle_gamma 90.000000
_cell_volume 1300.659271
_symmetry_space_group_name_H-M "P 21/C"
_symmetry_group_IT_number 14
_symmetry_cell_setting 'monoclinic'
loop_
_space_group_symop_operation_xyz
x,y,z
-x,1/2+y,1/2-z
-x,-y,-z
x,1/2-y,1/2+z
loop_
_atom_site_type_symbol
_atom_site_label
_atom_site_fract_x
_atom_site_fract_y
_atom_site_fract_z
Si Si1 0.397975 0.746958 0.498838
Si Si2 0.765468 0.807824 0.635911
Si Si3 0.510105 0.934700 0.807294
Si Si4 0.198352 0.096281 0.630219
Si Si5 0.004794 0.387493 0.723446
Si Si6 0.104697 0.612189 0.593900
Si Si7 0.554953 0.138477 0.600573
Si Si8 0.269026 0.650974 0.785456
O O1 0.500000 0.500000 0.500000
O O2 0.219172 0.737671 0.542685
O O3 0.366094 0.732245 0.451759
O O4 0.500000 0.000000 0.500000
O O5 0.617664 0.670555 0.679789
O O6 0.914540 0.615967 0.602551
O O7 0.691188 0.948569 0.603376
O O8 0.833843 0.002511 0.664297
O O9 0.689572 0.004274 0.765503
O O10 0.507614 0.855068 0.857289
O O11 0.443366 0.709771 0.784172
O O12 0.152458 0.233808 0.681205
O O13 0.161683 0.316200 0.598016
O O14 0.387232 0.003171 0.606909
O O15 0.111041 0.815708 0.633257
O O16 0.040920 0.688611 0.731355
O O17 0.848805 0.395037 0.711310
#
# Coordination Sequence:
#
# PCOD8128895 Si02
#       8
#     4   4   4   4   4   4   4   4
#     4  12  25  50  79 107 143 192 242 309 385 451
#     4  11  26  44  72 105 149 189 243 303 363 443
#     4  11  24  42  70  98 147 191 242 295 361 439
#     4  12  25  46  73 102 149 187 244 301 365 438
#     4  12  27  41  67 104 142 186 246 297 352 423
#     4  12  25  48  76 105 140 197 237 303 375 440
#     4  11  27  44  72 109 138 186 253 302 367 440
#     4  11  23  43  66  96 141 198 238 285 363 433
#
# _framework density 24.602907999999999
#
# number of rings (size 3 to 8) (size 9 to 14) (size 15 to 20)
#    0.000    0.500    5.000    2.250    8.750    0.500 
#    0.000    0.625    0.000    0.000    0.000    0.000 
#    0.000    0.000    0.000    0.000    0.000    0.000 
#
# Total GULP energy -396517.360133 kJ/mol
# GULP energy per Si atom -12391.167504 kJ/mol
# Density = 2.454691 g / cm^3
# Si number density = 24.602908 Si / 1000 Ang^3
#
#
#
# Elastic Constant Matrix: (Units=GPa)
#
#
# Indices 1 2 3 4 5 6 
#
# 1 102.4791 11.2237 24.4578 0.0000 -0.7741 0.0000
# 2 11.2237 73.7961 -3.0050 0.0000 13.7965 0.0000
# 3 24.4578 -3.0050 118.0766 0.0000 10.5092 0.0000
# 4 0.0000 0.0000 0.0000 30.6401 0.0000 -0.3853
# 5 -0.7741 13.7965 10.5092 0.0000 38.2669 0.0000
# 6 0.0000 0.0000 0.0000 -0.3853 0.0000 28.9438
#
#
#
# Elastic Compliance Matrix: (Units=1/GPa)
#
#
# Indices 1 2 3 4 5 6 
#
# 1 0.010557 -0.001999 -0.002379 0.000000 0.001588 0.000000
# 2 -0.001999 0.014994 0.001313 0.000000 -0.005807 0.000000
# 3 -0.002379 0.001313 0.009268 0.000000 -0.003067 0.000000
# 4 0.000000 0.000000 0.000000 0.032642 0.000000 0.000435
# 5 0.001588 -0.005807 -0.003067 0.000000 0.029100 0.000000
# 6 0.000000 0.000000 0.000000 0.000435 0.000000 0.034556
#
#
# Mechanical properties :
#
#
# Convention : Reuss Voigt Hill
#
# Bulk Modulus (GPa) = 34.85818 39.96722 37.41270
# Shear Modulus (GPa) = 34.05744 37.01516 35.53630
#
# Velocity S-wave (km/s) = 3.72463 3.88300 3.80464
# Velocity P-wave (km/s) = 5.71807 6.03190 5.87708
#
# Compressibility (1/GPa) = 0.02868767
#
# Stress axis : x y z
#
# Youngs Moduli (GPa) = 94.72571 66.69351 107.89619
#
# Poissons Ratio (x) = 0.13334 0.25667
# Poissons Ratio (y) = 0.18938 -0.14162
# Poissons Ratio (z) = 0.22534 -0.08754
#
# Static dielectric constant tensor:
#      x y z
#    x 4.463940 0.000000 -0.012570 
#    y 0.000000 4.303140 0.000000 
#    z -0.012570 0.000000 4.566870 
# 
# 
# High freq. dielectric constant tensor:
#      x y z
#    x 1.986690 0.000000 -0.006620 
#    y 0.000000 1.968230 0.000000 
#    z -0.006620 0.000000 1.977510 
# 
# From -- ./inp_files/79242.got.cif
#   From: 2010.03.12/outbox.cif.g09.slc.cpg/sg14_40_cif.got.tgz:79242.got - 2010.03.31 13:35:05.
