data_PCOD8128784
_publ_section_title
;
Structure prediction by ZEFSAII (Michael W. Deem and Ramdas Pophale) SiO2 
 PCOD8128784
Probable space group: P 21/C
;
_chemical_formula_sum "Si O2"
_cell_formula_units_Z 28
_cell_length_a 29.665452
_cell_length_b 7.406413
_cell_length_c 11.932309
_cell_angle_alpha 90.000000
_cell_angle_beta 27.021978
_cell_angle_gamma 90.000000
_cell_volume 1191.123927
_symmetry_space_group_name_H-M "P 21/C"
_symmetry_group_IT_number 14
_symmetry_cell_setting 'monoclinic'
loop_
_space_group_symop_operation_xyz
x,y,z
-x,1/2+y,1/2-z
-x,-y,-z
x,1/2-y,1/2+z
loop_
_atom_site_type_symbol
_atom_site_label
_atom_site_fract_x
_atom_site_fract_y
_atom_site_fract_z
Si Si1 0.883179 0.926463 0.987891
Si Si2 0.710324 0.415426 0.281146
Si Si3 0.593338 0.743455 0.645340
Si Si4 0.264595 0.416866 0.001914
Si Si5 0.805008 0.950549 0.922209
Si Si6 0.608626 0.422679 0.948331
Si Si7 0.107362 0.489469 0.001764
O O1 0.860041 0.001396 0.915700
O O2 0.803893 0.010866 0.250975
O O3 0.865350 0.714115 0.029599
O O4 0.993440 0.974243 0.782357
O O5 0.668444 0.591629 0.435332
O O6 0.647790 0.234743 0.445846
O O7 0.823741 0.386013 0.071403
O O8 0.705115 0.436159 0.157461
O O9 0.636224 0.828648 0.664362
O O10 0.581354 0.900175 0.579591
O O11 0.487705 0.650892 0.903954
O O12 0.199923 0.264788 0.081586
O O13 0.868338 0.037527 0.681284
O O14 0.693513 0.031149 0.169488
#
# Coordination Sequence:
#
# PCOD8128784 Si02
#       7
#     4   4   4   4   4   4   4
#     4  11  23  42  71  99 140 185 229 290 343 414
#     4  12  25  46  69 104 142 187 232 286 352 412
#     4  12  24  48  70 104 143 179 238 290 345 419
#     4  11  22  46  72  95 147 186 224 297 342 412
#     4  11  22  47  68  99 139 184 230 292 346 409
#     4  12  26  44  76 103 138 186 234 289 350 423
#     4  11  25  43  69 101 140 182 233 287 347 414
#
# _framework density 23.507211000000002
#
# number of rings (size 3 to 8) (size 9 to 14) (size 15 to 20)
#    0.000    0.571    8.571    0.429    2.000    4.000 
#    2.571    0.000    0.000    0.000    0.000    0.000 
#    0.000    0.000    0.000    0.000    0.000    0.000 
#
# Total GULP energy -347279.496958 kJ/mol
# GULP energy per Si atom -12402.839177 kJ/mol
# Density = 2.345371 g / cm^3
# Si number density = 23.507211 Si / 1000 Ang^3
#
#
#
# Elastic Constant Matrix: (Units=GPa)
#
#
# Indices 1 2 3 4 5 6 
#
# 1 102.0034 -0.3642 41.3522 0.0000 -4.8254 0.0000
# 2 -0.3642 54.8759 15.7196 0.0000 7.4844 0.0000
# 3 41.3522 15.7196 115.5034 0.0000 -24.1744 0.0000
# 4 0.0000 0.0000 0.0000 31.0626 0.0000 -7.8241
# 5 -4.8254 7.4844 -24.1744 0.0000 38.7411 0.0000
# 6 0.0000 0.0000 0.0000 -7.8241 0.0000 14.1279
#
#
#
# Elastic Compliance Matrix: (Units=1/GPa)
#
#
# Indices 1 2 3 4 5 6 
#
# 1 0.011668 0.001708 -0.004802 0.000000 -0.001873 0.000000
# 2 0.001708 0.020538 -0.004823 0.000000 -0.006764 0.000000
# 3 -0.004802 -0.004823 0.012771 0.000000 0.008303 0.000000
# 4 0.000000 0.000000 0.000000 0.037412 0.000000 0.020719
# 5 -0.001873 -0.006764 0.008303 0.000000 0.032067 0.000000
# 6 0.000000 0.000000 0.000000 0.020719 0.000000 0.082256
#
#
# Mechanical properties :
#
#
# Convention : Reuss Voigt Hill
#
# Bulk Modulus (GPa) = 34.31113 42.86643 38.58878
# Shear Modulus (GPa) = 22.49630 31.16465 26.83048
#
# Velocity S-wave (km/s) = 3.09689 3.64503 3.38209
# Velocity P-wave (km/s) = 5.23597 5.99917 5.63051
#
# Compressibility (1/GPa) = 0.02914506
#
# Stress axis : x y z
#
# Youngs Moduli (GPa) = 85.70647 48.68954 78.30285
#
# Poissons Ratio (x) = -0.08318 0.37599
# Poissons Ratio (y) = -0.14642 0.37762
# Poissons Ratio (z) = 0.41154 0.23481
#
# Static dielectric constant tensor:
#      x y z
#    x 4.137870 0.000000 -0.024300 
#    y 0.000000 4.187730 0.000000 
#    z -0.024300 0.000000 4.386810 
# 
# 
# High freq. dielectric constant tensor:
#      x y z
#    x 1.925820 0.000000 -0.010160 
#    y 0.000000 1.930710 0.000000 
#    z -0.010160 0.000000 1.928880 
# 
# From -- ./inp_files/36157.got.cif
#   From: 2010.03.12/outbox.cif.g09.slc.cpg/sg14_19_cif.got.tgz:36157.got - 2010.03.31 13:35:05.
