data_PCOD8128288
_publ_section_title
;
Structure prediction by ZEFSAII (Michael W. Deem and Ramdas Pophale) SiO2 
 PCOD8128288
Probable space group: P 21/C
;
_chemical_formula_sum "Si O2"
_cell_formula_units_Z 20
_cell_length_a 9.439354
_cell_length_b 10.106415
_cell_length_c 9.494517
_cell_angle_alpha 90.000000
_cell_angle_beta 66.048939
_cell_angle_gamma 90.000000
_cell_volume 827.765666
_symmetry_space_group_name_H-M "P 21/C"
_symmetry_group_IT_number 14
_symmetry_cell_setting 'monoclinic'
loop_
_space_group_symop_operation_xyz
x,y,z
-x,1/2+y,1/2-z
-x,-y,-z
x,1/2-y,1/2+z
loop_
_atom_site_type_symbol
_atom_site_label
_atom_site_fract_x
_atom_site_fract_y
_atom_site_fract_z
Si Si1 0.883619 0.672809 0.801535
Si Si2 0.386724 0.810517 0.867732
Si Si3 0.418915 0.445869 0.172747
Si Si4 0.859785 0.905894 0.606370
Si Si5 0.230631 0.857739 0.220280
O O1 0.766876 0.572023 0.770986
O O2 0.896274 0.815783 0.725740
O O3 0.058147 0.617718 0.730379
O O4 0.816342 0.685062 0.989310
O O5 0.518702 0.697997 0.805391
O O6 0.242264 0.762559 0.828064
O O7 0.448646 0.949129 0.784456
O O8 0.344791 0.828917 0.046812
O O9 0.500000 0.500000 0.000000
O O10 0.723951 0.007168 0.712342
O O11 0.000000 0.000000 0.500000
#
# Coordination Sequence:
#
# PCOD8128288 Si02
#       5
#     4   4   4   4   4
#     4  11  26  46  78 107 153 199 254 320 379 452
#     4  12  28  49  78 109 156 202 256 318 388 461
#     4  12  29  51  75 112 156 205 256 314 391 466
#     4  10  24  44  72 113 151 187 254 312 386 445
#     4  11  25  47  77 110 148 194 256 321 374 455
#
# _framework density 24.161425000000001
#
# number of rings (size 3 to 8) (size 9 to 14) (size 15 to 20)
#    0.000    0.800    2.000    3.600   14.000    1.600 
#    0.000    0.000    0.000    0.000    0.000    0.000 
#    0.000    0.000    0.000    0.000    0.000    0.000 
#
# Total GULP energy -247891.390605 kJ/mol
# GULP energy per Si atom -12394.569530 kJ/mol
# Density = 2.410643 g / cm^3
# Si number density = 24.161425 Si / 1000 Ang^3
#
#
#
# Elastic Constant Matrix: (Units=GPa)
#
#
# Indices 1 2 3 4 5 6 
#
# 1 94.8833 34.6412 24.3006 0.0000 -5.5546 0.0000
# 2 34.6412 144.2516 87.4593 0.0000 19.6008 0.0000
# 3 24.3006 87.4593 153.5854 0.0000 33.4380 0.0000
# 4 0.0000 0.0000 0.0000 69.0780 0.0000 7.1550
# 5 -5.5546 19.6008 33.4380 0.0000 32.3097 0.0000
# 6 0.0000 0.0000 0.0000 7.1550 0.0000 41.7843
#
#
#
# Elastic Compliance Matrix: (Units=1/GPa)
#
#
# Indices 1 2 3 4 5 6 
#
# 1 0.012248 -0.002729 -0.001552 0.000000 0.005368 0.000000
# 2 -0.002729 0.011198 -0.005633 0.000000 -0.001433 0.000000
# 3 -0.001552 -0.005633 0.011977 0.000000 -0.009245 0.000000
# 4 0.000000 0.000000 0.000000 0.014738 0.000000 -0.002524
# 5 0.005368 -0.001433 -0.009245 0.000000 0.042310 0.000000
# 6 0.000000 0.000000 0.000000 -0.002524 0.000000 0.024365
#
#
# Mechanical properties :
#
#
# Convention : Reuss Voigt Hill
#
# Bulk Modulus (GPa) = 64.12949 76.16916 70.14932
# Shear Modulus (GPa) = 35.24574 45.05569 40.15072
#
# Velocity S-wave (km/s) = 3.82352 4.32299 4.08090
# Velocity P-wave (km/s) = 6.78912 7.51740 7.16252
#
# Compressibility (1/GPa) = 0.01559345
#
# Stress axis : x y z
#
# Youngs Moduli (GPa) = 81.64904 89.30542 83.49410
#
# Poissons Ratio (x) = 0.24376 0.12960
# Poissons Ratio (y) = 0.22286 0.47029
# Poissons Ratio (z) = 0.12674 0.50302
#
# Static dielectric constant tensor:
#      x y z
#    x 4.447050 0.000000 0.279550 
#    y 0.000000 4.714600 0.000000 
#    z 0.279550 0.000000 4.635380 
# 
# 
# High freq. dielectric constant tensor:
#      x y z
#    x 1.960490 0.000000 0.010560 
#    y 0.000000 1.964040 0.000000 
#    z 0.010560 0.000000 1.964950 
# 
# From -- ./inp_files/27736.got.cif
#   From: 2010.03.12/outbox.cif.g09.slc.cpg/sg14_14_cif.got.tgz:27736.got - 2010.03.31 13:35:05.
