data_PCOD8128371
_publ_section_title
;
Structure prediction by ZEFSAII (Michael W. Deem and Ramdas Pophale) SiO2 
 PCOD8128371
Probable space group: P 21/C
;
_chemical_formula_sum "Si O2"
_cell_formula_units_Z 24
_cell_length_a 19.789352
_cell_length_b 9.245610
_cell_length_c 10.561571
_cell_angle_alpha 90.000000
_cell_angle_beta 146.100290
_cell_angle_gamma 90.000000
_cell_volume 1077.775149
_symmetry_space_group_name_H-M "P 21/C"
_symmetry_group_IT_number 14
_symmetry_cell_setting 'monoclinic'
loop_
_space_group_symop_operation_xyz
x,y,z
-x,1/2+y,1/2-z
-x,-y,-z
x,1/2-y,1/2+z
loop_
_atom_site_type_symbol
_atom_site_label
_atom_site_fract_x
_atom_site_fract_y
_atom_site_fract_z
Si Si1 0.505841 0.879407 0.905101
Si Si2 0.273528 0.187680 0.239606
Si Si3 0.856144 0.969868 0.406784
Si Si4 0.287041 0.784065 0.685477
Si Si5 0.438796 0.553662 0.037582
Si Si6 0.126073 0.971322 0.851509
O O1 0.371287 0.807269 0.692114
O O2 0.533113 0.934661 0.802910
O O3 0.607337 0.773388 0.119609
O O4 0.500000 0.000000 0.000000
O O5 0.184981 0.301768 0.171187
O O6 0.330534 0.057554 0.412309
O O7 0.200251 0.112785 0.010914
O O8 0.759378 0.060979 0.336909
O O9 0.986355 0.979960 0.678610
O O10 0.866568 0.041934 0.286961
O O11 0.176321 0.677952 0.485366
O O12 0.378058 0.710592 0.928019
O O13 0.500000 0.500000 0.000000
#
# Coordination Sequence:
#
# PCOD8128371 Si02
#       6
#     4   4   4   4   4   4
#     4  12  26  39  67 102 133 175 222 276 343 411
#     4  11  25  40  69  96 137 172 223 281 339 406
#     4  11  23  43  70  92 134 179 235 276 339 398
#     4  11  23  43  65  96 136 173 220 283 336 407
#     4  11  26  42  64 100 140 178 220 276 341 412
#     4  10  25  44  65  98 129 184 229 284 332 400
#
# _framework density 22.268097000000001
#
# number of rings (size 3 to 8) (size 9 to 14) (size 15 to 20)
#    0.000    1.000    3.333    2.000    9.333    0.000 
#    0.000    0.000    0.000   11.000    0.000    0.000 
#    0.000    0.000    0.000    0.000    0.000    0.000 
#
# Total GULP energy -297340.485187 kJ/mol
# GULP energy per Si atom -12389.186883 kJ/mol
# Density = 2.221741 g / cm^3
# Si number density = 22.268097 Si / 1000 Ang^3
#
#
#
# Elastic Constant Matrix: (Units=GPa)
#
#
# Indices 1 2 3 4 5 6 
#
# 1 80.2117 25.0883 36.9872 0.0000 7.8288 0.0000
# 2 25.0883 105.7284 36.9111 0.0000 3.3154 0.0000
# 3 36.9872 36.9111 112.0902 0.0000 10.3134 0.0000
# 4 0.0000 0.0000 0.0000 35.7505 0.0000 10.7733
# 5 7.8288 3.3154 10.3134 0.0000 41.4569 0.0000
# 6 0.0000 0.0000 0.0000 10.7733 0.0000 30.4074
#
#
#
# Elastic Compliance Matrix: (Units=1/GPa)
#
#
# Indices 1 2 3 4 5 6 
#
# 1 0.015211 -0.002100 -0.004175 0.000000 -0.001666 0.000000
# 2 -0.002100 0.010977 -0.002945 0.000000 0.000251 0.000000
# 3 -0.004175 -0.002945 0.011436 0.000000 -0.001821 0.000000
# 4 0.000000 0.000000 0.000000 0.031315 0.000000 -0.011095
# 5 -0.001666 0.000251 -0.001821 0.000000 0.024869 0.000000
# 6 0.000000 0.000000 0.000000 -0.011095 0.000000 0.036818
#
#
# Mechanical properties :
#
#
# Convention : Reuss Voigt Hill
#
# Bulk Modulus (GPa) = 52.12225 55.11150 53.61688
# Shear Modulus (GPa) = 32.16265 34.79254 33.47759
#
# Velocity S-wave (km/s) = 3.80457 3.95706 3.88156
# Velocity P-wave (km/s) = 6.53890 6.75874 6.64973
#
# Compressibility (1/GPa) = 0.01918566
#
# Stress axis : x y z
#
# Youngs Moduli (GPa) = 65.74007 91.10238 87.44155
#
# Poissons Ratio (x) = 0.19130 0.36504
# Poissons Ratio (y) = 0.13805 0.25750
# Poissons Ratio (z) = 0.27444 0.26828
#
# Static dielectric constant tensor:
#      x y z
#    x 4.118320 0.000000 0.401390 
#    y 0.000000 4.425140 0.000000 
#    z 0.401390 0.000000 4.320240 
# 
# 
# High freq. dielectric constant tensor:
#      x y z
#    x 1.850220 0.000000 0.018240 
#    y 0.000000 1.896960 0.000000 
#    z 0.018240 0.000000 1.884020 
# 
# From -- ./inp_files/35782.got.cif
#   From: 2010.03.12/outbox.cif.g09.slc.cpg/sg14_18_cif.got.tgz:35782.got - 2010.03.31 13:35:05.
