data_PCOD8128134
_publ_section_title
;
Structure prediction by ZEFSAII (Michael W. Deem and Ramdas Pophale) SiO2 
 PCOD8128134
Probable space group: P 21/C
;
_chemical_formula_sum "Si O2"
_cell_formula_units_Z 32
_cell_length_a 14.501278
_cell_length_b 11.294737
_cell_length_c 9.344382
_cell_angle_alpha 90.000000
_cell_angle_beta 105.223907
_cell_angle_gamma 90.000000
_cell_volume 1476.788994
_symmetry_space_group_name_H-M "P 21/C"
_symmetry_group_IT_number 14
_symmetry_cell_setting 'monoclinic'
loop_
_space_group_symop_operation_xyz
x,y,z
-x,1/2+y,1/2-z
-x,-y,-z
x,1/2-y,1/2+z
loop_
_atom_site_type_symbol
_atom_site_label
_atom_site_fract_x
_atom_site_fract_y
_atom_site_fract_z
Si Si1 0.553369 0.109703 0.248267
Si Si2 0.321027 0.380020 0.267287
Si Si3 0.653189 0.648730 0.390139
Si Si4 0.631817 0.302557 0.069332
Si Si5 0.817554 0.327713 0.560386
Si Si6 0.774134 0.032888 0.778275
Si Si7 0.126724 0.015039 0.690038
Si Si8 0.922963 0.094692 0.624871
O O1 0.443391 0.073035 0.176240
O O2 0.573109 0.221670 0.154225
O O3 0.563540 0.146005 0.418251
O O4 0.621370 0.000550 0.237300
O O5 0.362775 0.278718 0.182140
O O6 0.327483 0.340223 0.434093
O O7 0.209556 0.394065 0.177631
O O8 0.743177 0.585205 0.349605
O O9 0.712508 0.226211 0.024567
O O10 0.678963 0.411992 0.171494
O O11 0.827973 0.374006 0.403561
O O12 0.824154 0.436279 0.669844
O O13 0.897407 0.232244 0.634914
O O14 0.854391 0.007989 0.690007
O O15 0.033434 0.080881 0.714892
O O16 0.093176 0.933540 0.546946
#
# Coordination Sequence:
#
# PCOD8128134 Si02
#       8
#     4   4   4   4   4   4   4   4
#     4  12  25  45  73 101 141 182 242 285 345 417
#     4  12  27  49  68 100 148 185 230 293 353 413
#     4  12  29  45  69 101 143 191 231 288 354 415
#     4  11  22  40  72 101 132 183 231 297 335 406
#     4  11  20  43  67 101 131 179 228 285 343 411
#     4  11  23  42  68  98 137 174 238 280 341 412
#     4  11  23  46  68  98 141 175 222 292 351 412
#     4  10  24  40  71 103 131 178 232 281 349 420
#
# _framework density 21.668634000000001
#
# number of rings (size 3 to 8) (size 9 to 14) (size 15 to 20)
#    0.000    0.750    3.750    4.125    5.250    2.000 
#    4.500    0.000    0.000    0.000    0.000    0.000 
#    0.000    0.000    0.000    0.000    0.000    0.000 
#
# Total GULP energy -396928.110593 kJ/mol
# GULP energy per Si atom -12404.003456 kJ/mol
# Density = 2.161932 g / cm^3
# Si number density = 21.668634 Si / 1000 Ang^3
#
#
#
# Elastic Constant Matrix: (Units=GPa)
#
#
# Indices 1 2 3 4 5 6 
#
# 1 105.2471 30.7378 3.8172 0.0000 5.9776 0.0000
# 2 30.7378 62.2786 32.4689 0.0000 -1.0436 0.0000
# 3 3.8172 32.4689 92.7380 0.0000 -8.0389 0.0000
# 4 0.0000 0.0000 0.0000 27.1066 0.0000 -7.4408
# 5 5.9776 -1.0436 -8.0389 0.0000 31.3752 0.0000
# 6 0.0000 0.0000 0.0000 -7.4408 0.0000 10.0562
#
#
#
# Elastic Compliance Matrix: (Units=1/GPa)
#
#
# Indices 1 2 3 4 5 6 
#
# 1 0.011468 -0.006554 0.001651 0.000000 -0.001980 0.000000
# 2 -0.006554 0.023427 -0.007933 0.000000 -0.000005 0.000000
# 3 0.001651 -0.007933 0.013748 0.000000 0.002944 0.000000
# 4 0.000000 0.000000 0.000000 0.046294 0.000000 0.034254
# 5 -0.001980 -0.000005 0.002944 0.000000 0.033004 0.000000
# 6 0.000000 0.000000 0.000000 0.034254 0.000000 0.124786
#
#
# Mechanical properties :
#
#
# Convention : Reuss Voigt Hill
#
# Bulk Modulus (GPa) = 43.53247 43.81239 43.67243
# Shear Modulus (GPa) = 17.47911 26.59025 22.03468
#
# Velocity S-wave (km/s) = 2.84325 3.50684 3.19234
# Velocity P-wave (km/s) = 5.55990 6.05479 5.81261
#
# Compressibility (1/GPa) = 0.02297136
#
# Stress axis : x y z
#
# Youngs Moduli (GPa) = 87.19795 42.68509 72.73928
#
# Poissons Ratio (x) = 0.27976 -0.12009
# Poissons Ratio (y) = 0.57150 0.57703
# Poissons Ratio (z) = -0.14396 0.33862
#
# Static dielectric constant tensor:
#      x y z
#    x 4.045680 0.000000 -0.010250 
#    y 0.000000 3.851910 0.000000 
#    z -0.010250 0.000000 3.975180 
# 
# 
# High freq. dielectric constant tensor:
#      x y z
#    x 1.853170 0.000000 -0.004680 
#    y 0.000000 1.839790 0.000000 
#    z -0.004680 0.000000 1.865920 
# 
# From -- ./inp_files/15850.got.cif
#   From: 2010.03.12/outbox.cif.g09.slc.cpg/sg14_8_cif.got.tgz:15850.got - 2010.03.31 13:35:05.
