data_PCOD8128761
_publ_section_title
;
Structure prediction by ZEFSAII (Michael W. Deem and Ramdas Pophale) SiO2 
 PCOD8128761
Probable space group: P 21/C
;
_chemical_formula_sum "Si O2"
_cell_formula_units_Z 20
_cell_length_a 6.434141
_cell_length_b 8.924276
_cell_length_c 15.485135
_cell_angle_alpha 90.000000
_cell_angle_beta 76.008935
_cell_angle_gamma 90.000000
_cell_volume 862.778992
_symmetry_space_group_name_H-M "P 21/C"
_symmetry_group_IT_number 14
_symmetry_cell_setting 'monoclinic'
loop_
_space_group_symop_operation_xyz
x,y,z
-x,1/2+y,1/2-z
-x,-y,-z
x,1/2-y,1/2+z
loop_
_atom_site_type_symbol
_atom_site_label
_atom_site_fract_x
_atom_site_fract_y
_atom_site_fract_z
Si Si1 0.158550 0.616390 0.939637
Si Si2 0.055225 0.452968 0.204870
Si Si3 0.293032 0.317875 0.719604
Si Si4 0.520677 0.109517 0.368188
Si Si5 0.465343 0.672239 0.481460
O O1 0.388437 0.537626 0.905303
O O2 0.219160 0.771474 0.984219
O O3 0.050212 0.651172 0.858990
O O4 0.000000 0.500000 0.000000
O O5 0.166504 0.334890 0.258288
O O6 0.227586 0.571598 0.149613
O O7 0.866216 0.541404 0.271126
O O8 0.470485 0.339039 0.775602
O O9 0.394942 0.291622 0.616449
O O10 0.454800 0.238533 0.442278
O O11 0.500000 0.500000 0.500000
#
# Coordination Sequence:
#
# PCOD8128761 Si02
#       5
#     4   4   4   4   4
#     4  11  22  44  74  99 136 201 245 298 377 461
#     4  11  25  45  74 102 148 194 258 294 381 449
#     4  11  28  44  74 107 146 196 246 314 368 450
#     4  11  25  47  72 102 147 200 244 300 380 456
#     4  12  27  44  73 111 151 187 253 323 371 436
#
# _framework density 23.180907000000001
#
# number of rings (size 3 to 8) (size 9 to 14) (size 15 to 20)
#    0.000    0.800    4.000    1.800    8.400    0.000 
#    0.000    3.000    0.000    0.000    0.000    0.000 
#    0.000    0.000    0.000    0.000    0.000    0.000 
#
# Total GULP energy -247891.244946 kJ/mol
# GULP energy per Si atom -12394.562247 kJ/mol
# Density = 2.312815 g / cm^3
# Si number density = 23.180907 Si / 1000 Ang^3
#
#
#
# Elastic Constant Matrix: (Units=GPa)
#
#
# Indices 1 2 3 4 5 6 
#
# 1 122.0729 54.6598 34.0938 0.0000 9.5691 0.0000
# 2 54.6598 138.7510 39.6731 0.0000 23.9931 0.0000
# 3 34.0938 39.6731 71.4135 0.0000 4.2697 0.0000
# 4 0.0000 0.0000 0.0000 35.6360 0.0000 7.6717
# 5 9.5691 23.9931 4.2697 0.0000 21.0292 0.0000
# 6 0.0000 0.0000 0.0000 7.6717 0.0000 51.3489
#
#
#
# Elastic Compliance Matrix: (Units=1/GPa)
#
#
# Indices 1 2 3 4 5 6 
#
# 1 0.010547 -0.003121 -0.003267 0.000000 -0.000575 0.000000
# 2 -0.003121 0.011539 -0.004270 0.000000 -0.010878 0.000000
# 3 -0.003267 -0.004270 0.017770 0.000000 0.002750 0.000000
# 4 0.000000 0.000000 0.000000 0.028994 0.000000 -0.004332
# 5 -0.000575 -0.010878 0.002750 0.000000 0.059667 0.000000
# 6 0.000000 0.000000 0.000000 -0.004332 0.000000 0.020122
#
#
# Mechanical properties :
#
#
# Convention : Reuss Voigt Hill
#
# Bulk Modulus (GPa) = 53.93753 65.45453 59.69603
# Shear Modulus (GPa) = 28.38749 35.19021 31.78885
#
# Velocity S-wave (km/s) = 3.50323 3.90047 3.70717
# Velocity P-wave (km/s) = 6.29938 6.97012 6.64322
#
# Compressibility (1/GPa) = 0.01853996
#
# Stress axis : x y z
#
# Youngs Moduli (GPa) = 94.81444 86.66564 56.27435
#
# Poissons Ratio (x) = 0.27052 0.18384
# Poissons Ratio (y) = 0.29596 0.24027
# Poissons Ratio (z) = 0.30974 0.37003
#
# Static dielectric constant tensor:
#      x y z
#    x 4.437850 0.000000 0.176830 
#    y 0.000000 4.222250 0.000000 
#    z 0.176830 0.000000 4.285060 
# 
# 
# High freq. dielectric constant tensor:
#      x y z
#    x 1.926010 0.000000 0.007540 
#    y 0.000000 1.914620 0.000000 
#    z 0.007540 0.000000 1.911260 
# 
# From -- ./inp_files/52650.got.cif
#   From: 2010.03.12/outbox.cif.g09.slc.cpg/sg14_27_cif.got.tgz:52650.got - 2010.03.31 13:35:05.
