data_PCOD8128117
_publ_section_title
;
Structure prediction by ZEFSAII (Michael W. Deem and Ramdas Pophale) SiO2 
 PCOD8128117
Probable space group: P 21/C
;
_chemical_formula_sum "Si O2"
_cell_formula_units_Z 28
_cell_length_a 6.756365
_cell_length_b 29.874073
_cell_length_c 8.839484
_cell_angle_alpha 90.000000
_cell_angle_beta 129.435916
_cell_angle_gamma 90.000000
_cell_volume 1377.972260
_symmetry_space_group_name_H-M "P 21/C"
_symmetry_group_IT_number 14
_symmetry_cell_setting 'monoclinic'
loop_
_space_group_symop_operation_xyz
x,y,z
-x,1/2+y,1/2-z
-x,-y,-z
x,1/2-y,1/2+z
loop_
_atom_site_type_symbol
_atom_site_label
_atom_site_fract_x
_atom_site_fract_y
_atom_site_fract_z
Si Si1 0.502095 0.346440 0.942955
Si Si2 0.486567 0.003966 0.744886
Si Si3 0.287519 0.560925 0.390615
Si Si4 0.715528 0.940229 0.621768
Si Si5 0.010873 0.704981 0.316952
Si Si6 0.013315 0.698563 0.674164
Si Si7 0.517183 0.153926 0.096695
O O1 0.480822 0.398977 0.971381
O O2 0.560633 0.339519 0.795488
O O3 0.241499 0.321016 0.862584
O O4 0.736115 0.328233 0.153974
O O5 0.312747 0.029928 0.540903
O O6 0.303420 0.976658 0.768715
O O7 0.678829 0.970589 0.752429
O O8 0.648171 0.040128 0.915992
O O9 0.474887 0.601895 0.444851
O O10 0.000439 0.579814 0.261573
O O11 0.029426 0.707021 0.505106
O O12 0.995268 0.755112 0.251743
O O13 0.266170 0.681950 0.381208
O O14 0.760949 0.670239 0.592300
#
# Coordination Sequence:
#
# PCOD8128117 Si02
#       7
#     4   4   4   4   4   4   4
#     4  11  24  42  67  97 134 168 211 269 313 383
#     4  10  24  40  63  94 126 173 213 264 315 373
#     4  11  22  43  64  94 131 168 214 263 316 374
#     4  11  22  42  64  95 130 169 215 261 317 374
#     4  11  24  46  67  94 128 168 213 262 323 378
#     4  11  26  43  68  97 126 168 213 261 323 385
#     4  11  24  42  67  97 133 168 213 265 318 381
#
# _framework density 20.319711999999999
#
# number of rings (size 3 to 8) (size 9 to 14) (size 15 to 20)
#    0.000    1.143    2.857    2.571    2.000    5.714 
#   10.286    0.000    0.000    0.000    0.000    0.000 
#    0.000    0.000    0.000    0.000    0.000    0.000 
#
# Total GULP energy -347359.693556 kJ/mol
# GULP energy per Si atom -12405.703341 kJ/mol
# Density = 2.027346 g / cm^3
# Si number density = 20.319712 Si / 1000 Ang^3
#
#
#
# Elastic Constant Matrix: (Units=GPa)
#
#
# Indices 1 2 3 4 5 6 
#
# 1 113.0599 40.9772 56.0904 0.0000 14.0878 0.0000
# 2 40.9772 115.7733 40.2416 0.0000 11.3374 0.0000
# 3 56.0904 40.2416 97.6519 0.0000 17.0836 0.0000
# 4 0.0000 0.0000 0.0000 28.7397 0.0000 7.8393
# 5 14.0878 11.3374 17.0836 0.0000 30.3363 0.0000
# 6 0.0000 0.0000 0.0000 7.8393 0.0000 34.3743
#
#
#
# Elastic Compliance Matrix: (Units=1/GPa)
#
#
# Indices 1 2 3 4 5 6 
#
# 1 0.012958 -0.002261 -0.006219 0.000000 -0.001670 0.000000
# 2 -0.002261 0.010545 -0.002819 0.000000 -0.001304 0.000000
# 3 -0.006219 -0.002819 0.015846 0.000000 -0.004982 0.000000
# 4 0.000000 0.000000 0.000000 0.037103 0.000000 -0.008462
# 5 -0.001670 -0.001304 -0.004982 0.000000 0.037032 0.000000
# 6 0.000000 0.000000 0.000000 -0.008462 0.000000 0.031021
#
#
# Mechanical properties :
#
#
# Convention : Reuss Voigt Hill
#
# Bulk Modulus (GPa) = 59.69717 66.78928 63.24323
# Shear Modulus (GPa) = 28.95416 31.30177 30.12797
#
# Velocity S-wave (km/s) = 3.77892 3.92913 3.85476
# Velocity P-wave (km/s) = 6.96298 7.31606 7.14170
#
# Compressibility (1/GPa) = 0.01675121
#
# Stress axis : x y z
#
# Youngs Moduli (GPa) = 77.17387 94.82864 63.10881
#
# Poissons Ratio (x) = 0.21442 0.39246
# Poissons Ratio (y) = 0.17450 0.17789
# Poissons Ratio (z) = 0.47993 0.26730
#
# Static dielectric constant tensor:
#      x y z
#    x 3.786920 0.000000 -0.076050 
#    y 0.000000 3.596590 0.000000 
#    z -0.076050 0.000000 3.675870 
# 
# 
# High freq. dielectric constant tensor:
#      x y z
#    x 1.807080 0.000000 -0.005330 
#    y 0.000000 1.810100 0.000000 
#    z -0.005330 0.000000 1.795140 
# 
# From -- ./inp_files/6844.got.cif
#   From: 2010.03.12/outbox.cif.g09.slc.cpg/sg14_4_cif.got.tgz:6844.got - 2010.03.31 13:35:05.
