data_PCOD8128225
_publ_section_title
;
Structure prediction by ZEFSAII (Michael W. Deem and Ramdas Pophale) SiO2 
 PCOD8128225
Probable space group: P 21/C
;
_chemical_formula_sum "Si O2"
_cell_formula_units_Z 12
_cell_length_a 8.112943
_cell_length_b 11.778075
_cell_length_c 12.051066
_cell_angle_alpha 90.000000
_cell_angle_beta 151.165426
_cell_angle_gamma 90.000000
_cell_volume 555.366395
_symmetry_space_group_name_H-M "P 21/C"
_symmetry_group_IT_number 14
_symmetry_cell_setting 'monoclinic'
loop_
_space_group_symop_operation_xyz
x,y,z
-x,1/2+y,1/2-z
-x,-y,-z
x,1/2-y,1/2+z
loop_
_atom_site_type_symbol
_atom_site_label
_atom_site_fract_x
_atom_site_fract_y
_atom_site_fract_z
Si Si1 0.421626 0.598071 0.539294
Si Si2 0.386174 0.971963 0.254491
Si Si3 0.368357 0.340491 0.904853
O O1 0.500000 0.500000 0.500000
O O2 0.568744 0.558613 0.746063
O O3 0.624727 0.709264 0.621291
O O4 0.020793 0.622762 0.305770
O O5 0.420968 0.864068 0.357740
O O6 0.539915 0.083402 0.407329
O O7 0.000000 0.000000 0.000000
#
# Coordination Sequence:
#
# PCOD8128225 Si02
#       3
#     4   4   4
#     4  11  26  41  69  99 131 175 222 270 333 389
#     4   9  22  44  66  93 131 173 219 268 328 382
#     4  10  24  43  68  95 137 171 222 273 324 394
#
# _framework density 21.607358000000001
#
# number of rings (size 3 to 8) (size 9 to 14) (size 15 to 20)
#    0.000    2.000    0.000    0.000   18.667    4.000 
#    0.000    0.000    0.000    0.000    0.000    0.000 
#    0.000    0.000    0.000    0.000    0.000    0.000 
#
# Total GULP energy -148761.033034 kJ/mol
# GULP energy per Si atom -12396.752753 kJ/mol
# Density = 2.155818 g / cm^3
# Si number density = 21.607358 Si / 1000 Ang^3
#
#
#
# Elastic Constant Matrix: (Units=GPa)
#
#
# Indices 1 2 3 4 5 6 
#
# 1 149.6204 110.0109 65.0254 0.0000 -48.1661 0.0000
# 2 110.0109 196.0304 42.8554 0.0000 -30.3818 0.0000
# 3 65.0254 42.8554 99.3670 0.0000 -31.5180 0.0000
# 4 0.0000 0.0000 0.0000 30.6342 0.0000 -1.4390
# 5 -48.1661 -30.3818 -31.5180 0.0000 52.7915 0.0000
# 6 0.0000 0.0000 0.0000 -1.4390 0.0000 49.8717
#
#
#
# Elastic Compliance Matrix: (Units=1/GPa)
#
#
# Indices 1 2 3 4 5 6 
#
# 1 0.016744 -0.006970 -0.005401 0.000000 0.008042 0.000000
# 2 -0.006970 0.008750 0.000453 0.000000 -0.001053 0.000000
# 3 -0.005401 0.000453 0.014707 0.000000 0.004114 0.000000
# 4 0.000000 0.000000 0.000000 0.032688 0.000000 0.000943
# 5 0.008042 -0.001053 0.004114 0.000000 0.028130 0.000000
# 6 0.000000 0.000000 0.000000 0.000943 0.000000 0.020079
#
#
# Mechanical properties :
#
#
# Convention : Reuss Voigt Hill
#
# Bulk Modulus (GPa) = 61.09674 97.86680 79.48177
# Shear Modulus (GPa) = 33.24735 41.80122 37.52429
#
# Velocity S-wave (km/s) = 3.92689 4.40316 4.17183
# Velocity P-wave (km/s) = 6.99270 8.44050 7.75048
#
# Compressibility (1/GPa) = 0.01636749
#
# Stress axis : x y z
#
# Youngs Moduli (GPa) = 59.72281 114.28103 67.99318
#
# Poissons Ratio (x) = 0.79650 0.36721
# Poissons Ratio (y) = 0.41625 -0.03081
# Poissons Ratio (z) = 0.32254 -0.05179
#
# Static dielectric constant tensor:
#      x y z
#    x 4.274380 0.000000 -0.553210 
#    y 0.000000 4.286050 0.000000 
#    z -0.553210 0.000000 4.097610 
# 
# 
# High freq. dielectric constant tensor:
#      x y z
#    x 1.846720 0.000000 -0.022590 
#    y 0.000000 1.852260 0.000000 
#    z -0.022590 0.000000 1.852780 
# 
# From -- ./inp_files/4742.got.cif
#   From: 2010.03.12/outbox.cif.g09.slc.cpg/sg14_3_cif.got.tgz:4742.got - 2010.03.31 13:35:05.
