data_PCOD8128918
_publ_section_title
;
Structure prediction by ZEFSAII (Michael W. Deem and Ramdas Pophale) SiO2 
 PCOD8128918
Probable space group: P 21/C
;
_chemical_formula_sum "Si O2"
_cell_formula_units_Z 20
_cell_length_a 22.876890
_cell_length_b 6.645826
_cell_length_c 15.637831
_cell_angle_alpha 90.000000
_cell_angle_beta 22.203662
_cell_angle_gamma 90.000000
_cell_volume 898.461174
_symmetry_space_group_name_H-M "P 21/C"
_symmetry_group_IT_number 14
_symmetry_cell_setting 'monoclinic'
loop_
_space_group_symop_operation_xyz
x,y,z
-x,1/2+y,1/2-z
-x,-y,-z
x,1/2-y,1/2+z
loop_
_atom_site_type_symbol
_atom_site_label
_atom_site_fract_x
_atom_site_fract_y
_atom_site_fract_z
Si Si1 0.907627 0.651892 0.562793
Si Si2 0.675848 0.958159 0.239814
Si Si3 0.198172 0.765116 0.077908
Si Si4 0.616745 0.881571 0.693421
Si Si5 0.327164 0.075812 0.027952
O O1 0.770813 0.534976 0.699249
O O2 0.827634 0.831844 0.722916
O O3 0.000000 0.500000 0.500000
O O4 0.015157 0.757393 0.345419
O O5 0.671531 0.738559 0.202653
O O6 0.500000 0.000000 0.500000
O O7 0.759046 0.123294 0.067754
O O8 0.281281 0.871811 0.043695
O O9 0.245660 0.533511 0.012086
O O10 0.594461 0.732265 0.643558
O O11 0.457108 0.009645 0.921918
#
# Coordination Sequence:
#
# PCOD8128918 Si02
#       5
#     4   4   4   4   4
#     4  12  27  46  72 106 144 189 242 301 364 433
#     4  11  29  48  71 107 147 194 241 293 363 442
#     4  11  25  45  72 102 147 182 237 302 367 422
#     4  11  23  45  73 105 142 188 241 299 360 437
#     4  11  23  43  75 105 138 187 242 299 359 436
#
# _framework density 22.260283000000001
#
# number of rings (size 3 to 8) (size 9 to 14) (size 15 to 20)
#    0.000    0.800    4.000    1.800    8.400    3.200 
#    0.000    0.000    0.000    0.000    0.000    0.000 
#    0.000    0.000    0.000    0.000    0.000    0.000 
#
# Total GULP energy -247996.346655 kJ/mol
# GULP energy per Si atom -12399.817333 kJ/mol
# Density = 2.220962 g / cm^3
# Si number density = 22.260283 Si / 1000 Ang^3
#
#
#
# Elastic Constant Matrix: (Units=GPa)
#
#
# Indices 1 2 3 4 5 6 
#
# 1 125.7462 45.2768 44.0883 0.0000 -16.3792 0.0000
# 2 45.2768 119.6916 51.0695 0.0000 -2.8808 0.0000
# 3 44.0883 51.0695 155.4916 0.0000 0.8865 0.0000
# 4 0.0000 0.0000 0.0000 45.6965 0.0000 -2.8294
# 5 -16.3792 -2.8808 0.8865 0.0000 33.3811 0.0000
# 6 0.0000 0.0000 0.0000 -2.8294 0.0000 23.5323
#
#
#
# Elastic Compliance Matrix: (Units=1/GPa)
#
#
# Indices 1 2 3 4 5 6 
#
# 1 0.010348 -0.002946 -0.001994 0.000000 0.004876 0.000000
# 2 -0.002946 0.010584 -0.002638 0.000000 -0.000462 0.000000
# 3 -0.001994 -0.002638 0.007871 0.000000 -0.001415 0.000000
# 4 0.000000 0.000000 0.000000 0.022048 0.000000 0.002651
# 5 0.004876 -0.000462 -0.001415 0.000000 0.032347 0.000000
# 6 0.000000 0.000000 0.000000 0.002651 0.000000 0.042814
#
#
# Mechanical properties :
#
#
# Convention : Reuss Voigt Hill
#
# Bulk Modulus (GPa) = 73.28275 75.75541 74.51908
# Shear Modulus (GPa) = 34.31322 37.88829 36.10076
#
# Velocity S-wave (km/s) = 3.93040 4.13008 4.03147
# Velocity P-wave (km/s) = 7.32050 7.53982 7.43097
#
# Compressibility (1/GPa) = 0.01364578
#
# Stress axis : x y z
#
# Youngs Moduli (GPa) = 96.64069 94.48444 127.04564
#
# Poissons Ratio (x) = 0.27836 0.25335
# Poissons Ratio (y) = 0.28471 0.33517
# Poissons Ratio (z) = 0.19272 0.24926
#
# Static dielectric constant tensor:
#      x y z
#    x 4.020640 0.000000 0.038480 
#    y 0.000000 4.078990 0.000000 
#    z 0.038480 0.000000 4.424640 
# 
# 
# High freq. dielectric constant tensor:
#      x y z
#    x 1.864560 0.000000 -0.004360 
#    y 0.000000 1.886690 0.000000 
#    z -0.004360 0.000000 1.892420 
# 
# From -- ./inp_files/62122.got.cif
#   From: 2010.03.12/outbox.cif.g09.slc.cpg/sg14_32_cif.got.tgz:62122.got - 2010.03.31 13:35:05.
