data_PCOD8128674
_publ_section_title
;
Structure prediction by ZEFSAII (Michael W. Deem and Ramdas Pophale) SiO2 
 PCOD8128674
Probable space group: P 21/C
;
_chemical_formula_sum "Si O2"
_cell_formula_units_Z 20
_cell_length_a 7.582058
_cell_length_b 17.778952
_cell_length_c 6.970576
_cell_angle_alpha 90.000000
_cell_angle_beta 58.515727
_cell_angle_gamma 90.000000
_cell_volume 801.310330
_symmetry_space_group_name_H-M "P 21/C"
_symmetry_group_IT_number 14
_symmetry_cell_setting 'monoclinic'
loop_
_space_group_symop_operation_xyz
x,y,z
-x,1/2+y,1/2-z
-x,-y,-z
x,1/2-y,1/2+z
loop_
_atom_site_type_symbol
_atom_site_label
_atom_site_fract_x
_atom_site_fract_y
_atom_site_fract_z
Si Si1 0.855749 0.486030 0.842404
Si Si2 0.016441 0.874910 0.451111
Si Si3 0.565794 0.336895 0.458692
Si Si4 0.589876 0.821724 0.563977
Si Si5 0.434526 0.447350 0.243594
O O1 0.779928 0.503311 0.663892
O O2 0.944511 0.403220 0.848061
O O3 0.012927 0.549749 0.823115
O O4 0.635991 0.497999 0.082766
O O5 0.811626 0.826212 0.546719
O O6 0.210444 0.826652 0.267031
O O7 0.582743 0.344910 0.679313
O O8 0.432041 0.263471 0.490298
O O9 0.450337 0.412762 0.447451
O O10 0.570499 0.874635 0.392697
#
# Coordination Sequence:
#
# PCOD8128674 Si02
#       5
#     4   4   4   4   4
#     4   8  16  38  60  82 118 155 181 242 293 327
#     4   9  20  38  62  86 118 151 194 238 286 345
#     4  11  22  39  58  88 119 154 192 237 289 344
#     4  11  22  39  58  88 119 154 192 237 289 344
#     4   9  18  38  62  84 120 149 190 240 286 343
#
# _framework density 24.959116999999999
#
# number of rings (size 3 to 8) (size 9 to 14) (size 15 to 20)
#    0.000    2.400    2.000    0.000    0.000    1.600 
#    0.000   38.000    0.000    0.000    0.000    0.000 
#    0.000    0.000    0.000    0.000    0.000    0.000 
#
# Total GULP energy -247810.809889 kJ/mol
# GULP energy per Si atom -12390.540494 kJ/mol
# Density = 2.490231 g / cm^3
# Si number density = 24.959117 Si / 1000 Ang^3
#
#
#
# Elastic Constant Matrix: (Units=GPa)
#
#
# Indices 1 2 3 4 5 6 
#
# 1 89.3529 11.2781 -9.3768 0.0000 -17.8362 0.0000
# 2 11.2781 47.9266 5.1744 0.0000 -23.9731 0.0000
# 3 -9.3768 5.1744 27.2655 0.0000 6.9854 0.0000
# 4 0.0000 0.0000 0.0000 27.1713 0.0000 -2.1584
# 5 -17.8362 -23.9731 6.9854 0.0000 25.3265 0.0000
# 6 0.0000 0.0000 0.0000 -2.1584 0.0000 42.9482
#
#
#
# Elastic Compliance Matrix: (Units=1/GPa)
#
#
# Indices 1 2 3 4 5 6 
#
# 1 0.013267 0.002372 0.001230 0.000000 0.011249 0.000000
# 2 0.002372 0.051052 -0.023330 0.000000 0.056429 0.000000
# 3 0.001230 -0.023330 0.050534 0.000000 -0.035155 0.000000
# 4 0.000000 0.000000 0.000000 0.036951 0.000000 0.001857
# 5 0.011249 0.056429 -0.035155 0.000000 0.110517 0.000000
# 6 0.000000 0.000000 0.000000 0.001857 0.000000 0.023377
#
#
# Mechanical properties :
#
#
# Convention : Reuss Voigt Hill
#
# Bulk Modulus (GPa) = 13.26302 19.85514 16.55908
# Shear Modulus (GPa) = 14.27410 29.58716 21.93063
#
# Velocity S-wave (km/s) = 2.39404 3.44674 2.96744
# Velocity P-wave (km/s) = 3.60101 4.87979 4.28833
#
# Compressibility (1/GPa) = 0.07539763
#
# Stress axis : x y z
#
# Youngs Moduli (GPa) = 75.37612 19.58784 19.78883
#
# Poissons Ratio (x) = -0.04646 -0.02435
# Poissons Ratio (y) = -0.17880 0.46167
# Poissons Ratio (z) = -0.09274 0.45698
#
# Static dielectric constant tensor:
#      x y z
#    x 4.927910 0.000000 0.178150 
#    y 0.000000 4.310470 0.000000 
#    z 0.178150 0.000000 4.027210 
# 
# 
# High freq. dielectric constant tensor:
#      x y z
#    x 2.011450 0.000000 0.008360 
#    y 0.000000 1.983970 0.000000 
#    z 0.008360 0.000000 1.959250 
# 
# From -- ./inp_files/5632.got.cif
#   From: 2010.03.12/outbox.cif.g09.slc.cpg/sg14_3_cif.got.tgz:5632.got - 2010.03.31 13:35:05.
