data_PCOD8128770
_publ_section_title
;
Structure prediction by ZEFSAII (Michael W. Deem and Ramdas Pophale) SiO2 
 PCOD8128770
Probable space group: P 21/C
;
_chemical_formula_sum "Si O2"
_cell_formula_units_Z 24
_cell_length_a 25.265758
_cell_length_b 9.167016
_cell_length_c 8.521756
_cell_angle_alpha 90.000000
_cell_angle_beta 31.893603
_cell_angle_gamma 90.000000
_cell_volume 1042.811525
_symmetry_space_group_name_H-M "P 21/C"
_symmetry_group_IT_number 14
_symmetry_cell_setting 'monoclinic'
loop_
_space_group_symop_operation_xyz
x,y,z
-x,1/2+y,1/2-z
-x,-y,-z
x,1/2-y,1/2+z
loop_
_atom_site_type_symbol
_atom_site_label
_atom_site_fract_x
_atom_site_fract_y
_atom_site_fract_z
Si Si1 0.593794 0.414682 0.828276
Si Si2 0.890714 0.209608 0.331871
Si Si3 0.879309 0.788043 0.243534
Si Si4 0.809822 0.447719 0.742968
Si Si5 0.407654 0.909395 0.297110
Si Si6 0.194947 0.047274 0.280148
O O1 0.590716 0.254423 0.766542
O O2 0.691481 0.499022 0.523945
O O3 0.500000 0.500000 0.000000
O O4 0.589395 0.408806 0.024749
O O5 0.855113 0.369353 0.475314
O O6 0.821658 0.161668 0.360722
O O7 0.875979 0.092560 0.509955
O O8 0.005893 0.213508 0.989225
O O9 0.844087 0.628189 0.278097
O O10 0.810169 0.841413 0.560151
O O11 0.868414 0.901572 0.125647
O O12 0.693538 0.485010 0.010643
O O13 0.500000 0.000000 0.000000
#
# Coordination Sequence:
#
# PCOD8128770 Si02
#       6
#     4   4   4   4   4   4
#     4  12  29  49  78 109 143 192 246 311 377 445
#     4  11  22  45  71 104 147 193 243 300 366 436
#     4  11  25  42  71 105 148 196 239 301 362 441
#     4  11  24  42  72 102 144 188 243 297 365 433
#     4  12  28  50  77 107 144 194 247 307 375 440
#     4  11  26  44  69 105 149 187 250 301 365 438
#
# _framework density 23.014704999999999
#
# number of rings (size 3 to 8) (size 9 to 14) (size 15 to 20)
#    0.000    0.667    1.667    6.000   11.667    0.000 
#    0.000    3.333    0.000    0.000    0.000    0.000 
#    0.000    0.000    0.000    0.000    0.000    0.000 
#
# Total GULP energy -297756.832165 kJ/mol
# GULP energy per Si atom -12406.534674 kJ/mol
# Density = 2.296232 g / cm^3
# Si number density = 23.014705 Si / 1000 Ang^3
#
#
#
# Elastic Constant Matrix: (Units=GPa)
#
#
# Indices 1 2 3 4 5 6 
#
# 1 124.4964 34.2703 70.9543 0.0000 -15.2071 0.0000
# 2 34.2703 75.5801 52.4642 0.0000 -2.2718 0.0000
# 3 70.9543 52.4642 178.6876 0.0000 -10.7685 0.0000
# 4 0.0000 0.0000 0.0000 40.9117 0.0000 -4.0839
# 5 -15.2071 -2.2718 -10.7685 0.0000 40.1082 0.0000
# 6 0.0000 0.0000 0.0000 -4.0839 0.0000 42.5431
#
#
#
# Elastic Compliance Matrix: (Units=1/GPa)
#
#
# Indices 1 2 3 4 5 6 
#
# 1 0.011089 -0.002522 -0.003474 0.000000 0.003129 0.000000
# 2 -0.002522 0.017197 -0.004113 0.000000 -0.001087 0.000000
# 3 -0.003474 -0.004113 0.008223 0.000000 0.000658 0.000000
# 4 0.000000 0.000000 0.000000 0.024679 0.000000 0.002369
# 5 0.003129 -0.001087 0.000658 0.000000 0.026234 0.000000
# 6 0.000000 0.000000 0.000000 0.002369 0.000000 0.023733
#
#
# Mechanical properties :
#
#
# Convention : Reuss Voigt Hill
#
# Bulk Modulus (GPa) = 61.38739 77.12684 69.25712
# Shear Modulus (GPa) = 36.54846 39.45095 37.99970
#
# Velocity S-wave (km/s) = 3.98936 4.14474 4.06779
# Velocity P-wave (km/s) = 6.92466 7.51597 7.22637
#
# Compressibility (1/GPa) = 0.01628999
#
# Stress axis : x y z
#
# Youngs Moduli (GPa) = 90.18053 58.14891 121.60808
#
# Poissons Ratio (x) = 0.14668 0.42247
# Poissons Ratio (y) = 0.22748 0.50019
# Poissons Ratio (z) = 0.31329 0.23917
#
# Static dielectric constant tensor:
#      x y z
#    x 4.301580 0.000000 0.054850 
#    y 0.000000 4.427890 0.000000 
#    z 0.054850 0.000000 4.211840 
# 
# 
# High freq. dielectric constant tensor:
#      x y z
#    x 1.923350 0.000000 0.003560 
#    y 0.000000 1.921650 0.000000 
#    z 0.003560 0.000000 1.913680 
# 
# From -- ./inp_files/19459.got.cif
#   From: 2010.03.12/outbox.cif.g09.slc.cpg/sg14_10_cif.got.tgz:19459.got - 2010.03.31 13:35:05.
