data_PCOD8128360
_publ_section_title
;
Structure prediction by ZEFSAII (Michael W. Deem and Ramdas Pophale) SiO2 
 PCOD8128360
Probable space group: P 21/C
;
_chemical_formula_sum "Si O2"
_cell_formula_units_Z 28
_cell_length_a 24.312203
_cell_length_b 7.583802
_cell_length_c 10.350250
_cell_angle_alpha 90.000000
_cell_angle_beta 36.243639
_cell_angle_gamma 90.000000
_cell_volume 1128.265579
_symmetry_space_group_name_H-M "P 21/C"
_symmetry_group_IT_number 14
_symmetry_cell_setting 'monoclinic'
loop_
_space_group_symop_operation_xyz
x,y,z
-x,1/2+y,1/2-z
-x,-y,-z
x,1/2-y,1/2+z
loop_
_atom_site_type_symbol
_atom_site_label
_atom_site_fract_x
_atom_site_fract_y
_atom_site_fract_z
Si Si1 0.439300 0.082553 0.946697
Si Si2 0.728701 0.165058 0.747517
Si Si3 0.774718 0.958811 0.223300
Si Si4 0.869584 0.073777 0.282342
Si Si5 0.918060 0.794354 0.771032
Si Si6 0.104770 0.583480 0.882280
Si Si7 0.599661 0.661234 0.199864
O O1 0.448660 0.188706 0.795415
O O2 0.543040 0.020004 0.785905
O O3 0.401381 0.198935 0.142259
O O4 0.373535 0.914502 0.041524
O O5 0.723436 0.378218 0.748050
O O6 0.768378 0.083310 0.540603
O O7 0.797339 0.106057 0.732933
O O8 0.856333 0.035594 0.156676
O O9 0.703738 0.851261 0.447565
O O10 0.825333 0.825143 0.030210
O O11 0.911431 0.272898 0.205311
O O12 0.931341 0.917481 0.228391
O O13 0.014380 0.877895 0.646270
O O14 0.899204 0.887582 0.667931
#
# Coordination Sequence:
#
# PCOD8128360 Si02
#       7
#     4   4   4   4   4   4   4
#     4  11  25  46  74 107 143 188 233 301 357 440
#     4  11  23  43  68  94 141 177 228 290 356 411
#     4  11  24  43  68 100 135 179 232 286 351 429
#     4  11  23  43  64  95 133 184 222 296 337 418
#     4  11  24  42  67  95 138 182 240 289 354 417
#     4  10  25  43  63 100 134 185 237 291 349 423
#     4  11  25  46  72 107 142 184 242 289 369 431
#
# _framework density 24.816851
#
# number of rings (size 3 to 8) (size 9 to 14) (size 15 to 20)
#    0.000    1.143    2.857    2.143    4.000    4.000 
#    0.000    0.000    0.000    0.000    0.000    0.000 
#    0.000    0.000    0.000    0.000    0.000    0.000 
#
# Total GULP energy -346999.973938 kJ/mol
# GULP energy per Si atom -12392.856212 kJ/mol
# Density = 2.476037 g / cm^3
# Si number density = 24.816851 Si / 1000 Ang^3
#
#
#
# Elastic Constant Matrix: (Units=GPa)
#
#
# Indices 1 2 3 4 5 6 
#
# 1 60.7876 7.8795 11.4513 0.0000 10.5799 0.0000
# 2 7.8795 80.6178 13.7210 0.0000 22.1160 0.0000
# 3 11.4513 13.7210 105.5812 0.0000 4.5793 0.0000
# 4 0.0000 0.0000 0.0000 33.0826 0.0000 -0.9217
# 5 10.5799 22.1160 4.5793 0.0000 28.9792 0.0000
# 6 0.0000 0.0000 0.0000 -0.9217 0.0000 33.2618
#
#
#
# Elastic Compliance Matrix: (Units=1/GPa)
#
#
# Indices 1 2 3 4 5 6 
#
# 1 0.017860 0.000327 -0.001698 0.000000 -0.006502 0.000000
# 2 0.000327 0.015944 -0.001585 0.000000 -0.012037 0.000000
# 3 -0.001698 -0.001585 0.009850 0.000000 0.000273 0.000000
# 4 0.000000 0.000000 0.000000 0.030251 0.000000 0.000838
# 5 -0.006502 -0.012037 0.000273 0.000000 0.046024 0.000000
# 6 0.000000 0.000000 0.000000 0.000838 0.000000 0.030088
#
#
# Mechanical properties :
#
#
# Convention : Reuss Voigt Hill
#
# Bulk Modulus (GPa) = 26.49609 34.78780 30.64194
# Shear Modulus (GPa) = 29.67205 33.32706 31.49956
#
# Velocity S-wave (km/s) = 3.46156 3.66856 3.56656
# Velocity P-wave (km/s) = 5.16491 5.65621 5.41614
#
# Compressibility (1/GPa) = 0.03774142
#
# Stress axis : x y z
#
# Youngs Moduli (GPa) = 55.99195 62.71873 101.52606
#
# Poissons Ratio (x) = -0.02050 0.17235
# Poissons Ratio (y) = -0.01830 0.16096
# Poissons Ratio (z) = 0.09505 0.09944
#
# Static dielectric constant tensor:
#      x y z
#    x 4.186770 0.000000 0.105080 
#    y 0.000000 4.516180 0.000000 
#    z 0.105080 0.000000 4.505580 
# 
# 
# High freq. dielectric constant tensor:
#      x y z
#    x 1.970040 0.000000 -0.002330 
#    y 0.000000 1.986070 0.000000 
#    z -0.002330 0.000000 1.994470 
# 
# From -- ./inp_files/36373.got.cif
#   From: 2010.03.12/outbox.cif.g09.slc.cpg/sg14_19_cif.got.tgz:36373.got - 2010.03.31 13:35:05.
