data_PCOD8128455
_publ_section_title
;
Structure prediction by ZEFSAII (Michael W. Deem and Ramdas Pophale) SiO2 
 PCOD8128455
Probable space group: P 21/C
;
_chemical_formula_sum "Si O2"
_cell_formula_units_Z 32
_cell_length_a 8.953771
_cell_length_b 10.666961
_cell_length_c 20.660376
_cell_angle_alpha 90.000000
_cell_angle_beta 129.956620
_cell_angle_gamma 90.000000
_cell_volume 1512.566836
_symmetry_space_group_name_H-M "P 21/C"
_symmetry_group_IT_number 14
_symmetry_cell_setting 'monoclinic'
loop_
_space_group_symop_operation_xyz
x,y,z
-x,1/2+y,1/2-z
-x,-y,-z
x,1/2-y,1/2+z
loop_
_atom_site_type_symbol
_atom_site_label
_atom_site_fract_x
_atom_site_fract_y
_atom_site_fract_z
Si Si1 0.805547 0.628452 0.480336
Si Si2 0.773921 0.494456 0.788482
Si Si3 0.369102 0.975351 0.524399
Si Si4 0.087460 0.456849 0.623990
Si Si5 0.098912 0.797154 0.382509
Si Si6 0.446468 0.557682 0.795365
Si Si7 0.381937 0.697535 0.351457
Si Si8 0.975329 0.882537 0.541362
O O1 0.902150 0.549194 0.565430
O O2 0.586531 0.660642 0.442282
O O3 0.950228 0.745749 0.503211
O O4 0.797252 0.548659 0.411992
O O5 0.590485 0.555168 0.774099
O O6 0.712618 0.427988 0.704806
O O7 0.939703 0.597365 0.818784
O O8 0.855044 0.385131 0.858363
O O9 0.238594 0.849388 0.479054
O O10 0.480675 0.971121 0.624168
O O11 0.500000 0.000000 0.500000
O O12 0.233090 0.097362 0.483109
O O13 0.015198 0.322109 0.625216
O O14 0.233311 0.508050 0.718576
O O15 0.233618 0.763337 0.359140
O O16 0.434296 0.703415 0.810194
O O17 0.000000 0.000000 0.500000
#
# Coordination Sequence:
#
# PCOD8128455 Si02
#       8
#     4   4   4   4   4   4   4   4
#     4  11  22  45  65  98 140 183 233 289 356 422
#     4  11  25  41  70 104 134 183 240 287 355 416
#     4  11  21  40  69  97 130 176 228 285 350 415
#     4  11  26  42  67  99 143 182 232 295 353 415
#     4  11  26  45  67  99 144 181 234 292 355 426
#     4  12  23  44  70 102 135 185 241 293 345 421
#     4  12  24  45  71  99 144 182 233 293 349 425
#     4  11  19  37  67  96 131 175 226 290 339 410
#
# _framework density 21.156089999999999
#
# number of rings (size 3 to 8) (size 9 to 14) (size 15 to 20)
#    0.000    0.750    5.000    3.000    1.750    0.500 
#    2.250    1.250    0.000    0.000    0.000    0.000 
#    0.000    0.000    0.000    0.000    0.000    0.000 
#
# Total GULP energy -396690.062574 kJ/mol
# GULP energy per Si atom -12396.564455 kJ/mol
# Density = 2.110794 g / cm^3
# Si number density = 21.156090 Si / 1000 Ang^3
#
#
#
# Elastic Constant Matrix: (Units=GPa)
#
#
# Indices 1 2 3 4 5 6 
#
# 1 97.2502 30.7479 38.2896 0.0000 12.9312 0.0000
# 2 30.7479 114.4420 67.3754 0.0000 9.9952 0.0000
# 3 38.2896 67.3754 145.0340 0.0000 18.1697 0.0000
# 4 0.0000 0.0000 0.0000 41.5986 0.0000 2.3722
# 5 12.9312 9.9952 18.1697 0.0000 27.4387 0.0000
# 6 0.0000 0.0000 0.0000 2.3722 0.0000 29.6712
#
#
#
# Elastic Compliance Matrix: (Units=1/GPa)
#
#
# Indices 1 2 3 4 5 6 
#
# 1 0.012100 -0.001815 -0.001875 0.000000 -0.003800 0.000000
# 2 -0.001815 0.012314 -0.005219 0.000000 -0.000174 0.000000
# 3 -0.001875 -0.005219 0.010322 0.000000 -0.004050 0.000000
# 4 0.000000 0.000000 0.000000 0.024149 0.000000 -0.001931
# 5 -0.003800 -0.000174 -0.004050 0.000000 0.040981 0.000000
# 6 0.000000 0.000000 0.000000 -0.001931 0.000000 0.033857
#
#
# Mechanical properties :
#
#
# Convention : Reuss Voigt Hill
#
# Bulk Modulus (GPa) = 59.11409 69.95022 64.53216
# Shear Modulus (GPa) = 31.81033 34.42926 33.11979
#
# Velocity S-wave (km/s) = 3.88184 4.03847 3.96093
# Velocity P-wave (km/s) = 6.93499 7.40819 7.17549
#
# Compressibility (1/GPa) = 0.01691644
#
# Stress axis : x y z
#
# Youngs Moduli (GPa) = 82.64317 81.21038 96.87996
#
# Poissons Ratio (x) = 0.14741 0.18168
# Poissons Ratio (y) = 0.15001 0.50565
# Poissons Ratio (z) = 0.15498 0.42386
#
# Static dielectric constant tensor:
#      x y z
#    x 3.872970 0.000000 0.226380 
#    y 0.000000 2.274380 0.000000 
#    z 0.226380 0.000000 4.045840 
# 
# 
# High freq. dielectric constant tensor:
#      x y z
#    x 1.825850 0.000000 0.016880 
#    y 0.000000 1.828490 0.000000 
#    z 0.016880 0.000000 1.834790 
# 
# From -- ./inp_files/72359.got.cif
#   From: 2010.03.12/outbox.cif.g09.slc.cpg/sg14_37_cif.got.tgz:72359.got - 2010.03.31 13:35:05.
