data_PCOD8128169
_publ_section_title
;
Structure prediction by ZEFSAII (Michael W. Deem and Ramdas Pophale) SiO2 
 PCOD8128169
Probable space group: P 21/C
;
_chemical_formula_sum "Si O2"
_cell_formula_units_Z 20
_cell_length_a 9.196906
_cell_length_b 19.014593
_cell_length_c 5.062903
_cell_angle_alpha 90.000000
_cell_angle_beta 105.159818
_cell_angle_gamma 90.000000
_cell_volume 854.566298
_symmetry_space_group_name_H-M "P 21/C"
_symmetry_group_IT_number 14
_symmetry_cell_setting 'monoclinic'
loop_
_space_group_symop_operation_xyz
x,y,z
-x,1/2+y,1/2-z
-x,-y,-z
x,1/2-y,1/2+z
loop_
_atom_site_type_symbol
_atom_site_label
_atom_site_fract_x
_atom_site_fract_y
_atom_site_fract_z
Si Si1 0.863729 0.201194 0.594355
Si Si2 0.546586 0.705688 0.602485
Si Si3 0.832117 0.879992 0.254142
Si Si4 0.604402 0.103878 0.610431
Si Si5 0.291164 0.049896 0.305449
O O1 0.868926 0.261747 0.380100
O O2 0.711904 0.155606 0.496593
O O3 0.000458 0.147378 0.626631
O O4 0.509473 0.731075 0.289961
O O5 0.722354 0.687232 0.716634
O O6 0.444063 0.638845 0.632571
O O7 0.790332 0.936716 0.456405
O O8 0.816648 0.919116 0.968731
O O9 0.454765 0.087907 0.365626
O O10 0.691168 0.032998 0.728098
#
# Coordination Sequence:
#
# PCOD8128169 Si02
#       5
#     4   4   4   4   4
#     4  12  26  43  65  96 131 165 207 266 320 373
#     4  11  21  36  60  87 120 163 204 250 308 372
#     4  11  23  42  65  91 126 169 215 257 313 380
#     4  10  24  42  65  96 130 163 214 265 316 370
#     4  10  24  43  67  93 125 171 214 259 309 380
#
# _framework density 23.403687000000001
#
# number of rings (size 3 to 8) (size 9 to 14) (size 15 to 20)
#    0.000    1.200    0.000    6.000    0.000   15.200 
#    0.000    0.000    0.000    0.000    0.000    0.000 
#    0.000    0.000    0.000    0.000    0.000    0.000 
#
# Total GULP energy -248109.094586 kJ/mol
# GULP energy per Si atom -12405.454729 kJ/mol
# Density = 2.335042 g / cm^3
# Si number density = 23.403687 Si / 1000 Ang^3
#
#
#
# Elastic Constant Matrix: (Units=GPa)
#
#
# Indices 1 2 3 4 5 6 
#
# 1 88.5247 -4.3879 7.7129 0.0000 -2.2576 0.0000
# 2 -4.3879 50.2914 11.7772 0.0000 -5.4712 0.0000
# 3 7.7129 11.7772 67.6856 0.0000 -3.2322 0.0000
# 4 0.0000 0.0000 0.0000 25.9492 0.0000 0.7236
# 5 -2.2576 -5.4712 -3.2322 0.0000 21.1869 0.0000
# 6 0.0000 0.0000 0.0000 0.7236 0.0000 38.0850
#
#
#
# Elastic Compliance Matrix: (Units=1/GPa)
#
#
# Indices 1 2 3 4 5 6 
#
# 1 0.011538 0.001512 -0.001512 0.000000 0.001389 0.000000
# 2 0.001512 0.021431 -0.003656 0.000000 0.005138 0.000000
# 3 -0.001512 -0.003656 0.015644 0.000000 0.001281 0.000000
# 4 0.000000 0.000000 0.000000 0.038557 0.000000 -0.000733
# 5 0.001389 0.005138 0.001281 0.000000 0.048869 0.000000
# 6 0.000000 0.000000 0.000000 -0.000733 0.000000 0.026271
#
#
# Mechanical properties :
#
#
# Convention : Reuss Voigt Hill
#
# Bulk Modulus (GPa) = 24.21194 26.30067 25.25630
# Shear Modulus (GPa) = 27.26443 29.80419 28.53431
#
# Velocity S-wave (km/s) = 3.41686 3.57246 3.49553
# Velocity P-wave (km/s) = 5.09258 5.31779 5.20640
#
# Compressibility (1/GPa) = 0.04130193
#
# Stress axis : x y z
#
# Youngs Moduli (GPa) = 86.66754 46.66122 63.92331
#
# Poissons Ratio (x) = -0.07054 0.09662
# Poissons Ratio (y) = -0.13103 0.23370
# Poissons Ratio (z) = 0.13100 0.17059
#
# Static dielectric constant tensor:
#      x y z
#    x 4.427090 0.000000 -0.132650 
#    y 0.000000 4.368980 0.000000 
#    z -0.132650 0.000000 3.941560 
# 
# 
# High freq. dielectric constant tensor:
#      x y z
#    x 1.930890 0.000000 -0.008550 
#    y 0.000000 1.937480 0.000000 
#    z -0.008550 0.000000 1.921540 
# 
# From -- ./inp_files/1194.got.cif
#   From: 2010.03.12/outbox.cif.g09.slc.cpg/sg14_1_cif.got.tgz:1194.got - 2010.03.31 13:35:05.
