data_PCOD8128027
_publ_section_title
;
Structure prediction by ZEFSAII (Michael W. Deem and Ramdas Pophale) SiO2 
 PCOD8128027
Probable space group: P 21/C
;
_chemical_formula_sum "Si O2"
_cell_formula_units_Z 32
_cell_length_a 5.282197
_cell_length_b 8.604918
_cell_length_c 30.658022
_cell_angle_alpha 90.000000
_cell_angle_beta 87.361560
_cell_angle_gamma 90.000000
_cell_volume 1392.017922
_symmetry_space_group_name_H-M "P 21/C"
_symmetry_group_IT_number 14
_symmetry_cell_setting 'monoclinic'
loop_
_space_group_symop_operation_xyz
x,y,z
-x,1/2+y,1/2-z
-x,-y,-z
x,1/2-y,1/2+z
loop_
_atom_site_type_symbol
_atom_site_label
_atom_site_fract_x
_atom_site_fract_y
_atom_site_fract_z
Si Si1 0.626581 0.443939 0.191350
Si Si2 0.372681 0.201675 0.812264
Si Si3 0.892954 0.687417 0.769642
Si Si4 0.118238 0.067276 0.889648
Si Si5 0.960218 0.828799 0.016545
Si Si6 0.531260 0.172123 0.516917
Si Si7 0.595469 0.260196 0.613057
Si Si8 0.756868 0.539038 0.323376
O O1 0.533969 0.621710 0.191098
O O2 0.392011 0.350725 0.212659
O O3 0.701866 0.379561 0.142471
O O4 0.882826 0.426314 0.217732
O O5 0.122379 0.184952 0.783135
O O6 0.342544 0.160827 0.863779
O O7 0.578237 0.072124 0.794807
O O8 0.938812 0.860518 0.789461
O O9 0.029041 0.167289 0.931272
O O10 0.192031 0.889355 0.901211
O O11 0.909304 0.073217 0.853909
O O12 0.681479 0.777173 0.003956
O O13 0.183415 0.719897 0.997700
O O14 0.000000 0.000000 0.000000
O O15 0.491828 0.184662 0.569246
O O16 0.500000 0.000000 0.500000
O O17 0.379344 0.342647 0.642435
#
# Coordination Sequence:
#
# PCOD8128027 Si02
#       8
#     4   4   4   4   4   4   4   4
#     4  11  26  44  70 105 134 188 229 294 344 418
#     4  11  27  40  71 102 141 178 240 295 335 415
#     4  11  25  46  69  98 144 184 233 277 362 411
#     4  11  24  43  72 100 139 183 239 286 351 417
#     4  12  26  47  76 106 140 189 241 289 352 433
#     4  12  28  47  74 108 145 184 230 300 360 421
#     4  10  23  45  71  97 144 183 229 280 363 418
#     4  10  23  45  68 100 134 192 226 285 346 423
#
# _framework density 22.988209999999999
#
# number of rings (size 3 to 8) (size 9 to 14) (size 15 to 20)
#    0.000    1.000    2.500    2.250   10.500    0.000 
#    2.250    0.000    0.000    0.000    0.000    0.000 
#    0.000    0.000    0.000    0.000    0.000    0.000 
#
# Total GULP energy -396668.618692 kJ/mol
# GULP energy per Si atom -12395.894334 kJ/mol
# Density = 2.293589 g / cm^3
# Si number density = 22.988210 Si / 1000 Ang^3
#
#
#
# Elastic Constant Matrix: (Units=GPa)
#
#
# Indices 1 2 3 4 5 6 
#
# 1 80.2460 5.7626 21.6301 0.0000 7.3147 0.0000
# 2 5.7626 98.9662 36.6249 0.0000 1.1848 0.0000
# 3 21.6301 36.6249 141.8762 0.0000 15.4159 0.0000
# 4 0.0000 0.0000 0.0000 34.9757 0.0000 12.0478
# 5 7.3147 1.1848 15.4159 0.0000 30.0950 0.0000
# 6 0.0000 0.0000 0.0000 12.0478 0.0000 27.4286
#
#
#
# Elastic Compliance Matrix: (Units=1/GPa)
#
#
# Indices 1 2 3 4 5 6 
#
# 1 0.013145 -0.000098 -0.001728 0.000000 -0.002306 0.000000
# 2 -0.000098 0.011207 -0.003000 0.000000 0.001119 0.000000
# 3 -0.001728 -0.003000 0.008501 0.000000 -0.003816 0.000000
# 4 0.000000 0.000000 0.000000 0.033688 0.000000 -0.014797
# 5 -0.002306 0.001119 -0.003816 0.000000 0.035699 0.000000
# 6 0.000000 0.000000 0.000000 -0.014797 0.000000 0.042958
#
#
# Mechanical properties :
#
#
# Convention : Reuss Voigt Hill
#
# Bulk Modulus (GPa) = 43.10259 49.90262 46.50261
# Shear Modulus (GPa) = 30.75337 35.63790 33.19563
#
# Velocity S-wave (km/s) = 3.66155 3.94162 3.80416
# Velocity P-wave (km/s) = 6.05529 6.51691 6.29034
#
# Compressibility (1/GPa) = 0.02320046
#
# Stress axis : x y z
#
# Youngs Moduli (GPa) = 76.07620 89.23086 117.63472
#
# Poissons Ratio (x) = 0.00877 0.20328
# Poissons Ratio (y) = 0.00748 0.35286
# Poissons Ratio (z) = 0.13147 0.26766
#
# Static dielectric constant tensor:
#      x y z
#    x 3.461320 0.000000 0.194650 
#    y 0.000000 4.076500 0.000000 
#    z 0.194650 0.000000 4.244750 
# 
# 
# High freq. dielectric constant tensor:
#      x y z
#    x 1.901850 0.000000 0.002690 
#    y 0.000000 1.908200 0.000000 
#    z 0.002690 0.000000 1.923670 
# 
# From -- ./inp_files/78817.got.cif
#   From: 2010.03.12/outbox.cif.g09.slc.cpg/sg14_40_cif.got.tgz:78817.got - 2010.03.31 13:35:05.
