data_PCOD8128714
_publ_section_title
;
Structure prediction by ZEFSAII (Michael W. Deem and Ramdas Pophale) SiO2 
 PCOD8128714
Probable space group: P 21/C
;
_chemical_formula_sum "Si O2"
_cell_formula_units_Z 28
_cell_length_a 18.305438
_cell_length_b 10.762640
_cell_length_c 20.579817
_cell_angle_alpha 90.000000
_cell_angle_beta 160.906357
_cell_angle_gamma 90.000000
_cell_volume 1326.289476
_symmetry_space_group_name_H-M "P 21/C"
_symmetry_group_IT_number 14
_symmetry_cell_setting 'monoclinic'
loop_
_space_group_symop_operation_xyz
x,y,z
-x,1/2+y,1/2-z
-x,-y,-z
x,1/2-y,1/2+z
loop_
_atom_site_type_symbol
_atom_site_label
_atom_site_fract_x
_atom_site_fract_y
_atom_site_fract_z
Si Si1 0.933660 0.007032 0.609455
Si Si2 0.714029 0.274078 0.844392
Si Si3 0.751114 0.629533 0.525170
Si Si4 0.460171 0.525014 0.766031
Si Si5 0.491450 0.095990 0.433390
Si Si6 0.059278 0.751960 0.189539
Si Si7 0.035908 0.146001 0.022559
O O1 0.715001 0.952440 0.460124
O O2 0.048532 0.895559 0.664689
O O3 0.867649 0.124200 0.509268
O O4 0.119852 0.038238 0.819001
O O5 0.462751 0.318070 0.615062
O O6 0.680921 0.152309 0.861278
O O7 0.836744 0.232150 0.881681
O O8 0.655568 0.568752 0.379915
O O9 0.932819 0.729088 0.652235
O O10 0.461724 0.480313 0.841694
O O11 0.691759 0.193264 0.597307
O O12 0.267140 0.178423 0.253958
O O13 0.500000 0.000000 0.500000
O O14 0.932558 0.826005 0.026662
O O15 0.000000 0.000000 0.000000
#
# Coordination Sequence:
#
# PCOD8128714 Si02
#       7
#     4   4   4   4   4   4   4
#     4  11  27  42  68 104 136 187 219 288 357 401
#     4  11  25  44  68 101 143 174 230 287 347 412
#     4  11  24  42  69 101 138 177 232 283 340 406
#     4  11  22  41  70 101 137 177 231 285 340 406
#     4  12  24  40  69 106 132 176 232 288 340 404
#     4  12  24  44  71 100 138 181 233 278 347 416
#     4  12  24  46  71 102 135 179 228 289 343 407
#
# _framework density 21.111529000000001
#
# number of rings (size 3 to 8) (size 9 to 14) (size 15 to 20)
#    0.000    0.571    7.143    0.000    2.000    5.143 
#    0.000    1.429    0.000    0.000    0.000    0.000 
#    0.000    0.000    0.000    0.000    0.000    0.000 
#
# Total GULP energy -347033.915421 kJ/mol
# GULP energy per Si atom -12394.068408 kJ/mol
# Density = 2.106348 g / cm^3
# Si number density = 21.111529 Si / 1000 Ang^3
#
#
#
# Elastic Constant Matrix: (Units=GPa)
#
#
# Indices 1 2 3 4 5 6 
#
# 1 84.3945 46.8833 48.6007 0.0000 7.2225 0.0000
# 2 46.8833 122.7488 48.4978 0.0000 12.5769 0.0000
# 3 48.6007 48.4978 149.4937 0.0000 17.2607 0.0000
# 4 0.0000 0.0000 0.0000 44.7183 0.0000 7.7169
# 5 7.2225 12.5769 17.2607 0.0000 34.0350 0.0000
# 6 0.0000 0.0000 0.0000 7.7169 0.0000 31.8078
#
#
#
# Elastic Compliance Matrix: (Units=1/GPa)
#
#
# Indices 1 2 3 4 5 6 
#
# 1 0.016795 -0.004898 -0.003897 0.000000 0.000222 0.000000
# 2 -0.004898 0.010907 -0.001700 0.000000 -0.002129 0.000000
# 3 -0.003897 -0.001700 0.008858 0.000000 -0.003037 0.000000
# 4 0.000000 0.000000 0.000000 0.023339 0.000000 -0.005662
# 5 0.000222 -0.002129 -0.003037 0.000000 0.031661 0.000000
# 6 0.000000 0.000000 0.000000 -0.005662 0.000000 0.032813
#
#
# Mechanical properties :
#
#
# Convention : Reuss Voigt Hill
#
# Bulk Modulus (GPa) = 64.22331 71.62227 67.92279
# Shear Modulus (GPa) = 33.21051 36.28924 34.74988
#
# Velocity S-wave (km/s) = 3.97053 4.15050 4.06151
# Velocity P-wave (km/s) = 7.17685 7.54772 7.36462
#
# Compressibility (1/GPa) = 0.01557067
#
# Stress axis : x y z
#
# Youngs Moduli (GPa) = 59.54113 91.68079 112.88700
#
# Poissons Ratio (x) = 0.44905 0.43990
# Poissons Ratio (y) = 0.29163 0.19195
# Poissons Ratio (z) = 0.23202 0.15589
#
# Static dielectric constant tensor:
#      x y z
#    x 3.801430 0.000000 0.305640 
#    y 0.000000 3.876180 0.000000 
#    z 0.305640 0.000000 4.327930 
# 
# 
# High freq. dielectric constant tensor:
#      x y z
#    x 1.819210 0.000000 0.013500 
#    y 0.000000 1.823780 0.000000 
#    z 0.013500 0.000000 1.846860 
# 
# From -- ./inp_files/69323.got.cif
#   From: 2010.03.12/outbox.cif.g09.slc.cpg/sg14_35_cif.got.tgz:69323.got - 2010.03.31 13:35:05.
