data_PCOD8128708
_publ_section_title
;
Structure prediction by ZEFSAII (Michael W. Deem and Ramdas Pophale) SiO2 
 PCOD8128708
Probable space group: P 21/C
;
_chemical_formula_sum "Si O2"
_cell_formula_units_Z 32
_cell_length_a 11.267923
_cell_length_b 8.717092
_cell_length_c 20.375775
_cell_angle_alpha 90.000000
_cell_angle_beta 131.169367
_cell_angle_gamma 90.000000
_cell_volume 1506.573034
_symmetry_space_group_name_H-M "P 21/C"
_symmetry_group_IT_number 14
_symmetry_cell_setting 'monoclinic'
loop_
_space_group_symop_operation_xyz
x,y,z
-x,1/2+y,1/2-z
-x,-y,-z
x,1/2-y,1/2+z
loop_
_atom_site_type_symbol
_atom_site_label
_atom_site_fract_x
_atom_site_fract_y
_atom_site_fract_z
Si Si1 0.465212 0.829597 0.504130
Si Si2 0.613981 0.339261 0.270451
Si Si3 0.831757 0.926756 0.927403
Si Si4 0.622927 0.584314 0.471412
Si Si5 0.714532 0.428830 0.715844
Si Si6 0.819647 0.164294 0.123419
Si Si7 0.537409 0.868863 0.675633
Si Si8 0.151975 0.261346 0.187406
O O1 0.590429 0.713855 0.514889
O O2 0.292258 0.811416 0.409862
O O3 0.451840 0.815818 0.578338
O O4 0.500000 0.000000 0.500000
O O5 0.731676 0.441078 0.355815
O O6 0.708545 0.222517 0.258358
O O7 0.504079 0.243169 0.279094
O O8 0.506841 0.453555 0.186040
O O9 0.744834 0.860579 0.960196
O O10 0.853723 0.775942 0.891581
O O11 0.000000 0.000000 0.000000
O O12 0.458815 0.531309 0.377075
O O13 0.710465 0.442470 0.537207
O O14 0.840578 0.408547 0.702843
O O15 0.790269 0.564294 0.785760
O O16 0.984043 0.218604 0.155806
O O17 0.724524 0.850053 0.730851
#
# Coordination Sequence:
#
# PCOD8128708 Si02
#       8
#     4   4   4   4   4   4   4   4
#     4  11  24  41  64  96 127 169 221 274 324 388
#     4  11  24  41  70  94 127 175 223 281 325 396
#     4  11  23  43  66  94 134 172 223 266 343 401
#     4  11  22  43  70  91 127 182 218 265 327 409
#     4  11  23  42  66  98 128 171 232 265 331 398
#     4  11  23  41  64  93 133 169 211 266 334 399
#     4  11  22  41  67  94 129 168 225 270 330 401
#     4  11  23  39  65  96 127 169 213 277 329 391
#
# _framework density 21.240258000000001
#
# number of rings (size 3 to 8) (size 9 to 14) (size 15 to 20)
#    0.000    1.000    1.250    8.250    0.000    4.000 
#    4.500    0.625    0.000    0.000    0.000    0.000 
#    0.000    0.000    0.000    0.000    0.000    0.000 
#
# Total GULP energy -396585.090260 kJ/mol
# GULP energy per Si atom -12393.284071 kJ/mol
# Density = 2.119191 g / cm^3
# Si number density = 21.240258 Si / 1000 Ang^3
#
#
#
# Elastic Constant Matrix: (Units=GPa)
#
#
# Indices 1 2 3 4 5 6 
#
# 1 160.2543 60.2281 42.3509 0.0000 -12.9169 0.0000
# 2 60.2281 144.8492 46.0727 0.0000 -7.1381 0.0000
# 3 42.3509 46.0727 77.2438 0.0000 -14.3343 0.0000
# 4 0.0000 0.0000 0.0000 32.5944 0.0000 -12.3443
# 5 -12.9169 -7.1381 -14.3343 0.0000 40.6159 0.0000
# 6 0.0000 0.0000 0.0000 -12.3443 0.0000 27.8511
#
#
#
# Elastic Compliance Matrix: (Units=1/GPa)
#
#
# Indices 1 2 3 4 5 6 
#
# 1 0.007948 -0.002382 -0.002724 0.000000 0.001148 0.000000
# 2 -0.002382 0.009238 -0.004327 0.000000 -0.000661 0.000000
# 3 -0.002724 -0.004327 0.017890 0.000000 0.004687 0.000000
# 4 0.000000 0.000000 0.000000 0.036869 0.000000 0.016341
# 5 0.001148 -0.000661 0.004687 0.000000 0.026524 0.000000
# 6 0.000000 0.000000 0.000000 0.016341 0.000000 0.043148
#
#
# Mechanical properties :
#
#
# Convention : Reuss Voigt Hill
#
# Bulk Modulus (GPa) = 61.68807 75.51676 68.60241
# Shear Modulus (GPa) = 30.14153 35.79201 32.96677
#
# Velocity S-wave (km/s) = 3.77115 4.10945 3.94393
# Velocity P-wave (km/s) = 6.93312 7.62546 7.28751
#
# Compressibility (1/GPa) = 0.01621059
#
# Stress axis : x y z
#
# Youngs Moduli (GPa) = 125.82545 108.25260 55.89714
#
# Poissons Ratio (x) = 0.25781 0.15226
# Poissons Ratio (y) = 0.29967 0.24185
# Poissons Ratio (z) = 0.34274 0.46838
#
# Static dielectric constant tensor:
#      x y z
#    x 4.152650 0.000000 -0.303790 
#    y 0.000000 3.892500 0.000000 
#    z -0.303790 0.000000 5.614560 
# 
# 
# High freq. dielectric constant tensor:
#      x y z
#    x 1.844420 0.000000 -0.017720 
#    y 0.000000 1.837510 0.000000 
#    z -0.017720 0.000000 1.827630 
# 
# From -- ./inp_files/67046.got.cif
#   From: 2010.03.12/outbox.cif.g09.slc.cpg/sg14_34_cif.got.tgz:67046.got - 2010.03.31 13:35:05.
