data_PCOD8128204
_publ_section_title
;
Structure prediction by ZEFSAII (Michael W. Deem and Ramdas Pophale) SiO2 
 PCOD8128204
Probable space group: P 21/C
;
_chemical_formula_sum "Si O2"
_cell_formula_units_Z 20
_cell_length_a 8.934186
_cell_length_b 11.386556
_cell_length_c 9.060491
_cell_angle_alpha 90.000000
_cell_angle_beta 128.675765
_cell_angle_gamma 90.000000
_cell_volume 719.582177
_symmetry_space_group_name_H-M "P 21/C"
_symmetry_group_IT_number 14
_symmetry_cell_setting 'monoclinic'
loop_
_space_group_symop_operation_xyz
x,y,z
-x,1/2+y,1/2-z
-x,-y,-z
x,1/2-y,1/2+z
loop_
_atom_site_type_symbol
_atom_site_label
_atom_site_fract_x
_atom_site_fract_y
_atom_site_fract_z
Si Si1 0.029406 0.122216 0.933511
Si Si2 0.753570 0.740390 0.704779
Si Si3 0.337020 0.831609 0.456371
Si Si4 0.250582 0.919654 0.959222
Si Si5 0.656584 0.505185 0.780907
O O1 0.153608 0.183822 0.882303
O O2 0.801139 0.145524 0.769449
O O3 0.077335 0.980097 0.946026
O O4 0.095468 0.170503 0.132810
O O5 0.555704 0.808459 0.538432
O O6 0.717732 0.641160 0.808447
O O7 0.270133 0.717694 0.509188
O O8 0.309992 0.947809 0.539242
O O9 0.221778 0.929818 0.764163
O O10 0.431141 0.003031 0.108089
#
# Coordination Sequence:
#
# PCOD8128204 Si02
#       5
#     4   4   4   4   4
#     4  11  24  41  67  95 129 168 217 261 315 384
#     4  10  24  43  63  95 130 165 217 266 310 383
#     4  11  23  37  70  91 124 170 210 264 321 368
#     4   9  20  40  62  92 125 163 222 257 304 393
#     4   9  19  40  65  87 124 172 210 261 317 373
#
# _framework density 27.793906
#
# number of rings (size 3 to 8) (size 9 to 14) (size 15 to 20)
#    0.000    2.000    2.000    1.200    5.600    1.600 
#    0.000    4.000    0.000    0.000    0.000    0.000 
#    0.000    0.000    0.000    0.000    0.000    0.000 
#
# Total GULP energy -248037.618277 kJ/mol
# GULP energy per Si atom -12401.880914 kJ/mol
# Density = 2.773065 g / cm^3
# Si number density = 27.793906 Si / 1000 Ang^3
#
#
#
# Elastic Constant Matrix: (Units=GPa)
#
#
# Indices 1 2 3 4 5 6 
#
# 1 136.8805 43.0059 41.7967 0.0000 14.7301 0.0000
# 2 43.0059 131.1856 57.3296 0.0000 8.9173 0.0000
# 3 41.7967 57.3296 160.5089 0.0000 30.8664 0.0000
# 4 0.0000 0.0000 0.0000 46.8966 0.0000 0.3445
# 5 14.7301 8.9173 30.8664 0.0000 29.0314 0.0000
# 6 0.0000 0.0000 0.0000 0.3445 0.0000 50.9141
#
#
#
# Elastic Compliance Matrix: (Units=1/GPa)
#
#
# Indices 1 2 3 4 5 6 
#
# 1 0.008576 -0.002226 -0.000921 0.000000 -0.002688 0.000000
# 2 -0.002226 0.009626 -0.003152 0.000000 0.001523 0.000000
# 3 -0.000921 -0.003152 0.009201 0.000000 -0.008347 0.000000
# 4 0.000000 0.000000 0.000000 0.021325 0.000000 -0.000144
# 5 -0.002688 0.001523 -0.008347 0.000000 0.044216 0.000000
# 6 0.000000 0.000000 0.000000 -0.000144 0.000000 0.019642
#
#
# Mechanical properties :
#
#
# Convention : Reuss Voigt Hill
#
# Bulk Modulus (GPa) = 67.54321 79.20439 73.37380
# Shear Modulus (GPa) = 38.42682 44.46463 41.44572
#
# Velocity S-wave (km/s) = 3.72232 4.00409 3.86577
# Velocity P-wave (km/s) = 6.54434 7.06653 6.81044
#
# Compressibility (1/GPa) = 0.01480534
#
# Stress axis : x y z
#
# Youngs Moduli (GPa) = 116.61056 103.88268 108.68581
#
# Poissons Ratio (x) = 0.23125 0.10011
# Poissons Ratio (y) = 0.25958 0.34253
# Poissons Ratio (z) = 0.10741 0.32739
#
# Static dielectric constant tensor:
#      x y z
#    x 5.175190 0.000000 0.207550 
#    y 0.000000 5.281990 0.000000 
#    z 0.207550 0.000000 4.803700 
# 
# 
# High freq. dielectric constant tensor:
#      x y z
#    x 2.155200 0.000000 0.002570 
#    y 0.000000 2.149960 0.000000 
#    z 0.002570 0.000000 2.103640 
# 
# From -- ./inp_files/23549.got.cif
#   From: 2010.03.12/outbox.cif.g09.slc.cpg/sg14_12_cif.got.tgz:23549.got - 2010.03.31 13:35:05.
