data_PCOD8128710
_publ_section_title
;
Structure prediction by ZEFSAII (Michael W. Deem and Ramdas Pophale) SiO2 
 PCOD8128710
Probable space group: P 21/C
;
_chemical_formula_sum "Si O2"
_cell_formula_units_Z 28
_cell_length_a 17.201699
_cell_length_b 8.050324
_cell_length_c 19.191366
_cell_angle_alpha 90.000000
_cell_angle_beta 151.559025
_cell_angle_gamma 90.000000
_cell_volume 1265.693262
_symmetry_space_group_name_H-M "P 21/C"
_symmetry_group_IT_number 14
_symmetry_cell_setting 'monoclinic'
loop_
_space_group_symop_operation_xyz
x,y,z
-x,1/2+y,1/2-z
-x,-y,-z
x,1/2-y,1/2+z
loop_
_atom_site_type_symbol
_atom_site_label
_atom_site_fract_x
_atom_site_fract_y
_atom_site_fract_z
Si Si1 0.436692 0.922389 0.379581
Si Si2 0.700623 0.411117 0.456579
Si Si3 0.860829 0.845559 0.528953
Si Si4 0.074332 0.673826 0.584406
Si Si5 0.569989 0.665443 0.246002
Si Si6 0.742494 0.706203 0.578458
Si Si7 0.969099 0.290036 0.097469
O O1 0.396585 0.079545 0.300454
O O2 0.500000 0.000000 0.500000
O O3 0.266274 0.827187 0.253635
O O4 0.568771 0.797928 0.449235
O O5 0.589534 0.530633 0.321942
O O6 0.612482 0.236181 0.399183
O O7 0.723513 0.508087 0.548053
O O8 0.868585 0.366870 0.549185
O O9 0.692995 0.819054 0.354276
O O10 0.846655 0.775067 0.595694
O O11 0.997482 0.742316 0.594946
O O12 0.897791 0.037502 0.568174
O O13 0.038935 0.797885 0.492433
O O14 0.000000 0.500000 0.500000
O O15 0.844424 0.730642 0.729735
#
# Coordination Sequence:
#
# PCOD8128710 Si02
#       7
#     4   4   4   4   4   4   4
#     4  12  26  45  71 105 142 186 235 299 355 419
#     4  11  22  41  72 101 141 183 236 293 350 425
#     4  11  25  43  73 101 138 186 242 284 358 423
#     4  12  24  47  70  99 141 188 234 288 359 426
#     4  11  22  41  68 102 135 181 235 291 353 419
#     4  11  26  45  70 105 142 183 238 292 351 422
#     4  12  24  43  72 102 141 180 236 291 357 423
#
# _framework density 22.122263
#
# number of rings (size 3 to 8) (size 9 to 14) (size 15 to 20)
#    0.000    0.571    2.857    6.429    2.000    3.429 
#    0.000    1.429    0.000    0.000    0.000    0.000 
#    0.000    0.000    0.000    0.000    0.000    0.000 
#
# Total GULP energy -347226.714301 kJ/mol
# GULP energy per Si atom -12400.954082 kJ/mol
# Density = 2.207191 g / cm^3
# Si number density = 22.122263 Si / 1000 Ang^3
#
#
#
# Elastic Constant Matrix: (Units=GPa)
#
#
# Indices 1 2 3 4 5 6 
#
# 1 106.9696 19.9584 46.6283 0.0000 8.8367 0.0000
# 2 19.9584 88.1037 24.8404 0.0000 10.4873 0.0000
# 3 46.6283 24.8404 127.7536 0.0000 -0.3570 0.0000
# 4 0.0000 0.0000 0.0000 35.9454 0.0000 1.9388
# 5 8.8367 10.4873 -0.3570 0.0000 39.0531 0.0000
# 6 0.0000 0.0000 0.0000 1.9388 0.0000 36.6603
#
#
#
# Elastic Compliance Matrix: (Units=1/GPa)
#
#
# Indices 1 2 3 4 5 6 
#
# 1 0.011494 -0.001210 -0.003966 0.000000 -0.002312 0.000000
# 2 -0.001210 0.012562 -0.002010 0.000000 -0.003118 0.000000
# 3 -0.003966 -0.002010 0.009670 0.000000 0.001526 0.000000
# 4 0.000000 0.000000 0.000000 0.027900 0.000000 -0.001475
# 5 -0.002312 -0.003118 0.001526 0.000000 0.026981 0.000000
# 6 0.000000 0.000000 0.000000 -0.001475 0.000000 0.027355
#
#
# Mechanical properties :
#
#
# Convention : Reuss Voigt Hill
#
# Bulk Modulus (GPa) = 51.66846 56.18679 53.92762
# Shear Modulus (GPa) = 36.55344 37.75842 37.15593
#
# Velocity S-wave (km/s) = 4.06931 4.13583 4.10270
# Velocity P-wave (km/s) = 6.74430 6.94696 6.84638
#
# Compressibility (1/GPa) = 0.01935417
#
# Stress axis : x y z
#
# Youngs Moduli (GPa) = 87.00025 79.60417 103.41008
#
# Poissons Ratio (x) = 0.09635 0.41016
# Poissons Ratio (y) = 0.10530 0.20781
# Poissons Ratio (z) = 0.34507 0.15997
#
# Static dielectric constant tensor:
#      x y z
#    x 3.966890 0.000000 0.023810 
#    y 0.000000 4.114650 0.000000 
#    z 0.023810 0.000000 4.583340 
# 
# 
# High freq. dielectric constant tensor:
#      x y z
#    x 1.867920 0.000000 0.003260 
#    y 0.000000 1.875180 0.000000 
#    z 0.003260 0.000000 1.878630 
# 
# From -- ./inp_files/69089.got.cif
#   From: 2010.03.12/outbox.cif.g09.slc.cpg/sg14_35_cif.got.tgz:69089.got - 2010.03.31 13:35:05.
