data_PCOD8128173
_publ_section_title
;
Structure prediction by ZEFSAII (Michael W. Deem and Ramdas Pophale) SiO2 
 PCOD8128173
Probable space group: P 21/C
;
_chemical_formula_sum "Si O2"
_cell_formula_units_Z 20
_cell_length_a 10.642821
_cell_length_b 8.802019
_cell_length_c 10.547211
_cell_angle_alpha 90.000000
_cell_angle_beta 104.020927
_cell_angle_gamma 90.000000
_cell_volume 958.608404
_symmetry_space_group_name_H-M "P 21/C"
_symmetry_group_IT_number 14
_symmetry_cell_setting 'monoclinic'
loop_
_space_group_symop_operation_xyz
x,y,z
-x,1/2+y,1/2-z
-x,-y,-z
x,1/2-y,1/2+z
loop_
_atom_site_type_symbol
_atom_site_label
_atom_site_fract_x
_atom_site_fract_y
_atom_site_fract_z
Si Si1 0.324228 0.976078 0.850741
Si Si2 0.937246 0.424055 0.106661
Si Si3 0.330333 0.978250 0.567418
Si Si4 0.473922 0.250623 0.992428
Si Si5 0.950441 0.426131 0.616487
O O1 0.272783 0.966412 0.694600
O O2 0.430464 0.845980 0.896341
O O3 0.203699 0.952131 0.914807
O O4 0.385653 0.140941 0.886723
O O5 0.983491 0.251042 0.122427
O O6 0.977139 0.502826 0.246420
O O7 0.781890 0.436892 0.059627
O O8 0.000000 0.500000 0.000000
O O9 0.447445 0.859568 0.582781
O O10 0.381602 0.148671 0.558783
O O11 0.000000 0.500000 0.500000
#
# Coordination Sequence:
#
# PCOD8128173 Si02
#       5
#     4   4   4   4   4
#     4  11  23  45  69  96 139 169 228 274 341 401
#     4  12  26  47  71  99 139 182 235 284 343 406
#     4  11  23  44  71  97 134 172 227 275 342 400
#     4  10  24  42  66 104 129 177 215 281 337 407
#     4  12  28  45  71 103 137 186 231 285 344 405
#
# _framework density 20.863575000000001
#
# number of rings (size 3 to 8) (size 9 to 14) (size 15 to 20)
#    0.000    0.800    4.000    2.400    5.600    0.000 
#   14.400    0.000    0.000    0.000    0.000    0.000 
#    0.000    0.000    0.000    0.000    0.000    0.000 
#
# Total GULP energy -248134.341971 kJ/mol
# GULP energy per Si atom -12406.717099 kJ/mol
# Density = 2.081609 g / cm^3
# Si number density = 20.863575 Si / 1000 Ang^3
#
#
#
# Elastic Constant Matrix: (Units=GPa)
#
#
# Indices 1 2 3 4 5 6 
#
# 1 86.5301 45.8966 46.2390 0.0000 -5.1272 0.0000
# 2 45.8966 177.2163 69.4212 0.0000 -0.2519 0.0000
# 3 46.2390 69.4212 151.6533 0.0000 -5.3301 0.0000
# 4 0.0000 0.0000 0.0000 28.6441 0.0000 -2.9952
# 5 -5.1272 -0.2519 -5.3301 0.0000 38.7746 0.0000
# 6 0.0000 0.0000 0.0000 -2.9952 0.0000 21.4949
#
#
#
# Elastic Compliance Matrix: (Units=1/GPa)
#
#
# Indices 1 2 3 4 5 6 
#
# 1 0.014741 -0.002529 -0.003285 0.000000 0.001481 0.000000
# 2 -0.002529 0.007315 -0.002600 0.000000 -0.000644 0.000000
# 3 -0.003285 -0.002600 0.008813 0.000000 0.000760 0.000000
# 4 0.000000 0.000000 0.000000 0.035427 0.000000 0.004937
# 5 0.001481 -0.000644 0.000760 0.000000 0.026086 0.000000
# 6 0.000000 0.000000 0.000000 0.004937 0.000000 0.047211
#
#
# Mechanical properties :
#
#
# Convention : Reuss Voigt Hill
#
# Bulk Modulus (GPa) = 71.21984 82.05701 76.63843
# Shear Modulus (GPa) = 31.03627 34.70560 32.87093
#
# Velocity S-wave (km/s) = 3.86110 4.08297 3.97359
# Velocity P-wave (km/s) = 7.35442 7.85132 7.60693
#
# Compressibility (1/GPa) = 0.01404103
#
# Stress axis : x y z
#
# Youngs Moduli (GPa) = 67.83751 136.69634 113.47377
#
# Poissons Ratio (x) = 0.34568 0.37275
# Poissons Ratio (y) = 0.17155 0.29507
# Poissons Ratio (z) = 0.22284 0.35546
#
# Static dielectric constant tensor:
#      x y z
#    x 3.883540 0.000000 0.072160 
#    y 0.000000 4.010660 0.000000 
#    z 0.072160 0.000000 3.638270 
# 
# 
# High freq. dielectric constant tensor:
#      x y z
#    x 1.828330 0.000000 0.003310 
#    y 0.000000 1.835680 0.000000 
#    z 0.003310 0.000000 1.815690 
# 
# From -- ./inp_files/11799.got.cif
#   From: 2010.03.12/outbox.cif.g09.slc.cpg/sg14_6_cif.got.tgz:11799.got - 2010.03.31 13:35:05.
