data_PCOD8128670
_publ_section_title
;
Structure prediction by ZEFSAII (Michael W. Deem and Ramdas Pophale) SiO2 
 PCOD8128670
Probable space group: P 21/C
;
_chemical_formula_sum "Si O2"
_cell_formula_units_Z 32
_cell_length_a 15.409525
_cell_length_b 15.926626
_cell_length_c 12.235292
_cell_angle_alpha 90.000000
_cell_angle_beta 28.112347
_cell_angle_gamma 90.000000
_cell_volume 1414.928403
_symmetry_space_group_name_H-M "P 21/C"
_symmetry_group_IT_number 14
_symmetry_cell_setting 'monoclinic'
loop_
_space_group_symop_operation_xyz
x,y,z
-x,1/2+y,1/2-z
-x,-y,-z
x,1/2-y,1/2+z
loop_
_atom_site_type_symbol
_atom_site_label
_atom_site_fract_x
_atom_site_fract_y
_atom_site_fract_z
Si Si1 0.772007 0.274014 0.209859
Si Si2 0.333588 0.139819 0.806649
Si Si3 0.142654 0.513105 0.581001
Si Si4 0.768440 0.557547 0.912118
Si Si5 0.469486 0.778149 0.216453
Si Si6 0.596291 0.118191 0.089166
Si Si7 0.176921 0.272943 0.285407
Si Si8 0.678610 0.081203 0.335129
O O1 0.705445 0.305386 0.163201
O O2 0.641512 0.332329 0.429108
O O3 0.739426 0.177920 0.280204
O O4 0.992518 0.283507 0.978027
O O5 0.492838 0.173248 0.712340
O O6 0.221231 0.210393 0.864681
O O7 0.452981 0.082700 0.587725
O O8 0.179804 0.086711 0.041507
O O9 0.235419 0.553708 0.584128
O O10 0.248168 0.548479 0.359280
O O11 0.929803 0.535123 0.817339
O O12 0.830297 0.639914 0.774834
O O13 0.751337 0.477040 0.852697
O O14 0.597867 0.568701 0.185519
O O15 0.417171 0.681849 0.294989
O O16 0.658991 0.785230 0.939247
#
# Coordination Sequence:
#
# PCOD8128670 Si02
#       8
#     4   4   4   4   4   4   4   4
#     4  12  24  41  66  92 130 172 208 254 323 380
#     4  12  23  39  67  94 130 165 213 264 323 372
#     4  12  22  39  64  96 125 164 209 268 320 376
#     4  11  22  38  66  97 128 159 209 265 328 371
#     4  11  23  41  58  93 130 166 206 260 314 380
#     4  11  23  39  62  90 127 167 208 259 315 380
#     4  11  22  40  64  94 126 165 206 264 314 380
#     4  12  19  39  65  97 129 160 204 269 324 372
#
# _framework density 22.615984999999998
#
# number of rings (size 3 to 8) (size 9 to 14) (size 15 to 20)
#    0.000    0.500    7.500    2.250    0.000    4.000 
#    2.250    0.625    0.000    1.500    0.000    0.000 
#    0.000    0.000    0.000    0.000    0.000    0.000 
#
# Total GULP energy -396492.015630 kJ/mol
# GULP energy per Si atom -12390.375488 kJ/mol
# Density = 2.256451 g / cm^3
# Si number density = 22.615985 Si / 1000 Ang^3
#
#
#
# Elastic Constant Matrix: (Units=GPa)
#
#
# Indices 1 2 3 4 5 6 
#
# 1 124.1639 18.8186 48.9540 0.0000 -28.1904 0.0000
# 2 18.8186 26.9526 6.7000 0.0000 -4.6588 0.0000
# 3 48.9540 6.7000 65.3010 0.0000 -20.6601 0.0000
# 4 0.0000 0.0000 0.0000 26.7848 0.0000 -6.1991
# 5 -28.1904 -4.6588 -20.6601 0.0000 30.2925 0.0000
# 6 0.0000 0.0000 0.0000 -6.1991 0.0000 28.4283
#
#
#
# Elastic Compliance Matrix: (Units=1/GPa)
#
#
# Indices 1 2 3 4 5 6 
#
# 1 0.013383 -0.006404 -0.007328 0.000000 0.006471 0.000000
# 2 -0.006404 0.041535 0.000860 0.000000 0.001015 0.000000
# 3 -0.007328 0.000860 0.023722 0.000000 0.009492 0.000000
# 4 0.000000 0.000000 0.000000 0.039319 0.000000 0.008574
# 5 0.006471 0.001015 0.009492 0.000000 0.045663 0.000000
# 6 0.000000 0.000000 0.000000 0.008574 0.000000 0.037046
#
#
# Mechanical properties :
#
#
# Convention : Reuss Voigt Hill
#
# Bulk Modulus (GPa) = 18.90476 40.59585 29.75031
# Shear Modulus (GPa) = 20.48806 26.56410 23.52608
#
# Velocity S-wave (km/s) = 3.01310 3.43092 3.22878
# Velocity P-wave (km/s) = 4.52573 5.80379 5.20414
#
# Compressibility (1/GPa) = 0.05289672
#
# Stress axis : x y z
#
# Youngs Moduli (GPa) = 74.72113 24.07603 42.15453
#
# Poissons Ratio (x) = 0.15418 0.30892
# Poissons Ratio (y) = 0.47851 -0.03627
# Poissons Ratio (z) = 0.54759 -0.02072
#
# Static dielectric constant tensor:
#      x y z
#    x 3.990680 0.000000 -0.304110 
#    y 0.000000 4.109880 0.000000 
#    z -0.304110 0.000000 4.148390 
# 
# 
# High freq. dielectric constant tensor:
#      x y z
#    x 1.880640 0.000000 -0.019450 
#    y 0.000000 1.874680 0.000000 
#    z -0.019450 0.000000 1.889020 
# 
# From -- ./inp_files/33042.got.cif
#   From: 2010.03.12/outbox.cif.g09.slc.cpg/sg14_17_cif.got.tgz:33042.got - 2010.03.31 13:35:05.
