data_PCOD8128154
_publ_section_title
;
Structure prediction by ZEFSAII (Michael W. Deem and Ramdas Pophale) SiO2 
 PCOD8128154
Probable space group: P 21/C
;
_chemical_formula_sum "Si O2"
_cell_formula_units_Z 20
_cell_length_a 24.909596
_cell_length_b 5.012143
_cell_length_c 9.209831
_cell_angle_alpha 90.000000
_cell_angle_beta 133.847611
_cell_angle_gamma 90.000000
_cell_volume 829.255538
_symmetry_space_group_name_H-M "P 21/C"
_symmetry_group_IT_number 14
_symmetry_cell_setting 'monoclinic'
loop_
_space_group_symop_operation_xyz
x,y,z
-x,1/2+y,1/2-z
-x,-y,-z
x,1/2-y,1/2+z
loop_
_atom_site_type_symbol
_atom_site_label
_atom_site_fract_x
_atom_site_fract_y
_atom_site_fract_z
Si Si1 0.308833 0.996824 0.879228
Si Si2 0.241708 0.830958 0.015458
Si Si3 0.185013 0.314111 0.765840
Si Si4 0.025017 0.059355 0.882222
Si Si5 0.526934 0.511061 0.385426
O O1 0.316952 0.888887 0.059673
O O2 0.269675 0.746258 0.725888
O O3 0.251604 0.248598 0.773666
O O4 0.385845 0.088528 0.951958
O O5 0.194062 0.594287 0.858814
O O6 0.187782 0.088564 0.899539
O O7 0.107551 0.316087 0.536100
O O8 0.974572 0.286433 0.710893
O O9 0.000000 0.000000 0.000000
O O10 0.518584 0.226235 0.292367
O O11 0.500000 0.500000 0.500000
#
# Coordination Sequence:
#
# PCOD8128154 Si02
#       5
#     4   4   4   4   4
#     4  10  26  44  75  98 149 181 252 290 371 426
#     4  10  24  41  72 102 137 184 248 293 358 423
#     4  10  26  43  74 103 143 186 247 289 368 432
#     4  12  28  51  79 110 155 196 246 307 376 442
#     4  12  28  47  74 108 150 196 248 306 378 439
#
# _framework density 24.118020999999999
#
# number of rings (size 3 to 8) (size 9 to 14) (size 15 to 20)
#    1.200    0.000    0.000    3.600   11.200    0.000 
#    0.000    0.000    0.000    0.000    0.000    0.000 
#    0.000    0.000    0.000    0.000    0.000    0.000 
#
# Total GULP energy -247814.236049 kJ/mol
# GULP energy per Si atom -12390.711802 kJ/mol
# Density = 2.406313 g / cm^3
# Si number density = 24.118021 Si / 1000 Ang^3
#
#
#
# Elastic Constant Matrix: (Units=GPa)
#
#
# Indices 1 2 3 4 5 6 
#
# 1 110.7309 37.9332 56.9600 0.0000 -1.1401 0.0000
# 2 37.9332 102.8225 22.7691 0.0000 -4.2280 0.0000
# 3 56.9600 22.7691 90.9726 0.0000 -2.6259 0.0000
# 4 0.0000 0.0000 0.0000 53.0848 0.0000 -1.8976
# 5 -1.1401 -4.2280 -2.6259 0.0000 51.5236 0.0000
# 6 0.0000 0.0000 0.0000 -1.8976 0.0000 14.0982
#
#
#
# Elastic Compliance Matrix: (Units=1/GPa)
#
#
# Indices 1 2 3 4 5 6 
#
# 1 0.014439 -0.003534 -0.008167 0.000000 -0.000387 0.000000
# 2 -0.003534 0.011188 -0.000564 0.000000 0.000811 0.000000
# 3 -0.008167 -0.000564 0.016264 0.000000 0.000602 0.000000
# 4 0.000000 0.000000 0.000000 0.018929 0.000000 0.002548
# 5 -0.000387 0.000811 0.000602 0.000000 0.019497 0.000000
# 6 0.000000 0.000000 0.000000 0.002548 0.000000 0.071274
#
#
# Mechanical properties :
#
#
# Convention : Reuss Voigt Hill
#
# Bulk Modulus (GPa) = 57.60172 59.98339 58.79255
# Shear Modulus (GPa) = 27.48646 36.19889 31.84268
#
# Velocity S-wave (km/s) = 3.37955 3.87836 3.63752
# Velocity P-wave (km/s) = 6.25809 6.70674 6.48629
#
# Compressibility (1/GPa) = 0.01736059
#
# Stress axis : x y z
#
# Youngs Moduli (GPa) = 69.25815 89.38531 61.48404
#
# Poissons Ratio (x) = 0.31590 0.50214
# Poissons Ratio (y) = 0.24477 0.03467
# Poissons Ratio (z) = 0.56563 0.05040
#
# Static dielectric constant tensor:
#      x y z
#    x 4.332480 0.000000 -0.126560 
#    y 0.000000 4.397990 0.000000 
#    z -0.126560 0.000000 4.244950 
# 
# 
# High freq. dielectric constant tensor:
#      x y z
#    x 1.953640 0.000000 -0.014010 
#    y 0.000000 1.974860 0.000000 
#    z -0.014010 0.000000 1.953840 
# 
# From -- ./inp_files/19287.got.cif
#   From: 2010.03.12/outbox.cif.g09.slc.cpg/sg14_10_cif.got.tgz:19287.got - 2010.03.31 13:35:05.
