data_PCOD8128801
_publ_section_title
;
Structure prediction by ZEFSAII (Michael W. Deem and Ramdas Pophale) SiO2 
 PCOD8128801
Probable space group: P 21/C
;
_chemical_formula_sum "Si O2"
_cell_formula_units_Z 32
_cell_length_a 10.564702
_cell_length_b 6.467894
_cell_length_c 22.759832
_cell_angle_alpha 90.000000
_cell_angle_beta 101.344147
_cell_angle_gamma 90.000000
_cell_volume 1524.827019
_symmetry_space_group_name_H-M "P 21/C"
_symmetry_group_IT_number 14
_symmetry_cell_setting 'monoclinic'
loop_
_space_group_symop_operation_xyz
x,y,z
-x,1/2+y,1/2-z
-x,-y,-z
x,1/2-y,1/2+z
loop_
_atom_site_type_symbol
_atom_site_label
_atom_site_fract_x
_atom_site_fract_y
_atom_site_fract_z
Si Si1 0.818396 0.667464 0.267087
Si Si2 0.713466 0.054304 0.462922
Si Si3 0.076510 0.640256 0.550306
Si Si4 0.733131 0.925026 0.153937
Si Si5 0.147579 0.375420 0.918022
Si Si6 0.894464 0.322850 0.191894
Si Si7 0.738481 0.831813 0.885384
Si Si8 0.470754 0.913305 0.062245
O O1 0.733583 0.769645 0.208399
O O2 0.856314 0.438921 0.248627
O O3 0.719747 0.675781 0.313427
O O4 0.952803 0.783340 0.292483
O O5 0.810086 0.246774 0.473888
O O6 0.573271 0.169755 0.446369
O O7 0.737864 0.929489 0.525503
O O8 0.742981 0.902816 0.410670
O O9 0.130847 0.471163 0.601111
O O10 0.000000 0.500000 0.500000
O O11 0.990996 0.829478 0.566488
O O12 0.817314 0.841604 0.107854
O O13 0.589390 0.944590 0.116865
O O14 0.798678 0.131866 0.182403
O O15 0.134541 0.554207 0.869833
O O16 0.633513 0.946637 0.914656
O O17 0.500000 0.000000 0.000000
#
# Coordination Sequence:
#
# PCOD8128801 Si02
#       8
#     4   4   4   4   4   4   4   4
#     4  11  24  43  67 100 133 178 225 277 352 409
#     4  11  24  42  67 100 135 176 219 280 343 411
#     4  11  23  36  62 101 138 167 214 270 348 413
#     4  11  25  44  67  97 131 180 230 281 339 403
#     4  11  23  37  68 102 133 176 216 276 348 411
#     4  11  23  41  69  98 135 175 222 283 339 416
#     4  11  25  43  66  98 137 182 225 288 339 408
#     4  11  26  47  69  97 138 184 236 289 340 406
#
# _framework density 20.985987999999999
#
# number of rings (size 3 to 8) (size 9 to 14) (size 15 to 20)
#    0.000    1.000    2.500    3.375    7.000    6.000 
#    4.500    0.000    0.000    0.000    0.000    0.000 
#    0.000    0.000    0.000    0.000    0.000    0.000 
#
# Total GULP energy -396585.452385 kJ/mol
# GULP energy per Si atom -12393.295387 kJ/mol
# Density = 2.093822 g / cm^3
# Si number density = 20.985988 Si / 1000 Ang^3
#
#
#
# Elastic Constant Matrix: (Units=GPa)
#
#
# Indices 1 2 3 4 5 6 
#
# 1 78.8140 28.0850 45.4125 0.0000 -3.1838 0.0000
# 2 28.0850 97.7407 38.2266 0.0000 -8.9681 0.0000
# 3 45.4125 38.2266 127.2588 0.0000 -14.5724 0.0000
# 4 0.0000 0.0000 0.0000 32.2190 0.0000 9.0852
# 5 -3.1838 -8.9681 -14.5724 0.0000 39.9913 0.0000
# 6 0.0000 0.0000 0.0000 9.0852 0.0000 31.0208
#
#
#
# Elastic Compliance Matrix: (Units=1/GPa)
#
#
# Indices 1 2 3 4 5 6 
#
# 1 0.016671 -0.002856 -0.005231 0.000000 -0.001219 0.000000
# 2 -0.002856 0.012157 -0.002448 0.000000 0.001607 0.000000
# 3 -0.005231 -0.002448 0.010800 0.000000 0.002970 0.000000
# 4 0.000000 0.000000 0.000000 0.033832 0.000000 -0.009908
# 5 -0.001219 0.001607 0.002970 0.000000 0.026351 0.000000
# 6 0.000000 0.000000 0.000000 -0.009908 0.000000 0.035138
#
#
# Mechanical properties :
#
#
# Convention : Reuss Voigt Hill
#
# Bulk Modulus (GPa) = 53.88855 58.58465 56.23660
# Shear Modulus (GPa) = 30.82525 33.45217 32.13871
#
# Velocity S-wave (km/s) = 3.83671 3.99685 3.91760
# Velocity P-wave (km/s) = 6.73508 7.01972 6.87887
#
# Compressibility (1/GPa) = 0.01855682
#
# Stress axis : x y z
#
# Youngs Moduli (GPa) = 59.98610 82.25770 92.59170
#
# Poissons Ratio (x) = 0.23496 0.48430
# Poissons Ratio (y) = 0.17134 0.22671
# Poissons Ratio (z) = 0.31376 0.20141
#
# Static dielectric constant tensor:
#      x y z
#    x 3.843090 0.000000 -0.139080 
#    y 0.000000 3.986540 0.000000 
#    z -0.139080 0.000000 4.431600 
# 
# 
# High freq. dielectric constant tensor:
#      x y z
#    x 1.812640 0.000000 0.000400 
#    y 0.000000 1.838620 0.000000 
#    z 0.000400 0.000000 1.830780 
# 
# From -- ./inp_files/72843.got.cif
#   From: 2010.03.12/outbox.cif.g09.slc.cpg/sg14_37_cif.got.tgz:72843.got - 2010.03.31 13:35:05.
