data_PCOD8128289
_publ_section_title
;
Structure prediction by ZEFSAII (Michael W. Deem and Ramdas Pophale) SiO2 
 PCOD8128289
Probable space group: P 21/C
;
_chemical_formula_sum "Si O2"
_cell_formula_units_Z 32
_cell_length_a 11.228391
_cell_length_b 8.285946
_cell_length_c 16.899861
_cell_angle_alpha 90.000000
_cell_angle_beta 123.037415
_cell_angle_gamma 90.000000
_cell_volume 1318.104543
_symmetry_space_group_name_H-M "P 21/C"
_symmetry_group_IT_number 14
_symmetry_cell_setting 'monoclinic'
loop_
_space_group_symop_operation_xyz
x,y,z
-x,1/2+y,1/2-z
-x,-y,-z
x,1/2-y,1/2+z
loop_
_atom_site_type_symbol
_atom_site_label
_atom_site_fract_x
_atom_site_fract_y
_atom_site_fract_z
Si Si1 0.658241 0.475827 0.025486
Si Si2 0.757045 0.175103 0.975250
Si Si3 0.072235 0.873023 0.584365
Si Si4 0.243412 0.439841 0.777416
Si Si5 0.960469 0.578145 0.621980
Si Si6 0.801187 0.919036 0.228744
Si Si7 0.519055 0.020970 0.165978
Si Si8 0.467580 0.106650 0.664049
O O1 0.701346 0.289627 0.026055
O O2 0.765925 0.546745 0.129770
O O3 0.500000 0.500000 0.000000
O O4 0.662411 0.571359 0.943587
O O5 0.892855 0.071608 0.050563
O O6 0.799562 0.281719 0.914657
O O7 0.632563 0.051557 0.909284
O O8 0.951815 0.743871 0.568759
O O9 0.128276 0.960965 0.683030
O O10 0.000000 0.000000 0.500000
O O11 0.209762 0.258903 0.738170
O O12 0.398527 0.490863 0.804393
O O13 0.128577 0.552648 0.694230
O O14 0.890303 0.590629 0.681682
O O15 0.642094 0.980572 0.146626
O O16 0.510970 0.210044 0.172853
O O17 0.585448 0.937469 0.268260
#
# Coordination Sequence:
#
# PCOD8128289 Si02
#       8
#     4   4   4   4   4   4   4   4
#     4  10  24  44  73 109 149 196 246 315 380 448
#     4  12  28  48  77 111 153 200 262 314 383 461
#     4  12  29  52  78 113 155 205 258 314 388 466
#     4  11  25  46  73 105 150 193 251 310 379 454
#     4  12  29  48  76 112 154 204 252 316 383 465
#     4  12  27  46  77 109 152 198 252 316 390 452
#     4  12  25  45  73 107 147 196 252 315 383 458
#     4  11  24  45  74 104 149 195 253 316 383 453
#
# _framework density 24.277287000000001
#
# number of rings (size 3 to 8) (size 9 to 14) (size 15 to 20)
#    0.000    0.500    0.000    7.875   12.250    2.500 
#    0.000    0.000    0.000    0.000    0.000    0.000 
#    0.000    0.000    0.000    0.000    0.000    0.000 
#
# Total GULP energy -396862.683462 kJ/mol
# GULP energy per Si atom -12401.958858 kJ/mol
# Density = 2.422203 g / cm^3
# Si number density = 24.277287 Si / 1000 Ang^3
#
#
#
# Elastic Constant Matrix: (Units=GPa)
#
#
# Indices 1 2 3 4 5 6 
#
# 1 90.7033 47.6779 20.8341 0.0000 -1.1969 0.0000
# 2 47.6779 158.1194 27.7591 0.0000 -6.9354 0.0000
# 3 20.8341 27.7591 105.3034 0.0000 -2.0213 0.0000
# 4 0.0000 0.0000 0.0000 110.2474 0.0000 44.6641
# 5 -1.1969 -6.9354 -2.0213 0.0000 23.0270 0.0000
# 6 0.0000 0.0000 0.0000 44.6641 0.0000 74.5844
#
#
#
# Elastic Compliance Matrix: (Units=1/GPa)
#
#
# Indices 1 2 3 4 5 6 
#
# 1 0.013380 -0.003768 -0.001665 0.000000 -0.000586 0.000000
# 2 -0.003768 0.007772 -0.001264 0.000000 0.002034 0.000000
# 3 -0.001665 -0.001264 0.010167 0.000000 0.000425 0.000000
# 4 0.000000 0.000000 0.000000 0.011976 0.000000 -0.007172
# 5 -0.000586 0.002034 0.000425 0.000000 0.044047 0.000000
# 6 0.000000 0.000000 0.000000 -0.007172 0.000000 0.017702
#
#
# Mechanical properties :
#
#
# Convention : Reuss Voigt Hill
#
# Bulk Modulus (GPa) = 55.78950 60.74094 58.26522
# Shear Modulus (GPa) = 40.18853 58.76211 49.47532
#
# Velocity S-wave (km/s) = 4.07307 4.92515 4.51924
# Velocity P-wave (km/s) = 6.71937 7.57739 7.16124
#
# Compressibility (1/GPa) = 0.01792452
#
# Stress axis : x y z
#
# Youngs Moduli (GPa) = 74.73656 128.67323 98.35510
#
# Poissons Ratio (x) = 0.48483 0.16379
# Poissons Ratio (y) = 0.28160 0.12434
# Poissons Ratio (z) = 0.12445 0.16266
#
# Static dielectric constant tensor:
#      x y z
#    x 4.710820 0.000000 -0.275540 
#    y 0.000000 4.528240 0.000000 
#    z -0.275540 0.000000 4.324500 
# 
# 
# High freq. dielectric constant tensor:
#      x y z
#    x 1.976720 0.000000 -0.002390 
#    y 0.000000 1.980400 0.000000 
#    z -0.002390 0.000000 1.964180 
# 
# From -- ./inp_files/67061.got.cif
#   From: 2010.03.12/outbox.cif.g09.slc.cpg/sg14_34_cif.got.tgz:67061.got - 2010.03.31 13:35:05.
