data_PCOD8128260
_publ_section_title
;
Structure prediction by ZEFSAII (Michael W. Deem and Ramdas Pophale) SiO2 
 PCOD8128260
Probable space group: P 21/C
;
_chemical_formula_sum "Si O2"
_cell_formula_units_Z 28
_cell_length_a 6.830742
_cell_length_b 27.068785
_cell_length_c 8.888515
_cell_angle_alpha 90.000000
_cell_angle_beta 123.509026
_cell_angle_gamma 90.000000
_cell_volume 1370.336271
_symmetry_space_group_name_H-M "P 21/C"
_symmetry_group_IT_number 14
_symmetry_cell_setting 'monoclinic'
loop_
_space_group_symop_operation_xyz
x,y,z
-x,1/2+y,1/2-z
-x,-y,-z
x,1/2-y,1/2+z
loop_
_atom_site_type_symbol
_atom_site_label
_atom_site_fract_x
_atom_site_fract_y
_atom_site_fract_z
Si Si1 0.467011 0.590720 0.862885
Si Si2 0.955114 0.551090 0.062686
Si Si3 0.228898 0.813815 0.169201
Si Si4 0.689053 0.812766 0.886762
Si Si5 0.554715 0.092665 0.301064
Si Si6 0.540823 0.243090 0.472567
Si Si7 0.207372 0.490135 0.699172
O O1 0.360238 0.633493 0.713477
O O2 0.311712 0.541345 0.801406
O O3 0.723760 0.579043 0.902277
O O4 0.472393 0.608972 0.037157
O O5 0.907068 0.541277 0.216452
O O6 0.175395 0.586878 0.133104
O O7 0.000000 0.500000 0.000000
O O8 0.310427 0.777830 0.072444
O O9 0.276938 0.789770 0.353162
O O10 0.959090 0.825164 0.025746
O O11 0.547543 0.863824 0.845935
O O12 0.636529 0.790511 0.699564
O O13 0.618823 0.774510 0.984588
O O14 0.414072 0.041797 0.209515
O O15 0.000000 0.500000 0.500000
#
# Coordination Sequence:
#
# PCOD8128260 Si02
#       7
#     4   4   4   4   4   4   4
#     4  11  22  40  65  93 128 169 212 261 324 371
#     4  11  21  42  65  86 127 172 214 253 309 388
#     4  11  23  44  68  96 132 166 214 269 321 382
#     4  11  23  43  68  95 129 166 215 264 324 378
#     4  11  22  41  64  93 127 171 209 261 320 378
#     4  10  24  44  66  98 125 169 215 264 327 380
#     4  11  23  39  62  93 129 164 209 268 317 377
#
# _framework density 20.432941
#
# number of rings (size 3 to 8) (size 9 to 14) (size 15 to 20)
#    0.000    1.143    4.286    2.571    0.000    5.143 
#   12.857    0.000    0.000    0.000    0.000    0.000 
#    0.000    0.000    0.000    0.000    0.000    0.000 
#
# Total GULP energy -347273.064863 kJ/mol
# GULP energy per Si atom -12402.609459 kJ/mol
# Density = 2.038644 g / cm^3
# Si number density = 20.432941 Si / 1000 Ang^3
#
#
#
# Elastic Constant Matrix: (Units=GPa)
#
#
# Indices 1 2 3 4 5 6 
#
# 1 122.8988 48.9410 57.0380 0.0000 31.0974 0.0000
# 2 48.9410 126.7259 52.8431 0.0000 17.0826 0.0000
# 3 57.0380 52.8431 120.0291 0.0000 25.8180 0.0000
# 4 0.0000 0.0000 0.0000 -12.3029 0.0000 20.4177
# 5 31.0974 17.0826 25.8180 0.0000 39.1913 0.0000
# 6 0.0000 0.0000 0.0000 20.4177 0.0000 25.9612
#
#
#
# Elastic Compliance Matrix: (Units=1/GPa)
#
#
# Indices 1 2 3 4 5 6 
#
# 1 0.012330 -0.002482 -0.003373 0.000000 -0.006480 0.000000
# 2 -0.002482 0.010257 -0.003260 0.000000 -0.000354 0.000000
# 3 -0.003373 -0.003260 0.012219 0.000000 -0.003953 0.000000
# 4 0.000000 0.000000 0.000000 -0.035260 0.000000 0.027731
# 5 -0.006480 -0.000354 -0.003953 0.000000 0.033416 0.000000
# 6 0.000000 0.000000 0.000000 0.027731 0.000000 0.016710
#
#
# Mechanical properties :
#
#
# Convention : Reuss Voigt Hill
#
# Bulk Modulus (GPa) = 60.32542 76.36645 68.34593
# Shear Modulus (GPa) = 68.09546 24.62537 46.36042
#
# Velocity S-wave (km/s) = 5.77916 3.47534 4.76847
# Velocity P-wave (km/s) = 8.60925 7.31842 7.98995
#
# Compressibility (1/GPa) = 0.01657676
#
# Stress axis : x y z
#
# Youngs Moduli (GPa) = 81.10242 97.49809 81.83649
#
# Poissons Ratio (x) = 0.24198 0.27602
# Poissons Ratio (y) = 0.20129 0.26679
# Poissons Ratio (z) = 0.27354 0.31784
#
# Static dielectric constant tensor:
#      x y z
#    x 3.836310 0.000000 0.099760 
#    y 0.000000 3.739560 0.000000 
#    z 0.099760 0.000000 3.831200 
# 
# 
# High freq. dielectric constant tensor:
#      x y z
#    x 1.793680 0.000000 0.011130 
#    y 0.000000 1.813060 0.000000 
#    z 0.011130 0.000000 1.803420 
# 
# From -- ./inp_files/6889.got.cif
#   From: 2010.03.12/outbox.cif.g09.slc.cpg/sg14_4_cif.got.tgz:6889.got - 2010.03.31 13:35:05.
