data_PCOD8128906
_publ_section_title
;
Structure prediction by ZEFSAII (Michael W. Deem and Ramdas Pophale) SiO2 
 PCOD8128906
Probable space group: P 21/C
;
_chemical_formula_sum "Si O2"
_cell_formula_units_Z 24
_cell_length_a 8.999561
_cell_length_b 8.640652
_cell_length_c 14.737601
_cell_angle_alpha 90.000000
_cell_angle_beta 106.113271
_cell_angle_gamma 90.000000
_cell_volume 1101.004663
_symmetry_space_group_name_H-M "P 21/C"
_symmetry_group_IT_number 14
_symmetry_cell_setting 'monoclinic'
loop_
_space_group_symop_operation_xyz
x,y,z
-x,1/2+y,1/2-z
-x,-y,-z
x,1/2-y,1/2+z
loop_
_atom_site_type_symbol
_atom_site_label
_atom_site_fract_x
_atom_site_fract_y
_atom_site_fract_z
Si Si1 0.032157 0.152925 0.118364
Si Si2 0.833737 0.166062 0.913132
Si Si3 0.802509 0.168434 0.234343
Si Si4 0.700957 0.654766 0.764922
Si Si5 0.523700 0.154200 0.617074
Si Si6 0.496072 0.708052 0.087055
O O1 0.127893 0.294170 0.176933
O O2 0.916932 0.097805 0.178420
O O3 0.144179 0.015486 0.104452
O O4 0.934186 0.217165 0.016755
O O5 0.894061 0.262533 0.836381
O O6 0.653290 0.202633 0.898814
O O7 0.699809 0.307606 0.174797
O O8 0.694448 0.029664 0.251695
O O9 0.586676 0.717639 0.823122
O O10 0.650088 0.729663 0.661190
O O11 0.487177 0.242992 0.517096
O O12 0.487681 0.974144 0.600990
#
# Coordination Sequence:
#
# PCOD8128906 Si02
#       6
#     4   4   4   4   4   4
#     4  11  27  44  68 100 141 185 226 286 341 415
#     4  11  23  46  69  97 142 182 229 281 345 407
#     4  12  24  44  70 101 139 182 230 283 348 409
#     4  12  25  42  69 104 129 181 231 283 344 402
#     4  11  23  43  70 101 134 172 230 279 344 408
#     4  11  24  43  71 100 132 182 223 285 346 402
#
# _framework density 21.798272000000001
#
# number of rings (size 3 to 8) (size 9 to 14) (size 15 to 20)
#    0.000    0.667    5.000    2.000    2.333    5.333 
#    0.000    0.000    0.000    0.000    0.000    0.000 
#    0.000    0.000    0.000    0.000    0.000    0.000 
#
# Total GULP energy -297681.428301 kJ/mol
# GULP energy per Si atom -12403.392846 kJ/mol
# Density = 2.174866 g / cm^3
# Si number density = 21.798272 Si / 1000 Ang^3
#
#
#
# Elastic Constant Matrix: (Units=GPa)
#
#
# Indices 1 2 3 4 5 6 
#
# 1 86.6672 28.2972 45.3348 0.0000 1.3263 0.0000
# 2 28.2972 58.3725 43.4263 0.0000 0.1786 0.0000
# 3 45.3348 43.4263 186.1507 0.0000 8.0654 0.0000
# 4 0.0000 0.0000 0.0000 29.5042 0.0000 1.9742
# 5 1.3263 0.1786 8.0654 0.0000 37.8848 0.0000
# 6 0.0000 0.0000 0.0000 1.9742 0.0000 35.2803
#
#
#
# Elastic Compliance Matrix: (Units=1/GPa)
#
#
# Indices 1 2 3 4 5 6 
#
# 1 0.014468 -0.005315 -0.002284 0.000000 0.000005 0.000000
# 2 -0.005315 0.022714 -0.004045 0.000000 0.000940 0.000000
# 3 -0.002284 -0.004045 0.006932 0.000000 -0.001377 0.000000
# 4 0.000000 0.000000 0.000000 0.034021 0.000000 -0.001904
# 5 0.000005 0.000940 -0.001377 0.000000 0.026684 0.000000
# 6 0.000000 0.000000 0.000000 -0.001904 0.000000 0.028451
#
#
# Mechanical properties :
#
#
# Convention : Reuss Voigt Hill
#
# Bulk Modulus (GPa) = 48.01608 62.81190 55.41399
# Shear Modulus (GPa) = 30.58095 34.80933 32.69514
#
# Velocity S-wave (km/s) = 3.74960 4.00044 3.87705
# Velocity P-wave (km/s) = 6.38916 7.08630 6.74674
#
# Compressibility (1/GPa) = 0.02082636
#
# Stress axis : x y z
#
# Youngs Moduli (GPa) = 69.11664 44.02489 144.26696
#
# Poissons Ratio (x) = 0.23398 0.32950
# Poissons Ratio (y) = 0.36733 0.58361
# Poissons Ratio (z) = 0.15786 0.17810
#
# Static dielectric constant tensor:
#      x y z
#    x 3.740300 0.000000 -0.089110 
#    y 0.000000 3.679630 0.000000 
#    z -0.089110 0.000000 4.382380 
# 
# 
# High freq. dielectric constant tensor:
#      x y z
#    x 1.845430 0.000000 -0.004950 
#    y 0.000000 1.847560 0.000000 
#    z -0.004950 0.000000 1.885700 
# 
# From -- ./inp_files/39071.got.cif
#   From: 2010.03.12/outbox.cif.g09.slc.cpg/sg14_20_cif.got.tgz:39071.got - 2010.03.31 13:35:05.
