data_PCOD8128404
_publ_section_title
;
Structure prediction by ZEFSAII (Michael W. Deem and Ramdas Pophale) SiO2 
 PCOD8128404
Probable space group: P 21/C
;
_chemical_formula_sum "Si O2"
_cell_formula_units_Z 20
_cell_length_a 23.135719
_cell_length_b 5.168421
_cell_length_c 8.933466
_cell_angle_alpha 90.000000
_cell_angle_beta 130.649955
_cell_angle_gamma 90.000000
_cell_volume 810.462695
_symmetry_space_group_name_H-M "P 21/C"
_symmetry_group_IT_number 14
_symmetry_cell_setting 'monoclinic'
loop_
_space_group_symop_operation_xyz
x,y,z
-x,1/2+y,1/2-z
-x,-y,-z
x,1/2-y,1/2+z
loop_
_atom_site_type_symbol
_atom_site_label
_atom_site_fract_x
_atom_site_fract_y
_atom_site_fract_z
Si Si1 0.790382 0.746265 0.060793
Si Si2 0.705171 0.052043 0.664813
Si Si3 0.973593 0.072342 0.120057
Si Si4 0.527955 0.486702 0.878553
Si Si5 0.832952 0.408341 0.880839
O O1 0.728965 0.593415 0.054740
O O2 0.848678 0.911449 0.262892
O O3 0.846775 0.560241 0.060014
O O4 0.738062 0.917843 0.866945
O O5 0.743442 0.336129 0.722966
O O6 0.615860 0.091868 0.523599
O O7 0.017359 0.326164 0.256235
O O8 0.883926 0.148792 0.962774
O O9 0.000000 0.000000 0.000000
O O10 0.481613 0.265818 0.713558
O O11 0.500000 0.500000 0.000000
#
# Coordination Sequence:
#
# PCOD8128404 Si02
#       5
#     4   4   4   4   4
#     4  10  25  46  76 112 150 200 271 326 386 462
#     4  11  25  44  79 105 153 201 267 320 394 466
#     4  12  32  56  84 120 166 211 264 328 403 474
#     4  12  29  49  76 115 164 209 261 326 402 472
#     4  11  27  47  80 112 155 205 269 324 393 472
#
# _framework density 24.677258999999999
#
# number of rings (size 3 to 8) (size 9 to 14) (size 15 to 20)
#    0.000    0.800    0.000    3.600   22.400    0.000 
#    0.000    0.000    0.000    0.000    0.000    0.000 
#    0.000    0.000    0.000    0.000    0.000    0.000 
#
# Total GULP energy -248093.873771 kJ/mol
# GULP energy per Si atom -12404.693689 kJ/mol
# Density = 2.462109 g / cm^3
# Si number density = 24.677259 Si / 1000 Ang^3
#
#
#
# Elastic Constant Matrix: (Units=GPa)
#
#
# Indices 1 2 3 4 5 6 
#
# 1 128.2022 73.1847 89.5438 0.0000 -10.3851 0.0000
# 2 73.1847 140.3638 52.0609 0.0000 -21.5680 0.0000
# 3 89.5438 52.0609 116.9717 0.0000 -23.1855 0.0000
# 4 0.0000 0.0000 0.0000 30.3925 0.0000 13.2156
# 5 -10.3851 -21.5680 -23.1855 0.0000 55.8516 0.0000
# 6 0.0000 0.0000 0.0000 13.2156 0.0000 30.0954
#
#
#
# Elastic Compliance Matrix: (Units=1/GPa)
#
#
# Indices 1 2 3 4 5 6 
#
# 1 0.020854 -0.006353 -0.014007 0.000000 -0.004390 0.000000
# 2 -0.006353 0.010652 0.000767 0.000000 0.003250 0.000000
# 3 -0.014007 0.000767 0.020129 0.000000 0.006048 0.000000
# 4 0.000000 0.000000 0.000000 0.040668 0.000000 -0.017858
# 5 -0.004390 0.003250 0.006048 0.000000 0.020854 0.000000
# 6 0.000000 0.000000 0.000000 -0.017858 0.000000 0.041070
#
#
# Mechanical properties :
#
#
# Convention : Reuss Voigt Hill
#
# Bulk Modulus (GPa) = 80.32856 90.56849 85.44853
# Shear Modulus (GPa) = 25.30827 34.65113 29.97970
#
# Velocity S-wave (km/s) = 3.20593 3.75129 3.48928
# Velocity P-wave (km/s) = 6.80634 7.45277 7.13688
#
# Compressibility (1/GPa) = 0.01244887
#
# Stress axis : x y z
#
# Youngs Moduli (GPa) = 47.95141 93.88167 49.67848
#
# Poissons Ratio (x) = 0.59640 0.69586
# Poissons Ratio (y) = 0.30462 -0.03808
# Poissons Ratio (z) = 0.67167 -0.07197
#
# Static dielectric constant tensor:
#      x y z
#    x 4.527570 0.000000 -0.177210 
#    y 0.000000 4.689310 0.000000 
#    z -0.177210 0.000000 4.615070 
# 
# 
# High freq. dielectric constant tensor:
#      x y z
#    x 1.991640 0.000000 -0.015430 
#    y 0.000000 1.999590 0.000000 
#    z -0.015430 0.000000 1.995660 
# 
# From -- ./inp_files/19289.got.cif
#   From: 2010.03.12/outbox.cif.g09.slc.cpg/sg14_10_cif.got.tgz:19289.got - 2010.03.31 13:35:05.
