data_PCOD8128586
_publ_section_title
;
Structure prediction by ZEFSAII (Michael W. Deem and Ramdas Pophale) SiO2 
 PCOD8128586
Probable space group: P 21/C
;
_chemical_formula_sum "Si O2"
_cell_formula_units_Z 32
_cell_length_a 11.784685
_cell_length_b 9.423614
_cell_length_c 13.916270
_cell_angle_alpha 90.000000
_cell_angle_beta 90.918469
_cell_angle_gamma 90.000000
_cell_volume 1545.263372
_symmetry_space_group_name_H-M "P 21/C"
_symmetry_group_IT_number 14
_symmetry_cell_setting 'monoclinic'
loop_
_space_group_symop_operation_xyz
x,y,z
-x,1/2+y,1/2-z
-x,-y,-z
x,1/2-y,1/2+z
loop_
_atom_site_type_symbol
_atom_site_label
_atom_site_fract_x
_atom_site_fract_y
_atom_site_fract_z
Si Si1 0.896101 0.332624 0.058982
Si Si2 0.508252 0.058172 0.657381
Si Si3 0.749429 0.134872 0.942248
Si Si4 0.489748 0.715307 0.039783
Si Si5 0.262257 0.696943 0.770796
Si Si6 0.283839 0.350662 0.457544
Si Si7 0.150807 0.390444 0.062741
Si Si8 0.717759 0.532072 0.743994
O O1 0.836345 0.353845 0.160032
O O2 0.030046 0.315328 0.076322
O O3 0.851918 0.189698 0.009135
O O4 0.863227 0.461445 0.990200
O O5 0.482373 0.144143 0.561107
O O6 0.624349 0.107703 0.707213
O O7 0.409310 0.083906 0.733463
O O8 0.507501 0.892275 0.628859
O O9 0.636745 0.224430 0.964317
O O10 0.784130 0.152761 0.833059
O O11 0.736532 0.969869 0.963329
O O12 0.580679 0.839506 0.053723
O O13 0.283906 0.864446 0.777177
O O14 0.229660 0.205757 0.495962
O O15 0.235630 0.391259 0.351546
O O16 0.202107 0.423077 0.167382
#
# Coordination Sequence:
#
# PCOD8128586 Si02
#       8
#     4   4   4   4   4   4   4   4
#     4  11  24  49  73  95 130 187 234 279 345 404
#     4  11  22  38  70  99 133 184 225 266 335 418
#     4  12  24  44  68 103 141 178 222 287 344 407
#     4  11  21  41  68  95 143 180 218 273 344 406
#     4  12  24  43  71 100 139 182 225 276 345 403
#     4  12  26  42  68 106 138 176 227 287 339 411
#     4  11  26  48  73  97 134 182 236 285 338 409
#     4  12  24  45  67 102 141 175 226 284 341 404
#
# _framework density 20.708444
#
# number of rings (size 3 to 8) (size 9 to 14) (size 15 to 20)
#    0.000    0.500    6.250    1.875    0.000    4.500 
#    2.250    0.000    0.000    0.000    0.000    0.000 
#    0.000    0.000    0.000    0.000    0.000    0.000 
#
# Total GULP energy -396937.462712 kJ/mol
# GULP energy per Si atom -12404.295710 kJ/mol
# Density = 2.066131 g / cm^3
# Si number density = 20.708444 Si / 1000 Ang^3
#
#
#
# Elastic Constant Matrix: (Units=GPa)
#
#
# Indices 1 2 3 4 5 6 
#
# 1 106.8324 1.3068 26.4907 0.0000 -4.6567 0.0000
# 2 1.3068 36.2981 -4.0138 0.0000 7.6750 0.0000
# 3 26.4907 -4.0138 88.5687 0.0000 -8.1069 0.0000
# 4 0.0000 0.0000 0.0000 32.7517 0.0000 -5.2345
# 5 -4.6567 7.6750 -8.1069 0.0000 14.4087 0.0000
# 6 0.0000 0.0000 0.0000 -5.2345 0.0000 25.0545
#
#
#
# Elastic Compliance Matrix: (Units=1/GPa)
#
#
# Indices 1 2 3 4 5 6 
#
# 1 0.010192 -0.001171 -0.002892 0.000000 0.002291 0.000000
# 2 -0.001171 0.031182 0.000220 0.000000 -0.016864 0.000000
# 3 -0.002892 0.000220 0.012725 0.000000 0.006108 0.000000
# 4 0.000000 0.000000 0.000000 0.031587 0.000000 0.006599
# 5 0.002291 -0.016864 0.006108 0.000000 0.082562 0.000000
# 6 0.000000 0.000000 0.000000 0.006599 0.000000 0.041292
#
#
# Mechanical properties :
#
#
# Convention : Reuss Voigt Hill
#
# Bulk Modulus (GPa) = 21.54602 31.02960 26.28781
# Shear Modulus (GPa) = 21.48723 28.30402 24.89563
#
# Velocity S-wave (km/s) = 3.22469 3.70102 3.47103
# Velocity P-wave (km/s) = 4.92868 5.76888 5.36525
#
# Compressibility (1/GPa) = 0.04641228
#
# Stress axis : x y z
#
# Youngs Moduli (GPa) = 98.11935 32.06981 78.58799
#
# Poissons Ratio (x) = 0.03755 0.22725
# Poissons Ratio (y) = 0.11490 -0.01727
# Poissons Ratio (z) = 0.28373 -0.00705
#
# Static dielectric constant tensor:
#      x y z
#    x 3.762250 0.000000 -0.068500 
#    y 0.000000 3.777530 0.000000 
#    z -0.068500 0.000000 3.965690 
# 
# 
# High freq. dielectric constant tensor:
#      x y z
#    x 1.805230 0.000000 -0.004140 
#    y 0.000000 1.812960 0.000000 
#    z -0.004140 0.000000 1.827840 
# 
# From -- ./inp_files/43728.got.cif
#   From: 2010.03.12/outbox.cif.g09.slc.cpg/sg14_22_cif.got.tgz:43728.got - 2010.03.31 13:35:05.
