data_PCOD8128224
_publ_section_title
;
Structure prediction by ZEFSAII (Michael W. Deem and Ramdas Pophale) SiO2 
 PCOD8128224
Probable space group: P 21/C
;
_chemical_formula_sum "Si O2"
_cell_formula_units_Z 28
_cell_length_a 21.740228
_cell_length_b 9.261253
_cell_length_c 9.947931
_cell_angle_alpha 90.000000
_cell_angle_beta 38.002919
_cell_angle_gamma 90.000000
_cell_volume 1233.209620
_symmetry_space_group_name_H-M "P 21/C"
_symmetry_group_IT_number 14
_symmetry_cell_setting 'monoclinic'
loop_
_space_group_symop_operation_xyz
x,y,z
-x,1/2+y,1/2-z
-x,-y,-z
x,1/2-y,1/2+z
loop_
_atom_site_type_symbol
_atom_site_label
_atom_site_fract_x
_atom_site_fract_y
_atom_site_fract_z
Si Si1 0.952414 0.246748 0.423637
Si Si2 0.557207 0.083707 0.519170
Si Si3 0.883828 0.581443 0.227067
Si Si4 0.889355 0.513154 0.915241
Si Si5 0.758694 0.859632 0.435492
Si Si6 0.531109 0.601512 0.325366
Si Si7 0.210066 0.949605 0.860373
O O1 0.940602 0.144521 0.311410
O O2 0.844070 0.321559 0.635058
O O3 0.999458 0.139084 0.460603
O O4 0.033810 0.366369 0.259797
O O5 0.533832 0.253473 0.570948
O O6 0.676687 0.084786 0.293902
O O7 0.500000 0.000000 0.500000
O O8 0.521751 0.998485 0.711347
O O9 0.807380 0.709406 0.388991
O O10 0.858626 0.468035 0.389048
O O11 0.856909 0.521065 0.127173
O O12 0.793263 0.520900 0.985412
O O13 0.642079 0.840829 0.653737
O O14 0.790326 0.907228 0.231136
O O15 0.500000 0.500000 0.500000
#
# Coordination Sequence:
#
# PCOD8128224 Si02
#       7
#     4   4   4   4   4   4   4
#     4  11  24  41  64  96 136 169 223 267 330 388
#     4  11  25  47  74 102 139 183 231 300 352 422
#     4  11  23  43  66  98 133 179 223 269 333 397
#     4  11  25  41  69  95 131 181 220 278 326 397
#     4  10  24  43  68  95 133 176 220 274 341 404
#     4  11  25  47  70 105 137 180 232 288 361 416
#     4  11  25  43  66 100 134 175 227 276 339 401
#
# _framework density 22.704979999999999
#
# number of rings (size 3 to 8) (size 9 to 14) (size 15 to 20)
#    0.000    1.143    1.429    3.857    4.000    5.714 
#    2.571    0.000    0.000    0.000    0.000    0.000 
#    0.000    0.000    0.000    0.000    0.000    0.000 
#
# Total GULP energy -347036.075596 kJ/mol
# GULP energy per Si atom -12394.145557 kJ/mol
# Density = 2.265330 g / cm^3
# Si number density = 22.704980 Si / 1000 Ang^3
#
#
#
# Elastic Constant Matrix: (Units=GPa)
#
#
# Indices 1 2 3 4 5 6 
#
# 1 136.3537 31.3665 51.1062 0.0000 -8.9129 0.0000
# 2 31.3665 91.8099 4.8900 0.0000 -13.8003 0.0000
# 3 51.1062 4.8900 84.1937 0.0000 -4.0052 0.0000
# 4 0.0000 0.0000 0.0000 19.7094 0.0000 2.6450
# 5 -8.9129 -13.8003 -4.0052 0.0000 26.5785 0.0000
# 6 0.0000 0.0000 0.0000 2.6450 0.0000 45.3615
#
#
#
# Elastic Compliance Matrix: (Units=1/GPa)
#
#
# Indices 1 2 3 4 5 6 
#
# 1 0.010383 -0.003078 -0.006078 0.000000 0.000968 0.000000
# 2 -0.003078 0.012740 0.001404 0.000000 0.005794 0.000000
# 3 -0.006078 0.001404 0.015534 0.000000 0.001032 0.000000
# 4 0.000000 0.000000 0.000000 0.051138 0.000000 -0.002982
# 5 0.000968 0.005794 0.001032 0.000000 0.041113 0.000000
# 6 0.000000 0.000000 0.000000 -0.002982 0.000000 0.022219
#
#
# Mechanical properties :
#
#
# Convention : Reuss Voigt Hill
#
# Bulk Modulus (GPa) = 43.18993 54.12031 48.65512
# Shear Modulus (GPa) = 28.35295 33.32951 30.84123
#
# Velocity S-wave (km/s) = 3.53761 3.83552 3.68957
# Velocity P-wave (km/s) = 5.97911 6.59569 6.29495
#
# Compressibility (1/GPa) = 0.02315355
#
# Stress axis : x y z
#
# Youngs Moduli (GPa) = 96.30878 78.49364 64.37398
#
# Poissons Ratio (x) = 0.24162 0.39126
# Poissons Ratio (y) = 0.29646 -0.09039
# Poissons Ratio (z) = 0.58536 -0.11022
#
# Static dielectric constant tensor:
#      x y z
#    x 4.551370 0.000000 -0.079380 
#    y 0.000000 4.490050 0.000000 
#    z -0.079380 0.000000 3.800790 
# 
# 
# High freq. dielectric constant tensor:
#      x y z
#    x 1.917130 0.000000 -0.002240 
#    y 0.000000 1.916220 0.000000 
#    z -0.002240 0.000000 1.877610 
# 
# From -- ./inp_files/18699.got.cif
#   From: 2010.03.12/outbox.cif.g09.slc.cpg/sg14_10_cif.got.tgz:18699.got - 2010.03.31 13:35:05.
