data_PCOD8128899
_publ_section_title
;
Structure prediction by ZEFSAII (Michael W. Deem and Ramdas Pophale) SiO2 
 PCOD8128899
Probable space group: P 21/C
;
_chemical_formula_sum "Si O2"
_cell_formula_units_Z 16
_cell_length_a 18.923644
_cell_length_b 9.224149
_cell_length_c 9.569001
_cell_angle_alpha 90.000000
_cell_angle_beta 153.459836
_cell_angle_gamma 90.000000
_cell_volume 746.337372
_symmetry_space_group_name_H-M "P 21/C"
_symmetry_group_IT_number 14
_symmetry_cell_setting 'monoclinic'
loop_
_space_group_symop_operation_xyz
x,y,z
-x,1/2+y,1/2-z
-x,-y,-z
x,1/2-y,1/2+z
loop_
_atom_site_type_symbol
_atom_site_label
_atom_site_fract_x
_atom_site_fract_y
_atom_site_fract_z
Si Si1 0.106814 0.433201 0.068659
Si Si2 0.107448 0.820171 0.354159
Si Si3 0.447953 0.975252 0.251502
Si Si4 0.310088 0.675671 0.942809
O O1 0.287859 0.436757 0.435933
O O2 0.077489 0.527851 0.877273
O O3 0.000000 0.500000 0.000000
O O4 0.057597 0.266727 0.954656
O O5 0.225178 0.715972 0.647785
O O6 0.180707 0.853666 0.332680
O O7 0.584861 0.032381 0.390379
O O8 0.500000 0.000000 0.500000
O O9 0.427377 0.805494 0.190853
#
# Coordination Sequence:
#
# PCOD8128899 Si02
#       4
#     4   4   4   4
#     4  11  23  43  68  96 136 172 217 273 328 388
#     4  11  23  45  66  95 135 171 217 276 324 388
#     4  11  23  43  69  96 135 174 217 271 329 388
#     4  11  23  44  67  94 136 170 220 276 322 391
#
# _framework density 21.438025
#
# number of rings (size 3 to 8) (size 9 to 14) (size 15 to 20)
#    0.000    1.000    7.500    0.000    0.000    9.000 
#    4.500    0.000    0.000    0.000    0.000    0.000 
#    0.000    0.000    0.000    0.000    0.000    0.000 
#
# Total GULP energy -198460.546500 kJ/mol
# GULP energy per Si atom -12403.784156 kJ/mol
# Density = 2.138923 g / cm^3
# Si number density = 21.438025 Si / 1000 Ang^3
#
#
#
# Elastic Constant Matrix: (Units=GPa)
#
#
# Indices 1 2 3 4 5 6 
#
# 1 111.7911 40.1445 22.6106 0.0000 7.2437 0.0000
# 2 40.1445 79.4320 23.9417 0.0000 8.7522 0.0000
# 3 22.6106 23.9417 74.1517 0.0000 -8.5499 0.0000
# 4 0.0000 0.0000 0.0000 38.1640 0.0000 10.4869
# 5 7.2437 8.7522 -8.5499 0.0000 32.6271 0.0000
# 6 0.0000 0.0000 0.0000 10.4869 0.0000 43.3531
#
#
#
# Elastic Compliance Matrix: (Units=1/GPa)
#
#
# Indices 1 2 3 4 5 6 
#
# 1 0.011217 -0.004862 -0.002049 0.000000 -0.001723 0.000000
# 2 -0.004862 0.016919 -0.004516 0.000000 -0.004643 0.000000
# 3 -0.002049 -0.004516 0.016252 0.000000 0.005925 0.000000
# 4 0.000000 0.000000 0.000000 0.028068 0.000000 -0.006790
# 5 -0.001723 -0.004643 0.005925 0.000000 0.033830 0.000000
# 6 0.000000 0.000000 0.000000 -0.006790 0.000000 0.024709
#
#
# Mechanical properties :
#
#
# Convention : Reuss Voigt Hill
#
# Bulk Modulus (GPa) = 46.43600 48.75203 47.59401
# Shear Modulus (GPa) = 31.05076 34.74071 32.89573
#
# Velocity S-wave (km/s) = 3.80991 4.02993 3.92146
# Velocity P-wave (km/s) = 6.40792 6.66664 6.53856
#
# Compressibility (1/GPa) = 0.02153502
#
# Stress axis : x y z
#
# Youngs Moduli (GPa) = 89.14868 59.10536 61.53114
#
# Poissons Ratio (x) = 0.28734 0.12610
# Poissons Ratio (y) = 0.43340 0.27785
# Poissons Ratio (z) = 0.18270 0.26690
#
# Static dielectric constant tensor:
#      x y z
#    x 4.185920 0.000000 -0.083940 
#    y 0.000000 4.295520 0.000000 
#    z -0.083940 0.000000 4.245070 
# 
# 
# High freq. dielectric constant tensor:
#      x y z
#    x 1.851910 0.000000 -0.005060 
#    y 0.000000 1.833040 0.000000 
#    z -0.005060 0.000000 1.848270 
# 
# From -- ./inp_files/7218.got.cif
#   From: 2010.03.12/outbox.cif.g09.slc.cpg/sg14_4_cif.got.tgz:7218.got - 2010.03.31 13:35:05.
