data_PCOD8128340
_publ_section_title
;
Structure prediction by ZEFSAII (Michael W. Deem and Ramdas Pophale) SiO2 
 PCOD8128340
Probable space group: P 21/C
;
_chemical_formula_sum "Si O2"
_cell_formula_units_Z 20
_cell_length_a 8.156957
_cell_length_b 9.052357
_cell_length_c 10.517740
_cell_angle_alpha 90.000000
_cell_angle_beta 79.835742
_cell_angle_gamma 90.000000
_cell_volume 764.438160
_symmetry_space_group_name_H-M "P 21/C"
_symmetry_group_IT_number 14
_symmetry_cell_setting 'monoclinic'
loop_
_space_group_symop_operation_xyz
x,y,z
-x,1/2+y,1/2-z
-x,-y,-z
x,1/2-y,1/2+z
loop_
_atom_site_type_symbol
_atom_site_label
_atom_site_fract_x
_atom_site_fract_y
_atom_site_fract_z
Si Si1 0.466177 0.338730 0.890673
Si Si2 0.972546 0.074996 0.866521
Si Si3 0.854394 0.009315 0.620538
Si Si4 0.339494 0.066363 0.783438
Si Si5 0.700336 0.213564 0.044988
O O1 0.278375 0.394682 0.917660
O O2 0.594792 0.471343 0.844031
O O3 0.524407 0.278887 0.019231
O O4 0.469441 0.199974 0.791672
O O5 0.835828 0.202865 0.909915
O O6 0.906398 0.970633 0.759477
O O7 0.152958 0.132806 0.792052
O O8 0.000000 0.000000 0.000000
O O9 0.780466 0.176005 0.637048
O O10 0.000000 0.000000 0.500000
O O11 0.337751 0.949896 0.899846
#
# Coordination Sequence:
#
# PCOD8128340 Si02
#       5
#     4   4   4   4   4
#     4  12  25  44  68 104 143 187 241 303 364 430
#     4  10  24  47  72 103 146 193 237 294 366 434
#     4  12  26  45  74 108 145 192 247 303 363 436
#     4  11  24  42  70  99 141 192 240 297 365 434
#     4  11  23  44  70 104 144 188 240 301 364 436
#
# _framework density 26.163005999999999
#
# number of rings (size 3 to 8) (size 9 to 14) (size 15 to 20)
#    0.000    0.800    0.000    7.200    0.000    8.000 
#    0.000    0.000    0.000    0.000    0.000    0.000 
#    0.000    0.000    0.000    0.000    0.000    0.000 
#
# Total GULP energy -247816.104274 kJ/mol
# GULP energy per Si atom -12390.805214 kJ/mol
# Density = 2.610346 g / cm^3
# Si number density = 26.163006 Si / 1000 Ang^3
#
#
#
# Elastic Constant Matrix: (Units=GPa)
#
#
# Indices 1 2 3 4 5 6 
#
# 1 134.2759 16.4094 38.5016 0.0000 11.4605 0.0000
# 2 16.4094 93.7538 -1.9563 0.0000 7.4490 0.0000
# 3 38.5016 -1.9563 100.5458 0.0000 25.8528 0.0000
# 4 0.0000 0.0000 0.0000 33.3137 0.0000 6.9691
# 5 11.4605 7.4490 25.8528 0.0000 42.9863 0.0000
# 6 0.0000 0.0000 0.0000 6.9691 0.0000 43.1453
#
#
#
# Elastic Compliance Matrix: (Units=1/GPa)
#
#
# Indices 1 2 3 4 5 6 
#
# 1 0.008592 -0.001571 -0.003314 0.000000 -0.000025 0.000000
# 2 -0.001571 0.011160 0.001429 0.000000 -0.002375 0.000000
# 3 -0.003314 0.001429 0.013106 0.000000 -0.007246 0.000000
# 4 0.000000 0.000000 0.000000 0.031067 0.000000 -0.005018
# 5 -0.000025 -0.002375 -0.007246 0.000000 0.028039 0.000000
# 6 0.000000 0.000000 0.000000 -0.005018 0.000000 0.023988
#
#
# Mechanical properties :
#
#
# Convention : Reuss Voigt Hill
#
# Bulk Modulus (GPa) = 38.54214 48.27611 43.40912
# Shear Modulus (GPa) = 38.01929 42.26378 40.14153
#
# Velocity S-wave (km/s) = 3.81618 4.02357 3.92125
# Velocity P-wave (km/s) = 5.84647 6.33068 6.09339
#
# Compressibility (1/GPa) = 0.02594563
#
# Stress axis : x y z
#
# Youngs Moduli (GPa) = 116.39078 89.60837 76.30247
#
# Poissons Ratio (x) = 0.14077 0.25287
# Poissons Ratio (y) = 0.18284 -0.10905
# Poissons Ratio (z) = 0.38573 -0.12807
#
# Static dielectric constant tensor:
#      x y z
#    x 5.267480 0.000000 -0.268860 
#    y 0.000000 4.824630 0.000000 
#    z -0.268860 0.000000 4.640390 
# 
# 
# High freq. dielectric constant tensor:
#      x y z
#    x 2.066280 0.000000 -0.006910 
#    y 0.000000 2.039930 0.000000 
#    z -0.006910 0.000000 2.044990 
# 
# From -- ./inp_files/23022.got.cif
#   From: 2010.03.12/outbox.cif.g09.slc.cpg/sg14_12_cif.got.tgz:23022.got - 2010.03.31 13:35:05.
