data_PCOD8128428
_publ_section_title
;
Structure prediction by ZEFSAII (Michael W. Deem and Ramdas Pophale) SiO2 
 PCOD8128428
Probable space group: P 21/C
;
_chemical_formula_sum "Si O2"
_cell_formula_units_Z 20
_cell_length_a 12.444205
_cell_length_b 11.514560
_cell_length_c 9.981558
_cell_angle_alpha 90.000000
_cell_angle_beta 37.974336
_cell_angle_gamma 90.000000
_cell_volume 880.046694
_symmetry_space_group_name_H-M "P 21/C"
_symmetry_group_IT_number 14
_symmetry_cell_setting 'monoclinic'
loop_
_space_group_symop_operation_xyz
x,y,z
-x,1/2+y,1/2-z
-x,-y,-z
x,1/2-y,1/2+z
loop_
_atom_site_type_symbol
_atom_site_label
_atom_site_fract_x
_atom_site_fract_y
_atom_site_fract_z
Si Si1 0.880190 0.898796 0.059744
Si Si2 0.123495 0.149133 0.467687
Si Si3 0.516438 0.329017 0.658757
Si Si4 0.187142 0.003157 0.151306
Si Si5 0.475566 0.365522 0.995474
O O1 0.973103 0.776146 0.935114
O O2 0.733950 0.853536 0.307977
O O3 0.779477 0.944650 0.027781
O O4 0.000000 0.000000 0.000000
O O5 0.312315 0.140149 0.351337
O O6 0.990439 0.070847 0.681854
O O7 0.153451 0.107029 0.286798
O O8 0.642251 0.428840 0.473950
O O9 0.555600 0.210397 0.539095
O O10 0.561225 0.318359 0.773416
O O11 0.500000 0.500000 0.000000
#
# Coordination Sequence:
#
# PCOD8128428 Si02
#       5
#     4   4   4   4   4
#     4  11  25  42  71  97 144 180 230 292 349 417
#     4  10  26  44  70 102 139 182 234 287 351 422
#     4  11  25  45  72 100 145 179 232 295 346 425
#     4  11  24  46  70 102 135 188 234 287 356 413
#     4  11  25  44  69 105 137 185 234 282 356 418
#
# _framework density 22.726064999999998
#
# number of rings (size 3 to 8) (size 9 to 14) (size 15 to 20)
#    0.000    1.200    2.000    1.800   16.800    1.600 
#    3.600    0.000    0.000    0.000    0.000    0.000 
#    0.000    0.000    0.000    0.000    0.000    0.000 
#
# Total GULP energy -247857.960930 kJ/mol
# GULP energy per Si atom -12392.898047 kJ/mol
# Density = 2.267434 g / cm^3
# Si number density = 22.726065 Si / 1000 Ang^3
#
#
#
# Elastic Constant Matrix: (Units=GPa)
#
#
# Indices 1 2 3 4 5 6 
#
# 1 78.7214 63.3952 33.0681 0.0000 7.7808 0.0000
# 2 63.3952 174.1351 43.4643 0.0000 10.7868 0.0000
# 3 33.0681 43.4643 87.4926 0.0000 10.9292 0.0000
# 4 0.0000 0.0000 0.0000 24.0018 0.0000 -1.3884
# 5 7.7808 10.7868 10.9292 0.0000 37.6333 0.0000
# 6 0.0000 0.0000 0.0000 -1.3884 0.0000 45.1441
#
#
#
# Elastic Compliance Matrix: (Units=1/GPa)
#
#
# Indices 1 2 3 4 5 6 
#
# 1 0.019361 -0.005923 -0.004241 0.000000 -0.001074 0.000000
# 2 -0.005923 0.008402 -0.001855 0.000000 -0.000645 0.000000
# 3 -0.004241 -0.001855 0.014296 0.000000 -0.002743 0.000000
# 4 0.000000 0.000000 0.000000 0.041738 0.000000 0.001284
# 5 -0.001074 -0.000645 -0.002743 0.000000 0.027776 0.000000
# 6 0.000000 0.000000 0.000000 0.001284 0.000000 0.022191
#
#
# Mechanical properties :
#
#
# Convention : Reuss Voigt Hill
#
# Bulk Modulus (GPa) = 55.48889 68.91157 62.20023
# Shear Modulus (GPa) = 30.52354 34.71728 32.62041
#
# Velocity S-wave (km/s) = 3.66882 3.91275 3.79274
# Velocity P-wave (km/s) = 6.51279 7.12750 6.82707
#
# Compressibility (1/GPa) = 0.01802163
#
# Stress axis : x y z
#
# Youngs Moduli (GPa) = 51.65102 119.01947 69.94793
#
# Poissons Ratio (x) = 0.70500 0.29663
# Poissons Ratio (y) = 0.30595 0.12972
# Poissons Ratio (z) = 0.21904 0.22073
#
# Static dielectric constant tensor:
#      x y z
#    x 3.929960 0.000000 -0.115270 
#    y 0.000000 5.305060 0.000000 
#    z -0.115270 0.000000 4.653430 
# 
# 
# High freq. dielectric constant tensor:
#      x y z
#    x 1.876010 0.000000 0.005490 
#    y 0.000000 1.911420 0.000000 
#    z 0.005490 0.000000 1.908850 
# 
# From -- ./inp_files/12328.got.cif
#   From: 2010.03.12/outbox.cif.g09.slc.cpg/sg14_7_cif.got.tgz:12328.got - 2010.03.31 13:35:05.
