data_PCOD8128388
_publ_section_title
;
Structure prediction by ZEFSAII (Michael W. Deem and Ramdas Pophale) SiO2 
 PCOD8128388
Probable space group: P 21/C
;
_chemical_formula_sum "Si O2"
_cell_formula_units_Z 32
_cell_length_a 9.783536
_cell_length_b 22.657304
_cell_length_c 16.303407
_cell_angle_alpha 90.000000
_cell_angle_beta 153.588002
_cell_angle_gamma 90.000000
_cell_volume 1607.568273
_symmetry_space_group_name_H-M "P 21/C"
_symmetry_group_IT_number 14
_symmetry_cell_setting 'monoclinic'
loop_
_space_group_symop_operation_xyz
x,y,z
-x,1/2+y,1/2-z
-x,-y,-z
x,1/2-y,1/2+z
loop_
_atom_site_type_symbol
_atom_site_label
_atom_site_fract_x
_atom_site_fract_y
_atom_site_fract_z
Si Si1 0.524366 0.441809 0.458732
Si Si2 0.281759 0.173696 0.244861
Si Si3 0.673641 0.827603 0.072432
Si Si4 0.362933 0.998464 0.706730
Si Si5 0.264193 0.116671 0.062090
Si Si6 0.340938 0.955312 0.299545
Si Si7 0.211984 0.072017 0.325077
Si Si8 0.202149 0.754173 0.918546
O O1 0.500000 0.500000 0.500000
O O2 0.289357 0.391214 0.362420
O O3 0.454028 0.456100 0.326836
O O4 0.857709 0.412445 0.649294
O O5 0.223549 0.155090 0.121061
O O6 0.369223 0.116876 0.346387
O O7 0.561885 0.219006 0.397488
O O8 0.974109 0.202902 0.114526
O O9 0.980460 0.790653 0.252449
O O10 0.632667 0.838918 0.953864
O O11 0.378800 0.791426 0.944533
O O12 0.536635 0.019123 0.719257
O O13 0.472186 0.932682 0.787026
O O14 0.000000 0.000000 0.500000
O O15 0.935920 0.088708 0.865348
O O16 0.614614 0.922291 0.494732
O O17 0.216857 0.006535 0.291361
#
# Coordination Sequence:
#
# PCOD8128388 Si02
#       8
#     4   4   4   4   4   4   4   4
#     4  12  22  39  66  97 136 167 216 268 335 394
#     4  11  23  43  67  90 126 168 222 271 321 382
#     4  11  24  44  69  95 128 172 221 271 327 391
#     4  12  25  37  59 102 139 174 209 265 328 399
#     4  12  24  42  66  97 134 169 218 269 327 388
#     4  11  23  39  63  98 135 171 211 256 331 396
#     4  11  21  39  66  92 129 176 211 258 321 401
#     4  10  25  45  67  91 121 178 223 272 328 380
#
# _framework density 19.905842
#
# number of rings (size 3 to 8) (size 9 to 14) (size 15 to 20)
#    0.000    0.750    5.000    2.625    1.750    3.000 
#    0.000    0.000    0.000    0.000    0.000    0.000 
#    0.000    0.000    0.000    0.000    0.000    0.000 
#
# Total GULP energy -396974.158246 kJ/mol
# GULP energy per Si atom -12405.442445 kJ/mol
# Density = 1.986054 g / cm^3
# Si number density = 19.905842 Si / 1000 Ang^3
#
#
#
# Elastic Constant Matrix: (Units=GPa)
#
#
# Indices 1 2 3 4 5 6 
#
# 1 121.3282 60.3457 61.5900 0.0000 -16.1092 0.0000
# 2 60.3457 117.6234 59.3990 0.0000 -7.5566 0.0000
# 3 61.5900 59.3990 142.3317 0.0000 -1.8191 0.0000
# 4 0.0000 0.0000 0.0000 23.3551 0.0000 -9.8732
# 5 -16.1092 -7.5566 -1.8191 0.0000 38.0900 0.0000
# 6 0.0000 0.0000 0.0000 -9.8732 0.0000 35.9463
#
#
#
# Elastic Compliance Matrix: (Units=1/GPa)
#
#
# Indices 1 2 3 4 5 6 
#
# 1 0.012920 -0.004499 -0.003657 0.000000 0.004397 0.000000
# 2 -0.004499 0.012481 -0.003257 0.000000 0.000418 0.000000
# 3 -0.003657 -0.003257 0.009945 0.000000 -0.001718 0.000000
# 4 0.000000 0.000000 0.000000 0.048442 0.000000 0.013305
# 5 0.004397 0.000418 -0.001718 0.000000 0.028114 0.000000
# 6 0.000000 0.000000 0.000000 0.013305 0.000000 0.031474
#
#
# Mechanical properties :
#
#
# Convention : Reuss Voigt Hill
#
# Bulk Modulus (GPa) = 79.86396 82.66141 81.26269
# Shear Modulus (GPa) = 29.34685 32.80819 31.07752
#
# Velocity S-wave (km/s) = 3.84381 4.06417 3.95552
# Velocity P-wave (km/s) = 7.74001 7.97745 7.85962
#
# Compressibility (1/GPa) = 0.01252129
#
# Stress axis : x y z
#
# Youngs Moduli (GPa) = 77.39844 80.11892 100.54936
#
# Poissons Ratio (x) = 0.36049 0.36770
# Poissons Ratio (y) = 0.34824 0.32744
# Poissons Ratio (z) = 0.28304 0.26091
#
# Static dielectric constant tensor:
#      x y z
#    x 3.975960 0.000000 0.091170 
#    y 0.000000 3.722180 0.000000 
#    z 0.091170 0.000000 3.764420 
# 
# 
# High freq. dielectric constant tensor:
#      x y z
#    x 1.787970 0.000000 0.003920 
#    y 0.000000 1.780940 0.000000 
#    z 0.003920 0.000000 1.781360 
# 
# From -- ./inp_files/17017.got.cif
#   From: 2010.03.12/outbox.cif.g09.slc.cpg/sg14_9_cif.got.tgz:17017.got - 2010.03.31 13:35:05.
