data_PCOD8128167
_publ_section_title
;
Structure prediction by ZEFSAII (Michael W. Deem and Ramdas Pophale) SiO2 
 PCOD8128167
Probable space group: P 21/C
;
_chemical_formula_sum "Si O2"
_cell_formula_units_Z 20
_cell_length_a 6.377473
_cell_length_b 12.606225
_cell_length_c 11.665085
_cell_angle_alpha 90.000000
_cell_angle_beta 92.542104
_cell_angle_gamma 90.000000
_cell_volume 936.901621
_symmetry_space_group_name_H-M "P 21/C"
_symmetry_group_IT_number 14
_symmetry_cell_setting 'monoclinic'
loop_
_space_group_symop_operation_xyz
x,y,z
-x,1/2+y,1/2-z
-x,-y,-z
x,1/2-y,1/2+z
loop_
_atom_site_type_symbol
_atom_site_label
_atom_site_fract_x
_atom_site_fract_y
_atom_site_fract_z
Si Si1 0.484996 0.932874 0.114538
Si Si2 0.182010 0.744939 0.138040
Si Si3 0.566373 0.890153 0.704384
Si Si4 0.134026 0.104344 0.496874
Si Si5 0.192794 0.312426 0.239554
O O1 0.318362 0.839286 0.087111
O O2 0.707079 0.879043 0.152392
O O3 0.413865 0.005129 0.218896
O O4 0.500000 0.000000 0.000000
O O5 0.325224 0.646208 0.181953
O O6 0.011264 0.703613 0.042736
O O7 0.053491 0.792301 0.243063
O O8 0.671806 0.912140 0.584120
O O9 0.689426 0.798592 0.774380
O O10 0.229726 0.123997 0.623889
O O11 0.000000 0.000000 0.500000
#
# Coordination Sequence:
#
# PCOD8128167 Si02
#       5
#     4   4   4   4   4
#     4  11  25  42  66  97 135 177 217 268 335 394
#     4  10  24  42  64  98 131 174 219 277 327 396
#     4  10  24  42  65  97 131 173 220 274 330 396
#     4  11  23  42  69  96 130 172 224 278 331 393
#     4  10  24  42  65  96 129 170 222 268 332 395
#
# _framework density 21.346958000000001
#
# number of rings (size 3 to 8) (size 9 to 14) (size 15 to 20)
#    0.000    1.600    0.000    2.400   11.200    7.200 
#    0.000    0.000    0.000    0.000    0.000    0.000 
#    0.000    0.000    0.000    0.000    0.000    0.000 
#
# Total GULP energy -248070.503843 kJ/mol
# GULP energy per Si atom -12403.525192 kJ/mol
# Density = 2.129837 g / cm^3
# Si number density = 21.346958 Si / 1000 Ang^3
#
#
#
# Elastic Constant Matrix: (Units=GPa)
#
#
# Indices 1 2 3 4 5 6 
#
# 1 115.7857 30.1446 49.1673 0.0000 -11.9880 0.0000
# 2 30.1446 99.0940 34.9914 0.0000 -3.7054 0.0000
# 3 49.1673 34.9914 115.1326 0.0000 -10.8341 0.0000
# 4 0.0000 0.0000 0.0000 39.1731 0.0000 -3.3909
# 5 -11.9880 -3.7054 -10.8341 0.0000 27.6558 0.0000
# 6 0.0000 0.0000 0.0000 -3.3909 0.0000 31.5264
#
#
#
# Elastic Compliance Matrix: (Units=1/GPa)
#
#
# Indices 1 2 3 4 5 6 
#
# 1 0.011089 -0.001891 -0.003875 0.000000 0.003035 0.000000
# 2 -0.001891 0.011628 -0.002759 0.000000 -0.000343 0.000000
# 3 -0.003875 -0.002759 0.011406 0.000000 0.002419 0.000000
# 4 0.000000 0.000000 0.000000 0.025768 0.000000 0.002772
# 5 0.003035 -0.000343 0.002419 0.000000 0.038376 0.000000
# 6 0.000000 0.000000 0.000000 0.002772 0.000000 0.032018
#
#
# Mechanical properties :
#
#
# Convention : Reuss Voigt Hill
#
# Bulk Modulus (GPa) = 58.57057 62.06879 60.31968
# Shear Modulus (GPa) = 32.67422 34.05168 33.36295
#
# Velocity S-wave (km/s) = 3.91657 3.99827 3.95763
# Velocity P-wave (km/s) = 6.92457 7.10311 7.01441
#
# Compressibility (1/GPa) = 0.01707342
#
# Stress axis : x y z
#
# Youngs Moduli (GPa) = 90.18098 85.99882 87.66946
#
# Poissons Ratio (x) = 0.16266 0.33972
# Poissons Ratio (y) = 0.17057 0.24184
# Poissons Ratio (z) = 0.34945 0.23723
#
# Static dielectric constant tensor:
#      x y z
#    x 4.031500 0.000000 0.114920 
#    y 0.000000 4.428760 0.000000 
#    z 0.114920 0.000000 3.928370 
# 
# 
# High freq. dielectric constant tensor:
#      x y z
#    x 1.844230 0.000000 0.000050 
#    y 0.000000 1.855750 0.000000 
#    z 0.000050 0.000000 1.827160 
# 
# From -- ./inp_files/20659.got.cif
#   From: 2010.03.12/outbox.cif.g09.slc.cpg/sg14_11_cif.got.tgz:20659.got - 2010.03.31 13:35:05.
