data_PCOD8128191
_publ_section_title
;
Structure prediction by ZEFSAII (Michael W. Deem and Ramdas Pophale) SiO2 
 PCOD8128191
Probable space group: P 21/C
;
_chemical_formula_sum "Si O2"
_cell_formula_units_Z 32
_cell_length_a 10.968164
_cell_length_b 9.188526
_cell_length_c 28.135216
_cell_angle_alpha 90.000000
_cell_angle_beta 149.283975
_cell_angle_gamma 90.000000
_cell_volume 1448.327588
_symmetry_space_group_name_H-M "P 21/C"
_symmetry_group_IT_number 14
_symmetry_cell_setting 'monoclinic'
loop_
_space_group_symop_operation_xyz
x,y,z
-x,1/2+y,1/2-z
-x,-y,-z
x,1/2-y,1/2+z
loop_
_atom_site_type_symbol
_atom_site_label
_atom_site_fract_x
_atom_site_fract_y
_atom_site_fract_z
Si Si1 0.502567 0.492522 0.394513
Si Si2 0.560694 0.584093 0.311977
Si Si3 0.793713 0.696317 0.547971
Si Si4 0.241628 0.717646 0.640830
Si Si5 0.920985 0.230493 0.017154
Si Si6 0.092315 0.320635 0.306856
Si Si7 0.755348 0.461910 0.034618
Si Si8 0.217208 0.490724 0.850693
O O1 0.456878 0.581531 0.330561
O O2 0.552458 0.616237 0.450661
O O3 0.740806 0.394939 0.472562
O O4 0.278301 0.391783 0.331980
O O5 0.575931 0.415112 0.303124
O O6 0.364953 0.654713 0.212064
O O7 0.811480 0.668473 0.393880
O O8 0.824972 0.647970 0.612445
O O9 0.020389 0.644748 0.593934
O O10 0.777696 0.867536 0.532939
O O11 0.155748 0.782765 0.561359
O O12 0.912231 0.366600 0.050860
O O13 0.837526 0.394664 0.209466
O O14 0.048325 0.148973 0.285513
O O15 0.828116 0.430214 0.113676
O O16 0.479244 0.420766 0.934862
#
# Coordination Sequence:
#
# PCOD8128191 Si02
#       8
#     4   4   4   4   4   4   4   4
#     4  11  22  45  68  92 131 180 219 279 342 403
#     4  11  25  43  70  95 137 179 227 289 332 408
#     4  11  24  42  65  97 136 173 221 281 337 411
#     4  11  25  44  65 102 134 174 235 273 346 406
#     4  11  22  47  70  93 133 183 224 278 340 406
#     4  11  25  41  69  98 133 173 225 278 347 399
#     4  10  24  42  69  93 138 177 223 279 341 400
#     4  10  24  45  61 103 135 173 229 281 335 412
#
# _framework density 22.094448
#
# number of rings (size 3 to 8) (size 9 to 14) (size 15 to 20)
#    0.000    1.250    3.750    1.125    7.000    4.500 
#    0.000    0.000    0.000    0.000    0.000    0.000 
#    0.000    0.000    0.000    0.000    0.000    0.000 
#
# Total GULP energy -396798.997292 kJ/mol
# GULP energy per Si atom -12399.968665 kJ/mol
# Density = 2.204416 g / cm^3
# Si number density = 22.094448 Si / 1000 Ang^3
#
#
#
# Elastic Constant Matrix: (Units=GPa)
#
#
# Indices 1 2 3 4 5 6 
#
# 1 108.1472 35.0261 25.0837 0.0000 -20.1634 0.0000
# 2 35.0261 75.6427 41.7259 0.0000 -26.5995 0.0000
# 3 25.0837 41.7259 70.2496 0.0000 -24.3829 0.0000
# 4 0.0000 0.0000 0.0000 44.2017 0.0000 -5.8260
# 5 -20.1634 -26.5995 -24.3829 0.0000 31.4790 0.0000
# 6 0.0000 0.0000 0.0000 -5.8260 0.0000 40.6379
#
#
#
# Elastic Compliance Matrix: (Units=1/GPa)
#
#
# Indices 1 2 3 4 5 6 
#
# 1 0.011233 -0.003560 -0.000606 0.000000 0.003718 0.000000
# 2 -0.003560 0.023610 -0.009053 0.000000 0.010658 0.000000
# 3 -0.000606 -0.009053 0.023304 0.000000 0.010012 0.000000
# 4 0.000000 0.000000 0.000000 0.023059 0.000000 0.003306
# 5 0.003718 0.010658 0.010012 0.000000 0.050910 0.000000
# 6 0.000000 0.000000 0.000000 0.003306 0.000000 0.025081
#
#
# Mechanical properties :
#
#
# Convention : Reuss Voigt Hill
#
# Bulk Modulus (GPa) = 31.53711 50.85676 41.19693
# Shear Modulus (GPa) = 25.74583 33.41066 29.57825
#
# Velocity S-wave (km/s) = 3.41730 3.89289 3.66282
# Velocity P-wave (km/s) = 5.46583 6.57829 6.04770
#
# Compressibility (1/GPa) = 0.03170868
#
# Stress axis : x y z
#
# Youngs Moduli (GPa) = 89.02056 42.35467 42.91108
#
# Poissons Ratio (x) = 0.15078 0.02601
# Poissons Ratio (y) = 0.31690 0.38849
# Poissons Ratio (z) = 0.05397 0.38345
#
# Static dielectric constant tensor:
#      x y z
#    x 4.112210 0.000000 -0.042580 
#    y 0.000000 3.934550 0.000000 
#    z -0.042580 0.000000 3.998860 
# 
# 
# High freq. dielectric constant tensor:
#      x y z
#    x 1.868820 0.000000 -0.003570 
#    y 0.000000 1.872840 0.000000 
#    z -0.003570 0.000000 1.875310 
# 
# From -- ./inp_files/79965.got.cif
#   From: 2010.03.12/outbox.cif.g09.slc.cpg/sg14_40_cif.got.tgz:79965.got - 2010.03.31 13:35:05.
