data_PCOD8128926
_publ_section_title
;
Structure prediction by ZEFSAII (Michael W. Deem and Ramdas Pophale) SiO2 
 PCOD8128926
Probable space group: P 21/C
;
_chemical_formula_sum "Si O2"
_cell_formula_units_Z 28
_cell_length_a 6.794203
_cell_length_b 12.956063
_cell_length_c 21.685984
_cell_angle_alpha 90.000000
_cell_angle_beta 134.232228
_cell_angle_gamma 90.000000
_cell_volume 1367.785577
_symmetry_space_group_name_H-M "P 21/C"
_symmetry_group_IT_number 14
_symmetry_cell_setting 'monoclinic'
loop_
_space_group_symop_operation_xyz
x,y,z
-x,1/2+y,1/2-z
-x,-y,-z
x,1/2-y,1/2+z
loop_
_atom_site_type_symbol
_atom_site_label
_atom_site_fract_x
_atom_site_fract_y
_atom_site_fract_z
Si Si1 0.214723 0.908073 0.045785
Si Si2 0.234240 0.563935 0.192472
Si Si3 0.702803 0.446856 0.656973
Si Si4 0.946709 0.286132 0.370146
Si Si5 0.296285 0.567287 0.914407
Si Si6 0.273760 0.952186 0.266828
Si Si7 0.580743 0.203675 0.022675
O O1 0.143379 0.833191 0.085234
O O2 0.522087 0.950082 0.119637
O O3 0.207966 0.846097 0.980026
O O4 0.000000 0.000000 0.000000
O O5 0.299618 0.601486 0.275795
O O6 0.498526 0.518348 0.217684
O O7 0.129791 0.666881 0.136826
O O8 0.009388 0.473823 0.142484
O O9 0.574766 0.363556 0.583179
O O10 0.006060 0.477115 0.702310
O O11 0.271876 0.293786 0.428750
O O12 0.783669 0.342377 0.278857
O O13 0.372125 0.564245 0.858544
O O14 0.304193 0.683832 0.938733
O O15 0.500000 0.500000 0.000000
#
# Coordination Sequence:
#
# PCOD8128926 Si02
#       7
#     4   4   4   4   4   4   4
#     4  12  24  41  70 104 133 179 235 283 337 413
#     4  11  26  44  71  98 140 179 233 281 339 419
#     4  11  23  44  67 100 135 176 225 287 342 394
#     4  12  24  43  70 102 134 188 227 279 351 401
#     4  11  26  47  68  99 136 184 230 277 341 412
#     4  11  25  45  70  98 141 175 229 287 337 410
#     4  12  25  43  72  99 144 180 225 284 344 407
#
# _framework density 20.471046999999999
#
# number of rings (size 3 to 8) (size 9 to 14) (size 15 to 20)
#    0.000    0.571    5.714    2.143    2.000    2.857 
#    0.000    0.000    0.000    0.000    0.000    0.000 
#    0.000    0.000    0.000    0.000    0.000    0.000 
#
# Total GULP energy -347306.222388 kJ/mol
# GULP energy per Si atom -12403.793657 kJ/mol
# Density = 2.042445 g / cm^3
# Si number density = 20.471047 Si / 1000 Ang^3
#
#
#
# Elastic Constant Matrix: (Units=GPa)
#
#
# Indices 1 2 3 4 5 6 
#
# 1 149.6762 66.1176 51.6148 0.0000 0.7606 0.0000
# 2 66.1176 139.7692 43.4417 0.0000 -5.2688 0.0000
# 3 51.6148 43.4417 100.1646 0.0000 -1.6305 0.0000
# 4 0.0000 0.0000 0.0000 42.6653 0.0000 5.5551
# 5 0.7606 -5.2688 -1.6305 0.0000 22.7094 0.0000
# 6 0.0000 0.0000 0.0000 5.5551 0.0000 22.2160
#
#
#
# Elastic Compliance Matrix: (Units=1/GPa)
#
#
# Indices 1 2 3 4 5 6 
#
# 1 0.009364 -0.003437 -0.003356 0.000000 -0.001352 0.000000
# 2 -0.003437 0.009594 -0.002355 0.000000 0.002172 0.000000
# 3 -0.003356 -0.002355 0.012742 0.000000 0.000481 0.000000
# 4 0.000000 0.000000 0.000000 0.024227 0.000000 -0.006058
# 5 -0.001352 0.002172 0.000481 0.000000 0.044618 0.000000
# 6 0.000000 0.000000 0.000000 -0.006058 0.000000 0.046527
#
#
# Mechanical properties :
#
#
# Convention : Reuss Voigt Hill
#
# Bulk Modulus (GPa) = 74.60551 79.10647 76.85599
# Shear Modulus (GPa) = 29.43993 32.74719 31.09356
#
# Velocity S-wave (km/s) = 3.79638 4.00394 3.90154
# Velocity P-wave (km/s) = 7.46593 7.75257 7.61060
#
# Compressibility (1/GPa) = 0.01340384
#
# Stress axis : x y z
#
# Youngs Moduli (GPa) = 106.79464 104.22809 78.48002
#
# Poissons Ratio (x) = 0.35826 0.26341
# Poissons Ratio (y) = 0.36708 0.18478
# Poissons Ratio (z) = 0.35844 0.24541
#
# Static dielectric constant tensor:
#      x y z
#    x 3.924700 0.000000 -0.104140 
#    y 0.000000 3.690530 0.000000 
#    z -0.104140 0.000000 4.053860 
# 
# 
# High freq. dielectric constant tensor:
#      x y z
#    x 1.812260 0.000000 -0.003050 
#    y 0.000000 1.807880 0.000000 
#    z -0.003050 0.000000 1.810520 
# 
# From -- ./inp_files/63587.got.cif
#   From: 2010.03.12/outbox.cif.g09.slc.cpg/sg14_32_cif.got.tgz:63587.got - 2010.03.31 13:35:05.
