data_PCOD8128825
_publ_section_title
;
Structure prediction by ZEFSAII (Michael W. Deem and Ramdas Pophale) SiO2 
 PCOD8128825
Probable space group: P 21/C
;
_chemical_formula_sum "Si O2"
_cell_formula_units_Z 28
_cell_length_a 6.575719
_cell_length_b 20.615390
_cell_length_c 14.344149
_cell_angle_alpha 90.000000
_cell_angle_beta 136.264712
_cell_angle_gamma 90.000000
_cell_volume 1344.291502
_symmetry_space_group_name_H-M "P 21/C"
_symmetry_group_IT_number 14
_symmetry_cell_setting 'monoclinic'
loop_
_space_group_symop_operation_xyz
x,y,z
-x,1/2+y,1/2-z
-x,-y,-z
x,1/2-y,1/2+z
loop_
_atom_site_type_symbol
_atom_site_label
_atom_site_fract_x
_atom_site_fract_y
_atom_site_fract_z
Si Si1 0.406634 0.595994 0.174086
Si Si2 0.791454 0.558814 0.669198
Si Si3 0.478003 0.294137 0.932306
Si Si4 0.702348 0.964321 0.934202
Si Si5 0.135624 0.308565 0.198051
Si Si6 0.235786 0.149619 0.529713
Si Si7 0.576711 0.477076 0.125472
O O1 0.539230 0.641640 0.137493
O O2 0.612284 0.594030 0.333965
O O3 0.401295 0.521411 0.139792
O O4 0.078156 0.616423 0.089291
O O5 0.540497 0.521168 0.642328
O O6 0.703951 0.573514 0.533352
O O7 0.878960 0.621968 0.756973
O O8 0.074699 0.513026 0.750338
O O9 0.353078 0.235474 0.830139
O O10 0.276095 0.301504 0.956729
O O11 0.808132 0.279292 0.077901
O O12 0.000000 0.000000 0.000000
O O13 0.266530 0.312947 0.137371
O O14 0.494994 0.097345 0.614704
O O15 0.500000 0.500000 0.000000
#
# Coordination Sequence:
#
# PCOD8128825 Si02
#       7
#     4   4   4   4   4   4   4
#     4  11  23  40  66 102 129 175 224 272 346 406
#     4  11  24  42  64  99 138 179 222 276 339 410
#     4  11  26  46  67  97 133 178 235 282 334 406
#     4  11  24  40  64 100 140 178 215 271 348 408
#     4  11  26  46  67  98 133 184 235 280 340 406
#     4  11  23  43  69  98 134 172 225 278 350 398
#     4  12  19  39  70  98 137 167 214 290 338 403
#
# _framework density 20.828814999999999
#
# number of rings (size 3 to 8) (size 9 to 14) (size 15 to 20)
#    0.000    0.857    4.286    3.000    0.000    5.714 
#    0.000    0.000    0.000    0.000    0.000    0.000 
#    0.000    0.000    0.000    0.000    0.000    0.000 
#
# Total GULP energy -347186.274646 kJ/mol
# GULP energy per Si atom -12399.509809 kJ/mol
# Density = 2.078141 g / cm^3
# Si number density = 20.828815 Si / 1000 Ang^3
#
#
#
# Elastic Constant Matrix: (Units=GPa)
#
#
# Indices 1 2 3 4 5 6 
#
# 1 143.6921 39.1691 58.4253 0.0000 -2.9642 0.0000
# 2 39.1691 66.0300 42.5506 0.0000 1.0249 0.0000
# 3 58.4253 42.5506 135.8799 0.0000 -3.8487 0.0000
# 4 0.0000 0.0000 0.0000 51.4817 0.0000 -7.4700
# 5 -2.9642 1.0249 -3.8487 0.0000 46.3532 0.0000
# 6 0.0000 0.0000 0.0000 -7.4700 0.0000 24.1986
#
#
#
# Elastic Compliance Matrix: (Units=1/GPa)
#
#
# Indices 1 2 3 4 5 6 
#
# 1 0.009074 -0.003612 -0.002758 0.000000 0.000431 0.000000
# 2 -0.003612 0.020450 -0.004882 0.000000 -0.001088 0.000000
# 3 -0.002758 -0.004882 0.010096 0.000000 0.000770 0.000000
# 4 0.000000 0.000000 0.000000 0.020335 0.000000 0.006277
# 5 0.000431 -0.001088 0.000770 0.000000 0.021689 0.000000
# 6 0.000000 0.000000 0.000000 0.006277 0.000000 0.043262
#
#
# Mechanical properties :
#
#
# Convention : Reuss Voigt Hill
#
# Bulk Modulus (GPa) = 58.42449 69.54357 63.98403
# Shear Modulus (GPa) = 32.65481 38.10384 35.37933
#
# Velocity S-wave (km/s) = 3.96380 4.28177 4.12585
# Velocity P-wave (km/s) = 7.00426 7.60956 7.31318
#
# Compressibility (1/GPa) = 0.01711611
#
# Stress axis : x y z
#
# Youngs Moduli (GPa) = 110.19980 48.89978 99.04914
#
# Poissons Ratio (x) = 0.17663 0.27322
# Poissons Ratio (y) = 0.39805 0.48352
# Poissons Ratio (z) = 0.30398 0.23871
#
# Static dielectric constant tensor:
#      x y z
#    x 3.898330 0.000000 -0.218550 
#    y 0.000000 3.459920 0.000000 
#    z -0.218550 0.000000 3.949800 
# 
# 
# High freq. dielectric constant tensor:
#      x y z
#    x 1.835710 0.000000 -0.009970 
#    y 0.000000 1.788360 0.000000 
#    z -0.009970 0.000000 1.834120 
# 
# From -- ./inp_files/38116.got.cif
#   From: 2010.03.12/outbox.cif.g09.slc.cpg/sg14_20_cif.got.tgz:38116.got - 2010.03.31 13:35:05.
