data_PCOD8128959
_publ_section_title
;
Structure prediction by ZEFSAII (Michael W. Deem and Ramdas Pophale) SiO2 
 PCOD8128959
Probable space group: P 21/C
;
_chemical_formula_sum "Si O2"
_cell_formula_units_Z 24
_cell_length_a 12.068237
_cell_length_b 8.128935
_cell_length_c 11.182377
_cell_angle_alpha 90.000000
_cell_angle_beta 72.400845
_cell_angle_gamma 90.000000
_cell_volume 1045.667053
_symmetry_space_group_name_H-M "P 21/C"
_symmetry_group_IT_number 14
_symmetry_cell_setting 'monoclinic'
loop_
_space_group_symop_operation_xyz
x,y,z
-x,1/2+y,1/2-z
-x,-y,-z
x,1/2-y,1/2+z
loop_
_atom_site_type_symbol
_atom_site_label
_atom_site_fract_x
_atom_site_fract_y
_atom_site_fract_z
Si Si1 0.443210 0.078295 0.902364
Si Si2 0.853660 0.846687 0.785045
Si Si3 0.285902 0.574121 0.270359
Si Si4 0.035570 0.450182 0.357775
Si Si5 0.687109 0.617521 0.965318
Si Si6 0.326583 0.555353 0.795724
O O1 0.534562 0.050087 0.765546
O O2 0.327554 0.988284 0.888326
O O3 0.413832 0.266835 0.944995
O O4 0.500000 0.000000 0.000000
O O5 0.936414 0.743588 0.667516
O O6 0.804207 0.726362 0.905642
O O7 0.737774 0.914834 0.759882
O O8 0.929990 0.997555 0.806542
O O9 0.151307 0.547303 0.288657
O O10 0.353909 0.472713 0.143579
O O11 0.293728 0.767841 0.256492
O O12 0.000000 0.500000 0.500000
O O13 0.709930 0.473637 0.054862
#
# Coordination Sequence:
#
# PCOD8128959 Si02
#       6
#     4   4   4   4   4   4
#     4  12  26  45  71  99 137 182 229 287 343 409
#     4  11  23  45  69 105 137 186 229 286 349 405
#     4  11  28  45  69 106 137 187 231 282 353 406
#     4  11  24  43  71  96 139 179 232 286 341 413
#     4  11  25  48  70 101 145 181 235 284 344 418
#     4  12  26  43  72 102 141 182 231 286 346 412
#
# _framework density 22.951854000000001
#
# number of rings (size 3 to 8) (size 9 to 14) (size 15 to 20)
#    0.000    0.667    1.667    6.000    4.667    4.000 
#    0.000    5.833    0.000    0.000    0.000    0.000 
#    0.000    0.000    0.000    0.000    0.000    0.000 
#
# Total GULP energy -297512.103000 kJ/mol
# GULP energy per Si atom -12396.337625 kJ/mol
# Density = 2.289961 g / cm^3
# Si number density = 22.951854 Si / 1000 Ang^3
#
#
#
# Elastic Constant Matrix: (Units=GPa)
#
#
# Indices 1 2 3 4 5 6 
#
# 1 96.9124 31.4592 33.6149 0.0000 5.3387 0.0000
# 2 31.4592 133.0600 46.9732 0.0000 -5.6727 0.0000
# 3 33.6149 46.9732 119.3783 0.0000 0.6369 0.0000
# 4 0.0000 0.0000 0.0000 46.6748 0.0000 -5.6301
# 5 5.3387 -5.6727 0.6369 0.0000 23.8293 0.0000
# 6 0.0000 0.0000 0.0000 -5.6301 0.0000 38.3485
#
#
#
# Elastic Compliance Matrix: (Units=1/GPa)
#
#
# Indices 1 2 3 4 5 6 
#
# 1 0.012054 -0.002080 -0.002559 0.000000 -0.003127 0.000000
# 2 -0.002080 0.009200 -0.003049 0.000000 0.002738 0.000000
# 3 -0.002559 -0.003049 0.010299 0.000000 -0.000428 0.000000
# 4 0.000000 0.000000 0.000000 0.021811 0.000000 0.003202
# 5 -0.003127 0.002738 -0.000428 0.000000 0.043329 0.000000
# 6 0.000000 0.000000 0.000000 0.003202 0.000000 0.026547
#
#
# Mechanical properties :
#
#
# Convention : Reuss Voigt Hill
#
# Bulk Modulus (GPa) = 61.81466 63.71614 62.76540
# Shear Modulus (GPa) = 34.72024 37.59076 36.15550
#
# Velocity S-wave (km/s) = 3.89362 4.05138 3.97328
# Velocity P-wave (km/s) = 6.87055 7.05024 6.96098
#
# Compressibility (1/GPa) = 0.01617739
#
# Stress axis : x y z
#
# Youngs Moduli (GPa) = 82.96262 108.69295 97.09327
#
# Poissons Ratio (x) = 0.22605 0.24847
# Poissons Ratio (y) = 0.17254 0.29605
# Poissons Ratio (z) = 0.21231 0.33142
#
# Static dielectric constant tensor:
#      x y z
#    x 4.191840 0.000000 0.087450 
#    y 0.000000 4.526420 0.000000 
#    z 0.087450 0.000000 4.058420 
# 
# 
# High freq. dielectric constant tensor:
#      x y z
#    x 1.907630 0.000000 -0.001450 
#    y 0.000000 1.911350 0.000000 
#    z -0.001450 0.000000 1.908240 
# 
# From -- ./inp_files/28045.got.cif
#   From: 2010.03.12/outbox.cif.g09.slc.cpg/sg14_15_cif.got.tgz:28045.got - 2010.03.31 13:35:05.
