data_PCOD8128502
_publ_section_title
;
Structure prediction by ZEFSAII (Michael W. Deem and Ramdas Pophale) SiO2 
 PCOD8128502
Probable space group: P 21/C
;
_chemical_formula_sum "Si O2"
_cell_formula_units_Z 28
_cell_length_a 9.184922
_cell_length_b 13.982675
_cell_length_c 11.163115
_cell_angle_alpha 90.000000
_cell_angle_beta 56.766801
_cell_angle_gamma 90.000000
_cell_volume 1199.194172
_symmetry_space_group_name_H-M "P 21/C"
_symmetry_group_IT_number 14
_symmetry_cell_setting 'monoclinic'
loop_
_space_group_symop_operation_xyz
x,y,z
-x,1/2+y,1/2-z
-x,-y,-z
x,1/2-y,1/2+z
loop_
_atom_site_type_symbol
_atom_site_label
_atom_site_fract_x
_atom_site_fract_y
_atom_site_fract_z
Si Si1 0.672405 0.517740 0.264129
Si Si2 0.346047 0.631730 0.380016
Si Si3 0.717746 0.347056 0.080239
Si Si4 0.873362 0.687421 0.092892
Si Si5 0.210966 0.583431 0.200618
Si Si6 0.071198 0.245734 0.174961
Si Si7 0.930109 0.433383 0.323720
O O1 0.494114 0.571267 0.383249
O O2 0.638284 0.414384 0.219715
O O3 0.775999 0.586101 0.125066
O O4 0.794242 0.507152 0.325478
O O5 0.382402 0.745279 0.375732
O O6 0.354510 0.599462 0.238191
O O7 0.154132 0.604604 0.515012
O O8 0.687409 0.403721 0.969767
O O9 0.920974 0.328172 0.006021
O O10 0.823656 0.736306 0.245130
O O11 0.815358 0.749124 0.000598
O O12 0.059148 0.659691 0.282321
O O13 0.118892 0.480609 0.258161
O O14 0.957628 0.342643 0.225918
#
# Coordination Sequence:
#
# PCOD8128502 Si02
#       7
#     4   4   4   4   4   4   4
#     4  12  25  44  69 103 131 183 229 275 343 418
#     4  12  26  44  63 103 144 172 217 292 355 390
#     4  11  22  45  71  88 133 186 224 272 344 410
#     4  11  21  42  71 100 129 182 237 279 327 416
#     4  11  22  42  69  92 129 179 225 278 337 407
#     4  11  20  40  72  98 131 170 242 277 329 395
#     4  12  21  42  71  98 130 180 229 274 334 419
#
# _framework density 23.349012999999999
#
# number of rings (size 3 to 8) (size 9 to 14) (size 15 to 20)
#    0.000    0.571    8.571    2.143    0.000    0.571 
#    7.714    0.000    0.000    0.000    0.000    0.000 
#    0.000    0.000    0.000    0.000    0.000    0.000 
#
# Total GULP energy -347100.474985 kJ/mol
# GULP energy per Si atom -12396.445535 kJ/mol
# Density = 2.329587 g / cm^3
# Si number density = 23.349013 Si / 1000 Ang^3
#
#
#
# Elastic Constant Matrix: (Units=GPa)
#
#
# Indices 1 2 3 4 5 6 
#
# 1 57.8491 18.7774 24.0597 0.0000 15.6819 0.0000
# 2 18.7774 101.0398 17.8923 0.0000 -2.7612 0.0000
# 3 24.0597 17.8923 54.1801 0.0000 19.9187 0.0000
# 4 0.0000 0.0000 0.0000 43.9374 0.0000 -3.4303
# 5 15.6819 -2.7612 19.9187 0.0000 31.2199 0.0000
# 6 0.0000 0.0000 0.0000 -3.4303 0.0000 19.7404
#
#
#
# Elastic Compliance Matrix: (Units=1/GPa)
#
#
# Indices 1 2 3 4 5 6 
#
# 1 0.023140 -0.003416 -0.006223 0.000000 -0.007955 0.000000
# 2 -0.003416 0.011435 -0.004262 0.000000 0.005446 0.000000
# 3 -0.006223 -0.004262 0.028242 0.000000 -0.015270 0.000000
# 4 0.000000 0.000000 0.000000 0.023073 0.000000 0.004009
# 5 -0.007955 0.005446 -0.015270 0.000000 0.046250 0.000000
# 6 0.000000 0.000000 0.000000 0.004009 0.000000 0.051354
#
#
# Mechanical properties :
#
#
# Convention : Reuss Voigt Hill
#
# Bulk Modulus (GPa) = 28.55893 37.16975 32.86434
# Shear Modulus (GPa) = 22.42482 29.13550 25.78016
#
# Velocity S-wave (km/s) = 3.10242 3.53629 3.32644
# Velocity P-wave (km/s) = 5.00912 5.71205 5.37209
#
# Compressibility (1/GPa) = 0.03501532
#
# Stress axis : x y z
#
# Youngs Moduli (GPa) = 43.21577 87.44781 35.40884
#
# Poissons Ratio (x) = 0.29870 0.22035
# Poissons Ratio (y) = 0.14761 0.15091
# Poissons Ratio (z) = 0.26894 0.37269
#
# Static dielectric constant tensor:
#      x y z
#    x 4.049320 0.000000 0.523880 
#    y 0.000000 4.403980 0.000000 
#    z 0.523880 0.000000 4.322900 
# 
# 
# High freq. dielectric constant tensor:
#      x y z
#    x 1.891440 0.000000 0.029360 
#    y 0.000000 1.933860 0.000000 
#    z 0.029360 0.000000 1.915860 
# 
# From -- ./inp_files/25134.got.cif
#   From: 2010.03.12/outbox.cif.g09.slc.cpg/sg14_13_cif.got.tgz:25134.got - 2010.03.31 13:35:05.
