data_PCOD8128453
_publ_section_title
;
Structure prediction by ZEFSAII (Michael W. Deem and Ramdas Pophale) SiO2 
 PCOD8128453
Probable space group: P 21/C
;
_chemical_formula_sum "Si O2"
_cell_formula_units_Z 16
_cell_length_a 19.501633
_cell_length_b 7.573890
_cell_length_c 14.952916
_cell_angle_alpha 90.000000
_cell_angle_beta 161.276989
_cell_angle_gamma 90.000000
_cell_volume 708.944020
_symmetry_space_group_name_H-M "P 21/C"
_symmetry_group_IT_number 14
_symmetry_cell_setting 'monoclinic'
loop_
_space_group_symop_operation_xyz
x,y,z
-x,1/2+y,1/2-z
-x,-y,-z
x,1/2-y,1/2+z
loop_
_atom_site_type_symbol
_atom_site_label
_atom_site_fract_x
_atom_site_fract_y
_atom_site_fract_z
Si Si1 0.218299 0.079678 0.162583
Si Si2 0.761564 0.191401 0.323073
Si Si3 0.382424 0.115737 0.741956
Si Si4 0.821356 0.864239 0.691636
O O1 0.256285 0.229727 0.137332
O O2 0.296009 0.141209 0.357550
O O3 0.331024 0.892026 0.274550
O O4 0.961326 0.044289 0.852823
O O5 0.014185 0.198011 0.613694
O O6 0.724031 0.071156 0.363464
O O7 0.631403 0.112412 0.077374
O O8 0.360622 0.145230 0.609151
#
# Coordination Sequence:
#
# PCOD8128453 Si02
#       4
#     4   4   4   4
#     4   9  20  39  55  80 117 140 189 230 272 331
#     4   9  21  36  55  85 109 142 192 228 266 341
#     4  11  19  37  59  82 113 147 185 226 281 327
#     4   9  20  39  55  82 116 146 181 233 275 326
#
# _framework density 22.568777000000001
#
# number of rings (size 3 to 8) (size 9 to 14) (size 15 to 20)
#    1.500    1.000    0.000    2.250    0.000    1.000 
#    9.000    0.000    0.000    0.000    0.000    0.000 
#    0.000    0.000    0.000    0.000    0.000    0.000 
#
# Total GULP energy -198276.272708 kJ/mol
# GULP energy per Si atom -12392.267044 kJ/mol
# Density = 2.251741 g / cm^3
# Si number density = 22.568777 Si / 1000 Ang^3
#
#
#
# Elastic Constant Matrix: (Units=GPa)
#
#
# Indices 1 2 3 4 5 6 
#
# 1 79.2236 32.5317 20.9821 0.0000 -31.0005 0.0000
# 2 32.5317 118.0837 0.5357 0.0000 -3.6323 0.0000
# 3 20.9821 0.5357 84.4810 0.0000 -29.4980 0.0000
# 4 0.0000 0.0000 0.0000 17.3260 0.0000 -2.6479
# 5 -31.0005 -3.6323 -29.4980 0.0000 38.2034 0.0000
# 6 0.0000 0.0000 0.0000 -2.6479 0.0000 20.3307
#
#
#
# Elastic Compliance Matrix: (Units=1/GPa)
#
#
# Indices 1 2 3 4 5 6 
#
# 1 0.021486 -0.005383 0.000831 0.000000 0.017565 0.000000
# 2 -0.005383 0.009848 0.000104 0.000000 -0.003351 0.000000
# 3 0.000831 0.000104 0.016250 0.000000 0.013231 0.000000
# 4 0.000000 0.000000 0.000000 0.058889 0.000000 0.007670
# 5 0.017565 -0.003351 0.013231 0.000000 0.050326 0.000000
# 6 0.000000 0.000000 0.000000 0.007670 0.000000 0.050186
#
#
# Mechanical properties :
#
#
# Convention : Reuss Voigt Hill
#
# Bulk Modulus (GPa) = 25.84748 43.32081 34.58414
# Shear Modulus (GPa) = 21.85547 30.35462 26.10505
#
# Velocity S-wave (km/s) = 3.11528 3.67138 3.40470
# Velocity P-wave (km/s) = 4.94141 6.09990 5.55096
#
# Compressibility (1/GPa) = 0.03868849
#
# Stress axis : x y z
#
# Youngs Moduli (GPa) = 46.54206 101.54390 61.53914
#
# Poissons Ratio (x) = 0.54659 -0.05113
# Poissons Ratio (y) = 0.25053 -0.00642
# Poissons Ratio (z) = -0.03867 -0.01060
#
# Static dielectric constant tensor:
#      x y z
#    x 3.612450 0.000000 -0.103140 
#    y 0.000000 3.984760 0.000000 
#    z -0.103140 0.000000 3.893820 
# 
# 
# High freq. dielectric constant tensor:
#      x y z
#    x 1.862120 0.000000 -0.008050 
#    y 0.000000 1.882160 0.000000 
#    z -0.008050 0.000000 1.884960 
# 
# From -- ./inp_files/22863.got.cif
#   From: 2010.03.12/outbox.cif.g09.slc.cpg/sg14_12_cif.got.tgz:22863.got - 2010.03.31 13:35:05.
