data_PCOD8128664
_publ_section_title
;
Structure prediction by ZEFSAII (Michael W. Deem and Ramdas Pophale) SiO2 
 PCOD8128664
Probable space group: P 21/C
;
_chemical_formula_sum "Si O2"
_cell_formula_units_Z 24
_cell_length_a 14.511113
_cell_length_b 13.202767
_cell_length_c 8.780050
_cell_angle_alpha 90.000000
_cell_angle_beta 138.569932
_cell_angle_gamma 90.000000
_cell_volume 1113.082527
_symmetry_space_group_name_H-M "P 21/C"
_symmetry_group_IT_number 14
_symmetry_cell_setting 'monoclinic'
loop_
_space_group_symop_operation_xyz
x,y,z
-x,1/2+y,1/2-z
-x,-y,-z
x,1/2-y,1/2+z
loop_
_atom_site_type_symbol
_atom_site_label
_atom_site_fract_x
_atom_site_fract_y
_atom_site_fract_z
Si Si1 0.917826 0.849067 0.846675
Si Si2 0.790310 0.843058 0.357198
Si Si3 0.319726 0.008631 0.005222
Si Si4 0.468079 0.661842 0.513558
Si Si5 0.194281 0.548575 0.652794
Si Si6 0.569707 0.363331 0.870387
O O1 0.865587 0.862927 0.609511
O O2 0.869877 0.743544 0.860120
O O3 0.866103 0.937704 0.892434
O O4 0.085575 0.860290 0.049744
O O5 0.630833 0.815377 0.193672
O O6 0.789645 0.944835 0.252404
O O7 0.409905 0.099329 0.193406
O O8 0.436950 0.938930 0.070862
O O9 0.236277 0.945797 0.027361
O O10 0.402192 0.757017 0.514925
O O11 0.391606 0.649276 0.258024
O O12 0.327292 0.556561 0.926142
#
# Coordination Sequence:
#
# PCOD8128664 Si02
#       6
#     4   4   4   4   4   4
#     4  11  24  41  63  87 124 168 209 251 296 380
#     4  11  22  42  65  91 122 162 208 251 312 371
#     4  11  23  40  66  95 124 160 206 264 316 364
#     4  11  22  38  63  95 122 157 205 259 315 367
#     4  11  24  41  60  91 125 164 209 252 311 365
#     4  11  22  38  62  89 126 160 201 262 313 365
#
# _framework density 21.561743
#
# number of rings (size 3 to 8) (size 9 to 14) (size 15 to 20)
#    0.000    1.000    0.000    9.500    0.000    3.333 
#    0.000    0.000    0.000    0.000    0.000    0.000 
#    0.000    0.000    0.000    0.000    0.000    0.000 
#
# Total GULP energy -297645.939748 kJ/mol
# GULP energy per Si atom -12401.914156 kJ/mol
# Density = 2.151267 g / cm^3
# Si number density = 21.561743 Si / 1000 Ang^3
#
#
#
# Elastic Constant Matrix: (Units=GPa)
#
#
# Indices 1 2 3 4 5 6 
#
# 1 130.3988 49.9849 51.4994 0.0000 -15.4022 0.0000
# 2 49.9849 80.7948 3.4856 0.0000 4.4115 0.0000
# 3 51.4994 3.4856 76.5977 0.0000 -11.1287 0.0000
# 4 0.0000 0.0000 0.0000 32.7629 0.0000 -5.9372
# 5 -15.4022 4.4115 -11.1287 0.0000 26.7018 0.0000
# 6 0.0000 0.0000 0.0000 -5.9372 0.0000 40.7904
#
#
#
# Elastic Compliance Matrix: (Units=1/GPa)
#
#
# Indices 1 2 3 4 5 6 
#
# 1 0.015899 -0.009817 -0.009234 0.000000 0.006944 0.000000
# 2 -0.009817 0.018613 0.004773 0.000000 -0.006748 0.000000
# 3 -0.009234 0.004773 0.019328 0.000000 0.001941 0.000000
# 4 0.000000 0.000000 0.000000 0.031349 0.000000 0.004563
# 5 0.006944 -0.006748 0.001941 0.000000 0.043380 0.000000
# 6 0.000000 0.000000 0.000000 0.004563 0.000000 0.025180
#
#
# Mechanical properties :
#
#
# Convention : Reuss Voigt Hill
#
# Bulk Modulus (GPa) = 39.55021 55.30348 47.42684
# Shear Modulus (GPa) = 26.21472 32.23910 29.22691
#
# Velocity S-wave (km/s) = 3.49061 3.87098 3.68570
# Velocity P-wave (km/s) = 5.88459 6.75898 6.33689
#
# Compressibility (1/GPa) = 0.02528432
#
# Stress axis : x y z
#
# Youngs Moduli (GPa) = 62.89802 53.72610 51.73799
#
# Poissons Ratio (x) = 0.52742 0.47773
# Poissons Ratio (y) = 0.61746 -0.24693
# Poissons Ratio (z) = 0.58078 -0.25642
#
# Static dielectric constant tensor:
#      x y z
#    x 3.950640 0.000000 -0.147740 
#    y 0.000000 3.822720 0.000000 
#    z -0.147740 0.000000 3.923120 
# 
# 
# High freq. dielectric constant tensor:
#      x y z
#    x 1.852630 0.000000 -0.014850 
#    y 0.000000 1.847340 0.000000 
#    z -0.014850 0.000000 1.845800 
# 
# From -- ./inp_files/16339.got.cif
#   From: 2010.03.12/outbox.cif.g09.slc.cpg/sg14_9_cif.got.tgz:16339.got - 2010.03.31 13:35:05.
