data_PCOD8128140
_publ_section_title
;
Structure prediction by ZEFSAII (Michael W. Deem and Ramdas Pophale) SiO2 
 PCOD8128140
Probable space group: P 21/C
;
_chemical_formula_sum "Si O2"
_cell_formula_units_Z 32
_cell_length_a 13.239122
_cell_length_b 17.600665
_cell_length_c 11.877747
_cell_angle_alpha 90.000000
_cell_angle_beta 147.731557
_cell_angle_gamma 90.000000
_cell_volume 1477.649565
_symmetry_space_group_name_H-M "P 21/C"
_symmetry_group_IT_number 14
_symmetry_cell_setting 'monoclinic'
loop_
_space_group_symop_operation_xyz
x,y,z
-x,1/2+y,1/2-z
-x,-y,-z
x,1/2-y,1/2+z
loop_
_atom_site_type_symbol
_atom_site_label
_atom_site_fract_x
_atom_site_fract_y
_atom_site_fract_z
Si Si1 0.087841 0.693196 0.607872
Si Si2 0.883973 0.321799 0.615878
Si Si3 0.214067 0.479187 0.177691
Si Si4 0.963490 0.039067 0.846928
Si Si5 0.797696 0.807424 0.415481
Si Si6 0.590624 0.214658 0.428294
Si Si7 0.264901 0.524421 0.467706
Si Si8 0.616473 0.452976 0.879207
O O1 0.094787 0.654028 0.492870
O O2 0.004332 0.629491 0.613175
O O3 0.944043 0.764549 0.469310
O O4 0.301948 0.713730 0.849076
O O5 0.747919 0.249031 0.492077
O O6 0.777062 0.386722 0.586275
O O7 0.094430 0.308339 0.862864
O O8 0.242750 0.392261 0.165824
O O9 0.320356 0.490556 0.397564
O O10 0.284828 0.537941 0.149721
O O11 0.000000 0.500000 0.000000
O O12 0.748490 0.021715 0.607174
O O13 0.000000 0.000000 0.000000
O O14 0.083472 0.012764 0.853787
O O15 0.600318 0.763277 0.241381
O O16 0.542164 0.132609 0.330532
O O17 0.439167 0.509952 0.715758
#
# Coordination Sequence:
#
# PCOD8128140 Si02
#       8
#     4   4   4   4   4   4   4   4
#     4  10  24  41  65  95 132 179 223 288 342 407
#     4  11  23  41  67  94 134 174 224 286 344 407
#     4  12  24  43  73 101 140 184 229 290 345 409
#     4  11  22  43  66  96 137 181 230 285 347 413
#     4  11  24  45  67  98 135 180 232 278 349 414
#     4  10  25  44  64  97 137 175 227 281 347 413
#     4  12  24  43  69 103 137 182 232 288 348 410
#     4  11  25  43  68 101 138 177 230 282 345 413
#
# _framework density 21.656013999999999
#
# number of rings (size 3 to 8) (size 9 to 14) (size 15 to 20)
#    0.000    1.000    3.750    1.875    1.750    4.500 
#    2.250    0.000    0.000    0.000    0.000    0.000 
#    0.000    0.000    0.000    0.000    0.000    0.000 
#
# Total GULP energy -396717.942544 kJ/mol
# GULP energy per Si atom -12397.435704 kJ/mol
# Density = 2.160672 g / cm^3
# Si number density = 21.656014 Si / 1000 Ang^3
#
#
#
# Elastic Constant Matrix: (Units=GPa)
#
#
# Indices 1 2 3 4 5 6 
#
# 1 75.7461 45.3978 43.9364 0.0000 -8.7233 0.0000
# 2 45.3978 98.0652 58.4946 0.0000 -2.2424 0.0000
# 3 43.9364 58.4946 136.2937 0.0000 -2.2347 0.0000
# 4 0.0000 0.0000 0.0000 36.4557 0.0000 6.1819
# 5 -8.7233 -2.2424 -2.2347 0.0000 34.3095 0.0000
# 6 0.0000 0.0000 0.0000 6.1819 0.0000 37.8601
#
#
#
# Elastic Compliance Matrix: (Units=1/GPa)
#
#
# Indices 1 2 3 4 5 6 
#
# 1 0.019893 -0.007160 -0.003268 0.000000 0.004377 0.000000
# 2 -0.007160 0.016292 -0.004702 0.000000 -0.001062 0.000000
# 3 -0.003268 -0.004702 0.010401 0.000000 -0.000461 0.000000
# 4 0.000000 0.000000 0.000000 0.028212 0.000000 -0.004606
# 5 0.004377 -0.001062 -0.000461 0.000000 0.030160 0.000000
# 6 0.000000 0.000000 0.000000 -0.004606 0.000000 0.027165
#
#
# Mechanical properties :
#
#
# Convention : Reuss Voigt Hill
#
# Bulk Modulus (GPa) = 61.24865 67.30696 64.27780
# Shear Modulus (GPa) = 29.79324 32.54349 31.16837
#
# Velocity S-wave (km/s) = 3.71313 3.88073 3.79786
# Velocity P-wave (km/s) = 6.83572 7.15735 6.99838
#
# Compressibility (1/GPa) = 0.01632689
#
# Stress axis : x y z
#
# Youngs Moduli (GPa) = 50.26939 61.38046 96.14517
#
# Poissons Ratio (x) = 0.43945 0.31423
# Poissons Ratio (y) = 0.35990 0.45203
# Poissons Ratio (z) = 0.16429 0.28858
#
# Static dielectric constant tensor:
#      x y z
#    x 4.073750 0.000000 -0.148640 
#    y 0.000000 4.046490 0.000000 
#    z -0.148640 0.000000 4.241350 
# 
# 
# High freq. dielectric constant tensor:
#      x y z
#    x 1.836570 0.000000 0.002050 
#    y 0.000000 1.860290 0.000000 
#    z 0.002050 0.000000 1.868570 
# 
# From -- ./inp_files/33072.got.cif
#   From: 2010.03.12/outbox.cif.g09.slc.cpg/sg14_17_cif.got.tgz:33072.got - 2010.03.31 13:35:05.
