data_PCOD8128298
_publ_section_title
;
Structure prediction by ZEFSAII (Michael W. Deem and Ramdas Pophale) SiO2 
 PCOD8128298
Probable space group: P 21/C
;
_chemical_formula_sum "Si O2"
_cell_formula_units_Z 32
_cell_length_a 14.597110
_cell_length_b 8.941199
_cell_length_c 24.140312
_cell_angle_alpha 90.000000
_cell_angle_beta 150.175765
_cell_angle_gamma 90.000000
_cell_volume 1566.966647
_symmetry_space_group_name_H-M "P 21/C"
_symmetry_group_IT_number 14
_symmetry_cell_setting 'monoclinic'
loop_
_space_group_symop_operation_xyz
x,y,z
-x,1/2+y,1/2-z
-x,-y,-z
x,1/2-y,1/2+z
loop_
_atom_site_type_symbol
_atom_site_label
_atom_site_fract_x
_atom_site_fract_y
_atom_site_fract_z
Si Si1 0.838702 0.650381 0.558693
Si Si2 0.958289 0.594628 0.895533
Si Si3 0.500094 0.701960 0.312355
Si Si4 0.272405 0.165815 0.393433
Si Si5 0.683450 0.312770 0.084748
Si Si6 0.189260 0.811726 0.733654
Si Si7 0.286277 0.459934 0.131998
Si Si8 0.946741 0.177452 0.142198
O O1 0.677152 0.615971 0.430211
O O2 0.763583 0.765787 0.565198
O O3 0.915736 0.498580 0.624645
O O4 0.008779 0.726793 0.615860
O O5 0.005920 0.753547 0.892889
O O6 0.846141 0.488791 0.793608
O O7 0.830614 0.625233 0.881916
O O8 0.149245 0.516384 0.012612
O O9 0.364211 0.746731 0.291151
O O10 0.394992 0.600115 0.213563
O O11 0.562496 0.852135 0.314854
O O12 0.467845 0.224767 0.473809
O O13 0.114682 0.222455 0.269960
O O14 0.273775 0.987383 0.394112
O O15 0.785678 0.227928 0.188758
O O16 0.758999 0.248161 0.066956
#
# Coordination Sequence:
#
# PCOD8128298 Si02
#       8
#     4   4   4   4   4   4   4   4
#     4  12  24  41  65  98 133 171 215 267 322 384
#     4  10  24  45  68  88 132 175 216 271 329 386
#     4  11  25  44  70  94 129 165 218 282 322 391
#     4  11  23  42  61  94 140 170 212 257 318 392
#     4  11  24  39  65  97 131 177 214 250 323 395
#     4  11  21  42  67  95 127 175 210 258 336 377
#     4  10  24  46  68  94 122 173 222 274 335 377
#     4  12  25  39  65  97 133 172 216 262 317 393
#
# _framework density 20.421621999999999
#
# number of rings (size 3 to 8) (size 9 to 14) (size 15 to 20)
#    0.000    1.000    5.000    0.750    3.500    3.500 
#    0.000    1.250    0.000    0.000    0.000    0.000 
#    0.000    0.000    0.000    0.000    0.000    0.000 
#
# Total GULP energy -396908.621221 kJ/mol
# GULP energy per Si atom -12403.394413 kJ/mol
# Density = 2.037514 g / cm^3
# Si number density = 20.421622 Si / 1000 Ang^3
#
#
#
# Elastic Constant Matrix: (Units=GPa)
#
#
# Indices 1 2 3 4 5 6 
#
# 1 83.6937 33.3610 22.1387 0.0000 16.6147 0.0000
# 2 33.3610 56.7904 24.9371 0.0000 2.0882 0.0000
# 3 22.1387 24.9371 77.0793 0.0000 13.4234 0.0000
# 4 0.0000 0.0000 0.0000 25.8668 0.0000 -2.4649
# 5 16.6147 2.0882 13.4234 0.0000 37.9435 0.0000
# 6 0.0000 0.0000 0.0000 -2.4649 0.0000 33.7883
#
#
#
# Elastic Compliance Matrix: (Units=1/GPa)
#
#
# Indices 1 2 3 4 5 6 
#
# 1 0.017316 -0.009626 -0.000672 0.000000 -0.006815 0.000000
# 2 -0.009626 0.025936 -0.006513 0.000000 0.005092 0.000000
# 3 -0.000672 -0.006513 0.016155 0.000000 -0.005063 0.000000
# 4 0.000000 0.000000 0.000000 0.038930 0.000000 0.002840
# 5 -0.006815 0.005092 -0.005063 0.000000 0.030850 0.000000
# 6 0.000000 0.000000 0.000000 0.002840 0.000000 0.029803
#
#
# Mechanical properties :
#
#
# Convention : Reuss Voigt Hill
#
# Bulk Modulus (GPa) = 38.78291 42.04856 40.41573
# Shear Modulus (GPa) = 24.84977 28.66150 26.75564
#
# Velocity S-wave (km/s) = 3.49210 3.75038 3.62354
# Velocity P-wave (km/s) = 5.94071 6.27604 6.11068
#
# Compressibility (1/GPa) = 0.02578455
#
# Stress axis : x y z
#
# Youngs Moduli (GPa) = 57.74945 38.55621 61.89843
#
# Poissons Ratio (x) = 0.37116 0.04162
# Poissons Ratio (y) = 0.55592 0.40314
# Poissons Ratio (z) = 0.03883 0.25111
#
# Static dielectric constant tensor:
#      x y z
#    x 3.795190 0.000000 0.197780 
#    y 0.000000 3.510070 0.000000 
#    z 0.197780 0.000000 3.892660 
# 
# 
# High freq. dielectric constant tensor:
#      x y z
#    x 1.803240 0.000000 0.014200 
#    y 0.000000 1.788770 0.000000 
#    z 0.014200 0.000000 1.811630 
# 
# From -- ./inp_files/51342.got.cif
#   From: 2010.03.12/outbox.cif.g09.slc.cpg/sg14_26_cif.got.tgz:51342.got - 2010.03.31 13:35:05.
