data_PCOD8128854
_publ_section_title
;
Structure prediction by ZEFSAII (Michael W. Deem and Ramdas Pophale) SiO2 
 PCOD8128854
Probable space group: P 21/C
;
_chemical_formula_sum "Si O2"
_cell_formula_units_Z 28
_cell_length_a 29.786266
_cell_length_b 5.116690
_cell_length_c 8.934595
_cell_angle_alpha 90.000000
_cell_angle_beta 114.883405
_cell_angle_gamma 90.000000
_cell_volume 1235.283864
_symmetry_space_group_name_H-M "P 21/C"
_symmetry_group_IT_number 14
_symmetry_cell_setting 'monoclinic'
loop_
_space_group_symop_operation_xyz
x,y,z
-x,1/2+y,1/2-z
-x,-y,-z
x,1/2-y,1/2+z
loop_
_atom_site_type_symbol
_atom_site_label
_atom_site_fract_x
_atom_site_fract_y
_atom_site_fract_z
Si Si1 0.668904 0.026561 0.051743
Si Si2 0.181212 0.061952 0.407669
Si Si3 0.023292 0.719717 0.931829
Si Si4 0.518498 0.969045 0.193481
Si Si5 0.930282 0.537769 0.247128
Si Si6 0.367649 0.032116 0.665255
Si Si7 0.782910 0.448428 0.710628
O O1 0.665974 0.756861 0.955514
O O2 0.641287 0.254101 0.923984
O O3 0.643825 0.988136 0.176267
O O4 0.725408 0.113745 0.153140
O O5 0.213432 0.302484 0.393366
O O6 0.124246 0.154812 0.308913
O O7 0.192888 0.010813 0.596525
O O8 0.190574 0.801522 0.324833
O O9 0.070751 0.664824 0.891526
O O10 0.048245 0.946132 0.064224
O O11 0.975432 0.774709 0.756946
O O12 0.000000 0.500000 0.000000
O O13 0.512492 0.241634 0.271067
O O14 0.575630 0.886258 0.276111
O O15 0.500000 0.000000 0.000000
#
# Coordination Sequence:
#
# PCOD8128854 Si02
#       7
#     4   4   4   4   4   4   4
#     4  12  25  45  72  98 138 174 243 281 340 402
#     4  12  28  45  73 100 141 175 228 272 361 402
#     4  11  23  42  63  92 125 163 212 257 319 372
#     4  12  25  44  67 101 146 182 228 282 340 404
#     4  11  25  40  68  92 127 168 212 267 315 410
#     4  12  25  44  72 103 133 189 229 283 338 404
#     4  12  26  49  69 104 134 183 220 296 338 406
#
# _framework density 22.666854000000001
#
# number of rings (size 3 to 8) (size 9 to 14) (size 15 to 20)
#    0.000    0.286    1.429    8.143    4.000    0.000 
#    0.000    0.000    0.000    0.000    0.000    0.000 
#    0.000    0.000    0.000    0.000    0.000    0.000 
#
# Total GULP energy -347135.278581 kJ/mol
# GULP energy per Si atom -12397.688521 kJ/mol
# Density = 2.261526 g / cm^3
# Si number density = 22.666854 Si / 1000 Ang^3
#
#
#
# Elastic Constant Matrix: (Units=GPa)
#
#
# Indices 1 2 3 4 5 6 
#
# 1 99.2349 12.1477 19.3582 0.0000 14.2626 0.0000
# 2 12.1477 96.4961 20.3546 0.0000 -17.6555 0.0000
# 3 19.3582 20.3546 84.5237 0.0000 -5.2824 0.0000
# 4 0.0000 0.0000 0.0000 42.1302 0.0000 -1.4455
# 5 14.2626 -17.6555 -5.2824 0.0000 47.9543 0.0000
# 6 0.0000 0.0000 0.0000 -1.4455 0.0000 39.9468
#
#
#
# Elastic Compliance Matrix: (Units=1/GPa)
#
#
# Indices 1 2 3 4 5 6 
#
# 1 0.011381 -0.001696 -0.002466 0.000000 -0.004281 0.000000
# 2 -0.001696 0.011886 -0.002184 0.000000 0.004640 0.000000
# 3 -0.002466 -0.002184 0.013007 0.000000 0.001362 0.000000
# 4 0.000000 0.000000 0.000000 0.023765 0.000000 0.000860
# 5 -0.004281 0.004640 0.001362 0.000000 0.023985 0.000000
# 6 0.000000 0.000000 0.000000 0.000860 0.000000 0.025064
#
#
# Mechanical properties :
#
#
# Convention : Reuss Voigt Hill
#
# Bulk Modulus (GPa) = 42.40374 42.66398 42.53386
# Shear Modulus (GPa) = 38.56811 41.23253 39.90032
#
# Velocity S-wave (km/s) = 4.12942 4.26968 4.20014
# Velocity P-wave (km/s) = 6.44082 6.57038 6.50592
#
# Compressibility (1/GPa) = 0.02358282
#
# Stress axis : x y z
#
# Youngs Moduli (GPa) = 87.86598 84.13075 76.88300
#
# Poissons Ratio (x) = 0.14268 0.18957
# Poissons Ratio (y) = 0.14901 0.16791
# Poissons Ratio (z) = 0.21665 0.18374
#
# Static dielectric constant tensor:
#      x y z
#    x 4.311180 0.000000 0.047040 
#    y 0.000000 5.126390 0.000000 
#    z 0.047040 0.000000 3.916490 
# 
# 
# High freq. dielectric constant tensor:
#      x y z
#    x 1.912060 0.000000 -0.007560 
#    y 0.000000 1.898750 0.000000 
#    z -0.007560 0.000000 1.913370 
# 
# From -- ./inp_files/19858.got.cif
#   From: 2010.03.12/outbox.cif.g09.slc.cpg/sg14_10_cif.got.tgz:19858.got - 2010.03.31 13:35:05.
