data_PCOD8128333
_publ_section_title
;
Structure prediction by ZEFSAII (Michael W. Deem and Ramdas Pophale) SiO2 
 PCOD8128333
Probable space group: P 21/C
;
_chemical_formula_sum "Si O2"
_cell_formula_units_Z 32
_cell_length_a 13.346694
_cell_length_b 8.201910
_cell_length_c 19.192932
_cell_angle_alpha 90.000000
_cell_angle_beta 136.239404
_cell_angle_gamma 90.000000
_cell_volume 1453.162880
_symmetry_space_group_name_H-M "P 21/C"
_symmetry_group_IT_number 14
_symmetry_cell_setting 'monoclinic'
loop_
_space_group_symop_operation_xyz
x,y,z
-x,1/2+y,1/2-z
-x,-y,-z
x,1/2-y,1/2+z
loop_
_atom_site_type_symbol
_atom_site_label
_atom_site_fract_x
_atom_site_fract_y
_atom_site_fract_z
Si Si1 0.555342 0.224130 0.968166
Si Si2 0.391875 0.147880 0.023066
Si Si3 0.899598 0.401957 0.396881
Si Si4 0.625739 0.609578 0.239836
Si Si5 0.116524 0.775401 0.373956
Si Si6 0.122186 0.900937 0.523288
Si Si7 0.389147 0.130305 0.653753
Si Si8 0.933930 0.897614 0.154799
O O1 0.448217 0.337865 0.869684
O O2 0.569878 0.041850 0.944168
O O3 0.496142 0.220328 0.016676
O O4 0.712242 0.308495 0.048456
O O5 0.422024 0.243835 0.108617
O O6 0.225850 0.177511 0.916401
O O7 0.779107 0.522065 0.304023
O O8 0.828675 0.251029 0.403390
O O9 0.000000 0.500000 0.500000
O O10 0.994665 0.330750 0.380754
O O11 0.648313 0.772726 0.295328
O O12 0.529099 0.482269 0.234756
O O13 0.057325 0.842169 0.417367
O O14 0.079819 0.588409 0.355966
O O15 0.032719 0.860859 0.269932
O O16 0.256999 0.012047 0.571544
O O17 0.000000 0.000000 0.500000
#
# Coordination Sequence:
#
# PCOD8128333 Si02
#       8
#     4   4   4   4   4   4   4   4
#     4  10  24  48  70 103 142 183 239 291 352 421
#     4  10  24  46  74  99 142 189 229 292 350 422
#     4  12  26  47  72 104 140 185 235 298 358 424
#     4  12  26  43  72 101 140 181 233 286 355 419
#     4  11  26  46  69 106 142 187 236 298 343 431
#     4  12  26  46  71 101 146 187 235 296 355 420
#     4  12  26  43  71 102 140 181 233 289 347 427
#     4  11  26  44  73 103 146 184 239 286 362 422
#
# _framework density 22.020931000000001
#
# number of rings (size 3 to 8) (size 9 to 14) (size 15 to 20)
#    0.000    0.750    2.500    3.750    8.750    0.500 
#    2.250    0.000    0.000    0.000    0.000    0.000 
#    0.000    0.000    0.000    0.000    0.000    0.000 
#
# Total GULP energy -396964.867558 kJ/mol
# GULP energy per Si atom -12405.152111 kJ/mol
# Density = 2.197081 g / cm^3
# Si number density = 22.020931 Si / 1000 Ang^3
#
#
#
# Elastic Constant Matrix: (Units=GPa)
#
#
# Indices 1 2 3 4 5 6 
#
# 1 115.0719 17.6668 30.3062 0.0000 -2.8322 0.0000
# 2 17.6668 54.1551 22.5479 0.0000 5.2545 0.0000
# 3 30.3062 22.5479 103.9677 0.0000 -5.2964 0.0000
# 4 0.0000 0.0000 0.0000 42.2124 0.0000 0.3823
# 5 -2.8322 5.2545 -5.2964 0.0000 32.8907 0.0000
# 6 0.0000 0.0000 0.0000 0.3823 0.0000 41.7859
#
#
#
# Elastic Compliance Matrix: (Units=1/GPa)
#
#
# Indices 1 2 3 4 5 6 
#
# 1 0.009661 -0.002284 -0.002279 0.000000 0.000830 0.000000
# 2 -0.002284 0.021370 -0.004187 0.000000 -0.004285 0.000000
# 3 -0.002279 -0.004187 0.011308 0.000000 0.002294 0.000000
# 4 0.000000 0.000000 0.000000 0.023692 0.000000 -0.000217
# 5 0.000830 -0.004285 0.002294 0.000000 0.031529 0.000000
# 6 0.000000 0.000000 0.000000 -0.000217 0.000000 0.023934
#
#
# Mechanical properties :
#
#
# Convention : Reuss Voigt Hill
#
# Bulk Modulus (GPa) = 40.25830 46.02630 43.14230
# Shear Modulus (GPa) = 33.95091 36.88936 35.42014
#
# Velocity S-wave (km/s) = 3.93078 4.09736 4.01493
# Velocity P-wave (km/s) = 6.23882 6.58263 6.41303
#
# Compressibility (1/GPa) = 0.02483960
#
# Stress axis : x y z
#
# Youngs Moduli (GPa) = 103.50491 46.79564 88.43653
#
# Poissons Ratio (x) = 0.10686 0.20152
# Poissons Ratio (y) = 0.23636 0.37030
# Poissons Ratio (z) = 0.23586 0.19594
#
# Static dielectric constant tensor:
#      x y z
#    x 5.370190 0.000000 0.721160 
#    y 0.000000 4.202610 0.000000 
#    z 0.721160 0.000000 4.176720 
# 
# 
# High freq. dielectric constant tensor:
#      x y z
#    x 1.877830 0.000000 0.001900 
#    y 0.000000 1.878580 0.000000 
#    z 0.001900 0.000000 1.866770 
# 
# From -- ./inp_files/68108.got.cif
#   From: 2010.03.12/outbox.cif.g09.slc.cpg/sg14_35_cif.got.tgz:68108.got - 2010.03.31 13:35:05.
