data_PCOD8128535
_publ_section_title
;
Structure prediction by ZEFSAII (Michael W. Deem and Ramdas Pophale) SiO2 
 PCOD8128535
Probable space group: P 21/C
;
_chemical_formula_sum "Si O2"
_cell_formula_units_Z 28
_cell_length_a 14.763303
_cell_length_b 14.261738
_cell_length_c 9.829147
_cell_angle_alpha 90.000000
_cell_angle_beta 45.974434
_cell_angle_gamma 90.000000
_cell_volume 1488.053980
_symmetry_space_group_name_H-M "P 21/C"
_symmetry_group_IT_number 14
_symmetry_cell_setting 'monoclinic'
loop_
_space_group_symop_operation_xyz
x,y,z
-x,1/2+y,1/2-z
-x,-y,-z
x,1/2-y,1/2+z
loop_
_atom_site_type_symbol
_atom_site_label
_atom_site_fract_x
_atom_site_fract_y
_atom_site_fract_z
Si Si1 0.461422 0.093220 0.114556
Si Si2 0.723086 0.940761 0.178612
Si Si3 0.291331 0.122510 0.525313
Si Si4 0.647928 0.239929 0.032381
Si Si5 0.951094 0.601688 0.581592
Si Si6 0.402824 0.179040 0.905660
Si Si7 0.218039 0.659794 0.357638
O O1 0.357374 0.064451 0.335682
O O2 0.582662 0.143127 0.053965
O O3 0.397450 0.162206 0.072112
O O4 0.500000 0.000000 0.000000
O O5 0.645534 0.911346 0.396979
O O6 0.856047 0.881185 0.052227
O O7 0.651651 0.910949 0.117293
O O8 0.744001 0.052138 0.158168
O O9 0.139722 0.104595 0.688566
O O10 0.318188 0.230901 0.464122
O O11 0.706117 0.295566 0.845734
O O12 0.545903 0.306938 0.209216
O O13 0.754891 0.216196 0.031926
O O14 0.000000 0.500000 0.500000
O O15 0.068899 0.671224 0.477921
#
# Coordination Sequence:
#
# PCOD8128535 Si02
#       7
#     4   4   4   4   4   4   4
#     4  11  23  37  57  88 126 154 197 259 307 354
#     4   9  21  38  66  84 114 167 207 240 304 371
#     4   9  20  37  62  84 115 156 203 247 298 359
#     4  11  24  38  58  91 122 160 199 254 308 367
#     4   8  19  39  63  87 111 159 213 247 288 371
#     4  11  21  38  57  91 121 153 203 253 298 363
#     4  11  22  41  61  86 127 157 204 254 309 365
#
# _framework density 18.816521000000002
#
# number of rings (size 3 to 8) (size 9 to 14) (size 15 to 20)
#    0.857    1.143    1.429    2.571    4.000    1.714 
#    0.000    0.000    0.000    2.571    0.000    0.000 
#    0.000    0.000    0.000    0.000    0.000    0.000 
#
# Total GULP energy -346869.737113 kJ/mol
# GULP energy per Si atom -12388.204897 kJ/mol
# Density = 1.877369 g / cm^3
# Si number density = 18.816521 Si / 1000 Ang^3
#
#
#
# Elastic Constant Matrix: (Units=GPa)
#
#
# Indices 1 2 3 4 5 6 
#
# 1 103.5887 21.2330 37.8310 0.0000 -0.0904 0.0000
# 2 21.2330 59.1069 23.7211 0.0000 -5.1591 0.0000
# 3 37.8310 23.7211 113.4458 0.0000 -9.2703 0.0000
# 4 0.0000 0.0000 0.0000 30.2332 0.0000 5.6614
# 5 -0.0904 -5.1591 -9.2703 0.0000 34.4864 0.0000
# 6 0.0000 0.0000 0.0000 5.6614 0.0000 30.6685
#
#
#
# Elastic Compliance Matrix: (Units=1/GPa)
#
#
# Indices 1 2 3 4 5 6 
#
# 1 0.011459 -0.002897 -0.003322 0.000000 -0.001296 0.000000
# 2 -0.002897 0.019306 -0.002899 0.000000 0.002101 0.000000
# 3 -0.003322 -0.002899 0.010728 0.000000 0.002441 0.000000
# 4 0.000000 0.000000 0.000000 0.034260 0.000000 -0.006324
# 5 -0.001296 0.002101 0.002441 0.000000 0.029964 0.000000
# 6 0.000000 0.000000 0.000000 -0.006324 0.000000 0.033774
#
#
# Mechanical properties :
#
#
# Convention : Reuss Voigt Hill
#
# Bulk Modulus (GPa) = 42.99479 49.07905 46.03692
# Shear Modulus (GPa) = 30.21519 31.96805 31.09162
#
# Velocity S-wave (km/s) = 4.01157 4.12629 4.06933
# Velocity P-wave (km/s) = 6.66003 6.98865 6.82632
#
# Compressibility (1/GPa) = 0.02325863
#
# Stress axis : x y z
#
# Youngs Moduli (GPa) = 87.26601 51.79749 93.21279
#
# Poissons Ratio (x) = 0.15004 0.30961
# Poissons Ratio (y) = 0.25277 0.27024
# Poissons Ratio (z) = 0.28986 0.15017
#
# Static dielectric constant tensor:
#      x y z
#    x 3.794760 0.000000 -0.043030 
#    y 0.000000 3.277030 0.000000 
#    z -0.043030 0.000000 3.724900 
# 
# 
# High freq. dielectric constant tensor:
#      x y z
#    x 1.727250 0.000000 0.004600 
#    y 0.000000 1.724470 0.000000 
#    z 0.004600 0.000000 1.726800 
# 
# From -- ./inp_files/16200.got.cif
#   From: 2010.03.12/outbox.cif.g09.slc.cpg/sg14_9_cif.got.tgz:16200.got - 2010.03.31 13:35:05.
