data_PCOD8128253
_publ_section_title
;
Structure prediction by ZEFSAII (Michael W. Deem and Ramdas Pophale) SiO2 
 PCOD8128253
Probable space group: P 21/C
;
_chemical_formula_sum "Si O2"
_cell_formula_units_Z 32
_cell_length_a 25.747341
_cell_length_b 10.524248
_cell_length_c 9.763819
_cell_angle_alpha 90.000000
_cell_angle_beta 144.908037
_cell_angle_gamma 90.000000
_cell_volume 1520.996790
_symmetry_space_group_name_H-M "P 21/C"
_symmetry_group_IT_number 14
_symmetry_cell_setting 'monoclinic'
loop_
_space_group_symop_operation_xyz
x,y,z
-x,1/2+y,1/2-z
-x,-y,-z
x,1/2-y,1/2+z
loop_
_atom_site_type_symbol
_atom_site_label
_atom_site_fract_x
_atom_site_fract_y
_atom_site_fract_z
Si Si1 0.327044 0.721744 0.879250
Si Si2 0.377434 0.140871 0.723264
Si Si3 0.171348 0.852746 0.682723
Si Si4 0.415193 0.645170 0.323745
Si Si5 0.809080 0.011681 0.994996
Si Si6 0.916656 0.087246 0.979893
Si Si7 0.727938 0.749159 0.263627
Si Si8 0.883168 0.950715 0.637166
O O1 0.270099 0.831952 0.830728
O O2 0.357378 0.763456 0.795296
O O3 0.271920 0.591768 0.745928
O O4 0.412327 0.694254 0.161236
O O5 0.313194 0.203026 0.469555
O O6 0.354689 0.211648 0.816011
O O7 0.365116 0.990888 0.722233
O O8 0.481911 0.153597 0.904835
O O9 0.132119 0.720367 0.649486
O O10 0.112224 0.917050 0.436226
O O11 0.171249 0.947094 0.809376
O O12 0.896955 0.031341 0.088511
O O13 0.783397 0.865058 0.950030
O O14 0.877665 0.984935 0.786406
O O15 0.022204 0.118208 0.188876
O O16 0.798567 0.866072 0.403994
#
# Coordination Sequence:
#
# PCOD8128253 Si02
#       8
#     4   4   4   4   4   4   4   4
#     4  11  21  41  69  94 127 172 223 268 330 383
#     4  11  25  43  65  97 135 171 223 269 337 398
#     4  11  23  41  66  98 125 165 223 271 317 396
#     4  11  23  43  69  94 131 175 219 282 323 393
#     4  11  23  40  65  95 131 170 217 271 321 398
#     4  10  24  44  65  95 130 170 223 268 328 388
#     4  12  24  43  65  97 137 177 215 271 339 403
#     4  11  25  43  67  93 131 177 212 270 334 394
#
# _framework density 21.038836
#
# number of rings (size 3 to 8) (size 9 to 14) (size 15 to 20)
#    0.000    1.000    2.500    4.500    5.250    0.500 
#    4.500    0.625    0.000    0.000    0.000    0.000 
#    0.000    0.000    0.000    0.000    0.000    0.000 
#
# Total GULP energy -396819.088507 kJ/mol
# GULP energy per Si atom -12400.596516 kJ/mol
# Density = 2.099095 g / cm^3
# Si number density = 21.038836 Si / 1000 Ang^3
#
#
#
# Elastic Constant Matrix: (Units=GPa)
#
#
# Indices 1 2 3 4 5 6 
#
# 1 96.6772 35.4694 20.4168 0.0000 -2.0478 0.0000
# 2 35.4694 88.5769 20.7764 0.0000 5.3033 0.0000
# 3 20.4168 20.7764 75.9409 0.0000 1.2534 0.0000
# 4 0.0000 0.0000 0.0000 35.7021 0.0000 -6.1772
# 5 -2.0478 5.3033 1.2534 0.0000 29.1550 0.0000
# 6 0.0000 0.0000 0.0000 -6.1772 0.0000 31.2087
#
#
#
# Elastic Compliance Matrix: (Units=1/GPa)
#
#
# Indices 1 2 3 4 5 6 
#
# 1 0.012530 -0.004626 -0.002133 0.000000 0.001813 0.000000
# 2 -0.004626 0.013896 -0.002513 0.000000 -0.002744 0.000000
# 3 -0.002133 -0.002513 0.014434 0.000000 -0.000313 0.000000
# 4 0.000000 0.000000 0.000000 0.029003 0.000000 0.005741
# 5 0.001813 -0.002744 -0.000313 0.000000 0.034939 0.000000
# 6 0.000000 0.000000 0.000000 0.005741 0.000000 0.033179
#
#
# Mechanical properties :
#
#
# Convention : Reuss Voigt Hill
#
# Bulk Modulus (GPa) = 44.80946 46.05781 45.43363
# Shear Modulus (GPa) = 30.49488 31.51531 31.00509
#
# Velocity S-wave (km/s) = 3.81130 3.87455 3.84305
# Velocity P-wave (km/s) = 6.38065 6.47730 6.42916
#
# Compressibility (1/GPa) = 0.02231672
#
# Stress axis : x y z
#
# Youngs Moduli (GPa) = 79.81091 71.96541 69.27971
#
# Poissons Ratio (x) = 0.33288 0.14778
# Poissons Ratio (y) = 0.36917 0.17408
# Poissons Ratio (z) = 0.17024 0.18083
#
# Static dielectric constant tensor:
#      x y z
#    x 3.800450 0.000000 -0.048120 
#    y 0.000000 3.805610 0.000000 
#    z -0.048120 0.000000 3.670470 
# 
# 
# High freq. dielectric constant tensor:
#      x y z
#    x 1.833870 0.000000 -0.007140 
#    y 0.000000 1.826560 0.000000 
#    z -0.007140 0.000000 1.823580 
# 
# From -- ./inp_files/19496.got.cif
#   From: 2010.03.12/outbox.cif.g09.slc.cpg/sg14_10_cif.got.tgz:19496.got - 2010.03.31 13:35:05.
