data_PCOD8128528
_publ_section_title
;
Structure prediction by ZEFSAII (Michael W. Deem and Ramdas Pophale) SiO2 
 PCOD8128528
Probable space group: P 21/C
;
_chemical_formula_sum "Si O2"
_cell_formula_units_Z 32
_cell_length_a 24.514862
_cell_length_b 9.836725
_cell_length_c 8.771650
_cell_angle_alpha 90.000000
_cell_angle_beta 47.359541
_cell_angle_gamma 90.000000
_cell_volume 1556.016420
_symmetry_space_group_name_H-M "P 21/C"
_symmetry_group_IT_number 14
_symmetry_cell_setting 'monoclinic'
loop_
_space_group_symop_operation_xyz
x,y,z
-x,1/2+y,1/2-z
-x,-y,-z
x,1/2-y,1/2+z
loop_
_atom_site_type_symbol
_atom_site_label
_atom_site_fract_x
_atom_site_fract_y
_atom_site_fract_z
Si Si1 0.342520 0.370662 0.693903
Si Si2 0.058217 0.657440 0.518683
Si Si3 0.779341 0.206001 0.348334
Si Si4 0.432001 0.848936 0.551961
Si Si5 0.399620 0.124514 0.751246
Si Si6 0.375353 0.606702 0.840221
Si Si7 0.042302 0.928837 0.709855
Si Si8 0.207232 0.943566 0.374870
O O1 0.341475 0.219686 0.768659
O O2 0.388377 0.366436 0.452449
O O3 0.383886 0.460761 0.744118
O O4 0.260503 0.429648 0.813460
O O5 0.147052 0.645615 0.372695
O O6 0.030089 0.808096 0.613222
O O7 0.033197 0.635309 0.393681
O O8 0.019590 0.544537 0.699578
O O9 0.706198 0.125975 0.430794
O O10 0.772752 0.368196 0.322949
O O11 0.785571 0.180607 0.517603
O O12 0.516371 0.832228 0.448136
O O13 0.387984 0.713830 0.680137
O O14 0.433367 0.874554 0.367295
O O15 0.388726 0.970506 0.717833
O O16 0.123237 0.998693 0.534539
#
# Coordination Sequence:
#
# PCOD8128528 Si02
#       8
#     4   4   4   4   4   4   4   4
#     4  11  23  39  58  80 113 147 184 229 281 332
#     4   9  18  33  54  78 112 146 180 226 272 324
#     4   9  17  32  55  80 107 140 181 225 271 318
#     4  11  23  38  59  83 109 142 185 228 277 337
#     4  11  24  40  55  79 113 147 179 226 286 338
#     4  11  21  36  60  85 107 142 190 233 271 327
#     4   9  18  34  54  81 112 145 185 227 274 325
#     4   9  18  34  57  81 109 146 186 230 274 329
#
# _framework density 20.565335000000001
#
# number of rings (size 3 to 8) (size 9 to 14) (size 15 to 20)
#    0.000    2.000    0.000    4.500    0.000    4.500 
#    0.000    6.250    0.000    0.000    0.000    0.000 
#    0.000    0.000    0.000    0.000    0.000    0.000 
#
# Total GULP energy -396725.428218 kJ/mol
# GULP energy per Si atom -12397.669632 kJ/mol
# Density = 2.051853 g / cm^3
# Si number density = 20.565335 Si / 1000 Ang^3
#
#
#
# Elastic Constant Matrix: (Units=GPa)
#
#
# Indices 1 2 3 4 5 6 
#
# 1 60.1598 24.5215 19.7110 0.0000 -8.1126 0.0000
# 2 24.5215 78.8098 32.1202 0.0000 -14.5157 0.0000
# 3 19.7110 32.1202 78.4437 0.0000 -4.0529 0.0000
# 4 0.0000 0.0000 0.0000 31.7255 0.0000 2.7302
# 5 -8.1126 -14.5157 -4.0529 0.0000 29.6615 0.0000
# 6 0.0000 0.0000 0.0000 2.7302 0.0000 39.2729
#
#
#
# Elastic Compliance Matrix: (Units=1/GPa)
#
#
# Indices 1 2 3 4 5 6 
#
# 1 0.019791 -0.004401 -0.003024 0.000000 0.002846 0.000000
# 2 -0.004401 0.017633 -0.005771 0.000000 0.006637 0.000000
# 3 -0.003024 -0.005771 0.015794 0.000000 -0.001493 0.000000
# 4 0.000000 0.000000 0.000000 0.031710 0.000000 -0.002204
# 5 0.002846 0.006637 -0.001493 0.000000 0.037536 0.000000
# 6 0.000000 0.000000 0.000000 -0.002204 0.000000 0.025616
#
#
# Mechanical properties :
#
#
# Convention : Reuss Voigt Hill
#
# Bulk Modulus (GPa) = 37.27890 41.12432 39.20161
# Shear Modulus (GPa) = 27.26079 29.53604 28.39841
#
# Velocity S-wave (km/s) = 3.64479 3.79384 3.72006
# Velocity P-wave (km/s) = 5.98991 6.26349 6.12823
#
# Compressibility (1/GPa) = 0.02682483
#
# Stress axis : x y z
#
# Youngs Moduli (GPa) = 50.52835 56.71248 63.31618
#
# Poissons Ratio (x) = 0.24961 0.19145
# Poissons Ratio (y) = 0.22239 0.36541
# Poissons Ratio (z) = 0.15278 0.32730
#
# Static dielectric constant tensor:
#      x y z
#    x 3.651000 0.000000 -0.082280 
#    y 0.000000 3.619020 0.000000 
#    z -0.082280 0.000000 3.796130 
# 
# 
# High freq. dielectric constant tensor:
#      x y z
#    x 1.795080 0.000000 -0.000730 
#    y 0.000000 1.788100 0.000000 
#    z -0.000730 0.000000 1.810470 
# 
# From -- ./inp_files/19660.got.cif
#   From: 2010.03.12/outbox.cif.g09.slc.cpg/sg14_10_cif.got.tgz:19660.got - 2010.03.31 13:35:05.
