data_PCOD8128505
_publ_section_title
;
Structure prediction by ZEFSAII (Michael W. Deem and Ramdas Pophale) SiO2 
 PCOD8128505
Probable space group: P 21/C
;
_chemical_formula_sum "Si O2"
_cell_formula_units_Z 28
_cell_length_a 20.787753
_cell_length_b 12.373665
_cell_length_c 17.813329
_cell_angle_alpha 90.000000
_cell_angle_beta 162.562630
_cell_angle_gamma 90.000000
_cell_volume 1373.043437
_symmetry_space_group_name_H-M "P 21/C"
_symmetry_group_IT_number 14
_symmetry_cell_setting 'monoclinic'
loop_
_space_group_symop_operation_xyz
x,y,z
-x,1/2+y,1/2-z
-x,-y,-z
x,1/2-y,1/2+z
loop_
_atom_site_type_symbol
_atom_site_label
_atom_site_fract_x
_atom_site_fract_y
_atom_site_fract_z
Si Si1 0.840216 0.276167 0.136905
Si Si2 0.951835 0.641314 0.256154
Si Si3 0.287537 0.201353 0.212042
Si Si4 0.485356 0.409370 0.686338
Si Si5 0.664204 0.995943 0.829585
Si Si6 0.335993 0.308303 0.941945
Si Si7 0.519663 0.636464 0.682896
O O1 0.916172 0.232653 0.140685
O O2 0.037925 0.294716 0.412500
O O3 0.719478 0.388900 0.985042
O O4 0.681670 0.190632 0.999985
O O5 0.900707 0.671041 0.286141
O O6 0.090993 0.532661 0.411027
O O7 0.717116 0.631932 0.959668
O O8 0.310368 0.205752 0.325618
O O9 0.418186 0.303383 0.324379
O O10 0.395065 0.092092 0.299816
O O11 0.330342 0.436401 0.583784
O O12 0.422262 0.302308 0.572586
O O13 0.473595 0.509782 0.615053
O O14 0.498294 0.094298 0.641051
#
# Coordination Sequence:
#
# PCOD8128505 Si02
#       7
#     4   4   4   4   4   4   4
#     4  11  21  44  65  97 129 175 220 276 322 387
#     4  11  20  41  68  98 122 171 230 266 328 389
#     4  11  27  41  66  98 143 175 211 274 346 390
#     4  12  20  44  72  94 129 170 231 273 311 391
#     4  12  23  43  71  98 128 175 228 279 321 387
#     4  12  26  44  63 105 136 173 220 272 337 396
#     4  11  22  41  69  97 130 172 227 270 326 390
#
# _framework density 20.392654
#
# number of rings (size 3 to 8) (size 9 to 14) (size 15 to 20)
#    0.000    0.571    7.143    2.143    0.000    2.286 
#    0.000    0.714    0.000    0.000    0.000    0.000 
#    0.000    0.000    0.000    0.000    0.000    0.000 
#
# Total GULP energy -347111.943275 kJ/mol
# GULP energy per Si atom -12396.855117 kJ/mol
# Density = 2.034624 g / cm^3
# Si number density = 20.392654 Si / 1000 Ang^3
#
#
#
# Elastic Constant Matrix: (Units=GPa)
#
#
# Indices 1 2 3 4 5 6 
#
# 1 156.8114 62.6454 49.4032 0.0000 -3.0619 0.0000
# 2 62.6454 132.5369 39.3528 0.0000 4.4179 0.0000
# 3 49.4032 39.3528 69.7162 0.0000 16.1034 0.0000
# 4 0.0000 0.0000 0.0000 20.3618 0.0000 8.5593
# 5 -3.0619 4.4179 16.1034 0.0000 32.4108 0.0000
# 6 0.0000 0.0000 0.0000 8.5593 0.0000 36.5262
#
#
#
# Elastic Compliance Matrix: (Units=1/GPa)
#
#
# Indices 1 2 3 4 5 6 
#
# 1 0.009531 -0.002819 -0.006168 0.000000 0.004349 0.000000
# 2 -0.002819 0.009961 -0.003671 0.000000 0.000200 0.000000
# 3 -0.006168 -0.003671 0.023503 0.000000 -0.011760 0.000000
# 4 0.000000 0.000000 0.000000 0.054478 0.000000 -0.012766
# 5 0.004349 0.000200 -0.011760 0.000000 0.037080 0.000000
# 6 0.000000 0.000000 0.000000 -0.012766 0.000000 0.030369
#
#
# Mechanical properties :
#
#
# Convention : Reuss Voigt Hill
#
# Bulk Modulus (GPa) = 56.56174 73.54083 65.05128
# Shear Modulus (GPa) = 25.49314 31.70395 28.59854
#
# Velocity S-wave (km/s) = 3.53953 3.94721 3.74892
# Velocity P-wave (km/s) = 6.67090 7.54418 7.12094
#
# Compressibility (1/GPa) = 0.01767980
#
# Stress axis : x y z
#
# Youngs Moduli (GPa) = 104.91896 100.39337 42.54747
#
# Poissons Ratio (x) = 0.28298 0.26241
# Poissons Ratio (y) = 0.29574 0.15621
# Poissons Ratio (z) = 0.64710 0.36858
#
# Static dielectric constant tensor:
#      x y z
#    x 3.837430 0.000000 0.365520 
#    y 0.000000 4.059990 0.000000 
#    z 0.365520 0.000000 3.723530 
# 
# 
# High freq. dielectric constant tensor:
#      x y z
#    x 1.797140 0.000000 0.028140 
#    y 0.000000 1.815190 0.000000 
#    z 0.028140 0.000000 1.783180 
# 
# From -- ./inp_files/61321.got.cif
#   From: 2010.03.12/outbox.cif.g09.slc.cpg/sg14_31_cif.got.tgz:61321.got - 2010.03.31 13:35:05.
