data_PCOD8128063
_publ_section_title
;
Structure prediction by ZEFSAII (Michael W. Deem and Ramdas Pophale) SiO2 
 PCOD8128063
Probable space group: P 21/C
;
_chemical_formula_sum "Si O2"
_cell_formula_units_Z 28
_cell_length_a 20.289942
_cell_length_b 8.295430
_cell_length_c 14.075025
_cell_angle_alpha 90.000000
_cell_angle_beta 145.965160
_cell_angle_gamma 90.000000
_cell_volume 1325.933663
_symmetry_space_group_name_H-M "P 21/C"
_symmetry_group_IT_number 14
_symmetry_cell_setting 'monoclinic'
loop_
_space_group_symop_operation_xyz
x,y,z
-x,1/2+y,1/2-z
-x,-y,-z
x,1/2-y,1/2+z
loop_
_atom_site_type_symbol
_atom_site_label
_atom_site_fract_x
_atom_site_fract_y
_atom_site_fract_z
Si Si1 0.703175 0.220206 0.025202
Si Si2 0.860397 0.724129 0.372767
Si Si3 0.747977 0.104084 0.760234
Si Si4 0.960050 0.108090 0.281231
Si Si5 0.016771 0.741035 0.391175
Si Si6 0.588630 0.300910 0.691626
Si Si7 0.349711 0.045107 0.890874
O O1 0.722334 0.372279 0.117911
O O2 0.822991 0.146658 0.127591
O O3 0.635464 0.083015 0.005478
O O4 0.626793 0.287455 0.846760
O O5 0.785728 0.577995 0.327702
O O6 0.965823 0.767803 0.568388
O O7 0.778572 0.877459 0.256839
O O8 0.921445 0.665528 0.348822
O O9 0.633382 0.143264 0.687731
O O10 0.850709 0.230297 0.910770
O O11 0.998734 0.132775 0.219655
O O12 0.988608 0.927505 0.344172
O O13 0.639264 0.460377 0.699282
O O14 0.447010 0.314288 0.519344
#
# Coordination Sequence:
#
# PCOD8128063 Si02
#       7
#     4   4   4   4   4   4   4
#     4  11  22  42  69  94 130 176 217 275 332 390
#     4  12  25  40  63 100 134 171 219 270 333 402
#     4  11  24  40  65  97 133 174 215 271 331 391
#     4  12  24  38  67  97 133 177 215 270 336 398
#     4  12  24  41  61  97 136 171 216 270 328 404
#     4  10  23  46  69  93 132 171 229 272 325 394
#     4  10  24  46  69  95 130 180 218 274 336 384
#
# _framework density 21.117194000000001
#
# number of rings (size 3 to 8) (size 9 to 14) (size 15 to 20)
#    0.000    0.857    4.286    3.429    2.000    1.714 
#    0.000    5.714    0.000    0.000    0.000    0.000 
#    0.000    0.000    0.000    0.000    0.000    0.000 
#
# Total GULP energy -347285.991844 kJ/mol
# GULP energy per Si atom -12403.071137 kJ/mol
# Density = 2.106913 g / cm^3
# Si number density = 21.117194 Si / 1000 Ang^3
#
#
#
# Elastic Constant Matrix: (Units=GPa)
#
#
# Indices 1 2 3 4 5 6 
#
# 1 106.6337 12.7396 48.0434 0.0000 -10.4747 0.0000
# 2 12.7396 79.2969 25.2477 0.0000 -4.4642 0.0000
# 3 48.0434 25.2477 81.7007 0.0000 -7.5391 0.0000
# 4 0.0000 0.0000 0.0000 10.0413 0.0000 0.3332
# 5 -10.4747 -4.4642 -7.5391 0.0000 37.6996 0.0000
# 6 0.0000 0.0000 0.0000 0.3332 0.0000 32.4424
#
#
#
# Elastic Compliance Matrix: (Units=1/GPa)
#
#
# Indices 1 2 3 4 5 6 
#
# 1 0.012935 0.000445 -0.007546 0.000000 0.002137 0.000000
# 2 0.000445 0.014026 -0.004515 0.000000 0.000882 0.000000
# 3 -0.007546 -0.004515 0.018165 0.000000 0.001001 0.000000
# 4 0.000000 0.000000 0.000000 0.099623 0.000000 -0.001023
# 5 0.002137 0.000882 0.001001 0.000000 0.027424 0.000000
# 6 0.000000 0.000000 0.000000 -0.001023 0.000000 0.030834
#
#
# Mechanical properties :
#
#
# Convention : Reuss Voigt Hill
#
# Bulk Modulus (GPa) = 45.67539 48.85473 47.26506
# Shear Modulus (GPa) = 21.40982 28.14336 24.77659
#
# Velocity S-wave (km/s) = 3.18757 3.65461 3.42905
# Velocity P-wave (km/s) = 5.93497 6.40262 6.17322
#
# Compressibility (1/GPa) = 0.02189363
#
# Stress axis : x y z
#
# Youngs Moduli (GPa) = 77.31130 71.29363 55.05078
#
# Poissons Ratio (x) = -0.03173 0.41544
# Poissons Ratio (y) = -0.03441 0.24855
# Poissons Ratio (z) = 0.58343 0.32188
#
# Static dielectric constant tensor:
#      x y z
#    x 4.041420 0.000000 -0.017390 
#    y 0.000000 3.597180 0.000000 
#    z -0.017390 0.000000 3.823370 
# 
# 
# High freq. dielectric constant tensor:
#      x y z
#    x 1.841490 0.000000 -0.001410 
#    y 0.000000 1.821810 0.000000 
#    z -0.001410 0.000000 1.824870 
# 
# From -- ./inp_files/50249.got.cif
#   From: 2010.03.12/outbox.cif.g09.slc.cpg/sg14_26_cif.got.tgz:50249.got - 2010.03.31 13:35:05.
