data_PCOD8128313
_publ_section_title
;
Structure prediction by ZEFSAII (Michael W. Deem and Ramdas Pophale) SiO2 
 PCOD8128313
Probable space group: P 21/C
;
_chemical_formula_sum "Si O2"
_cell_formula_units_Z 20
_cell_length_a 7.664350
_cell_length_b 6.592590
_cell_length_c 18.721456
_cell_angle_alpha 90.000000
_cell_angle_beta 73.991006
_cell_angle_gamma 90.000000
_cell_volume 909.270499
_symmetry_space_group_name_H-M "P 21/C"
_symmetry_group_IT_number 14
_symmetry_cell_setting 'monoclinic'
loop_
_space_group_symop_operation_xyz
x,y,z
-x,1/2+y,1/2-z
-x,-y,-z
x,1/2-y,1/2+z
loop_
_atom_site_type_symbol
_atom_site_label
_atom_site_fract_x
_atom_site_fract_y
_atom_site_fract_z
Si Si1 0.729010 0.898796 0.907132
Si Si2 0.134719 0.937738 0.868175
Si Si3 0.287151 0.305341 0.235486
Si Si4 0.588769 0.805347 0.071968
Si Si5 0.668197 0.039496 0.666142
O O1 0.762954 0.733068 0.841120
O O2 0.924646 0.980483 0.909698
O O3 0.605367 0.085504 0.893050
O O4 0.626697 0.786191 0.983398
O O5 0.179673 0.700720 0.874455
O O6 0.176419 0.005320 0.781299
O O7 0.252958 0.064090 0.910210
O O8 0.501967 0.340758 0.221057
O O9 0.237691 0.107491 0.287454
O O10 0.589648 0.581993 0.106304
#
# Coordination Sequence:
#
# PCOD8128313 Si02
#       5
#     4   4   4   4   4
#     4  11  24  43  66  96 128 167 221 266 321 389
#     4  11  24  42  66  93 131 168 215 269 325 383
#     4  11  22  39  64  95 124 166 211 267 319 384
#     4  10  24  46  63  91 133 173 209 270 326 384
#     4  11  21  42  67  89 132 173 210 263 335 378
#
# _framework density 21.995656
#
# number of rings (size 3 to 8) (size 9 to 14) (size 15 to 20)
#    0.000    1.200    4.000    1.800    2.800    1.600 
#    3.600    0.000    0.000    0.000    0.000    0.000 
#    0.000    0.000    0.000    0.000    0.000    0.000 
#
# Total GULP energy -248076.452558 kJ/mol
# GULP energy per Si atom -12403.822628 kJ/mol
# Density = 2.194559 g / cm^3
# Si number density = 21.995656 Si / 1000 Ang^3
#
#
#
# Elastic Constant Matrix: (Units=GPa)
#
#
# Indices 1 2 3 4 5 6 
#
# 1 119.8486 26.9499 3.2472 0.0000 -14.1005 0.0000
# 2 26.9499 97.2529 26.9577 0.0000 9.9116 0.0000
# 3 3.2472 26.9577 89.5333 0.0000 10.8806 0.0000
# 4 0.0000 0.0000 0.0000 35.3033 0.0000 8.9978
# 5 -14.1005 9.9116 10.8806 0.0000 30.9436 0.0000
# 6 0.0000 0.0000 0.0000 8.9978 0.0000 12.3153
#
#
#
# Elastic Compliance Matrix: (Units=1/GPa)
#
#
# Indices 1 2 3 4 5 6 
#
# 1 0.009718 -0.003240 -0.000043 0.000000 0.005481 0.000000
# 2 -0.003240 0.012489 -0.003110 0.000000 -0.004383 0.000000
# 3 -0.000043 -0.003110 0.012524 0.000000 -0.003427 0.000000
# 4 0.000000 0.000000 0.000000 0.034808 0.000000 -0.025431
# 5 0.005481 -0.004383 -0.003427 0.000000 0.037424 0.000000
# 6 0.000000 0.000000 0.000000 -0.025431 0.000000 0.099780
#
#
# Mechanical properties :
#
#
# Convention : Reuss Voigt Hill
#
# Bulk Modulus (GPa) = 45.56884 46.77160 46.17022
# Shear Modulus (GPa) = 22.04162 32.34445 27.19303
#
# Velocity S-wave (km/s) = 3.16901 3.83886 3.51991
# Velocity P-wave (km/s) = 5.84400 6.39995 6.12828
#
# Compressibility (1/GPa) = 0.02194482
#
# Stress axis : x y z
#
# Youngs Moduli (GPa) = 102.89698 80.06998 79.84979
#
# Poissons Ratio (x) = 0.25941 0.00344
# Poissons Ratio (y) = 0.33336 0.24835
# Poissons Ratio (z) = 0.00444 0.24903
#
# Static dielectric constant tensor:
#      x y z
#    x 3.784320 0.000000 0.019250 
#    y 0.000000 3.913860 0.000000 
#    z 0.019250 0.000000 4.027630 
# 
# 
# High freq. dielectric constant tensor:
#      x y z
#    x 1.857770 0.000000 0.003410 
#    y 0.000000 1.855310 0.000000 
#    z 0.003410 0.000000 1.868550 
# 
# From -- ./inp_files/54010.got.cif
#   From: 2010.03.12/outbox.cif.g09.slc.cpg/sg14_28_cif.got.tgz:54010.got - 2010.03.31 13:35:05.
