data_PCOD8128504
_publ_section_title
;
Structure prediction by ZEFSAII (Michael W. Deem and Ramdas Pophale) SiO2 
 PCOD8128504
Probable space group: P 21/C
;
_chemical_formula_sum "Si O2"
_cell_formula_units_Z 32
_cell_length_a 29.840451
_cell_length_b 9.193669
_cell_length_c 11.852820
_cell_angle_alpha 90.000000
_cell_angle_beta 25.758138
_cell_angle_gamma 90.000000
_cell_volume 1413.119402
_symmetry_space_group_name_H-M "P 21/C"
_symmetry_group_IT_number 14
_symmetry_cell_setting 'monoclinic'
loop_
_space_group_symop_operation_xyz
x,y,z
-x,1/2+y,1/2-z
-x,-y,-z
x,1/2-y,1/2+z
loop_
_atom_site_type_symbol
_atom_site_label
_atom_site_fract_x
_atom_site_fract_y
_atom_site_fract_z
Si Si1 0.389255 0.775676 0.820099
Si Si2 0.789584 0.329515 0.651262
Si Si3 0.451236 0.202530 0.220091
Si Si4 0.897293 0.520647 0.585579
Si Si5 0.273387 0.529819 0.423274
Si Si6 0.861746 0.485858 0.920821
Si Si7 0.780124 0.702284 0.280887
Si Si8 0.483519 0.499600 0.838562
O O1 0.486117 0.700510 0.539131
O O2 0.301731 0.825785 0.929502
O O3 0.423397 0.921107 0.807417
O O4 0.331389 0.662549 0.034879
O O5 0.864086 0.392961 0.576859
O O6 0.800082 0.423733 0.513703
O O7 0.815011 0.162359 0.573244
O O8 0.330363 0.219056 0.471652
O O9 0.492578 0.328886 0.210834
O O10 0.476110 0.051234 0.225938
O O11 0.843086 0.498201 0.829459
O O12 0.866577 0.676491 0.604821
O O13 0.018922 0.509837 0.319393
O O14 0.211156 0.412990 0.637321
O O15 0.378901 0.456665 0.140549
O O16 0.803020 0.621587 0.111163
#
# Coordination Sequence:
#
# PCOD8128504 Si02
#       8
#     4   4   4   4   4   4   4   4
#     4  11  20  41  62  95 137 177 229 267 329 408
#     4  12  24  45  73 100 135 186 230 283 351 420
#     4  11  23  39  65  97 137 182 225 276 332 402
#     4  11  28  47  72 107 134 173 241 290 352 421
#     4  11  22  41  65  99 135 180 228 277 340 410
#     4  11  26  50  73 100 139 179 227 298 352 414
#     4  12  24  46  72 100 144 183 227 293 350 407
#     4  11  21  38  59  94 135 177 223 270 322 397
#
# _framework density 22.644936999999999
#
# number of rings (size 3 to 8) (size 9 to 14) (size 15 to 20)
#    0.000    0.750    3.750    4.500    3.500    1.000 
#    0.000    3.125    0.000    0.000    0.000    0.000 
#    0.000    0.000    0.000    0.000    0.000    0.000 
#
# Total GULP energy -397001.225964 kJ/mol
# GULP energy per Si atom -12406.288311 kJ/mol
# Density = 2.259340 g / cm^3
# Si number density = 22.644937 Si / 1000 Ang^3
#
#
#
# Elastic Constant Matrix: (Units=GPa)
#
#
# Indices 1 2 3 4 5 6 
#
# 1 107.3138 32.6537 20.8986 0.0000 9.3125 0.0000
# 2 32.6537 65.4392 13.8562 0.0000 11.4681 0.0000
# 3 20.8986 13.8562 78.0665 0.0000 9.0984 0.0000
# 4 0.0000 0.0000 0.0000 14.0063 0.0000 2.7120
# 5 9.3125 11.4681 9.0984 0.0000 30.6913 0.0000
# 6 0.0000 0.0000 0.0000 2.7120 0.0000 42.2898
#
#
#
# Elastic Compliance Matrix: (Units=1/GPa)
#
#
# Indices 1 2 3 4 5 6 
#
# 1 0.011335 -0.005061 -0.002026 0.000000 -0.000948 0.000000
# 2 -0.005061 0.019009 -0.001419 0.000000 -0.005147 0.000000
# 3 -0.002026 -0.001419 0.013952 0.000000 -0.002991 0.000000
# 4 0.000000 0.000000 0.000000 0.072294 0.000000 -0.004636
# 5 -0.000948 -0.005147 -0.002991 0.000000 0.035680 0.000000
# 6 0.000000 0.000000 0.000000 -0.004636 0.000000 0.023944
#
#
# Mechanical properties :
#
#
# Convention : Reuss Voigt Hill
#
# Bulk Modulus (GPa) = 36.65072 42.84850 39.74961
# Shear Modulus (GPa) = 24.71311 29.62488 27.16899
#
# Velocity S-wave (km/s) = 3.30711 3.62088 3.46755
# Velocity P-wave (km/s) = 5.55002 6.03688 5.79856
#
# Compressibility (1/GPa) = 0.02728459
#
# Stress axis : x y z
#
# Youngs Moduli (GPa) = 88.22047 52.60577 71.67224
#
# Poissons Ratio (x) = 0.26625 0.14519
# Poissons Ratio (y) = 0.44650 0.10172
# Poissons Ratio (z) = 0.17871 0.07466
#
# Static dielectric constant tensor:
#      x y z
#    x 4.175570 0.000000 0.191870 
#    y 0.000000 3.913530 0.000000 
#    z 0.191870 0.000000 4.089380 
# 
# 
# High freq. dielectric constant tensor:
#      x y z
#    x 1.902670 0.000000 0.008450 
#    y 0.000000 1.893590 0.000000 
#    z 0.008450 0.000000 1.888680 
# 
# From -- ./inp_files/36468.got.cif
#   From: 2010.03.12/outbox.cif.g09.slc.cpg/sg14_19_cif.got.tgz:36468.got - 2010.03.31 13:35:05.
