data_PCOD8128365
_publ_section_title
;
Structure prediction by ZEFSAII (Michael W. Deem and Ramdas Pophale) SiO2 
 PCOD8128365
Probable space group: P 21/C
;
_chemical_formula_sum "Si O2"
_cell_formula_units_Z 20
_cell_length_a 16.131089
_cell_length_b 5.944217
_cell_length_c 9.151151
_cell_angle_alpha 90.000000
_cell_angle_beta 93.385232
_cell_angle_gamma 90.000000
_cell_volume 875.942490
_symmetry_space_group_name_H-M "P 21/C"
_symmetry_group_IT_number 14
_symmetry_cell_setting 'monoclinic'
loop_
_space_group_symop_operation_xyz
x,y,z
-x,1/2+y,1/2-z
-x,-y,-z
x,1/2-y,1/2+z
loop_
_atom_site_type_symbol
_atom_site_label
_atom_site_fract_x
_atom_site_fract_y
_atom_site_fract_z
Si Si1 0.720194 0.933300 0.551279
Si Si2 0.106845 0.466763 0.858459
Si Si3 0.403593 0.022262 0.960056
Si Si4 0.325786 0.766778 0.705714
Si Si5 0.952907 0.192891 0.912508
O O1 0.810393 0.818115 0.592684
O O2 0.640037 0.769589 0.555992
O O3 0.722540 0.126927 0.676151
O O4 0.725061 0.044916 0.390549
O O5 0.116224 0.596889 0.705654
O O6 0.025148 0.317691 0.829398
O O7 0.096842 0.643625 0.987578
O O8 0.395574 0.901895 0.803046
O O9 0.500000 0.000000 0.000000
O O10 0.362028 0.902150 0.091794
O O11 0.000000 0.000000 0.000000
#
# Coordination Sequence:
#
# PCOD8128365 Si02
#       5
#     4   4   4   4   4
#     4  11  24  45  69 104 138 178 231 288 342 413
#     4  11  24  42  68  96 139 178 228 279 336 402
#     4  11  26  44  72  98 139 177 229 287 355 412
#     4  10  25  43  68 105 130 179 226 279 349 415
#     4  11  23  42  65 100 133 186 223 276 341 397
#
# _framework density 22.832550000000001
#
# number of rings (size 3 to 8) (size 9 to 14) (size 15 to 20)
#    0.000    1.200    2.000    2.400    5.600    8.000 
#    0.000    0.000    0.000    0.000    0.000    0.000 
#    0.000    0.000    0.000    0.000    0.000    0.000 
#
# Total GULP energy -247762.219542 kJ/mol
# GULP energy per Si atom -12388.110977 kJ/mol
# Density = 2.278058 g / cm^3
# Si number density = 22.832550 Si / 1000 Ang^3
#
#
#
# Elastic Constant Matrix: (Units=GPa)
#
#
# Indices 1 2 3 4 5 6 
#
# 1 97.3838 19.7424 39.9375 0.0000 40.5713 0.0000
# 2 19.7424 81.4957 31.2355 0.0000 15.8101 0.0000
# 3 39.9375 31.2355 142.8139 0.0000 22.3549 0.0000
# 4 0.0000 0.0000 0.0000 37.6580 0.0000 10.7937
# 5 40.5713 15.8101 22.3549 0.0000 35.6798 0.0000
# 6 0.0000 0.0000 0.0000 10.7937 0.0000 26.3319
#
#
#
# Elastic Compliance Matrix: (Units=1/GPa)
#
#
# Indices 1 2 3 4 5 6 
#
# 1 0.020158 0.000182 -0.002302 0.000000 -0.021560 0.000000
# 2 0.000182 0.014094 -0.002354 0.000000 -0.004977 0.000000
# 3 -0.002302 -0.002354 0.008413 0.000000 -0.001610 0.000000
# 4 0.000000 0.000000 0.000000 0.030090 0.000000 -0.012334
# 5 -0.021560 -0.004977 -0.001610 0.000000 0.055756 0.000000
# 6 0.000000 0.000000 0.000000 -0.012334 0.000000 0.043033
#
#
# Mechanical properties :
#
#
# Convention : Reuss Voigt Hill
#
# Bulk Modulus (GPa) = 29.66001 55.94711 42.80356
# Shear Modulus (GPa) = 26.07797 35.31914 30.69856
#
# Velocity S-wave (km/s) = 3.38322 3.93730 3.67073
# Velocity P-wave (km/s) = 5.31790 6.72504 6.06244
#
# Compressibility (1/GPa) = 0.03371543
#
# Stress axis : x y z
#
# Youngs Moduli (GPa) = 49.60836 70.94979 118.86562
#
# Poissons Ratio (x) = -0.01288 0.27364
# Poissons Ratio (y) = -0.00901 0.27986
# Poissons Ratio (z) = 0.11420 0.16705
#
# Static dielectric constant tensor:
#      x y z
#    x 3.885140 0.000000 0.084190 
#    y 0.000000 3.266660 0.000000 
#    z 0.084190 0.000000 4.542120 
# 
# 
# High freq. dielectric constant tensor:
#      x y z
#    x 1.891290 0.000000 0.014790 
#    y 0.000000 1.893560 0.000000 
#    z 0.014790 0.000000 1.933270 
# 
# From -- ./inp_files/17137.got.cif
#   From: 2010.03.12/outbox.cif.g09.slc.cpg/sg14_9_cif.got.tgz:17137.got - 2010.03.31 13:35:05.
