data_PCOD8128561
_publ_section_title
;
Structure prediction by ZEFSAII (Michael W. Deem and Ramdas Pophale) SiO2 
 PCOD8128561
Probable space group: P 21/C
;
_chemical_formula_sum "Si O2"
_cell_formula_units_Z 16
_cell_length_a 10.832905
_cell_length_b 10.981268
_cell_length_c 13.205616
_cell_angle_alpha 90.000000
_cell_angle_beta 145.569931
_cell_angle_gamma 90.000000
_cell_volume 888.202219
_symmetry_space_group_name_H-M "P 21/C"
_symmetry_group_IT_number 14
_symmetry_cell_setting 'monoclinic'
loop_
_space_group_symop_operation_xyz
x,y,z
-x,1/2+y,1/2-z
-x,-y,-z
x,1/2-y,1/2+z
loop_
_atom_site_type_symbol
_atom_site_label
_atom_site_fract_x
_atom_site_fract_y
_atom_site_fract_z
Si Si1 0.197664 0.952131 0.501884
Si Si2 0.950891 0.694585 0.001680
Si Si3 0.111416 0.918950 0.210034
Si Si4 0.690283 0.920943 0.814990
O O1 0.150477 0.920990 0.354674
O O2 0.451207 0.933449 0.700123
O O3 0.058105 0.859688 0.474160
O O4 0.131374 0.090362 0.478619
O O5 0.744587 0.778628 0.828414
O O6 0.126095 0.778731 0.180654
O O7 0.293716 0.000702 0.277465
O O8 0.869100 0.971509 0.017535
#
# Coordination Sequence:
#
# PCOD8128561 Si02
#       4
#     4   4   4   4
#     4  11  21  40  60  83 118 152 184 241 287 322
#     4   9  23  38  56  93 112 142 204 231 267 362
#     4   9  21  38  60  85 114 152 189 230 286 340
#     4   9  21  38  60  85 114 152 189 230 286 340
#
# _framework density 18.013915000000001
#
# number of rings (size 3 to 8) (size 9 to 14) (size 15 to 20)
#    1.500    1.000    0.000    0.750    7.000    0.000 
#    4.500    2.500    0.000    0.000    0.000    0.000 
#    0.000    0.000    0.000    0.000    0.000    0.000 
#
# Total GULP energy -198298.077461 kJ/mol
# GULP energy per Si atom -12393.629841 kJ/mol
# Density = 1.797291 g / cm^3
# Si number density = 18.013915 Si / 1000 Ang^3
#
#
#
# Elastic Constant Matrix: (Units=GPa)
#
#
# Indices 1 2 3 4 5 6 
#
# 1 46.6210 35.8190 5.9219 0.0000 -2.3303 0.0000
# 2 35.8190 131.9140 6.8335 0.0000 -8.1702 0.0000
# 3 5.9219 6.8335 42.7098 0.0000 -4.0077 0.0000
# 4 0.0000 0.0000 0.0000 9.2744 0.0000 -11.4546
# 5 -2.3303 -8.1702 -4.0077 0.0000 28.4034 0.0000
# 6 0.0000 0.0000 0.0000 -11.4546 0.0000 9.9552
#
#
#
# Elastic Compliance Matrix: (Units=1/GPa)
#
#
# Indices 1 2 3 4 5 6 
#
# 1 0.027395 -0.007316 -0.002650 0.000000 -0.000231 0.000000
# 2 -0.007316 0.009718 -0.000339 0.000000 0.002147 0.000000
# 3 -0.002650 -0.000339 0.024125 0.000000 0.003089 0.000000
# 4 0.000000 0.000000 0.000000 -0.256049 0.000000 -0.294615
# 5 -0.000231 0.002147 0.003089 0.000000 0.036242 0.000000
# 6 0.000000 0.000000 0.000000 -0.294615 0.000000 -0.238540
#
#
# Mechanical properties :
#
#
# Convention : Reuss Voigt Hill
#
# Bulk Modulus (GPa) = 24.61257 35.37707 29.99482
# Shear Modulus (GPa) = -13.77575 21.03796 3.63110
#
# Velocity S-wave (km/s) = -2.76837 3.42112 1.42130
# Velocity P-wave (km/s) = 1.86393 5.94027 4.40233
#
# Compressibility (1/GPa) = 0.04062965
#
# Stress axis : x y z
#
# Youngs Moduli (GPa) = 36.50256 102.90477 41.45027
#
# Poissons Ratio (x) = 0.75283 0.10983
# Poissons Ratio (y) = 0.26704 0.01405
# Poissons Ratio (z) = 0.09672 0.03488
#
# Static dielectric constant tensor:
#      x y z
#    x 3.164570 0.000000 0.078960 
#    y 0.000000 3.404850 0.000000 
#    z 0.078960 0.000000 3.048730 
# 
# 
# High freq. dielectric constant tensor:
#      x y z
#    x 1.695530 0.000000 0.000480 
#    y 0.000000 1.704830 0.000000 
#    z 0.000480 0.000000 1.678760 
# 
# From -- ./inp_files/22860.got.cif
#   From: 2010.03.12/outbox.cif.g09.slc.cpg/sg14_12_cif.got.tgz:22860.got - 2010.03.31 13:35:05.
