data_PCOD8128418
_publ_section_title
;
Structure prediction by ZEFSAII (Michael W. Deem and Ramdas Pophale) SiO2 
 PCOD8128418
Probable space group: P 21/C
;
_chemical_formula_sum "Si O2"
_cell_formula_units_Z 20
_cell_length_a 8.594009
_cell_length_b 4.879012
_cell_length_c 22.090073
_cell_angle_alpha 90.000000
_cell_angle_beta 121.609341
_cell_angle_gamma 90.000000
_cell_volume 788.826798
_symmetry_space_group_name_H-M "P 21/C"
_symmetry_group_IT_number 14
_symmetry_cell_setting 'monoclinic'
loop_
_space_group_symop_operation_xyz
x,y,z
-x,1/2+y,1/2-z
-x,-y,-z
x,1/2-y,1/2+z
loop_
_atom_site_type_symbol
_atom_site_label
_atom_site_fract_x
_atom_site_fract_y
_atom_site_fract_z
Si Si1 0.682506 0.504552 0.499632
Si Si2 0.846393 0.606368 0.420317
Si Si3 0.886395 0.487682 0.079200
Si Si4 0.114548 0.522059 0.784476
Si Si5 0.374081 0.880878 0.230395
O O1 0.500000 0.500000 0.500000
O O2 0.665484 0.624311 0.427089
O O3 0.745275 0.188931 0.510124
O O4 0.842904 0.689649 0.564116
O O5 0.789232 0.410818 0.352446
O O6 0.000000 0.500000 0.500000
O O7 0.911451 0.898596 0.404750
O O8 0.848517 0.387431 0.139379
O O9 0.293626 0.559303 0.780351
O O10 0.948409 0.707310 0.726278
O O11 0.547668 0.075008 0.254053
#
# Coordination Sequence:
#
# PCOD8128418 Si02
#       5
#     4   4   4   4   4
#     4  11  25  42  70 103 141 184 242 304 363 421
#     4  10  25  49  73 103 145 198 245 293 365 451
#     4  11  24  44  70 100 137 191 244 296 354 441
#     4  12  25  46  75 101 144 193 248 291 363 450
#     4  12  29  47  74 111 150 190 240 317 374 428
#
# _framework density 25.354111
#
# number of rings (size 3 to 8) (size 9 to 14) (size 15 to 20)
#    0.000    0.800    2.000    3.600    8.400    3.200 
#    0.000    0.000    0.000    0.000    0.000    0.000 
#    0.000    0.000    0.000    0.000    0.000    0.000 
#
# Total GULP energy -247772.175114 kJ/mol
# GULP energy per Si atom -12388.608756 kJ/mol
# Density = 2.529640 g / cm^3
# Si number density = 25.354111 Si / 1000 Ang^3
#
#
#
# Elastic Constant Matrix: (Units=GPa)
#
#
# Indices 1 2 3 4 5 6 
#
# 1 152.1514 -1.3169 40.8112 0.0000 -50.2277 0.0000
# 2 -1.3169 65.9239 9.3614 0.0000 -3.1684 0.0000
# 3 40.8112 9.3614 108.1073 0.0000 -22.8968 0.0000
# 4 0.0000 0.0000 0.0000 32.2426 0.0000 3.5029
# 5 -50.2277 -3.1684 -22.8968 0.0000 53.4923 0.0000
# 6 0.0000 0.0000 0.0000 3.5029 0.0000 48.4988
#
#
#
# Elastic Compliance Matrix: (Units=1/GPa)
#
#
# Indices 1 2 3 4 5 6 
#
# 1 0.009934 0.000895 -0.002024 0.000000 0.008514 0.000000
# 2 0.000895 0.015445 -0.001434 0.000000 0.001142 0.000000
# 3 -0.002024 -0.001434 0.010687 0.000000 0.002589 0.000000
# 4 0.000000 0.000000 0.000000 0.031260 0.000000 -0.002258
# 5 0.008514 0.001142 0.002589 0.000000 0.027864 0.000000
# 6 0.000000 0.000000 0.000000 -0.002258 0.000000 0.020782
#
#
# Mechanical properties :
#
#
# Convention : Reuss Voigt Hill
#
# Bulk Modulus (GPa) = 32.32045 47.09932 39.70988
# Shear Modulus (GPa) = 38.04846 45.33521 41.69183
#
# Velocity S-wave (km/s) = 3.87807 4.23316 4.05950
# Velocity P-wave (km/s) = 5.72956 6.51995 6.13749
#
# Compressibility (1/GPa) = 0.03094017
#
# Stress axis : x y z
#
# Youngs Moduli (GPa) = 100.66687 64.74449 93.57458
#
# Poissons Ratio (x) = -0.05795 0.18942
# Poissons Ratio (y) = -0.09011 0.13415
# Poissons Ratio (z) = 0.20378 0.09282
#
# Static dielectric constant tensor:
#      x y z
#    x 5.304450 0.000000 -0.585060 
#    y 0.000000 4.432650 0.000000 
#    z -0.585060 0.000000 4.628300 
# 
# 
# High freq. dielectric constant tensor:
#      x y z
#    x 2.030180 0.000000 -0.031250 
#    y 0.000000 2.012640 0.000000 
#    z -0.031250 0.000000 2.000510 
# 
# From -- ./inp_files/71553.got.cif
#   From: 2010.03.12/outbox.cif.g09.slc.cpg/sg14_36_cif.got.tgz:71553.got - 2010.03.31 13:35:05.
