data_PCOD8128739
_publ_section_title
;
Structure prediction by ZEFSAII (Michael W. Deem and Ramdas Pophale) SiO2 
 PCOD8128739
Probable space group: P 21/C
;
_chemical_formula_sum "Si O2"
_cell_formula_units_Z 24
_cell_length_a 8.678258
_cell_length_b 14.599065
_cell_length_c 9.704907
_cell_angle_alpha 90.000000
_cell_angle_beta 102.345164
_cell_angle_gamma 90.000000
_cell_volume 1201.127241
_symmetry_space_group_name_H-M "P 21/C"
_symmetry_group_IT_number 14
_symmetry_cell_setting 'monoclinic'
loop_
_space_group_symop_operation_xyz
x,y,z
-x,1/2+y,1/2-z
-x,-y,-z
x,1/2-y,1/2+z
loop_
_atom_site_type_symbol
_atom_site_label
_atom_site_fract_x
_atom_site_fract_y
_atom_site_fract_z
Si Si1 0.776480 0.358379 0.834216
Si Si2 0.855788 0.848278 0.627114
Si Si3 0.390013 0.828760 0.203048
Si Si4 0.696458 0.766106 0.858925
Si Si5 0.453098 0.595947 0.431157
Si Si6 0.670250 0.034871 0.574517
O O1 0.724346 0.255547 0.789002
O O2 0.678498 0.422529 0.710560
O O3 0.733668 0.389359 0.980045
O O4 0.959689 0.366254 0.841684
O O5 0.811105 0.798837 0.760039
O O6 0.803027 0.783197 0.492713
O O7 0.782688 0.948313 0.601911
O O8 0.569606 0.806390 0.278605
O O9 0.333575 0.917444 0.276786
O O10 0.377889 0.844114 0.038133
O O11 0.608038 0.854876 0.901150
O O12 0.500000 0.500000 0.500000
O O13 0.500000 0.000000 0.500000
#
# Coordination Sequence:
#
# PCOD8128739 Si02
#       6
#     4   4   4   4   4   4
#     4  11  26  42  67  98 137 173 217 279 342 391
#     4  12  26  43  67 101 137 172 225 282 343 397
#     4  11  22  43  67  97 128 179 224 270 326 401
#     4  11  23  43  68  95 131 180 222 269 333 399
#     4  11  23  43  66  97 129 174 227 271 323 400
#     4  12  23  45  71  99 130 179 229 274 328 408
#
# _framework density 19.981231000000001
#
# number of rings (size 3 to 8) (size 9 to 14) (size 15 to 20)
#    0.000    0.667    3.333    6.500    4.667    0.000 
#    3.000    1.667    0.000    0.000    0.000    0.000 
#    0.000    0.000    0.000    0.000    0.000    0.000 
#
# Total GULP energy -297721.187183 kJ/mol
# GULP energy per Si atom -12405.049466 kJ/mol
# Density = 1.993575 g / cm^3
# Si number density = 19.981231 Si / 1000 Ang^3
#
#
#
# Elastic Constant Matrix: (Units=GPa)
#
#
# Indices 1 2 3 4 5 6 
#
# 1 132.3144 43.5124 30.9997 0.0000 -4.7117 0.0000
# 2 43.5124 87.5556 28.1931 0.0000 2.1240 0.0000
# 3 30.9997 28.1931 97.3579 0.0000 -21.6261 0.0000
# 4 0.0000 0.0000 0.0000 41.4031 0.0000 -0.7252
# 5 -4.7117 2.1240 -21.6261 0.0000 29.4677 0.0000
# 6 0.0000 0.0000 0.0000 -0.7252 0.0000 21.5784
#
#
#
# Elastic Compliance Matrix: (Units=1/GPa)
#
#
# Indices 1 2 3 4 5 6 
#
# 1 0.009317 -0.004114 -0.001647 0.000000 0.000578 0.000000
# 2 -0.004114 0.014882 -0.004043 0.000000 -0.004698 0.000000
# 3 -0.001647 -0.004043 0.014305 0.000000 0.010526 0.000000
# 4 0.000000 0.000000 0.000000 0.024167 0.000000 0.000812
# 5 0.000578 -0.004698 0.010526 0.000000 0.042092 0.000000
# 6 0.000000 0.000000 0.000000 0.000812 0.000000 0.046370
#
#
# Mechanical properties :
#
#
# Convention : Reuss Voigt Hill
#
# Bulk Modulus (GPa) = 52.92262 58.07093 55.49678
# Shear Modulus (GPa) = 28.24244 32.79135 30.51689
#
# Velocity S-wave (km/s) = 3.76366 4.05545 3.91228
# Velocity P-wave (km/s) = 6.74022 7.14526 6.94569
#
# Compressibility (1/GPa) = 0.01889551
#
# Stress axis : x y z
#
# Youngs Moduli (GPa) = 107.32941 67.19688 69.90665
#
# Poissons Ratio (x) = 0.27645 0.11514
# Poissons Ratio (y) = 0.44155 0.28263
# Poissons Ratio (z) = 0.17678 0.27168
#
# Static dielectric constant tensor:
#      x y z
#    x 3.574850 0.000000 0.070890 
#    y 0.000000 3.539170 0.000000 
#    z 0.070890 0.000000 4.662530 
# 
# 
# High freq. dielectric constant tensor:
#      x y z
#    x 1.774430 0.000000 -0.009040 
#    y 0.000000 1.791920 0.000000 
#    z -0.009040 0.000000 1.798020 
# 
# From -- ./inp_files/8406.got.cif
#   From: 2010.03.12/outbox.cif.g09.slc.cpg/sg14_5_cif.got.tgz:8406.got - 2010.03.31 13:35:05.
