data_PCOD8128823
_publ_section_title
;
Structure prediction by ZEFSAII (Michael W. Deem and Ramdas Pophale) SiO2 
 PCOD8128823
Probable space group: P 21/C
;
_chemical_formula_sum "Si O2"
_cell_formula_units_Z 32
_cell_length_a 31.078701
_cell_length_b 5.239109
_cell_length_c 9.017305
_cell_angle_alpha 90.000000
_cell_angle_beta 70.833399
_cell_angle_gamma 90.000000
_cell_volume 1386.852394
_symmetry_space_group_name_H-M "P 21/C"
_symmetry_group_IT_number 14
_symmetry_cell_setting 'monoclinic'
loop_
_space_group_symop_operation_xyz
x,y,z
-x,1/2+y,1/2-z
-x,-y,-z
x,1/2-y,1/2+z
loop_
_atom_site_type_symbol
_atom_site_label
_atom_site_fract_x
_atom_site_fract_y
_atom_site_fract_z
Si Si1 0.484327 0.450949 0.850228
Si Si2 0.878194 0.549045 0.821406
Si Si3 0.744125 0.466448 0.620589
Si Si4 0.292681 0.287833 0.591477
Si Si5 0.016410 0.033736 0.813530
Si Si6 0.663365 0.189206 0.773033
Si Si7 0.153346 0.557611 0.476349
Si Si8 0.381027 0.458614 0.935081
O O1 0.488536 0.713712 0.752195
O O2 0.431753 0.363242 0.909504
O O3 0.500000 0.500000 0.000000
O O4 0.931061 0.613127 0.744577
O O5 0.857799 0.493387 0.682551
O O6 0.874593 0.297330 0.928674
O O7 0.854801 0.797596 0.921781
O O8 0.727985 0.542702 0.803130
O O9 0.744955 0.686297 0.495200
O O10 0.698993 0.312952 0.613528
O O11 0.794197 0.347497 0.571457
O O12 0.296802 0.514019 0.703288
O O13 0.344923 0.271088 0.474178
O O14 0.010160 0.768248 0.732698
O O15 0.000000 0.000000 0.000000
O O16 0.621964 0.068504 0.727441
O O17 0.635113 0.354105 0.918919
#
# Coordination Sequence:
#
# PCOD8128823 Si02
#       8
#     4   4   4   4   4   4   4   4
#     4  12  29  49  76 106 143 187 235 286 360 440
#     4  12  26  48  69 109 139 194 236 288 365 419
#     4  11  25  41  66  97 131 181 226 275 336 399
#     4  11  23  40  64  96 128 167 229 274 331 396
#     4  12  25  45  76 105 141 183 239 306 354 419
#     4  11  23  40  65  97 127 170 223 277 331 397
#     4  12  28  45  74  98 155 187 236 290 346 437
#     4  11  25  42  70  94 135 171 222 289 339 399
#
# _framework density 23.073830000000001
#
# number of rings (size 3 to 8) (size 9 to 14) (size 15 to 20)
#    0.000    0.500    2.500    5.250    7.000    0.000 
#    0.000    0.000    0.000    0.000    0.000    0.000 
#    0.000    0.000    0.000    0.000    0.000    0.000 
#
# Total GULP energy -396452.291523 kJ/mol
# GULP energy per Si atom -12389.134110 kJ/mol
# Density = 2.302131 g / cm^3
# Si number density = 23.073830 Si / 1000 Ang^3
#
#
#
# Elastic Constant Matrix: (Units=GPa)
#
#
# Indices 1 2 3 4 5 6 
#
# 1 84.5896 -1.5096 26.1240 0.0000 -7.1537 0.0000
# 2 -1.5096 91.6461 22.5954 0.0000 2.1293 0.0000
# 3 26.1240 22.5954 103.5262 0.0000 12.2454 0.0000
# 4 0.0000 0.0000 0.0000 28.4913 0.0000 -0.6037
# 5 -7.1537 2.1293 12.2454 0.0000 43.1954 0.0000
# 6 0.0000 0.0000 0.0000 -0.6037 0.0000 33.9320
#
#
#
# Elastic Compliance Matrix: (Units=1/GPa)
#
#
# Indices 1 2 3 4 5 6 
#
# 1 0.013358 0.001132 -0.004007 0.000000 0.003292 0.000000
# 2 0.001132 0.011629 -0.002874 0.000000 0.000429 0.000000
# 3 -0.004007 -0.002874 0.011754 0.000000 -0.003854 0.000000
# 4 0.000000 0.000000 0.000000 0.035112 0.000000 0.000625
# 5 0.003292 0.000429 -0.003854 0.000000 0.024767 0.000000
# 6 0.000000 0.000000 0.000000 0.000625 0.000000 0.029482
#
#
# Mechanical properties :
#
#
# Convention : Reuss Voigt Hill
#
# Bulk Modulus (GPa) = 39.61875 41.57571 40.59723
# Shear Modulus (GPa) = 34.24306 36.62722 35.43514
#
# Velocity S-wave (km/s) = 3.85654 3.98853 3.92309
# Velocity P-wave (km/s) = 6.08590 6.26649 6.17685
#
# Compressibility (1/GPa) = 0.02524057
#
# Stress axis : x y z
#
# Youngs Moduli (GPa) = 74.86174 85.99282 85.07904
#
# Poissons Ratio (x) = -0.09730 0.34093
# Poissons Ratio (y) = -0.08471 0.24455
# Poissons Ratio (z) = 0.29998 0.24717
#
# Static dielectric constant tensor:
#      x y z
#    x 4.204980 0.000000 0.029820 
#    y 0.000000 4.255370 0.000000 
#    z 0.029820 0.000000 4.336270 
# 
# 
# High freq. dielectric constant tensor:
#      x y z
#    x 1.920950 0.000000 0.007450 
#    y 0.000000 1.912760 0.000000 
#    z 0.007450 0.000000 1.933620 
# 
# From -- ./inp_files/19889.got.cif
#   From: 2010.03.12/outbox.cif.g09.slc.cpg/sg14_10_cif.got.tgz:19889.got - 2010.03.31 13:35:05.
