data_PCOD8128652
_publ_section_title
;
Structure prediction by ZEFSAII (Michael W. Deem and Ramdas Pophale) SiO2 
 PCOD8128652
Probable space group: P 21/C
;
_chemical_formula_sum "Si O2"
_cell_formula_units_Z 32
_cell_length_a 14.217084
_cell_length_b 19.483721
_cell_length_c 8.787897
_cell_angle_alpha 90.000000
_cell_angle_beta 41.120300
_cell_angle_gamma 90.000000
_cell_volume 1600.873659
_symmetry_space_group_name_H-M "P 21/C"
_symmetry_group_IT_number 14
_symmetry_cell_setting 'monoclinic'
loop_
_space_group_symop_operation_xyz
x,y,z
-x,1/2+y,1/2-z
-x,-y,-z
x,1/2-y,1/2+z
loop_
_atom_site_type_symbol
_atom_site_label
_atom_site_fract_x
_atom_site_fract_y
_atom_site_fract_z
Si Si1 0.830846 0.681281 0.064005
Si Si2 0.611871 0.920273 0.231847
Si Si3 0.613254 0.079894 0.227783
Si Si4 0.110319 0.665287 0.573826
Si Si5 0.868327 0.830497 0.878933
Si Si6 0.859821 0.304579 0.800794
Si Si7 0.521226 0.820349 0.837039
Si Si8 0.449930 0.684162 0.753721
O O1 0.842647 0.760295 0.001318
O O2 0.959935 0.638062 0.827856
O O3 0.840934 0.675273 0.233198
O O4 0.680217 0.653657 0.185463
O O5 0.503670 0.904623 0.500964
O O6 0.552923 0.880568 0.156039
O O7 0.625893 0.999801 0.177442
O O8 0.768577 0.889065 0.075934
O O9 0.771275 0.105837 0.079771
O O10 0.560212 0.117113 0.141517
O O11 0.165722 0.726270 0.614675
O O12 0.077612 0.694512 0.445877
O O13 0.034885 0.847194 0.714368
O O14 0.702722 0.337357 0.991323
O O15 0.524066 0.751624 0.733583
O O16 0.433272 0.801668 0.095605
#
# Coordination Sequence:
#
# PCOD8128652 Si02
#       8
#     4   4   4   4   4   4   4   4
#     4  11  22  37  63  98 124 159 208 263 317 373
#     4  11  24  46  62  91 130 170 218 260 321 377
#     4  11  26  42  66  89 132 173 209 268 316 382
#     4  11  22  39  60  97 127 161 209 259 326 374
#     4  11  23  39  63  94 129 162 206 266 319 376
#     4  11  22  36  64  95 124 158 205 269 312 371
#     4  12  23  38  68  97 124 164 208 270 316 370
#     4  12  22  39  67  97 125 159 218 262 319 373
#
# _framework density 19.989084999999999
#
# number of rings (size 3 to 8) (size 9 to 14) (size 15 to 20)
#    0.000    0.750    5.000    4.500    5.250    0.500 
#    0.000    2.500    0.000    0.000    0.000    0.000 
#    0.000    0.000    0.000    0.000    0.000    0.000 
#
# Total GULP energy -396798.585334 kJ/mol
# GULP energy per Si atom -12399.955792 kJ/mol
# Density = 1.994359 g / cm^3
# Si number density = 19.989085 Si / 1000 Ang^3
#
#
#
# Elastic Constant Matrix: (Units=GPa)
#
#
# Indices 1 2 3 4 5 6 
#
# 1 107.9990 41.3011 43.2794 0.0000 -4.3298 0.0000
# 2 41.3011 98.4052 40.6996 0.0000 -0.6438 0.0000
# 3 43.2794 40.6996 120.8469 0.0000 -4.4755 0.0000
# 4 0.0000 0.0000 0.0000 26.2673 0.0000 -3.5989
# 5 -4.3298 -0.6438 -4.4755 0.0000 50.3461 0.0000
# 6 0.0000 0.0000 0.0000 -3.5989 0.0000 23.9598
#
#
#
# Elastic Compliance Matrix: (Units=1/GPa)
#
#
# Indices 1 2 3 4 5 6 
#
# 1 0.011921 -0.003769 -0.002974 0.000000 0.000713 0.000000
# 2 -0.003769 0.013000 -0.003044 0.000000 -0.000429 0.000000
# 3 -0.002974 -0.003044 0.010389 0.000000 0.000629 0.000000
# 4 0.000000 0.000000 0.000000 0.038870 0.000000 0.005839
# 5 0.000713 -0.000429 0.000629 0.000000 0.019974 0.000000
# 6 0.000000 0.000000 0.000000 0.005839 0.000000 0.042614
#
#
# Mechanical properties :
#
#
# Convention : Reuss Voigt Hill
#
# Bulk Modulus (GPa) = 63.54872 64.20125 63.87499
# Shear Modulus (GPa) = 30.94324 33.57936 32.26130
#
# Velocity S-wave (km/s) = 3.93874 4.10309 4.02175
# Velocity P-wave (km/s) = 7.24884 7.39155 7.32054
#
# Compressibility (1/GPa) = 0.01573596
#
# Stress axis : x y z
#
# Youngs Moduli (GPa) = 83.88717 76.92218 96.26025
#
# Poissons Ratio (x) = 0.28989 0.28624
# Poissons Ratio (y) = 0.31614 0.29306
# Poissons Ratio (z) = 0.24945 0.23419
#
# Static dielectric constant tensor:
#      x y z
#    x 3.942960 0.000000 -0.254230 
#    y 0.000000 3.260600 0.000000 
#    z -0.254230 0.000000 4.024400 
# 
# 
# High freq. dielectric constant tensor:
#      x y z
#    x 1.797090 0.000000 -0.007010 
#    y 0.000000 1.734030 0.000000 
#    z -0.007010 0.000000 1.800880 
# 
# From -- ./inp_files/16790.got.cif
#   From: 2010.03.12/outbox.cif.g09.slc.cpg/sg14_9_cif.got.tgz:16790.got - 2010.03.31 13:35:05.
