data_PCOD8128722
_publ_section_title
;
Structure prediction by ZEFSAII (Michael W. Deem and Ramdas Pophale) SiO2 
 PCOD8128722
Probable space group: P 21/C
;
_chemical_formula_sum "Si O2"
_cell_formula_units_Z 28
_cell_length_a 9.176236
_cell_length_b 10.368065
_cell_length_c 14.217200
_cell_angle_alpha 90.000000
_cell_angle_beta 108.685778
_cell_angle_gamma 90.000000
_cell_volume 1281.324806
_symmetry_space_group_name_H-M "P 21/C"
_symmetry_group_IT_number 14
_symmetry_cell_setting 'monoclinic'
loop_
_space_group_symop_operation_xyz
x,y,z
-x,1/2+y,1/2-z
-x,-y,-z
x,1/2-y,1/2+z
loop_
_atom_site_type_symbol
_atom_site_label
_atom_site_fract_x
_atom_site_fract_y
_atom_site_fract_z
Si Si1 0.964467 0.706476 0.442955
Si Si2 0.662673 0.595251 0.452906
Si Si3 0.219153 0.421102 0.195028
Si Si4 0.389632 0.706281 0.900511
Si Si5 0.564235 0.383864 0.287811
Si Si6 0.184904 0.562507 0.367477
Si Si7 0.736296 0.341250 0.927519
O O1 0.834304 0.653289 0.484721
O O2 0.888960 0.804348 0.354366
O O3 0.036704 0.584751 0.402325
O O4 0.095965 0.778025 0.529062
O O5 0.547830 0.713733 0.442366
O O6 0.624649 0.512491 0.351705
O O7 0.670785 0.502852 0.546064
O O8 0.382418 0.369518 0.264858
O O9 0.132335 0.485000 0.265305
O O10 0.245067 0.519526 0.114769
O O11 0.400664 0.604473 0.816965
O O12 0.249552 0.800814 0.846097
O O13 0.349046 0.635742 0.990116
O O14 0.635054 0.252862 0.342733
#
# Coordination Sequence:
#
# PCOD8128722 Si02
#       7
#     4   4   4   4   4   4   4
#     4  11  26  43  67 102 138 179 226 276 347 398
#     4  12  22  44  69 102 135 176 232 281 331 406
#     4  12  25  45  69 102 139 178 226 286 332 408
#     4  11  22  42  68 101 133 178 224 271 343 400
#     4  12  22  41  75  97 136 173 232 278 335 398
#     4  11  23  41  70  95 135 180 224 275 337 400
#     4  11  25  45  69  96 143 178 218 287 340 397
#
# _framework density 21.852384000000001
#
# number of rings (size 3 to 8) (size 9 to 14) (size 15 to 20)
#    0.000    0.571    7.143    2.143    0.000    4.000 
#    0.000    0.000    0.000    0.000    0.000    0.000 
#    0.000    0.000    0.000    0.000    0.000    0.000 
#
# Total GULP energy -347285.901598 kJ/mol
# GULP energy per Si atom -12403.067914 kJ/mol
# Density = 2.180265 g / cm^3
# Si number density = 21.852384 Si / 1000 Ang^3
#
#
#
# Elastic Constant Matrix: (Units=GPa)
#
#
# Indices 1 2 3 4 5 6 
#
# 1 65.1840 0.2951 23.3622 0.0000 7.0884 0.0000
# 2 0.2951 48.6410 38.7466 0.0000 8.7955 0.0000
# 3 23.3622 38.7466 112.4443 0.0000 -8.0673 0.0000
# 4 0.0000 0.0000 0.0000 28.1391 0.0000 -0.6103
# 5 7.0884 8.7955 -8.0673 0.0000 33.3452 0.0000
# 6 0.0000 0.0000 0.0000 -0.6103 0.0000 32.6592
#
#
#
# Elastic Compliance Matrix: (Units=1/GPa)
#
#
# Indices 1 2 3 4 5 6 
#
# 1 0.018446 0.006416 -0.006560 0.000000 -0.007200 0.000000
# 2 0.006416 0.034282 -0.014138 0.000000 -0.013827 0.000000
# 3 -0.006560 -0.014138 0.015769 0.000000 0.008939 0.000000
# 4 0.000000 0.000000 0.000000 0.035552 0.000000 0.000664
# 5 -0.007200 -0.013827 0.008939 0.000000 0.037330 0.000000
# 6 0.000000 0.000000 0.000000 0.000664 0.000000 0.030632
#
#
# Mechanical properties :
#
#
# Convention : Reuss Voigt Hill
#
# Bulk Modulus (GPa) = 25.04192 39.00858 32.02525
# Shear Modulus (GPa) = 23.37682 29.75304 26.56493
#
# Velocity S-wave (km/s) = 3.27427 3.69392 3.49040
# Velocity P-wave (km/s) = 5.07729 6.00692 5.56156
#
# Compressibility (1/GPa) = 0.03993303
#
# Stress axis : x y z
#
# Youngs Moduli (GPa) = 54.21167 29.16959 63.41440
#
# Poissons Ratio (x) = -0.18714 0.41599
# Poissons Ratio (y) = -0.34780 0.89656
# Poissons Ratio (z) = 0.35562 0.41240
#
# Static dielectric constant tensor:
#      x y z
#    x 4.124340 0.000000 -0.029140 
#    y 0.000000 3.822520 0.000000 
#    z -0.029140 0.000000 4.018520 
# 
# 
# High freq. dielectric constant tensor:
#      x y z
#    x 1.868550 0.000000 -0.000320 
#    y 0.000000 1.850780 0.000000 
#    z -0.000320 0.000000 1.863150 
# 
# From -- ./inp_files/40420.got.cif
#   From: 2010.03.12/outbox.cif.g09.slc.cpg/sg14_21_cif.got.tgz:40420.got - 2010.03.31 13:35:05.
