data_PCOD8128332
_publ_section_title
;
Structure prediction by ZEFSAII (Michael W. Deem and Ramdas Pophale) SiO2 
 PCOD8128332
Probable space group: P 21/C
;
_chemical_formula_sum "Si O2"
_cell_formula_units_Z 16
_cell_length_a 5.516208
_cell_length_b 4.847595
_cell_length_c 21.889583
_cell_angle_alpha 90.000000
_cell_angle_beta 93.076800
_cell_angle_gamma 90.000000
_cell_volume 584.491174
_symmetry_space_group_name_H-M "P 21/C"
_symmetry_group_IT_number 14
_symmetry_cell_setting 'monoclinic'
loop_
_space_group_symop_operation_xyz
x,y,z
-x,1/2+y,1/2-z
-x,-y,-z
x,1/2-y,1/2+z
loop_
_atom_site_type_symbol
_atom_site_label
_atom_site_fract_x
_atom_site_fract_y
_atom_site_fract_z
Si Si1 0.703376 0.710020 0.442358
Si Si2 0.336492 0.765760 0.246102
Si Si3 0.974768 0.460492 0.654316
Si Si4 0.620478 0.702749 0.073542
O O1 0.613156 0.395663 0.440734
O O2 0.775212 0.801218 0.512180
O O3 0.941869 0.726766 0.402377
O O4 0.483607 0.899185 0.412918
O O5 0.445310 0.467374 0.230672
O O6 0.138600 0.743887 0.297179
O O7 0.210299 0.884018 0.183875
O O8 0.780587 0.692588 0.632185
#
# Coordination Sequence:
#
# PCOD8128332 Si02
#       4
#     4   4   4   4
#     4  10  24  46  74 110 146 184 239 302 363 435
#     4  12  30  50  70 108 150 192 252 306 354 428
#     4  12  27  48  78 104 145 202 242 296 372 436
#     4  10  24  46  74 110 146 184 239 302 363 435
#
# _framework density 27.374234999999999
#
# number of rings (size 3 to 8) (size 9 to 14) (size 15 to 20)
#    0.000    1.000    0.000    3.750    0.000   22.000 
#    0.000    7.500    0.000    4.500    0.000    0.000 
#    0.000    0.000    0.000    0.000    0.000    0.000 
#
# Total GULP energy -198583.667628 kJ/mol
# GULP energy per Si atom -12411.479227 kJ/mol
# Density = 2.731193 g / cm^3
# Si number density = 27.374235 Si / 1000 Ang^3
#
#
#
# Elastic Constant Matrix: (Units=GPa)
#
#
# Indices 1 2 3 4 5 6 
#
# 1 78.0651 13.3795 24.4649 0.0000 -16.7806 0.0000
# 2 13.3795 96.9014 21.3393 0.0000 -15.1231 0.0000
# 3 24.4649 21.3393 97.1034 0.0000 -16.1396 0.0000
# 4 0.0000 0.0000 0.0000 29.5561 0.0000 -1.8736
# 5 -16.7806 -15.1231 -16.1396 0.0000 55.1940 0.0000
# 6 0.0000 0.0000 0.0000 -1.8736 0.0000 32.1789
#
#
#
# Elastic Compliance Matrix: (Units=1/GPa)
#
#
# Indices 1 2 3 4 5 6 
#
# 1 0.014594 -0.000846 -0.002935 0.000000 0.003347 0.000000
# 2 -0.000846 0.011202 -0.001872 0.000000 0.002265 0.000000
# 3 -0.002935 -0.001872 0.011788 0.000000 0.002042 0.000000
# 4 0.000000 0.000000 0.000000 0.033959 0.000000 0.001977
# 5 0.003347 0.002265 0.002042 0.000000 0.020353 0.000000
# 6 0.000000 0.000000 0.000000 0.001977 0.000000 0.031191
#
#
# Mechanical properties :
#
#
# Convention : Reuss Voigt Hill
#
# Bulk Modulus (GPa) = 38.05399 43.38194 40.71797
# Shear Modulus (GPa) = 34.92730 37.57822 36.25276
#
# Velocity S-wave (km/s) = 3.57588 3.70910 3.64309
# Velocity P-wave (km/s) = 5.56604 5.85024 5.70991
#
# Compressibility (1/GPa) = 0.02627845
#
# Stress axis : x y z
#
# Youngs Moduli (GPa) = 68.52117 89.26692 84.82859
#
# Poissons Ratio (x) = 0.07556 0.24894
# Poissons Ratio (y) = 0.05800 0.15881
# Poissons Ratio (z) = 0.20108 0.16712
#
# Static dielectric constant tensor:
#      x y z
#    x 4.704250 0.000000 -0.266890 
#    y 0.000000 4.828900 0.000000 
#    z -0.266890 0.000000 5.045430 
# 
# 
# High freq. dielectric constant tensor:
#      x y z
#    x 2.096960 0.000000 -0.013560 
#    y 0.000000 2.104190 0.000000 
#    z -0.013560 0.000000 2.111580 
# 
# From -- ./inp_files/62831.got.cif
#   From: 2010.03.12/outbox.cif.g09.slc.cpg/sg14_32_cif.got.tgz:62831.got - 2010.03.31 13:35:05.
