data_PCOD8128390
_publ_section_title
;
Structure prediction by ZEFSAII (Michael W. Deem and Ramdas Pophale) SiO2 
 PCOD8128390
Probable space group: P 21/C
;
_chemical_formula_sum "Si O2"
_cell_formula_units_Z 20
_cell_length_a 14.882888
_cell_length_b 9.662950
_cell_length_c 10.113386
_cell_angle_alpha 90.000000
_cell_angle_beta 37.751414
_cell_angle_gamma 90.000000
_cell_volume 890.457005
_symmetry_space_group_name_H-M "P 21/C"
_symmetry_group_IT_number 14
_symmetry_cell_setting 'monoclinic'
loop_
_space_group_symop_operation_xyz
x,y,z
-x,1/2+y,1/2-z
-x,-y,-z
x,1/2-y,1/2+z
loop_
_atom_site_type_symbol
_atom_site_label
_atom_site_fract_x
_atom_site_fract_y
_atom_site_fract_z
Si Si1 0.209794 0.600958 0.703739
Si Si2 0.619659 0.129803 0.492210
Si Si3 0.959080 0.747345 0.871330
Si Si4 0.290579 0.448088 0.349238
Si Si5 0.176596 0.523122 0.028890
O O1 0.341938 0.709791 0.539145
O O2 0.219628 0.498547 0.568233
O O3 0.051376 0.679078 0.884851
O O4 0.227453 0.513698 0.817093
O O5 0.445256 0.123596 0.697203
O O6 0.682979 0.040512 0.540227
O O7 0.689471 0.074853 0.274457
O O8 0.902803 0.621882 0.842331
O O9 0.069674 0.845691 0.663430
O O10 0.820266 0.835484 0.085582
#
# Coordination Sequence:
#
# PCOD8128390 Si02
#       5
#     4   4   4   4   4
#     4  11  24  46  67 102 136 174 231 287 328 404
#     4  10  25  45  68  96 137 186 220 280 337 408
#     4  11  24  42  70 102 133 177 221 283 336 402
#     4  11  25  45  68  99 138 178 230 271 347 402
#     4  11  25  43  71 101 136 176 227 282 339 395
#
# _framework density 22.460377000000001
#
# number of rings (size 3 to 8) (size 9 to 14) (size 15 to 20)
#    0.000    1.200    2.000    3.000    5.600    2.400 
#    3.600    0.000    0.000    0.000    0.000    0.000 
#    0.000    0.000    0.000    0.000    0.000    0.000 
#
# Total GULP energy -248045.340014 kJ/mol
# GULP energy per Si atom -12402.267001 kJ/mol
# Density = 2.240926 g / cm^3
# Si number density = 22.460377 Si / 1000 Ang^3
#
#
#
# Elastic Constant Matrix: (Units=GPa)
#
#
# Indices 1 2 3 4 5 6 
#
# 1 101.6046 3.1444 52.1938 0.0000 -5.9197 0.0000
# 2 3.1444 66.4919 13.9038 0.0000 -11.6289 0.0000
# 3 52.1938 13.9038 88.4728 0.0000 -11.9201 0.0000
# 4 0.0000 0.0000 0.0000 19.5145 0.0000 -6.7046
# 5 -5.9197 -11.6289 -11.9201 0.0000 42.3887 0.0000
# 6 0.0000 0.0000 0.0000 -6.7046 0.0000 35.0203
#
#
#
# Elastic Compliance Matrix: (Units=1/GPa)
#
#
# Indices 1 2 3 4 5 6 
#
# 1 0.014202 0.001098 -0.008568 0.000000 -0.000125 0.000000
# 2 0.001098 0.016221 -0.002678 0.000000 0.003850 0.000000
# 3 -0.008568 -0.002678 0.017169 0.000000 0.002897 0.000000
# 4 0.000000 0.000000 0.000000 0.054852 0.000000 0.010501
# 5 -0.000125 0.003850 0.002897 0.000000 0.025445 0.000000
# 6 0.000000 0.000000 0.000000 0.010501 0.000000 0.030565
#
#
# Mechanical properties :
#
#
# Convention : Reuss Voigt Hill
#
# Bulk Modulus (GPa) = 36.63576 43.89482 40.26529
# Shear Modulus (GPa) = 26.61728 31.87318 29.24523
#
# Velocity S-wave (km/s) = 3.44623 3.77116 3.61235
# Velocity P-wave (km/s) = 5.67292 6.20869 5.94684
#
# Compressibility (1/GPa) = 0.02729574
#
# Stress axis : x y z
#
# Youngs Moduli (GPa) = 70.41239 61.64884 58.24591
#
# Poissons Ratio (x) = -0.06770 0.49904
# Poissons Ratio (y) = -0.07732 0.15600
# Poissons Ratio (z) = 0.60328 0.16511
#
# Static dielectric constant tensor:
#      x y z
#    x 4.175320 0.000000 -0.230640 
#    y 0.000000 4.147150 0.000000 
#    z -0.230640 0.000000 3.752270 
# 
# 
# High freq. dielectric constant tensor:
#      x y z
#    x 1.893060 0.000000 -0.015800 
#    y 0.000000 1.891900 0.000000 
#    z -0.015800 0.000000 1.870010 
# 
# From -- ./inp_files/7955.got.cif
#   From: 2010.03.12/outbox.cif.g09.slc.cpg/sg14_4_cif.got.tgz:7955.got - 2010.03.31 13:35:05.
