data_PCOD8128956
_publ_section_title
;
Structure prediction by ZEFSAII (Michael W. Deem and Ramdas Pophale) SiO2 
 PCOD8128956
Probable space group: P 21/C
;
_chemical_formula_sum "Si O2"
_cell_formula_units_Z 24
_cell_length_a 9.070988
_cell_length_b 13.919631
_cell_length_c 9.744764
_cell_angle_alpha 90.000000
_cell_angle_beta 104.757611
_cell_angle_gamma 90.000000
_cell_volume 1189.831750
_symmetry_space_group_name_H-M "P 21/C"
_symmetry_group_IT_number 14
_symmetry_cell_setting 'monoclinic'
loop_
_space_group_symop_operation_xyz
x,y,z
-x,1/2+y,1/2-z
-x,-y,-z
x,1/2-y,1/2+z
loop_
_atom_site_type_symbol
_atom_site_label
_atom_site_fract_x
_atom_site_fract_y
_atom_site_fract_z
Si Si1 0.114326 0.049524 0.631364
Si Si2 0.423205 0.580329 0.572035
Si Si3 0.645550 0.755662 0.036358
Si Si4 0.446728 0.062355 0.613019
Si Si5 0.083087 0.560461 0.404728
Si Si6 0.850578 0.773520 0.840874
O O1 0.284410 0.023609 0.625536
O O2 0.090449 0.164335 0.628352
O O3 0.089257 0.007686 0.775215
O O4 0.000000 0.000000 0.500000
O O5 0.500000 0.500000 0.500000
O O6 0.516824 0.676851 0.567572
O O7 0.432583 0.552959 0.734789
O O8 0.248608 0.594409 0.492171
O O9 0.742818 0.713428 0.184259
O O10 0.560876 0.672236 0.934348
O O11 0.758755 0.808370 0.955209
O O12 0.500000 0.000000 0.500000
O O13 0.000000 0.500000 0.500000
O O14 0.994278 0.658355 0.350961
#
# Coordination Sequence:
#
# PCOD8128956 Si02
#       6
#     4   4   4   4   4   4
#     4  11  24  46  67 100 138 178 229 286 342 411
#     4  12  24  46  69 100 138 175 232 286 339 407
#     4  11  23  46  69  96 138 178 226 284 343 408
#     4  11  26  44  70 100 133 182 226 284 345 409
#     4  12  26  42  73 101 136 183 225 283 347 412
#     4  11  23  45  68  97 139 181 224 284 350 406
#
# _framework density 20.170919000000001
#
# number of rings (size 3 to 8) (size 9 to 14) (size 15 to 20)
#    0.000    0.667    5.000    4.000    7.000    1.333 
#    6.000    0.000    0.000    0.000    0.000    0.000 
#    0.000    0.000    0.000    0.000    0.000    0.000 
#
# Total GULP energy -297721.404170 kJ/mol
# GULP energy per Si atom -12405.058507 kJ/mol
# Density = 2.012501 g / cm^3
# Si number density = 20.170919 Si / 1000 Ang^3
#
#
#
# Elastic Constant Matrix: (Units=GPa)
#
#
# Indices 1 2 3 4 5 6 
#
# 1 136.8171 55.9016 65.6138 0.0000 3.9433 0.0000
# 2 55.9016 91.6914 45.7300 0.0000 -0.8917 0.0000
# 3 65.6138 45.7300 170.2702 0.0000 -0.1329 0.0000
# 4 0.0000 0.0000 0.0000 37.9636 0.0000 -3.6374
# 5 3.9433 -0.8917 -0.1329 0.0000 48.6499 0.0000
# 6 0.0000 0.0000 0.0000 -3.6374 0.0000 41.4313
#
#
#
# Elastic Compliance Matrix: (Units=1/GPa)
#
#
# Indices 1 2 3 4 5 6 
#
# 1 0.010790 -0.005212 -0.002759 0.000000 -0.000978 0.000000
# 2 -0.005212 0.015113 -0.002050 0.000000 0.000694 0.000000
# 3 -0.002759 -0.002050 0.007487 0.000000 0.000206 0.000000
# 4 0.000000 0.000000 0.000000 0.026564 0.000000 0.002332
# 5 -0.000978 0.000694 0.000206 0.000000 0.020648 0.000000
# 6 0.000000 0.000000 0.000000 0.002332 0.000000 0.024341
#
#
# Mechanical properties :
#
#
# Convention : Reuss Voigt Hill
#
# Bulk Modulus (GPa) = 74.91661 81.47440 78.19550
# Shear Modulus (GPa) = 38.63001 41.04451 39.83726
#
# Velocity S-wave (km/s) = 4.38097 4.51581 4.44890
# Velocity P-wave (km/s) = 7.92541 8.22616 8.07718
#
# Compressibility (1/GPa) = 0.01334818
#
# Stress axis : x y z
#
# Youngs Moduli (GPa) = 92.68076 66.16929 133.56693
#
# Poissons Ratio (x) = 0.34486 0.36849
# Poissons Ratio (y) = 0.48303 0.27381
# Poissons Ratio (z) = 0.25569 0.13565
#
# Static dielectric constant tensor:
#      x y z
#    x 4.050430 0.000000 0.109560 
#    y 0.000000 3.476460 0.000000 
#    z 0.109560 0.000000 4.580940 
# 
# 
# High freq. dielectric constant tensor:
#      x y z
#    x 1.790060 0.000000 -0.003560 
#    y 0.000000 1.791640 0.000000 
#    z -0.003560 0.000000 1.815450 
# 
# From -- ./inp_files/8609.got.cif
#   From: 2010.03.12/outbox.cif.g09.slc.cpg/sg14_5_cif.got.tgz:8609.got - 2010.03.31 13:35:05.
