data_PCOD8128539
_publ_section_title
;
Structure prediction by ZEFSAII (Michael W. Deem and Ramdas Pophale) SiO2 
 PCOD8128539
Probable space group: P 21/C
;
_chemical_formula_sum "Si O2"
_cell_formula_units_Z 32
_cell_length_a 11.325135
_cell_length_b 9.555556
_cell_length_c 19.095282
_cell_angle_alpha 90.000000
_cell_angle_beta 51.328953
_cell_angle_gamma 90.000000
_cell_volume 1613.375055
_symmetry_space_group_name_H-M "P 21/C"
_symmetry_group_IT_number 14
_symmetry_cell_setting 'monoclinic'
loop_
_space_group_symop_operation_xyz
x,y,z
-x,1/2+y,1/2-z
-x,-y,-z
x,1/2-y,1/2+z
loop_
_atom_site_type_symbol
_atom_site_label
_atom_site_fract_x
_atom_site_fract_y
_atom_site_fract_z
Si Si1 0.132532 0.764866 0.910846
Si Si2 0.364788 0.118603 0.504352
Si Si3 0.939412 0.718018 0.848871
Si Si4 0.678785 0.105917 0.370373
Si Si5 0.660633 0.496726 0.131233
Si Si6 0.682954 0.004969 0.215804
Si Si7 0.991539 0.101780 0.301874
Si Si8 0.136364 0.267567 0.882929
O O1 0.228539 0.627136 0.889542
O O2 0.246938 0.897132 0.871654
O O3 0.066392 0.758040 0.857201
O O4 0.998218 0.782591 0.016447
O O5 0.221458 0.220184 0.551028
O O6 0.526084 0.200666 0.436318
O O7 0.360690 0.045119 0.581524
O O8 0.358846 0.000693 0.445287
O O9 0.978036 0.566167 0.800947
O O10 0.916622 0.834654 0.797214
O O11 0.715413 0.085418 0.275809
O O12 0.823291 0.171179 0.356539
O O13 0.496698 0.480201 0.229498
O O14 0.738794 0.641671 0.123733
O O15 0.775181 0.861618 0.182909
O O16 0.063570 0.140250 0.348657
#
# Coordination Sequence:
#
# PCOD8128539 Si02
#       8
#     4   4   4   4   4   4   4   4
#     4  12  22  40  61  89 122 158 203 248 299 357
#     4   9  18  34  59  85 111 149 199 243 284 349
#     4  11  21  38  61  89 118 154 199 244 297 353
#     4   9  18  35  57  84 113 152 197 237 289 351
#     4  11  22  40  63  88 117 161 206 250 294 360
#     4  11  24  40  59  89 127 160 194 251 314 354
#     4  11  22  37  62  87 120 152 198 246 293 358
#     4  12  23  39  62  93 120 158 204 251 299 355
#
# _framework density 19.834198000000001
#
# number of rings (size 3 to 8) (size 9 to 14) (size 15 to 20)
#    0.000    1.250    3.750    4.500    0.000    0.000 
#    0.000    1.250    0.000    0.750    0.000    0.000 
#    0.000    0.000    0.000    0.000    0.000    0.000 
#
# Total GULP energy -396614.312135 kJ/mol
# GULP energy per Si atom -12394.197254 kJ/mol
# Density = 1.978905 g / cm^3
# Si number density = 19.834198 Si / 1000 Ang^3
#
#
#
# Elastic Constant Matrix: (Units=GPa)
#
#
# Indices 1 2 3 4 5 6 
#
# 1 80.1035 -1.0314 36.3691 0.0000 -14.4198 0.0000
# 2 -1.0314 32.3417 24.4018 0.0000 -15.1595 0.0000
# 3 36.3691 24.4018 107.4072 0.0000 -25.9203 0.0000
# 4 0.0000 0.0000 0.0000 25.2366 0.0000 -5.6380
# 5 -14.4198 -15.1595 -25.9203 0.0000 43.4067 0.0000
# 6 0.0000 0.0000 0.0000 -5.6380 0.0000 21.9086
#
#
#
# Elastic Compliance Matrix: (Units=1/GPa)
#
#
# Indices 1 2 3 4 5 6 
#
# 1 0.016063 0.007021 -0.006023 0.000000 0.004192 0.000000
# 2 0.007021 0.043911 -0.009452 0.000000 0.012024 0.000000
# 3 -0.006023 -0.009452 0.014275 0.000000 0.003222 0.000000
# 4 0.000000 0.000000 0.000000 0.042042 0.000000 0.010819
# 5 0.004192 0.012024 0.003222 0.000000 0.030554 0.000000
# 6 0.000000 0.000000 0.000000 0.010819 0.000000 0.048428
#
#
# Mechanical properties :
#
#
# Convention : Reuss Voigt Hill
#
# Bulk Modulus (GPa) = 17.43905 37.70350 27.57127
# Shear Modulus (GPa) = 21.61745 28.78460 25.20102
#
# Velocity S-wave (km/s) = 3.30496 3.81367 3.56839
# Velocity P-wave (km/s) = 4.83479 6.20022 5.55958
#
# Compressibility (1/GPa) = 0.05734257
#
# Stress axis : x y z
#
# Youngs Moduli (GPa) = 62.25354 22.77322 70.05376
#
# Poissons Ratio (x) = -0.15990 0.42192
# Poissons Ratio (y) = -0.43710 0.66215
# Poissons Ratio (z) = 0.37494 0.21525
#
# Static dielectric constant tensor:
#      x y z
#    x 3.915870 0.000000 -0.293960 
#    y 0.000000 3.280710 0.000000 
#    z -0.293960 0.000000 3.857480 
# 
# 
# High freq. dielectric constant tensor:
#      x y z
#    x 1.792270 0.000000 -0.012380 
#    y 0.000000 1.732670 0.000000 
#    z -0.012380 0.000000 1.787680 
# 
# From -- ./inp_files/67041.got.cif
#   From: 2010.03.12/outbox.cif.g09.slc.cpg/sg14_34_cif.got.tgz:67041.got - 2010.03.31 13:35:05.
