data_PCOD8128621
_publ_section_title
;
Structure prediction by ZEFSAII (Michael W. Deem and Ramdas Pophale) SiO2 
 PCOD8128621
Probable space group: P 21/C
;
_chemical_formula_sum "Si O2"
_cell_formula_units_Z 24
_cell_length_a 7.963718
_cell_length_b 9.212209
_cell_length_c 27.441620
_cell_angle_alpha 90.000000
_cell_angle_beta 34.653121
_cell_angle_gamma 90.000000
_cell_volume 1144.725465
_symmetry_space_group_name_H-M "P 21/C"
_symmetry_group_IT_number 14
_symmetry_cell_setting 'monoclinic'
loop_
_space_group_symop_operation_xyz
x,y,z
-x,1/2+y,1/2-z
-x,-y,-z
x,1/2-y,1/2+z
loop_
_atom_site_type_symbol
_atom_site_label
_atom_site_fract_x
_atom_site_fract_y
_atom_site_fract_z
Si Si1 0.537981 0.252908 0.604999
Si Si2 0.668993 0.846635 0.166388
Si Si3 0.192354 0.272398 0.969552
Si Si4 0.727742 0.005954 0.988698
Si Si5 0.383845 0.511183 0.082055
Si Si6 0.731786 0.878063 0.734860
O O1 0.591931 0.406201 0.566112
O O2 0.347758 0.147610 0.615234
O O3 0.357910 0.285027 0.696716
O O4 0.854714 0.179940 0.540882
O O5 0.651291 0.788530 0.115863
O O6 0.629081 0.712627 0.212452
O O7 0.412515 0.963892 0.234933
O O8 0.982519 0.919850 0.102208
O O9 0.373204 0.410093 0.943440
O O10 0.190132 0.153202 0.012670
O O11 0.500000 0.000000 0.000000
O O12 0.082236 0.600735 0.153546
O O13 0.500000 0.500000 0.000000
#
# Coordination Sequence:
#
# PCOD8128621 Si02
#       6
#     4   4   4   4   4   4
#     4  11  24  45  70 100 136 178 231 285 340 411
#     4  11  25  44  66 100 135 180 229 283 347 414
#     4  11  22  47  70  96 136 185 229 276 351 416
#     4  11  21  43  73  96 132 181 230 273 343 412
#     4  12  28  44  69 105 141 180 232 284 353 412
#     4  12  27  44  68 105 138 180 234 289 347 406
#
# _framework density 20.965724000000002
#
# number of rings (size 3 to 8) (size 9 to 14) (size 15 to 20)
#    0.000    0.667    3.333    5.500    7.000    2.667 
#    0.000    0.000    0.000    0.000    0.000    0.000 
#    0.000    0.000    0.000    0.000    0.000    0.000 
#
# Total GULP energy -297757.227767 kJ/mol
# GULP energy per Si atom -12406.551157 kJ/mol
# Density = 2.091800 g / cm^3
# Si number density = 20.965724 Si / 1000 Ang^3
#
#
#
# Elastic Constant Matrix: (Units=GPa)
#
#
# Indices 1 2 3 4 5 6 
#
# 1 116.7218 27.4602 46.4223 0.0000 -0.5588 0.0000
# 2 27.4602 79.6340 33.8364 0.0000 -1.2158 0.0000
# 3 46.4223 33.8364 117.7327 0.0000 11.5531 0.0000
# 4 0.0000 0.0000 0.0000 24.8130 0.0000 -5.0615
# 5 -0.5588 -1.2158 11.5531 0.0000 19.5099 0.0000
# 6 0.0000 0.0000 0.0000 -5.0615 0.0000 40.8860
#
#
#
# Elastic Compliance Matrix: (Units=1/GPa)
#
#
# Indices 1 2 3 4 5 6 
#
# 1 0.010572 -0.001976 -0.003842 0.000000 0.002454 0.000000
# 2 -0.001976 0.014906 -0.003812 0.000000 0.003130 0.000000
# 3 -0.003842 -0.003812 0.011825 0.000000 -0.007350 0.000000
# 4 0.000000 0.000000 0.000000 0.041346 0.000000 0.005118
# 5 0.002454 0.003130 -0.007350 0.000000 0.055874 0.000000
# 6 0.000000 0.000000 0.000000 0.005118 0.000000 0.025092
#
#
# Mechanical properties :
#
#
# Convention : Reuss Voigt Hill
#
# Bulk Modulus (GPa) = 55.41794 58.83624 57.12709
# Shear Modulus (GPa) = 27.04333 30.79975 28.92154
#
# Velocity S-wave (km/s) = 3.59539 3.83698 3.71815
# Velocity P-wave (km/s) = 6.61255 6.91042 6.76312
#
# Compressibility (1/GPa) = 0.01804470
#
# Stress axis : x y z
#
# Youngs Moduli (GPa) = 94.59141 67.08567 84.56357
#
# Poissons Ratio (x) = 0.13254 0.32485
# Poissons Ratio (y) = 0.18689 0.32237
# Poissons Ratio (z) = 0.36337 0.25574
#
# Static dielectric constant tensor:
#      x y z
#    x 4.268180 0.000000 -0.006890 
#    y 0.000000 3.854540 0.000000 
#    z -0.006890 0.000000 3.779890 
# 
# 
# High freq. dielectric constant tensor:
#      x y z
#    x 1.833870 0.000000 0.003820 
#    y 0.000000 1.832000 0.000000 
#    z 0.003820 0.000000 1.823080 
# 
# From -- ./inp_files/79447.got.cif
#   From: 2010.03.12/outbox.cif.g09.slc.cpg/sg14_40_cif.got.tgz:79447.got - 2010.03.31 13:35:05.
