data_PCOD8128835
_publ_section_title
;
Structure prediction by ZEFSAII (Michael W. Deem and Ramdas Pophale) SiO2 
 PCOD8128835
Probable space group: P 21/C
;
_chemical_formula_sum "Si O2"
_cell_formula_units_Z 28
_cell_length_a 13.925664
_cell_length_b 13.302593
_cell_length_c 10.021016
_cell_angle_alpha 90.000000
_cell_angle_beta 43.944617
_cell_angle_gamma 90.000000
_cell_volume 1288.249886
_symmetry_space_group_name_H-M "P 21/C"
_symmetry_group_IT_number 14
_symmetry_cell_setting 'monoclinic'
loop_
_space_group_symop_operation_xyz
x,y,z
-x,1/2+y,1/2-z
-x,-y,-z
x,1/2-y,1/2+z
loop_
_atom_site_type_symbol
_atom_site_label
_atom_site_fract_x
_atom_site_fract_y
_atom_site_fract_z
Si Si1 0.634399 0.158468 0.264483
Si Si2 0.899078 0.495404 0.804699
Si Si3 0.325931 0.130900 0.615730
Si Si4 0.200348 0.468144 0.473882
Si Si5 0.248408 0.707947 0.064783
Si Si6 0.016954 0.321549 0.117986
Si Si7 0.840185 0.693676 0.297920
O O1 0.481679 0.110004 0.413214
O O2 0.668510 0.181621 0.384029
O O3 0.646695 0.256525 0.157240
O O4 0.738380 0.078818 0.095865
O O5 0.782017 0.553562 0.841257
O O6 0.834938 0.388161 0.910069
O O7 0.945655 0.562727 0.885069
O O8 0.040964 0.474431 0.579205
O O9 0.296378 0.247060 0.612339
O O10 0.300521 0.110073 0.796572
O O11 0.196871 0.421772 0.627922
O O12 0.144754 0.799189 0.202031
O O13 0.100736 0.246497 0.129320
O O14 0.049336 0.301215 0.931268
#
# Coordination Sequence:
#
# PCOD8128835 Si02
#       7
#     4   4   4   4   4   4   4
#     4  12  29  43  70 101 145 190 230 287 356 427
#     4  11  24  42  73 101 140 175 237 293 351 405
#     4  11  25  45  70  99 140 187 235 276 358 425
#     4  12  23  43  70 107 130 185 233 292 344 419
#     4  12  25  45  69 102 146 181 238 288 351 421
#     4  11  23  42  68 106 134 181 227 301 349 403
#     4  11  23  40  73  98 139 173 239 287 348 410
#
# _framework density 21.734912999999999
#
# number of rings (size 3 to 8) (size 9 to 14) (size 15 to 20)
#    0.000    0.571    5.714    1.714    4.000    1.714 
#    0.000    0.000    0.000    4.286    0.000    0.000 
#    0.000    0.000    0.000    0.000    0.000    0.000 
#
# Total GULP energy -347036.829934 kJ/mol
# GULP energy per Si atom -12394.172498 kJ/mol
# Density = 2.168544 g / cm^3
# Si number density = 21.734913 Si / 1000 Ang^3
#
#
#
# Elastic Constant Matrix: (Units=GPa)
#
#
# Indices 1 2 3 4 5 6 
#
# 1 57.5320 48.8123 43.7904 0.0000 -13.0987 0.0000
# 2 48.8123 112.6365 60.6226 0.0000 0.4197 0.0000
# 3 43.7904 60.6226 128.7640 0.0000 -15.4909 0.0000
# 4 0.0000 0.0000 0.0000 40.7797 0.0000 3.9050
# 5 -13.0987 0.4197 -15.4909 0.0000 39.2913 0.0000
# 6 0.0000 0.0000 0.0000 3.9050 0.0000 33.5382
#
#
#
# Elastic Compliance Matrix: (Units=1/GPa)
#
#
# Indices 1 2 3 4 5 6 
#
# 1 0.033078 -0.011951 -0.004494 0.000000 0.009383 0.000000
# 2 -0.011951 0.016438 -0.004383 0.000000 -0.005888 0.000000
# 3 -0.004494 -0.004383 0.011740 0.000000 0.003177 0.000000
# 4 0.000000 0.000000 0.000000 0.024798 0.000000 -0.002887
# 5 0.009383 -0.005888 0.003177 0.000000 0.029895 0.000000
# 6 0.000000 0.000000 0.000000 -0.002887 0.000000 0.030153
#
#
# Mechanical properties :
#
#
# Convention : Reuss Voigt Hill
#
# Bulk Modulus (GPa) = 51.01902 67.26481 59.14191
# Shear Modulus (GPa) = 25.73432 32.43563 29.08498
#
# Velocity S-wave (km/s) = 3.44468 3.86726 3.66207
# Velocity P-wave (km/s) = 6.27258 7.13834 6.71942
#
# Compressibility (1/GPa) = 0.01960054
#
# Stress axis : x y z
#
# Youngs Moduli (GPa) = 30.23130 60.83338 85.17667
#
# Poissons Ratio (x) = 0.72703 0.38277
# Poissons Ratio (y) = 0.36130 0.37335
# Poissons Ratio (z) = 0.13585 0.26664
#
# Static dielectric constant tensor:
#      x y z
#    x 3.779780 0.000000 0.001410 
#    y 0.000000 4.179840 0.000000 
#    z 0.001410 0.000000 3.897010 
# 
# 
# High freq. dielectric constant tensor:
#      x y z
#    x 1.834610 0.000000 -0.002650 
#    y 0.000000 1.865290 0.000000 
#    z -0.002650 0.000000 1.854460 
# 
# From -- ./inp_files/16408.got.cif
#   From: 2010.03.12/outbox.cif.g09.slc.cpg/sg14_9_cif.got.tgz:16408.got - 2010.03.31 13:35:05.
