data_PCOD8128276
_publ_section_title
;
Structure prediction by ZEFSAII (Michael W. Deem and Ramdas Pophale) SiO2 
 PCOD8128276
Probable space group: P 21/C
;
_chemical_formula_sum "Si O2"
_cell_formula_units_Z 16
_cell_length_a 5.175793
_cell_length_b 7.931574
_cell_length_c 19.061333
_cell_angle_alpha 90.000000
_cell_angle_beta 132.020057
_cell_angle_gamma 90.000000
_cell_volume 581.334463
_symmetry_space_group_name_H-M "P 21/C"
_symmetry_group_IT_number 14
_symmetry_cell_setting 'monoclinic'
loop_
_space_group_symop_operation_xyz
x,y,z
-x,1/2+y,1/2-z
-x,-y,-z
x,1/2-y,1/2+z
loop_
_atom_site_type_symbol
_atom_site_label
_atom_site_fract_x
_atom_site_fract_y
_atom_site_fract_z
Si Si1 0.384356 0.380194 0.789135
Si Si2 0.297231 0.087229 0.870646
Si Si3 0.995980 0.795155 0.040602
Si Si4 0.565604 0.258401 0.672660
O O1 0.165273 0.246366 0.798577
O O2 0.377952 0.337826 0.705653
O O3 0.260410 0.577336 0.773722
O O4 0.785280 0.362560 0.887637
O O5 0.208140 0.110948 0.934795
O O6 0.721322 0.072734 0.941447
O O7 0.175813 0.900330 0.818594
O O8 0.730875 0.714061 0.937501
#
# Coordination Sequence:
#
# PCOD8128276 Si02
#       4
#     4   4   4   4
#     4  10  24  44  69 105 133 184 228 280 346 405
#     4  10  24  47  66 101 135 176 231 277 344 401
#     4  10  24  48  68 101 136 180 228 282 341 404
#     4  12  21  47  71 100 141 180 226 287 337 414
#
# _framework density 27.522881999999999
#
# number of rings (size 3 to 8) (size 9 to 14) (size 15 to 20)
#    1.500    0.000    2.500    2.250    0.000    1.000 
#   18.000    0.000    0.000    0.000    0.000    0.000 
#    0.000    0.000    0.000    0.000    0.000    0.000 
#
# Total GULP energy -198513.649669 kJ/mol
# GULP energy per Si atom -12407.103104 kJ/mol
# Density = 2.746024 g / cm^3
# Si number density = 27.522882 Si / 1000 Ang^3
#
#
#
# Elastic Constant Matrix: (Units=GPa)
#
#
# Indices 1 2 3 4 5 6 
#
# 1 201.1397 102.3214 79.0703 0.0000 -24.9228 0.0000
# 2 102.3214 191.6322 86.8545 0.0000 6.8963 0.0000
# 3 79.0703 86.8545 180.9475 0.0000 -19.5540 0.0000
# 4 0.0000 0.0000 0.0000 42.1573 0.0000 3.0813
# 5 -24.9228 6.8963 -19.5540 0.0000 52.3086 0.0000
# 6 0.0000 0.0000 0.0000 3.0813 0.0000 51.7837
#
#
#
# Elastic Compliance Matrix: (Units=1/GPa)
#
#
# Indices 1 2 3 4 5 6 
#
# 1 0.007832 -0.003773 -0.001203 0.000000 0.003779 0.000000
# 2 -0.003773 0.008730 -0.002981 0.000000 -0.004063 0.000000
# 3 -0.001203 -0.002981 0.007778 0.000000 0.002727 0.000000
# 4 0.000000 0.000000 0.000000 0.023824 0.000000 -0.001418
# 5 0.003779 -0.004063 0.002727 0.000000 0.022473 0.000000
# 6 0.000000 0.000000 0.000000 -0.001418 0.000000 0.019395
#
#
# Mechanical properties :
#
#
# Convention : Reuss Voigt Hill
#
# Bulk Modulus (GPa) = 118.67366 123.35688 121.01527
# Shear Modulus (GPa) = 45.97505 49.61481 47.79493
#
# Velocity S-wave (km/s) = 4.09152 4.25040 4.17172
# Velocity P-wave (km/s) = 8.09522 8.30692 8.20175
#
# Compressibility (1/GPa) = 0.00842647
#
# Stress axis : x y z
#
# Youngs Moduli (GPa) = 127.67991 114.54877 128.57172
#
# Poissons Ratio (x) = 0.43214 0.15470
# Poissons Ratio (y) = 0.48168 0.38325
# Poissons Ratio (z) = 0.15363 0.34145
#
# Static dielectric constant tensor:
#      x y z
#    x 4.956780 0.000000 0.463720 
#    y 0.000000 5.053560 0.000000 
#    z 0.463720 0.000000 5.214480 
# 
# 
# High freq. dielectric constant tensor:
#      x y z
#    x 2.138480 0.000000 0.045560 
#    y 0.000000 2.131550 0.000000 
#    z 0.045560 0.000000 2.170740 
# 
# From -- ./inp_files/52589.got.cif
#   From: 2010.03.12/outbox.cif.g09.slc.cpg/sg14_27_cif.got.tgz:52589.got - 2010.03.31 13:35:05.
