data_PCOD8128266
_publ_section_title
;
Structure prediction by ZEFSAII (Michael W. Deem and Ramdas Pophale) SiO2 
 PCOD8128266
Probable space group: P 21/C
;
_chemical_formula_sum "Si O2"
_cell_formula_units_Z 12
_cell_length_a 11.346667
_cell_length_b 11.677526
_cell_length_c 8.764966
_cell_angle_alpha 90.000000
_cell_angle_beta 24.776684
_cell_angle_gamma 90.000000
_cell_volume 486.708639
_symmetry_space_group_name_H-M "P 21/C"
_symmetry_group_IT_number 14
_symmetry_cell_setting 'monoclinic'
loop_
_space_group_symop_operation_xyz
x,y,z
-x,1/2+y,1/2-z
-x,-y,-z
x,1/2-y,1/2+z
loop_
_atom_site_type_symbol
_atom_site_label
_atom_site_fract_x
_atom_site_fract_y
_atom_site_fract_z
Si Si1 0.488439 0.548562 0.845565
Si Si2 0.042023 0.686960 0.212113
Si Si3 0.184658 0.607125 0.735823
O O1 0.532616 0.444778 0.671920
O O2 0.726312 0.646644 0.547688
O O3 0.500000 0.500000 0.000000
O O4 0.186382 0.604351 0.167843
O O5 0.031257 0.815904 0.287575
O O6 0.233236 0.682046 0.832291
O O7 0.000000 0.500000 0.000000
#
# Coordination Sequence:
#
# PCOD8128266 Si02
#       3
#     4   4   4
#     4  11  24  42  67  97 129 170 220 271 328 389
#     4  11  24  42  65  94 130 173 215 270 327 386
#     4  10  24  44  67  97 133 173 220 271 326 391
#
# _framework density 24.655408000000001
#
# number of rings (size 3 to 8) (size 9 to 14) (size 15 to 20)
#    0.000    1.333    0.000    4.000    0.000   18.667 
#    0.000    0.000    0.000    0.000    0.000    0.000 
#    0.000    0.000    0.000    0.000    0.000    0.000 
#
# Total GULP energy -148783.242168 kJ/mol
# GULP energy per Si atom -12398.603514 kJ/mol
# Density = 2.459929 g / cm^3
# Si number density = 24.655408 Si / 1000 Ang^3
#
#
#
# Elastic Constant Matrix: (Units=GPa)
#
#
# Indices 1 2 3 4 5 6 
#
# 1 104.4342 42.8673 16.9863 0.0000 23.8584 0.0000
# 2 42.8673 133.2930 21.6591 0.0000 22.5690 0.0000
# 3 16.9863 21.6591 47.0574 0.0000 17.2751 0.0000
# 4 0.0000 0.0000 0.0000 31.7749 0.0000 14.9901
# 5 23.8584 22.5690 17.2751 0.0000 53.0864 0.0000
# 6 0.0000 0.0000 0.0000 14.9901 0.0000 63.0570
#
#
#
# Elastic Compliance Matrix: (Units=1/GPa)
#
#
# Indices 1 2 3 4 5 6 
#
# 1 0.011861 -0.002950 -0.001621 0.000000 -0.003549 0.000000
# 2 -0.002950 0.009155 -0.002506 0.000000 -0.001751 0.000000
# 3 -0.001621 -0.002506 0.025360 0.000000 -0.006459 0.000000
# 4 0.000000 0.000000 0.000000 0.035447 0.000000 -0.008426
# 5 -0.003549 -0.001751 -0.006459 0.000000 0.023278 0.000000
# 6 0.000000 0.000000 0.000000 -0.008426 0.000000 0.017862
#
#
# Mechanical properties :
#
#
# Convention : Reuss Voigt Hill
#
# Bulk Modulus (GPa) = 31.03488 49.75666 40.39577
# Shear Modulus (GPa) = 33.81653 43.13511 38.47582
#
# Velocity S-wave (km/s) = 3.70748 4.18726 3.95466
# Velocity P-wave (km/s) = 5.56256 6.60320 6.10509
#
# Compressibility (1/GPa) = 0.03222181
#
# Stress axis : x y z
#
# Youngs Moduli (GPa) = 84.31174 109.23375 39.43187
#
# Poissons Ratio (x) = 0.32226 0.06391
# Poissons Ratio (y) = 0.24874 0.09882
# Poissons Ratio (z) = 0.13664 0.27374
#
# Static dielectric constant tensor:
#      x y z
#    x 4.798290 0.000000 0.638930 
#    y 0.000000 4.684960 0.000000 
#    z 0.638930 0.000000 4.617110 
# 
# 
# High freq. dielectric constant tensor:
#      x y z
#    x 1.986750 0.000000 0.026940 
#    y 0.000000 1.988820 0.000000 
#    z 0.026940 0.000000 1.965360 
# 
# From -- ./inp_files/4680.got.cif
#   From: 2010.03.12/outbox.cif.g09.slc.cpg/sg14_3_cif.got.tgz:4680.got - 2010.03.31 13:35:05.
