data_PCOD8128070
_publ_section_title
;
Structure prediction by ZEFSAII (Michael W. Deem and Ramdas Pophale) SiO2 
 PCOD8128070
Probable space group: P 21/C
;
_chemical_formula_sum "Si O2"
_cell_formula_units_Z 32
_cell_length_a 17.037083
_cell_length_b 4.996873
_cell_length_c 13.505341
_cell_angle_alpha 90.000000
_cell_angle_beta 93.821326
_cell_angle_gamma 90.000000
_cell_volume 1147.182404
_symmetry_space_group_name_H-M "P 21/C"
_symmetry_group_IT_number 14
_symmetry_cell_setting 'monoclinic'
loop_
_space_group_symop_operation_xyz
x,y,z
-x,1/2+y,1/2-z
-x,-y,-z
x,1/2-y,1/2+z
loop_
_atom_site_type_symbol
_atom_site_label
_atom_site_fract_x
_atom_site_fract_y
_atom_site_fract_z
Si Si1 0.069986 0.398944 0.661410
Si Si2 0.319632 0.709096 0.011949
Si Si3 0.901274 0.394764 0.709382
Si Si4 0.778802 0.983881 0.653161
Si Si5 0.198395 0.159273 0.021284
Si Si6 0.431918 0.826123 0.174265
Si Si7 0.589357 0.469408 0.643025
Si Si8 0.689103 0.732029 0.810877
O O1 0.084948 0.702439 0.695195
O O2 0.111831 0.349339 0.560710
O O3 0.976357 0.356161 0.642984
O O4 0.107592 0.199094 0.749402
O O5 0.371893 0.605911 0.113723
O O6 0.243230 0.879090 0.037198
O O7 0.300485 0.502899 0.921614
O O8 0.384736 0.903927 0.965380
O O9 0.824842 0.268790 0.648331
O O10 0.822298 0.745434 0.593816
O O11 0.755610 0.925832 0.764461
O O12 0.257489 0.375011 0.088052
O O13 0.446406 0.771283 0.291851
O O14 0.517463 0.819399 0.129471
O O15 0.385625 0.103379 0.156110
O O16 0.666014 0.545807 0.716019
#
# Coordination Sequence:
#
# PCOD8128070 Si02
#       8
#     4   4   4   4   4   4   4   4
#     4  10  23  46  71 105 143 190 234 289 347 423
#     4  11  26  41  63 102 133 171 231 294 345 418
#     4  10  24  44  74 103 143 190 235 285 354 414
#     4  12  24  41  68 102 133 182 226 289 346 426
#     4  11  25  41  68  99 138 176 232 283 350 418
#     4  11  24  42  64  92 127 175 227 278 354 413
#     4  12  22  43  65  89 130 175 223 285 346 428
#     4  11  23  42  64  94 131 175 226 280 344 416
#
# _framework density 27.894431000000001
#
# number of rings (size 3 to 8) (size 9 to 14) (size 15 to 20)
#    0.000    1.000    5.000    1.125    5.250    0.500 
#    0.000    1.875    0.000    0.000    0.000    0.000 
#    0.000    0.000    0.000    0.000    0.000    0.000 
#
# Total GULP energy -396555.234461 kJ/mol
# GULP energy per Si atom -12392.351077 kJ/mol
# Density = 2.783094 g / cm^3
# Si number density = 27.894431 Si / 1000 Ang^3
#
#
#
# Elastic Constant Matrix: (Units=GPa)
#
#
# Indices 1 2 3 4 5 6 
#
# 1 103.1584 -24.9408 23.0148 0.0000 -22.2752 0.0000
# 2 -24.9408 25.3798 -21.8217 0.0000 -5.1582 0.0000
# 3 23.0148 -21.8217 104.4221 0.0000 4.0711 0.0000
# 4 0.0000 0.0000 0.0000 26.0740 0.0000 7.8294
# 5 -22.2752 -5.1582 4.0711 0.0000 50.8643 0.0000
# 6 0.0000 0.0000 0.0000 7.8294 0.0000 29.1978
#
#
#
# Elastic Compliance Matrix: (Units=1/GPa)
#
#
# Indices 1 2 3 4 5 6 
#
# 1 0.015719 0.016984 -0.000252 0.000000 0.008626 0.000000
# 2 0.016984 0.067241 0.009783 0.000000 0.013474 0.000000
# 3 -0.000252 0.009783 0.011678 0.000000 -0.000053 0.000000
# 4 0.000000 0.000000 0.000000 0.041711 0.000000 -0.011185
# 5 0.008626 0.013474 -0.000053 0.000000 0.024808 0.000000
# 6 0.000000 0.000000 0.000000 -0.011185 0.000000 0.037248
#
#
# Mechanical properties :
#
#
# Convention : Reuss Voigt Hill
#
# Bulk Modulus (GPa) = 6.77185 20.60722 13.68954
# Shear Modulus (GPa) = 25.69389 38.34109 32.01749
#
# Velocity S-wave (km/s) = 3.03828 3.71146 3.39161
# Velocity P-wave (km/s) = 3.83941 5.07643 4.50063
#
# Compressibility (1/GPa) = 0.14767004
#
# Stress axis : x y z
#
# Youngs Moduli (GPa) = 63.61789 14.87177 85.62748
#
# Poissons Ratio (x) = -0.25258 0.02154
# Poissons Ratio (y) = -1.08048 -0.83772
# Poissons Ratio (z) = 0.01600 -0.14550
#
# Static dielectric constant tensor:
#      x y z
#    x 5.414490 0.000000 0.085560 
#    y 0.000000 5.160340 0.000000 
#    z 0.085560 0.000000 5.249730 
# 
# 
# High freq. dielectric constant tensor:
#      x y z
#    x 2.143680 0.000000 0.000970 
#    y 0.000000 2.123970 0.000000 
#    z 0.000970 0.000000 2.138880 
# 
# From -- ./inp_files/48183.got.cif
#   From: 2010.03.12/outbox.cif.g09.slc.cpg/sg14_25_cif.got.tgz:48183.got - 2010.03.31 13:35:05.
