data_PCOD8128612
_publ_section_title
;
Structure prediction by ZEFSAII (Michael W. Deem and Ramdas Pophale) SiO2 
 PCOD8128612
Probable space group: P 21/C
;
_chemical_formula_sum "Si O2"
_cell_formula_units_Z 16
_cell_length_a 5.170226
_cell_length_b 8.903020
_cell_length_c 13.712009
_cell_angle_alpha 90.000000
_cell_angle_beta 72.527139
_cell_angle_gamma 90.000000
_cell_volume 602.049603
_symmetry_space_group_name_H-M "P 21/C"
_symmetry_group_IT_number 14
_symmetry_cell_setting 'monoclinic'
loop_
_space_group_symop_operation_xyz
x,y,z
-x,1/2+y,1/2-z
-x,-y,-z
x,1/2-y,1/2+z
loop_
_atom_site_type_symbol
_atom_site_label
_atom_site_fract_x
_atom_site_fract_y
_atom_site_fract_z
Si Si1 0.459574 0.433508 0.858355
Si Si2 0.094120 0.833207 0.540127
Si Si3 0.130432 0.098042 0.790592
Si Si4 0.234531 0.735117 0.314539
O O1 0.162869 0.453014 0.941816
O O2 0.554393 0.590067 0.792183
O O3 0.678264 0.397313 0.915803
O O4 0.472268 0.301876 0.773383
O O5 0.926517 0.695240 0.606730
O O6 0.246766 0.778535 0.426663
O O7 0.929915 0.138408 0.725495
O O8 0.069230 0.923399 0.823567
#
# Coordination Sequence:
#
# PCOD8128612 Si02
#       4
#     4   4   4   4
#     4   9  24  38  64  97 128 163 216 268 309 382
#     4  11  21  43  67  95 125 178 209 263 328 379
#     4   9  21  44  63 101 130 168 216 270 317 382
#     4   9  21  42  67  94 134 166 217 265 321 385
#
# _framework density 26.575886000000001
#
# number of rings (size 3 to 8) (size 9 to 14) (size 15 to 20)
#    1.500    1.000    0.000    0.750    0.000   10.000 
#    0.000    6.250    0.000    0.000    0.000    0.000 
#    0.000    0.000    0.000    0.000    0.000    0.000 
#
# Total GULP energy -198272.584794 kJ/mol
# GULP energy per Si atom -12392.036550 kJ/mol
# Density = 2.651540 g / cm^3
# Si number density = 26.575886 Si / 1000 Ang^3
#
#
#
# Elastic Constant Matrix: (Units=GPa)
#
#
# Indices 1 2 3 4 5 6 
#
# 1 113.1958 39.6874 98.9190 0.0000 -30.9118 0.0000
# 2 39.6874 138.0560 77.4653 0.0000 -14.4317 0.0000
# 3 98.9190 77.4653 234.2080 0.0000 -18.9571 0.0000
# 4 0.0000 0.0000 0.0000 42.3907 0.0000 1.4832
# 5 -30.9118 -14.4317 -18.9571 0.0000 47.5215 0.0000
# 6 0.0000 0.0000 0.0000 1.4832 0.0000 28.9656
#
#
#
# Elastic Compliance Matrix: (Units=1/GPa)
#
#
# Indices 1 2 3 4 5 6 
#
# 1 0.016686 -0.000437 -0.006236 0.000000 0.008233 0.000000
# 2 -0.000437 0.009022 -0.002688 0.000000 0.001384 0.000000
# 3 -0.006236 -0.002688 0.007645 0.000000 -0.001823 0.000000
# 4 0.000000 0.000000 0.000000 0.023632 0.000000 -0.001210
# 5 0.008233 0.001384 -0.001823 0.000000 0.026092 0.000000
# 6 0.000000 0.000000 0.000000 -0.001210 0.000000 0.034586
#
#
# Mechanical properties :
#
#
# Convention : Reuss Voigt Hill
#
# Bulk Modulus (GPa) = 68.34787 101.95592 85.15189
# Shear Modulus (GPa) = 35.39572 41.73476 38.56524
#
# Velocity S-wave (km/s) = 3.65344 3.96713 3.81351
# Velocity P-wave (km/s) = 6.60081 7.70918 7.17643
#
# Compressibility (1/GPa) = 0.01463103
#
# Stress axis : x y z
#
# Youngs Moduli (GPa) = 59.93219 110.84494 130.80394
#
# Poissons Ratio (x) = 0.04840 0.81574
# Poissons Ratio (y) = 0.02617 0.35154
# Poissons Ratio (z) = 0.37376 0.29790
#
# Static dielectric constant tensor:
#      x y z
#    x 4.380790 0.000000 -0.348560 
#    y 0.000000 5.593560 0.000000 
#    z -0.348560 0.000000 5.491840 
# 
# 
# High freq. dielectric constant tensor:
#      x y z
#    x 2.063380 0.000000 -0.023150 
#    y 0.000000 2.129440 0.000000 
#    z -0.023150 0.000000 2.103970 
# 
# From -- ./inp_files/36741.got.cif
#   From: 2010.03.12/outbox.cif.g09.slc.cpg/sg14_19_cif.got.tgz:36741.got - 2010.03.31 13:35:05.
