data_PCOD8128879
_publ_section_title
;
Structure prediction by ZEFSAII (Michael W. Deem and Ramdas Pophale) SiO2 
 PCOD8128879
Probable space group: P 21/C
;
_chemical_formula_sum "Si O2"
_cell_formula_units_Z 20
_cell_length_a 7.981111
_cell_length_b 16.774829
_cell_length_c 8.875525
_cell_angle_alpha 90.000000
_cell_angle_beta 52.979864
_cell_angle_gamma 90.000000
_cell_volume 948.744050
_symmetry_space_group_name_H-M "P 21/C"
_symmetry_group_IT_number 14
_symmetry_cell_setting 'monoclinic'
loop_
_space_group_symop_operation_xyz
x,y,z
-x,1/2+y,1/2-z
-x,-y,-z
x,1/2-y,1/2+z
loop_
_atom_site_type_symbol
_atom_site_label
_atom_site_fract_x
_atom_site_fract_y
_atom_site_fract_z
Si Si1 0.791478 0.182471 0.575792
Si Si2 0.180393 0.496341 0.525419
Si Si3 0.342277 0.835547 0.022590
Si Si4 0.580056 0.027374 0.617066
Si Si5 0.789000 0.601874 0.198702
O O1 0.771275 0.267452 0.510096
O O2 0.669487 0.188865 0.798209
O O3 0.685018 0.113027 0.534238
O O4 0.037926 0.162366 0.460246
O O5 0.211560 0.584132 0.572969
O O6 0.393007 0.463740 0.337303
O O7 0.124924 0.438362 0.693987
O O8 0.000000 0.500000 0.500000
O O9 0.581585 0.846266 0.841210
O O10 0.500000 0.000000 0.500000
O O11 0.748653 0.965392 0.593702
#
# Coordination Sequence:
#
# PCOD8128879 Si02
#       5
#     4   4   4   4   4
#     4  12  26  44  69  98 138 176 222 276 340 390
#     4  11  23  44  71  97 134 180 228 274 333 397
#     4  11  27  45  63 102 139 172 222 279 332 400
#     4  11  23  42  71 102 130 176 232 274 328 405
#     4  11  24  48  69  93 138 179 224 284 325 394
#
# _framework density 21.080501000000002
#
# number of rings (size 3 to 8) (size 9 to 14) (size 15 to 20)
#    0.000    0.800    4.000    3.000   11.200    3.200 
#    0.000    0.000    0.000    0.000    0.000    0.000 
#    0.000    0.000    0.000    0.000    0.000    0.000 
#
# Total GULP energy -248114.654931 kJ/mol
# GULP energy per Si atom -12405.732747 kJ/mol
# Density = 2.103252 g / cm^3
# Si number density = 21.080501 Si / 1000 Ang^3
#
#
#
# Elastic Constant Matrix: (Units=GPa)
#
#
# Indices 1 2 3 4 5 6 
#
# 1 89.7822 16.1347 3.8363 0.0000 6.7019 0.0000
# 2 16.1347 78.7559 25.1208 0.0000 -13.0163 0.0000
# 3 3.8363 25.1208 60.8926 0.0000 7.7516 0.0000
# 4 0.0000 0.0000 0.0000 23.7323 0.0000 2.4129
# 5 6.7019 -13.0163 7.7516 0.0000 41.3863 0.0000
# 6 0.0000 0.0000 0.0000 2.4129 0.0000 43.6951
#
#
#
# Elastic Compliance Matrix: (Units=1/GPa)
#
#
# Indices 1 2 3 4 5 6 
#
# 1 0.011920 -0.003283 0.001005 0.000000 -0.003151 0.000000
# 2 -0.003283 0.017063 -0.007769 0.000000 0.007353 0.000000
# 3 0.001005 -0.007769 0.020382 0.000000 -0.006423 0.000000
# 4 0.000000 0.000000 0.000000 0.042375 0.000000 -0.002340
# 5 -0.003151 0.007353 -0.006423 0.000000 0.028189 0.000000
# 6 0.000000 0.000000 0.000000 -0.002340 0.000000 0.023015
#
#
# Mechanical properties :
#
#
# Convention : Reuss Voigt Hill
#
# Bulk Modulus (GPa) = 34.16370 35.51268 34.83819
# Shear Modulus (GPa) = 28.93597 34.05201 31.49399
#
# Velocity S-wave (km/s) = 3.70894 4.02348 3.86941
# Velocity P-wave (km/s) = 5.88074 6.20220 6.04361
#
# Compressibility (1/GPa) = 0.02927083
#
# Stress axis : x y z
#
# Youngs Moduli (GPa) = 83.88971 58.60493 49.06378
#
# Poissons Ratio (x) = 0.19242 -0.04929
# Poissons Ratio (y) = 0.27544 0.38116
# Poissons Ratio (z) = -0.08428 0.45528
#
# Static dielectric constant tensor:
#      x y z
#    x 3.862250 0.000000 -0.043150 
#    y 0.000000 3.891810 0.000000 
#    z -0.043150 0.000000 4.003210 
# 
# 
# High freq. dielectric constant tensor:
#      x y z
#    x 1.831210 0.000000 -0.001580 
#    y 0.000000 1.823470 0.000000 
#    z -0.001580 0.000000 1.842500 
# 
# From -- ./inp_files/8963.got.cif
#   From: 2010.03.12/outbox.cif.g09.slc.cpg/sg14_5_cif.got.tgz:8963.got - 2010.03.31 13:35:05.
