data_PCOD8128449
_publ_section_title
;
Structure prediction by ZEFSAII (Michael W. Deem and Ramdas Pophale) SiO2 
 PCOD8128449
Probable space group: P 21/C
;
_chemical_formula_sum "Si O2"
_cell_formula_units_Z 32
_cell_length_a 9.196591
_cell_length_b 12.793008
_cell_length_c 27.850417
_cell_angle_alpha 90.000000
_cell_angle_beta 31.480236
_cell_angle_gamma 90.000000
_cell_volume 1711.085803
_symmetry_space_group_name_H-M "P 21/C"
_symmetry_group_IT_number 14
_symmetry_cell_setting 'monoclinic'
loop_
_space_group_symop_operation_xyz
x,y,z
-x,1/2+y,1/2-z
-x,-y,-z
x,1/2-y,1/2+z
loop_
_atom_site_type_symbol
_atom_site_label
_atom_site_fract_x
_atom_site_fract_y
_atom_site_fract_z
Si Si1 0.173975 0.169285 0.563761
Si Si2 0.816127 0.204979 0.386481
Si Si3 0.902577 0.808296 0.998467
Si Si4 0.294550 0.796646 0.759744
Si Si5 0.860564 0.693883 0.619204
Si Si6 0.111050 0.505393 0.796615
Si Si7 0.288758 0.828992 0.173131
Si Si8 0.715687 0.034634 0.166175
O O1 0.496958 0.177266 0.485865
O O2 0.117772 0.196482 0.523520
O O3 0.009700 0.256934 0.639809
O O4 0.062608 0.055123 0.610062
O O5 0.851242 0.298799 0.337986
O O6 0.949075 0.239692 0.398974
O O7 0.973771 0.103892 0.321069
O O8 0.973090 0.783959 0.033880
O O9 0.606154 0.868918 0.076638
O O10 0.135854 0.882786 0.910495
O O11 0.538367 0.727738 0.716215
O O12 0.314935 0.779527 0.696796
O O13 0.325068 0.916138 0.768942
O O14 0.892016 0.571082 0.622079
O O15 0.107643 0.582650 0.751244
O O16 0.424693 0.491444 0.724331
#
# Coordination Sequence:
#
# PCOD8128449 Si02
#       8
#     4   4   4   4   4   4   4   4
#     4   9  19  39  57  78 115 155 180 224 298 339
#     4  11  23  37  58  87 116 148 195 239 273 340
#     4   9  19  36  59  81 112 151 183 231 290 339
#     4   9  18  37  59  81 112 158 183 227 288 339
#     4  11  20  35  58  90 112 143 202 238 267 333
#     4  11  20  37  62  81 114 155 187 233 287 339
#     4   9  20  39  57  80 121 155 183 231 298 335
#     4  11  19  34  64  86 111 145 197 237 285 331
#
# _framework density 18.701574999999998
#
# number of rings (size 3 to 8) (size 9 to 14) (size 15 to 20)
#    0.000    2.000    5.000    0.750    0.000    1.000 
#    4.500    6.250    2.750    0.000    0.000    0.000 
#    0.000    0.000    0.000    0.000    0.000    0.000 
#
# Total GULP energy -396647.162100 kJ/mol
# GULP energy per Si atom -12395.223816 kJ/mol
# Density = 1.865901 g / cm^3
# Si number density = 18.701575 Si / 1000 Ang^3
#
#
#
# Elastic Constant Matrix: (Units=GPa)
#
#
# Indices 1 2 3 4 5 6 
#
# 1 89.0279 41.1493 36.6436 0.0000 -1.6704 0.0000
# 2 41.1493 79.7502 37.3611 0.0000 -2.0146 0.0000
# 3 36.6436 37.3611 90.4988 0.0000 -2.6574 0.0000
# 4 0.0000 0.0000 0.0000 22.4799 0.0000 4.4527
# 5 -1.6704 -2.0146 -2.6574 0.0000 18.9987 0.0000
# 6 0.0000 0.0000 0.0000 4.4527 0.0000 25.8407
#
#
#
# Elastic Compliance Matrix: (Units=1/GPa)
#
#
# Indices 1 2 3 4 5 6 
#
# 1 0.015708 -0.006352 -0.003733 0.000000 0.000185 0.000000
# 2 -0.006352 0.018125 -0.004891 0.000000 0.000679 0.000000
# 3 -0.003733 -0.004891 0.014616 0.000000 0.001197 0.000000
# 4 0.000000 0.000000 0.000000 0.046056 0.000000 -0.007936
# 5 0.000185 0.000679 0.001197 0.000000 0.052891 0.000000
# 6 0.000000 0.000000 0.000000 -0.007936 0.000000 0.040066
#
#
# Mechanical properties :
#
#
# Convention : Reuss Voigt Hill
#
# Bulk Modulus (GPa) = 54.05939 54.39833 54.22886
# Shear Modulus (GPa) = 22.36358 23.07207 22.71783
#
# Velocity S-wave (km/s) = 3.46180 3.51621 3.48911
# Velocity P-wave (km/s) = 6.70432 6.75542 6.72992
#
# Compressibility (1/GPa) = 0.01849817
#
# Stress axis : x y z
#
# Youngs Moduli (GPa) = 63.66171 55.17296 68.42048
#
# Poissons Ratio (x) = 0.35044 0.25539
# Poissons Ratio (y) = 0.40436 0.33463
# Poissons Ratio (z) = 0.23763 0.26984
#
# Static dielectric constant tensor:
#      x y z
#    x 3.343320 0.000000 0.147440 
#    y 0.000000 3.565160 0.000000 
#    z 0.147440 0.000000 3.628510 
# 
# 
# High freq. dielectric constant tensor:
#      x y z
#    x 1.710540 0.000000 0.003640 
#    y 0.000000 1.713210 0.000000 
#    z 0.003640 0.000000 1.736950 
# 
# From -- ./inp_files/79603.got.cif
#   From: 2010.03.12/outbox.cif.g09.slc.cpg/sg14_40_cif.got.tgz:79603.got - 2010.03.31 13:35:05.
