data_PCOD8128403
_publ_section_title
;
Structure prediction by ZEFSAII (Michael W. Deem and Ramdas Pophale) SiO2 
 PCOD8128403
Probable space group: P 21/C
;
_chemical_formula_sum "Si O2"
_cell_formula_units_Z 20
_cell_length_a 9.523748
_cell_length_b 11.048773
_cell_length_c 16.350878
_cell_angle_alpha 90.000000
_cell_angle_beta 149.141271
_cell_angle_gamma 90.000000
_cell_volume 882.501056
_symmetry_space_group_name_H-M "P 21/C"
_symmetry_group_IT_number 14
_symmetry_cell_setting 'monoclinic'
loop_
_space_group_symop_operation_xyz
x,y,z
-x,1/2+y,1/2-z
-x,-y,-z
x,1/2-y,1/2+z
loop_
_atom_site_type_symbol
_atom_site_label
_atom_site_fract_x
_atom_site_fract_y
_atom_site_fract_z
Si Si1 0.500002 0.999999 0.808394
Si Si2 0.563287 0.131042 0.683666
Si Si3 0.849416 0.827317 0.270113
Si Si4 0.563255 0.368956 0.879606
Si Si5 0.849392 0.672694 0.579292
O O1 0.393875 0.889303 0.697285
O O2 0.606125 0.110698 0.803413
O O3 0.251628 0.046390 0.740609
O O4 0.748357 0.953606 0.988982
O O5 0.304478 0.215247 0.538386
O O6 0.829818 0.190457 0.776705
O O7 0.500038 0.999997 0.611081
O O8 0.695539 0.715257 0.233919
O O9 0.786464 0.830749 0.143233
O O10 0.170210 0.809549 0.446895
#
# Coordination Sequence:
#
# PCOD8128403 Si02
#       5
#     4   4   4   4   4
#     4  10  25  46  75  98 142 186 238 286 347 420
#     4  10  27  47  74  99 146 186 238 280 355 421
#     4  12  25  45  73 107 140 184 236 296 349 409
#     4  10  27  47  74  99 146 186 238 280 355 421
#     4  12  25  45  73 107 140 184 236 296 349 409
#
# _framework density 22.662863000000002
#
# number of rings (size 3 to 8) (size 9 to 14) (size 15 to 20)
#    1.200    0.000    0.000    4.200    5.600    6.400 
#    0.000    0.000    0.000    0.000    0.000    0.000 
#    0.000    0.000    0.000    0.000    0.000    0.000 
#
# Total GULP energy -248032.821855 kJ/mol
# GULP energy per Si atom -12401.641093 kJ/mol
# Density = 2.261128 g / cm^3
# Si number density = 22.662863 Si / 1000 Ang^3
#
#
#
# Elastic Constant Matrix: (Units=GPa)
#
#
# Indices 1 2 3 4 5 6 
#
# 1 93.1760 45.3695 25.7427 0.0000 -8.9093 0.0000
# 2 45.3695 104.6404 68.2705 0.0000 11.8744 0.0000
# 3 25.7427 68.2705 116.4720 0.0000 20.9933 0.0000
# 4 0.0000 0.0000 0.0000 44.8729 0.0000 5.6863
# 5 -8.9093 11.8744 20.9933 0.0000 40.6748 0.0000
# 6 0.0000 0.0000 0.0000 5.6863 0.0000 33.9293
#
#
#
# Elastic Compliance Matrix: (Units=1/GPa)
#
#
# Indices 1 2 3 4 5 6 
#
# 1 0.014605 -0.006808 -0.000190 0.000000 0.005285 0.000000
# 2 -0.006808 0.018649 -0.009015 0.000000 -0.002283 0.000000
# 3 -0.000190 -0.009015 0.014824 0.000000 -0.005061 0.000000
# 4 0.000000 0.000000 0.000000 0.022769 0.000000 -0.003816
# 5 0.005285 -0.002283 -0.005061 0.000000 0.029021 0.000000
# 6 0.000000 0.000000 0.000000 -0.003816 0.000000 0.030113
#
#
# Mechanical properties :
#
#
# Convention : Reuss Voigt Hill
#
# Bulk Modulus (GPa) = 62.29724 65.89488 64.09606
# Shear Modulus (GPa) = 29.87601 35.55575 32.71588
#
# Velocity S-wave (km/s) = 3.63475 3.96523 3.80358
# Velocity P-wave (km/s) = 6.72039 7.07837 6.90170
#
# Compressibility (1/GPa) = 0.01605208
#
# Stress axis : x y z
#
# Youngs Moduli (GPa) = 68.46853 53.62160 67.45752
#
# Poissons Ratio (x) = 0.36507 0.01281
# Poissons Ratio (y) = 0.46615 0.60814
# Poissons Ratio (z) = 0.01300 0.48340
#
# Static dielectric constant tensor:
#      x y z
#    x 4.018480 0.000000 -0.084080 
#    y 0.000000 4.050860 0.000000 
#    z -0.084080 0.000000 3.856310 
# 
# 
# High freq. dielectric constant tensor:
#      x y z
#    x 1.893840 0.000000 -0.002570 
#    y 0.000000 1.899640 0.000000 
#    z -0.002570 0.000000 1.888880 
# 
# From -- ./inp_files/55626.got.cif
#   From: 2010.03.12/outbox.cif.g09.slc.cpg/sg14_28_cif.got.tgz:55626.got - 2010.03.31 13:35:05.
