data_PCOD8128114
_publ_section_title
;
Structure prediction by ZEFSAII (Michael W. Deem and Ramdas Pophale) SiO2 
 PCOD8128114
Probable space group: P 21/C
;
_chemical_formula_sum "Si O2"
_cell_formula_units_Z 32
_cell_length_a 12.161547
_cell_length_b 8.467507
_cell_length_c 16.667388
_cell_angle_alpha 90.000000
_cell_angle_beta 57.797782
_cell_angle_gamma 90.000000
_cell_volume 1452.348560
_symmetry_space_group_name_H-M "P 21/C"
_symmetry_group_IT_number 14
_symmetry_cell_setting 'monoclinic'
loop_
_space_group_symop_operation_xyz
x,y,z
-x,1/2+y,1/2-z
-x,-y,-z
x,1/2-y,1/2+z
loop_
_atom_site_type_symbol
_atom_site_label
_atom_site_fract_x
_atom_site_fract_y
_atom_site_fract_z
Si Si1 0.761465 0.129649 0.783448
Si Si2 0.974991 0.010974 0.372501
Si Si3 0.505100 0.982435 0.830427
Si Si4 0.839446 0.488623 0.759833
Si Si5 0.649832 0.680772 0.730790
Si Si6 0.272160 0.007027 0.028453
Si Si7 0.028105 0.636823 0.569923
Si Si8 0.155934 0.262196 0.978042
O O1 0.778669 0.315053 0.788000
O O2 0.750538 0.036615 0.871324
O O3 0.881809 0.061884 0.687435
O O4 0.628704 0.097763 0.787431
O O5 0.892465 0.966100 0.326293
O O6 0.900223 0.933324 0.477470
O O7 0.990905 0.196159 0.377939
O O8 0.543567 0.800745 0.805277
O O9 0.417750 0.036909 0.789638
O O10 0.421689 0.987506 0.944979
O O11 0.727600 0.610867 0.776281
O O12 0.958960 0.501804 0.651076
O O13 0.743917 0.778642 0.634557
O O14 0.181865 0.897567 0.005465
O O15 0.225345 0.186494 0.028946
O O16 0.962123 0.646634 0.507184
#
# Coordination Sequence:
#
# PCOD8128114 Si02
#       8
#     4   4   4   4   4   4   4   4
#     4  12  24  41  65  97 132 171 218 269 324 399
#     4  12  23  39  70 101 133 168 213 278 336 386
#     4  11  25  44  67  91 130 178 221 265 325 391
#     4  11  22  42  68  95 133 167 218 274 336 379
#     4  10  24  46  67  95 130 174 222 273 322 394
#     4  11  23  41  63  92 132 173 218 264 325 393
#     4  11  22  42  63 102 132 168 219 268 337 387
#     4  10  24  39  66  97 133 169 212 277 332 390
#
# _framework density 22.033279
#
# number of rings (size 3 to 8) (size 9 to 14) (size 15 to 20)
#    0.000    1.000    2.500    4.125    3.500    4.000 
#    0.000    0.625    0.000    0.000    0.000    0.000 
#    0.000    0.000    0.000    0.000    0.000    0.000 
#
# Total GULP energy -396882.908217 kJ/mol
# GULP energy per Si atom -12402.590882 kJ/mol
# Density = 2.198313 g / cm^3
# Si number density = 22.033279 Si / 1000 Ang^3
#
#
#
# Elastic Constant Matrix: (Units=GPa)
#
#
# Indices 1 2 3 4 5 6 
#
# 1 106.3485 7.2513 28.1342 0.0000 -13.9889 0.0000
# 2 7.2513 57.6560 25.7029 0.0000 -16.2374 0.0000
# 3 28.1342 25.7029 65.1977 0.0000 -9.8816 0.0000
# 4 0.0000 0.0000 0.0000 33.4979 0.0000 -6.2952
# 5 -13.9889 -16.2374 -9.8816 0.0000 34.6620 0.0000
# 6 0.0000 0.0000 0.0000 -6.2952 0.0000 35.3247
#
#
#
# Elastic Compliance Matrix: (Units=1/GPa)
#
#
# Indices 1 2 3 4 5 6 
#
# 1 0.011104 0.001929 -0.004950 0.000000 0.003974 0.000000
# 2 0.001929 0.023629 -0.008729 0.000000 0.009359 0.000000
# 3 -0.004950 -0.008729 0.020896 0.000000 -0.000130 0.000000
# 4 0.000000 0.000000 0.000000 0.030887 0.000000 0.005504
# 5 0.003974 0.009359 -0.000130 0.000000 0.034801 0.000000
# 6 0.000000 0.000000 0.000000 0.005504 0.000000 0.029290
#
#
# Mechanical properties :
#
#
# Convention : Reuss Voigt Hill
#
# Bulk Modulus (GPa) = 31.12496 39.04211 35.08354
# Shear Modulus (GPa) = 27.05412 31.90451 29.47931
#
# Velocity S-wave (km/s) = 3.50791 3.80941 3.66176
# Velocity P-wave (km/s) = 5.52849 6.09154 5.81683
#
# Compressibility (1/GPa) = 0.03212855
#
# Stress axis : x y z
#
# Youngs Moduli (GPa) = 90.06047 42.32118 47.85714
#
# Poissons Ratio (x) = -0.08165 0.23688
# Poissons Ratio (y) = -0.17375 0.41776
# Poissons Ratio (z) = 0.44577 0.36943
#
# Static dielectric constant tensor:
#      x y z
#    x 4.326030 0.000000 -0.060160 
#    y 0.000000 3.895860 0.000000 
#    z -0.060160 0.000000 3.809680 
# 
# 
# High freq. dielectric constant tensor:
#      x y z
#    x 1.883530 0.000000 0.000760 
#    y 0.000000 1.868080 0.000000 
#    z 0.000760 0.000000 1.857690 
# 
# From -- ./inp_files/57268.got.cif
#   From: 2010.03.12/outbox.cif.g09.slc.cpg/sg14_29_cif.got.tgz:57268.got - 2010.03.31 13:35:05.
