data_PCOD8128212
_publ_section_title
;
Structure prediction by ZEFSAII (Michael W. Deem and Ramdas Pophale) SiO2 
 PCOD8128212
Probable space group: P 21/C
;
_chemical_formula_sum "Si O2"
_cell_formula_units_Z 28
_cell_length_a 12.415982
_cell_length_b 13.513447
_cell_length_c 9.063957
_cell_angle_alpha 90.000000
_cell_angle_beta 55.132453
_cell_angle_gamma 90.000000
_cell_volume 1247.759362
_symmetry_space_group_name_H-M "P 21/C"
_symmetry_group_IT_number 14
_symmetry_cell_setting 'monoclinic'
loop_
_space_group_symop_operation_xyz
x,y,z
-x,1/2+y,1/2-z
-x,-y,-z
x,1/2-y,1/2+z
loop_
_atom_site_type_symbol
_atom_site_label
_atom_site_fract_x
_atom_site_fract_y
_atom_site_fract_z
Si Si1 0.505666 0.492597 0.746472
Si Si2 0.629210 0.905038 0.905135
Si Si3 0.155143 0.553680 0.776657
Si Si4 0.303981 0.490721 0.159440
Si Si5 0.997089 0.739399 0.844820
Si Si6 0.930761 0.441604 0.830177
Si Si7 0.809062 0.787230 0.251919
O O1 0.456319 0.402991 0.678847
O O2 0.536893 0.591296 0.622959
O O3 0.634009 0.459801 0.741882
O O4 0.392177 0.520682 0.950500
O O5 0.733256 0.816915 0.824875
O O6 0.697296 0.015255 0.863439
O O7 0.122366 0.669922 0.782900
O O8 0.071529 0.494781 0.717965
O O9 0.128496 0.524171 0.967121
O O10 0.157381 0.528474 0.241807
O O11 0.297752 0.372392 0.195689
O O12 0.879611 0.682735 0.850648
O O13 0.048800 0.824433 0.695796
O O14 0.927914 0.783410 0.043139
#
# Coordination Sequence:
#
# PCOD8128212 Si02
#       7
#     4   4   4   4   4   4   4
#     4  10  24  43  66  89 125 179 226 262 328 385
#     4  11  22  45  70  93 130 180 221 264 332 398
#     4  11  21  41  65  96 136 171 204 277 338 388
#     4  11  23  43  66  98 134 168 220 282 318 377
#     4  12  23  38  63 107 133 169 218 261 344 399
#     4  11  22  40  66  95 137 170 207 275 340 385
#     4  12  23  39  68 102 128 164 230 272 310 408
#
# _framework density 22.440224000000001
#
# number of rings (size 3 to 8) (size 9 to 14) (size 15 to 20)
#    0.000    0.857    5.714    2.571    0.000    1.714 
#    0.000    8.571    0.000    0.000    0.000    0.000 
#    0.000    0.000    0.000    0.000    0.000    0.000 
#
# Total GULP energy -346992.662294 kJ/mol
# GULP energy per Si atom -12392.595082 kJ/mol
# Density = 2.238915 g / cm^3
# Si number density = 22.440224 Si / 1000 Ang^3
#
#
#
# Elastic Constant Matrix: (Units=GPa)
#
#
# Indices 1 2 3 4 5 6 
#
# 1 145.3048 30.5300 27.7106 0.0000 22.3293 0.0000
# 2 30.5300 77.4458 31.8434 0.0000 -8.4821 0.0000
# 3 27.7106 31.8434 71.3896 0.0000 9.7492 0.0000
# 4 0.0000 0.0000 0.0000 24.3196 0.0000 3.1003
# 5 22.3293 -8.4821 9.7492 0.0000 33.2419 0.0000
# 6 0.0000 0.0000 0.0000 3.1003 0.0000 20.4589
#
#
#
# Elastic Compliance Matrix: (Units=1/GPa)
#
#
# Indices 1 2 3 4 5 6 
#
# 1 0.008892 -0.003923 -0.000780 0.000000 -0.006745 0.000000
# 2 -0.003923 0.018948 -0.008281 0.000000 0.009898 0.000000
# 3 -0.000780 -0.008281 0.018981 0.000000 -0.007156 0.000000
# 4 0.000000 0.000000 0.000000 0.041929 0.000000 -0.006354
# 5 -0.006745 0.009898 -0.007156 0.000000 0.039237 0.000000
# 6 0.000000 0.000000 0.000000 -0.006354 0.000000 0.049841
#
#
# Mechanical properties :
#
#
# Convention : Reuss Voigt Hill
#
# Bulk Modulus (GPa) = 47.95585 52.70089 50.32837
# Shear Modulus (GPa) = 23.72506 29.20781 26.46644
#
# Velocity S-wave (km/s) = 3.25507 3.61166 3.43799
# Velocity P-wave (km/s) = 5.96190 6.39751 6.18354
#
# Compressibility (1/GPa) = 0.02085251
#
# Stress axis : x y z
#
# Youngs Moduli (GPa) = 112.46467 52.77714 52.68333
#
# Poissons Ratio (x) = 0.20705 0.04112
# Poissons Ratio (y) = 0.44120 0.43625
# Poissons Ratio (z) = 0.08777 0.43703
#
# Static dielectric constant tensor:
#      x y z
#    x 4.348750 0.000000 0.153250 
#    y 0.000000 3.698880 0.000000 
#    z 0.153250 0.000000 3.920620 
# 
# 
# High freq. dielectric constant tensor:
#      x y z
#    x 1.903090 0.000000 0.015150 
#    y 0.000000 1.849550 0.000000 
#    z 0.015150 0.000000 1.882950 
# 
# From -- ./inp_files/12990.got.cif
#   From: 2010.03.12/outbox.cif.g09.slc.cpg/sg14_7_cif.got.tgz:12990.got - 2010.03.31 13:35:05.
