data_PCOD8128611
_publ_section_title
;
Structure prediction by ZEFSAII (Michael W. Deem and Ramdas Pophale) SiO2 
 PCOD8128611
Probable space group: P 21/C
;
_chemical_formula_sum "Si O2"
_cell_formula_units_Z 28
_cell_length_a 19.394609
_cell_length_b 6.341443
_cell_length_c 16.793990
_cell_angle_alpha 90.000000
_cell_angle_beta 38.436261
_cell_angle_gamma 90.000000
_cell_volume 1283.998461
_symmetry_space_group_name_H-M "P 21/C"
_symmetry_group_IT_number 14
_symmetry_cell_setting 'monoclinic'
loop_
_space_group_symop_operation_xyz
x,y,z
-x,1/2+y,1/2-z
-x,-y,-z
x,1/2-y,1/2+z
loop_
_atom_site_type_symbol
_atom_site_label
_atom_site_fract_x
_atom_site_fract_y
_atom_site_fract_z
Si Si1 0.876408 0.903478 0.442798
Si Si2 0.298802 0.322636 0.116717
Si Si3 0.302196 0.304960 0.786915
Si Si4 0.107630 0.423631 0.706217
Si Si5 0.745087 0.194581 0.450815
Si Si6 0.400823 0.507914 0.312728
Si Si7 0.482806 0.639267 0.649442
O O1 0.823588 0.881637 0.579594
O O2 0.900363 0.681527 0.374930
O O3 0.780200 0.024381 0.483154
O O4 0.983829 0.053048 0.353055
O O5 0.298732 0.340474 0.212158
O O6 0.181540 0.224654 0.195799
O O7 0.310154 0.561516 0.072372
O O8 0.398314 0.163176 0.001186
O O9 0.395705 0.484665 0.685231
O O10 0.328624 0.184408 0.845498
O O11 0.151446 0.663273 0.669518
O O12 0.659892 0.357213 0.565245
O O13 0.506285 0.421917 0.266312
O O14 0.431627 0.627458 0.203110
#
# Coordination Sequence:
#
# PCOD8128611 Si02
#       7
#     4   4   4   4   4   4   4
#     4  11  22  41  71 100 121 169 231 267 318 382
#     4  11  27  42  61 100 141 172 207 264 345 387
#     4  12  26  42  64 100 135 170 215 268 328 395
#     4  11  22  41  72  95 127 171 219 278 317 382
#     4  11  21  43  66  94 130 173 221 267 315 387
#     4  12  22  40  69  94 124 173 227 266 307 381
#     4  12  23  41  67  96 131 172 220 267 316 387
#
# _framework density 21.806881000000001
#
# number of rings (size 3 to 8) (size 9 to 14) (size 15 to 20)
#    0.000    0.571    7.143    2.143    0.000    2.286 
#    0.000    0.714    0.000    0.000    0.000    0.000 
#    0.000    0.000    0.000    0.000    0.000    0.000 
#
# Total GULP energy -347006.212977 kJ/mol
# GULP energy per Si atom -12393.079035 kJ/mol
# Density = 2.175725 g / cm^3
# Si number density = 21.806881 Si / 1000 Ang^3
#
#
#
# Elastic Constant Matrix: (Units=GPa)
#
#
# Indices 1 2 3 4 5 6 
#
# 1 57.3297 17.3725 41.4777 0.0000 -1.0827 0.0000
# 2 17.3725 86.1091 27.3239 0.0000 -1.9947 0.0000
# 3 41.4777 27.3239 106.7443 0.0000 -11.9538 0.0000
# 4 0.0000 0.0000 0.0000 31.5161 0.0000 1.8465
# 5 -1.0827 -1.9947 -11.9538 0.0000 31.5129 0.0000
# 6 0.0000 0.0000 0.0000 1.8465 0.0000 25.8738
#
#
#
# Elastic Compliance Matrix: (Units=1/GPa)
#
#
# Indices 1 2 3 4 5 6 
#
# 1 0.024853 -0.002084 -0.009444 0.000000 -0.002860 0.000000
# 2 -0.002084 0.012821 -0.002495 0.000000 -0.000207 0.000000
# 3 -0.009444 -0.002495 0.014227 0.000000 0.004914 0.000000
# 4 0.000000 0.000000 0.000000 0.031863 0.000000 -0.002274
# 5 -0.002860 -0.000207 0.004914 0.000000 0.033486 0.000000
# 6 0.000000 0.000000 0.000000 -0.002274 0.000000 0.038811
#
#
# Mechanical properties :
#
#
# Convention : Reuss Voigt Hill
#
# Bulk Modulus (GPa) = 41.92065 46.94793 44.43429
# Shear Modulus (GPa) = 26.03373 28.71449 27.37411
#
# Velocity S-wave (km/s) = 3.45893 3.63266 3.54686
# Velocity P-wave (km/s) = 5.93444 6.25865 6.09870
#
# Compressibility (1/GPa) = 0.02385459
#
# Stress axis : x y z
#
# Youngs Moduli (GPa) = 40.23641 77.99985 70.28902
#
# Poissons Ratio (x) = 0.16252 0.66382
# Poissons Ratio (y) = 0.08384 0.17539
# Poissons Ratio (z) = 0.38000 0.19463
#
# Static dielectric constant tensor:
#      x y z
#    x 3.659620 0.000000 -0.214880 
#    y 0.000000 4.176430 0.000000 
#    z -0.214880 0.000000 3.947820 
# 
# 
# High freq. dielectric constant tensor:
#      x y z
#    x 1.830500 0.000000 -0.017190 
#    y 0.000000 1.867140 0.000000 
#    z -0.017190 0.000000 1.857910 
# 
# From -- ./inp_files/60921.got.cif
#   From: 2010.03.12/outbox.cif.g09.slc.cpg/sg14_31_cif.got.tgz:60921.got - 2010.03.31 13:35:05.
