data_PCOD8128789
_publ_section_title
;
Structure prediction by ZEFSAII (Michael W. Deem and Ramdas Pophale) SiO2 
 PCOD8128789
Probable space group: P 21/C
;
_chemical_formula_sum "Si O2"
_cell_formula_units_Z 24
_cell_length_a 10.805911
_cell_length_b 7.472686
_cell_length_c 22.636130
_cell_angle_alpha 90.000000
_cell_angle_beta 34.865845
_cell_angle_gamma 90.000000
_cell_volume 1044.902391
_symmetry_space_group_name_H-M "P 21/C"
_symmetry_group_IT_number 14
_symmetry_cell_setting 'monoclinic'
loop_
_space_group_symop_operation_xyz
x,y,z
-x,1/2+y,1/2-z
-x,-y,-z
x,1/2-y,1/2+z
loop_
_atom_site_type_symbol
_atom_site_label
_atom_site_fract_x
_atom_site_fract_y
_atom_site_fract_z
Si Si1 0.781727 0.268645 0.171389
Si Si2 0.965756 0.430563 0.705354
Si Si3 0.295459 0.891278 0.991689
Si Si4 0.692642 0.582765 0.631717
Si Si5 0.226862 0.209173 0.208297
Si Si6 0.947401 0.627578 0.097598
O O1 0.866097 0.226838 0.204317
O O2 0.552911 0.368018 0.259495
O O3 0.772857 0.087065 0.138135
O O4 0.945257 0.418059 0.078703
O O5 0.775443 0.575285 0.788578
O O6 0.175120 0.528381 0.595367
O O7 0.031578 0.351440 0.742508
O O8 0.545375 0.854677 0.907672
O O9 0.268205 0.040188 0.951853
O O10 0.188992 0.700941 0.014600
O O11 0.840716 0.749989 0.589563
O O12 0.196586 0.133581 0.285927
#
# Coordination Sequence:
#
# PCOD8128789 Si02
#       6
#     4   4   4   4   4   4
#     4  12  23  43  70 102 137 191 226 281 350 405
#     4  11  26  45  71 101 137 182 237 287 348 407
#     4  11  24  44  70 103 143 182 231 289 343 413
#     4  12  23  43  69 102 145 181 233 280 343 418
#     4  11  22  47  69  97 139 183 229 289 341 410
#     4  11  24  44  68 103 140 183 230 282 347 403
#
# _framework density 22.968651999999999
#
# number of rings (size 3 to 8) (size 9 to 14) (size 15 to 20)
#    0.000    0.667    6.667    2.000    0.000    0.667 
#    3.000    4.167    0.000    0.000    0.000    0.000 
#    0.000    0.000    0.000    0.000    0.000    0.000 
#
# Total GULP energy -297663.749424 kJ/mol
# GULP energy per Si atom -12402.656226 kJ/mol
# Density = 2.291637 g / cm^3
# Si number density = 22.968652 Si / 1000 Ang^3
#
#
#
# Elastic Constant Matrix: (Units=GPa)
#
#
# Indices 1 2 3 4 5 6 
#
# 1 94.0995 47.3554 7.6283 0.0000 -10.4733 0.0000
# 2 47.3554 145.0495 7.0133 0.0000 -0.4792 0.0000
# 3 7.6283 7.0133 41.3578 0.0000 -2.2036 0.0000
# 4 0.0000 0.0000 0.0000 24.9698 0.0000 -5.1999
# 5 -10.4733 -0.4792 -2.2036 0.0000 26.1329 0.0000
# 6 0.0000 0.0000 0.0000 -5.1999 0.0000 35.1566
#
#
#
# Elastic Compliance Matrix: (Units=1/GPa)
#
#
# Indices 1 2 3 4 5 6 
#
# 1 0.013500 -0.004319 -0.001480 0.000000 0.005206 0.000000
# 2 -0.004319 0.008333 -0.000704 0.000000 -0.001637 0.000000
# 3 -0.001480 -0.000704 0.024650 0.000000 0.001472 0.000000
# 4 0.000000 0.000000 0.000000 0.041321 0.000000 0.006112
# 5 0.005206 -0.001637 0.001472 0.000000 0.040447 0.000000
# 6 0.000000 0.000000 0.000000 0.006112 0.000000 0.029348
#
#
# Mechanical properties :
#
#
# Convention : Reuss Voigt Hill
#
# Bulk Modulus (GPa) = 29.87087 44.94451 37.40769
# Shear Modulus (GPa) = 27.50839 31.81919 29.66379
#
# Velocity S-wave (km/s) = 3.46446 3.72604 3.59763
# Velocity P-wave (km/s) = 5.38856 6.17425 5.79474
#
# Compressibility (1/GPa) = 0.03347743
#
# Stress axis : x y z
#
# Youngs Moduli (GPa) = 74.07486 120.00840 40.56792
#
# Poissons Ratio (x) = 0.51827 0.06005
# Poissons Ratio (y) = 0.31990 0.02855
# Poissons Ratio (z) = 0.10965 0.08445
#
# Static dielectric constant tensor:
#      x y z
#    x 4.125980 0.000000 -0.033870 
#    y 0.000000 4.362430 0.000000 
#    z -0.033870 0.000000 4.030160 
# 
# 
# High freq. dielectric constant tensor:
#      x y z
#    x 1.911620 0.000000 -0.001590 
#    y 0.000000 1.921020 0.000000 
#    z -0.001590 0.000000 1.899420 
# 
# From -- ./inp_files/73035.got.cif
#   From: 2010.03.12/outbox.cif.g09.slc.cpg/sg14_37_cif.got.tgz:73035.got - 2010.03.31 13:35:05.
