data_PCOD8128981
_publ_section_title
;
Structure prediction by ZEFSAII (Michael W. Deem and Ramdas Pophale) SiO2 
 PCOD8128981
Probable space group: P 21/C
;
_chemical_formula_sum "Si O2"
_cell_formula_units_Z 24
_cell_length_a 11.281718
_cell_length_b 9.691519
_cell_length_c 10.541703
_cell_angle_alpha 90.000000
_cell_angle_beta 77.180785
_cell_angle_gamma 90.000000
_cell_volume 1123.869510
_symmetry_space_group_name_H-M "P 21/C"
_symmetry_group_IT_number 14
_symmetry_cell_setting 'monoclinic'
loop_
_space_group_symop_operation_xyz
x,y,z
-x,1/2+y,1/2-z
-x,-y,-z
x,1/2-y,1/2+z
loop_
_atom_site_type_symbol
_atom_site_label
_atom_site_fract_x
_atom_site_fract_y
_atom_site_fract_z
Si Si1 0.586910 0.922263 0.573912
Si Si2 0.329399 0.128238 0.011013
Si Si3 0.728679 0.314469 0.062679
Si Si4 0.058440 0.031664 0.121612
Si Si5 0.461987 0.593318 0.353413
Si Si6 0.121400 0.751784 0.723402
O O1 0.657979 0.792323 0.500299
O O2 0.496025 0.868413 0.703040
O O3 0.500000 0.000000 0.500000
O O4 0.689617 0.028290 0.598284
O O5 0.191080 0.092578 0.068124
O O6 0.410924 0.067716 0.105210
O O7 0.378804 0.045827 0.875164
O O8 0.610116 0.220332 0.066447
O O9 0.795719 0.257597 0.171173
O O10 0.807744 0.307278 0.916430
O O11 0.984847 0.141560 0.220915
O O12 0.061949 0.894611 0.205450
O O13 0.000000 0.000000 0.000000
#
# Coordination Sequence:
#
# PCOD8128981 Si02
#       6
#     4   4   4   4   4   4
#     4  12  25  40  69 108 142 183 239 295 365 453
#     4  11  25  44  70 102 145 188 233 303 370 431
#     4  12  25  47  74 107 146 190 244 304 377 442
#     4  12  27  51  74 108 149 199 257 310 365 439
#     4  11  23  46  69 102 147 182 232 298 378 440
#     4  12  27  50  77 103 148 198 248 309 369 441
#
# _framework density 21.354790999999999
#
# number of rings (size 3 to 8) (size 9 to 14) (size 15 to 20)
#    0.000    0.333    5.000    3.000    4.667    3.333 
#    0.000    0.000    0.000    0.000    0.000    0.000 
#    0.000    0.000    0.000    0.000    0.000    0.000 
#
# Total GULP energy -297664.209322 kJ/mol
# GULP energy per Si atom -12402.675388 kJ/mol
# Density = 2.130619 g / cm^3
# Si number density = 21.354791 Si / 1000 Ang^3
#
#
#
# Elastic Constant Matrix: (Units=GPa)
#
#
# Indices 1 2 3 4 5 6 
#
# 1 129.9760 56.7344 65.9119 0.0000 -23.3400 0.0000
# 2 56.7344 163.8823 46.9884 0.0000 -25.8419 0.0000
# 3 65.9119 46.9884 144.1172 0.0000 -19.1050 0.0000
# 4 0.0000 0.0000 0.0000 40.2892 0.0000 -9.6377
# 5 -23.3400 -25.8419 -19.1050 0.0000 33.6219 0.0000
# 6 0.0000 0.0000 0.0000 -9.6377 0.0000 43.6665
#
#
#
# Elastic Compliance Matrix: (Units=1/GPa)
#
#
# Indices 1 2 3 4 5 6 
#
# 1 0.011364 -0.002172 -0.003963 0.000000 0.003967 0.000000
# 2 -0.002172 0.007758 -0.001022 0.000000 0.003874 0.000000
# 3 -0.003963 -0.001022 0.009318 0.000000 0.001758 0.000000
# 4 0.000000 0.000000 0.000000 0.026204 0.000000 0.005784
# 5 0.003967 0.003874 0.001758 0.000000 0.036473 0.000000
# 6 0.000000 0.000000 0.000000 0.005784 0.000000 0.024177
#
#
# Mechanical properties :
#
#
# Convention : Reuss Voigt Hill
#
# Bulk Modulus (GPa) = 70.80115 86.36056 78.58086
# Shear Modulus (GPa) = 37.22521 41.40489 39.31505
#
# Velocity S-wave (km/s) = 4.17967 4.40808 4.29539
# Velocity P-wave (km/s) = 7.51795 8.15088 7.84080
#
# Compressibility (1/GPa) = 0.01412406
#
# Stress axis : x y z
#
# Youngs Moduli (GPa) = 87.99663 128.90008 107.32255
#
# Poissons Ratio (x) = 0.28000 0.42534
# Poissons Ratio (y) = 0.19115 0.10973
# Poissons Ratio (z) = 0.34875 0.13179
#
# Static dielectric constant tensor:
#      x y z
#    x 3.958750 0.000000 -0.083810 
#    y 0.000000 4.135190 0.000000 
#    z -0.083810 0.000000 4.001740 
# 
# 
# High freq. dielectric constant tensor:
#      x y z
#    x 1.842970 0.000000 -0.003140 
#    y 0.000000 1.854610 0.000000 
#    z -0.003140 0.000000 1.844470 
# 
# From -- ./inp_files/28008.got.cif
#   From: 2010.03.12/outbox.cif.g09.slc.cpg/sg14_15_cif.got.tgz:28008.got - 2010.03.31 13:35:05.
