data_PCOD8128491
_publ_section_title
;
Structure prediction by ZEFSAII (Michael W. Deem and Ramdas Pophale) SiO2 
 PCOD8128491
Probable space group: P 21/C
;
_chemical_formula_sum "Si O2"
_cell_formula_units_Z 28
_cell_length_a 17.647104
_cell_length_b 5.302495
_cell_length_c 21.655900
_cell_angle_alpha 90.000000
_cell_angle_beta 36.503916
_cell_angle_gamma 90.000000
_cell_volume 1205.473475
_symmetry_space_group_name_H-M "P 21/C"
_symmetry_group_IT_number 14
_symmetry_cell_setting 'monoclinic'
loop_
_space_group_symop_operation_xyz
x,y,z
-x,1/2+y,1/2-z
-x,-y,-z
x,1/2-y,1/2+z
loop_
_atom_site_type_symbol
_atom_site_label
_atom_site_fract_x
_atom_site_fract_y
_atom_site_fract_z
Si Si1 0.681880 0.932810 0.154941
Si Si2 0.550359 0.282233 0.640875
Si Si3 0.767405 0.599404 0.001892
Si Si4 0.598292 0.837611 0.016534
Si Si5 0.740036 0.686540 0.303641
Si Si6 0.006988 0.110121 0.285348
Si Si7 0.320388 0.813242 0.726378
O O1 0.600292 0.771164 0.258334
O O2 0.793118 0.784059 0.044745
O O3 0.577879 0.990075 0.170069
O O4 0.727230 0.160922 0.170113
O O5 0.576262 0.374413 0.553691
O O6 0.646338 0.066925 0.599965
O O7 0.729159 0.742421 0.963609
O O8 0.891133 0.431775 0.909161
O O9 0.475443 0.670331 0.117752
O O10 0.619617 0.834755 0.929285
O O11 0.730730 0.456648 0.261863
O O12 0.869733 0.660354 0.255571
O O13 0.742564 0.960679 0.271088
O O14 0.026829 0.856930 0.232362
#
# Coordination Sequence:
#
# PCOD8128491 Si02
#       7
#     4   4   4   4   4   4   4
#     4  11  22  39  63 104 138 182 222 285 345 412
#     4  11  20  38  69 101 140 171 235 290 344 394
#     4  11  24  40  74 101 132 181 236 296 338 393
#     4  11  23  41  66 107 134 180 231 293 350 399
#     4  12  27  45  68 101 140 188 229 276 352 418
#     4  12  26  50  74  99 137 176 240 296 334 403
#     4  12  26  43  68  98 152 184 219 279 352 432
#
# _framework density 23.227388999999999
#
# number of rings (size 3 to 8) (size 9 to 14) (size 15 to 20)
#    0.000    0.571    4.286    4.286    6.000    0.000 
#    0.000    1.429    0.000    0.000    0.000    0.000 
#    0.000    0.000    0.000    0.000    0.000    0.000 
#
# Total GULP energy -347070.292161 kJ/mol
# GULP energy per Si atom -12395.367577 kJ/mol
# Density = 2.317452 g / cm^3
# Si number density = 23.227389 Si / 1000 Ang^3
#
#
#
# Elastic Constant Matrix: (Units=GPa)
#
#
# Indices 1 2 3 4 5 6 
#
# 1 86.3780 30.6876 31.6456 0.0000 2.4302 0.0000
# 2 30.6876 108.9268 22.5405 0.0000 8.5527 0.0000
# 3 31.6456 22.5405 70.2257 0.0000 6.0673 0.0000
# 4 0.0000 0.0000 0.0000 34.0276 0.0000 4.9280
# 5 2.4302 8.5527 6.0673 0.0000 35.8079 0.0000
# 6 0.0000 0.0000 0.0000 4.9280 0.0000 34.7960
#
#
#
# Elastic Compliance Matrix: (Units=1/GPa)
#
#
# Indices 1 2 3 4 5 6 
#
# 1 0.014728 -0.003018 -0.005728 0.000000 0.000692 0.000000
# 2 -0.003018 0.010573 -0.001860 0.000000 -0.002005 0.000000
# 3 -0.005728 -0.001860 0.017604 0.000000 -0.002150 0.000000
# 4 0.000000 0.000000 0.000000 0.030003 0.000000 -0.004249
# 5 0.000692 -0.002005 -0.002150 0.000000 0.028723 0.000000
# 6 0.000000 0.000000 0.000000 -0.004249 0.000000 0.029341
#
#
# Mechanical properties :
#
#
# Convention : Reuss Voigt Hill
#
# Bulk Modulus (GPa) = 46.09965 48.36422 47.23194
# Shear Modulus (GPa) = 31.36435 32.97009 32.16722
#
# Velocity S-wave (km/s) = 3.67865 3.77164 3.72544
# Velocity P-wave (km/s) = 6.15902 6.31144 6.23570
#
# Compressibility (1/GPa) = 0.02169214
#
# Stress axis : x y z
#
# Youngs Moduli (GPa) = 67.89592 94.57827 56.80586
#
# Poissons Ratio (x) = 0.28548 0.32538
# Poissons Ratio (y) = 0.20494 0.10567
# Poissons Ratio (z) = 0.38891 0.17594
#
# Static dielectric constant tensor:
#      x y z
#    x 4.166800 0.000000 0.240450 
#    y 0.000000 4.334960 0.000000 
#    z 0.240450 0.000000 4.064820 
# 
# 
# High freq. dielectric constant tensor:
#      x y z
#    x 1.908790 0.000000 0.024620 
#    y 0.000000 1.932150 0.000000 
#    z 0.024620 0.000000 1.903490 
# 
# From -- ./inp_files/68944.got.cif
#   From: 2010.03.12/outbox.cif.g09.slc.cpg/sg14_35_cif.got.tgz:68944.got - 2010.03.31 13:35:05.
