data_PCOD8128270
_publ_section_title
;
Structure prediction by ZEFSAII (Michael W. Deem and Ramdas Pophale) SiO2 
 PCOD8128270
Probable space group: P 21/C
;
_chemical_formula_sum "Si O2"
_cell_formula_units_Z 28
_cell_length_a 9.034540
_cell_length_b 12.544535
_cell_length_c 12.472293
_cell_angle_alpha 90.000000
_cell_angle_beta 52.772977
_cell_angle_gamma 90.000000
_cell_volume 1125.520628
_symmetry_space_group_name_H-M "P 21/C"
_symmetry_group_IT_number 14
_symmetry_cell_setting 'monoclinic'
loop_
_space_group_symop_operation_xyz
x,y,z
-x,1/2+y,1/2-z
-x,-y,-z
x,1/2-y,1/2+z
loop_
_atom_site_type_symbol
_atom_site_label
_atom_site_fract_x
_atom_site_fract_y
_atom_site_fract_z
Si Si1 0.363549 0.437265 0.886177
Si Si2 0.760070 0.361649 0.697250
Si Si3 0.287327 0.866176 0.266777
Si Si4 0.952736 0.976605 0.316899
Si Si5 0.963572 0.802921 0.744607
Si Si6 0.676874 0.798080 0.057174
Si Si7 0.943533 0.892965 0.098996
O O1 0.586115 0.437432 0.802145
O O2 0.302073 0.525953 0.828343
O O3 0.320217 0.313576 0.877700
O O4 0.250203 0.463248 0.043755
O O5 0.722067 0.243712 0.659260
O O6 0.884186 0.424692 0.554539
O O7 0.848723 0.322646 0.770281
O O8 0.095334 0.878815 0.280897
O O9 0.474603 0.846615 0.113878
O O10 0.917719 0.983941 0.202168
O O11 0.059168 0.083781 0.307947
O O12 0.985294 0.714480 0.645416
O O13 0.786720 0.781546 0.898183
O O14 0.765764 0.881339 0.100839
#
# Coordination Sequence:
#
# PCOD8128270 Si02
#       7
#     4   4   4   4   4   4   4
#     4  11  23  45  67  97 135 179 228 274 336 399
#     4  10  24  44  67  99 141 174 217 292 335 392
#     4  11  23  45  67  97 135 179 228 274 336 399
#     4  12  24  40  72  97 129 182 226 277 339 404
#     4  11  23  44  70 100 138 168 235 283 333 407
#     4  10  24  44  67  99 141 174 217 292 335 392
#     4  11  22  45  68  97 128 183 221 272 346 397
#
# _framework density 24.877376000000002
#
# number of rings (size 3 to 8) (size 9 to 14) (size 15 to 20)
#    0.000    1.143    2.857    3.000    4.000    2.286 
#   10.286    0.000    0.000    0.000    0.000    0.000 
#    0.000    0.000    0.000    0.000    0.000    0.000 
#
# Total GULP energy -346932.814770 kJ/mol
# GULP energy per Si atom -12390.457670 kJ/mol
# Density = 2.482075 g / cm^3
# Si number density = 24.877376 Si / 1000 Ang^3
#
#
#
# Elastic Constant Matrix: (Units=GPa)
#
#
# Indices 1 2 3 4 5 6 
#
# 1 84.9751 0.8490 74.8689 0.0000 -29.5158 0.0000
# 2 0.8490 106.5971 25.0156 0.0000 -7.1845 0.0000
# 3 74.8689 25.0156 151.6437 0.0000 -29.1202 0.0000
# 4 0.0000 0.0000 0.0000 47.6832 0.0000 1.1178
# 5 -29.5158 -7.1845 -29.1202 0.0000 39.4590 0.0000
# 6 0.0000 0.0000 0.0000 1.1178 0.0000 32.3640
#
#
#
# Elastic Compliance Matrix: (Units=1/GPa)
#
#
# Indices 1 2 3 4 5 6 
#
# 1 0.025189 0.003094 -0.010742 0.000000 0.011477 0.000000
# 2 0.003094 0.010155 -0.002800 0.000000 0.002097 0.000000
# 3 -0.010742 -0.002800 0.012489 0.000000 0.000671 0.000000
# 4 0.000000 0.000000 0.000000 0.020989 0.000000 -0.000725
# 5 0.011477 0.002097 0.000671 0.000000 0.034805 0.000000
# 6 0.000000 0.000000 0.000000 -0.000725 0.000000 0.030924
#
#
# Mechanical properties :
#
#
# Convention : Reuss Voigt Hill
#
# Bulk Modulus (GPa) = 37.12615 60.52031 48.82323
# Shear Modulus (GPa) = 30.40899 40.06672 35.23785
#
# Velocity S-wave (km/s) = 3.50001 4.01754 3.76767
# Velocity P-wave (km/s) = 5.59370 6.77504 6.21251
#
# Compressibility (1/GPa) = 0.02693519
#
# Stress axis : x y z
#
# Youngs Moduli (GPa) = 39.70064 98.47466 80.07085
#
# Poissons Ratio (x) = -0.30467 0.86016
# Poissons Ratio (y) = -0.12283 0.22420
# Poissons Ratio (z) = 0.42648 0.27573
#
# Static dielectric constant tensor:
#      x y z
#    x 4.334880 0.000000 -0.228500 
#    y 0.000000 5.351850 0.000000 
#    z -0.228500 0.000000 4.370940 
# 
# 
# High freq. dielectric constant tensor:
#      x y z
#    x 1.974500 0.000000 -0.018080 
#    y 0.000000 2.050220 0.000000 
#    z -0.018080 0.000000 1.978010 
# 
# From -- ./inp_files/25412.got.cif
#   From: 2010.03.12/outbox.cif.g09.slc.cpg/sg14_13_cif.got.tgz:25412.got - 2010.03.31 13:35:05.
