data_PCOD8128004
_publ_section_title
;
Structure prediction by ZEFSAII (Michael W. Deem and Ramdas Pophale) SiO2 
 PCOD8128004
Probable space group: P 21/C
;
_chemical_formula_sum "Si O2"
_cell_formula_units_Z 20
_cell_length_a 9.112131
_cell_length_b 11.542491
_cell_length_c 10.610185
_cell_angle_alpha 90.000000
_cell_angle_beta 47.682232
_cell_angle_gamma 90.000000
_cell_volume 825.154039
_symmetry_space_group_name_H-M "P 21/C"
_symmetry_group_IT_number 14
_symmetry_cell_setting 'monoclinic'
loop_
_space_group_symop_operation_xyz
x,y,z
-x,1/2+y,1/2-z
-x,-y,-z
x,1/2-y,1/2+z
loop_
_atom_site_type_symbol
_atom_site_label
_atom_site_fract_x
_atom_site_fract_y
_atom_site_fract_z
Si Si1 0.516543 0.450364 0.293246
Si Si2 0.480700 0.840336 0.953344
Si Si3 0.651505 0.589165 0.852071
Si Si4 0.973667 0.194719 0.768471
Si Si5 0.063686 0.632908 0.986524
O O1 0.434797 0.398875 0.469590
O O2 0.576093 0.586413 0.281807
O O3 0.332159 0.445272 0.303647
O O4 0.698241 0.373535 0.135343
O O5 0.547906 0.711524 0.919897
O O6 0.243472 0.853949 0.077999
O O7 0.867556 0.593010 0.790646
O O8 0.500000 0.500000 0.000000
O O9 0.990210 0.213162 0.606020
O O10 0.018313 0.306267 0.836096
O O11 0.000000 0.500000 0.000000
#
# Coordination Sequence:
#
# PCOD8128004 Si02
#       5
#     4   4   4   4   4
#     4  10  23  44  71  93 145 183 237 291 357 425
#     4  10  24  47  66 105 137 193 231 295 363 433
#     4  12  26  42  71 106 142 183 234 300 354 431
#     4  11  26  43  75 104 147 187 246 297 368 434
#     4  11  23  48  70 105 145 195 239 300 361 438
#
# _framework density 24.2379
#
# number of rings (size 3 to 8) (size 9 to 14) (size 15 to 20)
#    0.000    1.200    2.000    2.400    5.600    0.800 
#    0.000    0.000    0.000    0.000    0.000    0.000 
#    0.000    0.000    0.000    0.000    0.000    0.000 
#
# Total GULP energy -247767.544700 kJ/mol
# GULP energy per Si atom -12388.377235 kJ/mol
# Density = 2.418273 g / cm^3
# Si number density = 24.237900 Si / 1000 Ang^3
#
#
#
# Elastic Constant Matrix: (Units=GPa)
#
#
# Indices 1 2 3 4 5 6 
#
# 1 143.3683 31.6371 35.2133 0.0000 22.4109 0.0000
# 2 31.6371 131.4367 36.6671 0.0000 24.8110 0.0000
# 3 35.2133 36.6671 74.1921 0.0000 14.9860 0.0000
# 4 0.0000 0.0000 0.0000 43.4938 0.0000 4.9941
# 5 22.4109 24.8110 14.9860 0.0000 39.2815 0.0000
# 6 0.0000 0.0000 0.0000 4.9941 0.0000 13.9673
#
#
#
# Elastic Compliance Matrix: (Units=1/GPa)
#
#
# Indices 1 2 3 4 5 6 
#
# 1 0.008351 -0.000548 -0.003034 0.000000 -0.003261 0.000000
# 2 -0.000548 0.009563 -0.003586 0.000000 -0.004360 0.000000
# 3 -0.003034 -0.003586 0.017210 0.000000 -0.002570 0.000000
# 4 0.000000 0.000000 0.000000 0.023976 0.000000 -0.008573
# 5 -0.003261 -0.004360 -0.002570 0.000000 0.031052 0.000000
# 6 0.000000 0.000000 0.000000 -0.008573 0.000000 0.074661
#
#
# Mechanical properties :
#
#
# Convention : Reuss Voigt Hill
#
# Bulk Modulus (GPa) = 48.10367 61.78134 54.94250
# Shear Modulus (GPa) = 26.87044 35.71382 31.29213
#
# Velocity S-wave (km/s) = 3.33320 3.84274 3.59700
# Velocity P-wave (km/s) = 5.89094 6.72561 6.32206
#
# Compressibility (1/GPa) = 0.02078843
#
# Stress axis : x y z
#
# Youngs Moduli (GPa) = 119.74767 104.56480 58.10683
#
# Poissons Ratio (x) = 0.05732 0.17630
# Poissons Ratio (y) = 0.06564 0.20835
# Poissons Ratio (z) = 0.36331 0.37493
#
# Static dielectric constant tensor:
#      x y z
#    x 4.922980 0.000000 0.105350 
#    y 0.000000 4.900750 0.000000 
#    z 0.105350 0.000000 4.438420 
# 
# 
# High freq. dielectric constant tensor:
#      x y z
#    x 1.987190 0.000000 0.008730 
#    y 0.000000 1.956300 0.000000 
#    z 0.008730 0.000000 1.946240 
# 
# From -- ./inp_files/24036.got.cif
#   From: 2010.03.12/outbox.cif.g09.slc.cpg/sg14_13_cif.got.tgz:24036.got - 2010.03.31 13:35:05.
