data_PCOD8128094
_publ_section_title
;
Structure prediction by ZEFSAII (Michael W. Deem and Ramdas Pophale) SiO2 
 PCOD8128094
Probable space group: P 21/C
;
_chemical_formula_sum "Si O2"
_cell_formula_units_Z 20
_cell_length_a 11.082528
_cell_length_b 5.101770
_cell_length_c 19.015253
_cell_angle_alpha 90.000000
_cell_angle_beta 129.266109
_cell_angle_gamma 90.000000
_cell_volume 832.383089
_symmetry_space_group_name_H-M "P 21/C"
_symmetry_group_IT_number 14
_symmetry_cell_setting 'monoclinic'
loop_
_space_group_symop_operation_xyz
x,y,z
-x,1/2+y,1/2-z
-x,-y,-z
x,1/2-y,1/2+z
loop_
_atom_site_type_symbol
_atom_site_label
_atom_site_fract_x
_atom_site_fract_y
_atom_site_fract_z
Si Si1 0.467281 0.954996 0.102187
Si Si2 0.052107 0.401364 0.629080
Si Si3 0.330758 0.973791 0.327252
Si Si4 0.186045 0.260411 0.541736
Si Si5 0.756972 0.134254 0.557451
O O1 0.562940 0.704136 0.165504
O O2 0.585258 0.194872 0.136970
O O3 0.328738 0.033841 0.104901
O O4 0.372907 0.867407 0.996303
O O5 0.177704 0.547096 0.723495
O O6 0.128582 0.198655 0.600001
O O7 0.961025 0.626942 0.554402
O O8 0.931104 0.244106 0.633399
O O9 0.283665 0.046575 0.390573
O O10 0.252448 0.017760 0.520965
#
# Coordination Sequence:
#
# PCOD8128094 Si02
#       5
#     4   4   4   4   4
#     4  11  25  46  71 104 143 188 228 296 358 426
#     4  10  26  43  70 105 140 188 238 295 348 424
#     4  12  27  42  74 109 142 176 246 298 349 414
#     4  10  23  48  70  97 144 195 233 282 364 428
#     4  11  24  44  76  99 148 190 236 287 365 427
#
# _framework density 24.027396
#
# number of rings (size 3 to 8) (size 9 to 14) (size 15 to 20)
#    0.000    1.200    2.000    1.800   11.200    1.600 
#    0.000    0.000    0.000    0.000    0.000    0.000 
#    0.000    0.000    0.000    0.000    0.000    0.000 
#
# Total GULP energy -247842.735099 kJ/mol
# GULP energy per Si atom -12392.136755 kJ/mol
# Density = 2.397271 g / cm^3
# Si number density = 24.027396 Si / 1000 Ang^3
#
#
#
# Elastic Constant Matrix: (Units=GPa)
#
#
# Indices 1 2 3 4 5 6 
#
# 1 80.6607 36.8333 70.2591 0.0000 19.7150 0.0000
# 2 36.8333 116.5557 49.8299 0.0000 17.2396 0.0000
# 3 70.2591 49.8299 127.7958 0.0000 30.1560 0.0000
# 4 0.0000 0.0000 0.0000 22.4922 0.0000 3.9300
# 5 19.7150 17.2396 30.1560 0.0000 33.6783 0.0000
# 6 0.0000 0.0000 0.0000 3.9300 0.0000 30.2502
#
#
#
# Elastic Compliance Matrix: (Units=1/GPa)
#
#
# Indices 1 2 3 4 5 6 
#
# 1 0.024475 -0.002241 -0.012009 0.000000 -0.002427 0.000000
# 2 -0.002241 0.010622 -0.002455 0.000000 -0.001927 0.000000
# 3 -0.012009 -0.002455 0.017027 0.000000 -0.006959 0.000000
# 4 0.000000 0.000000 0.000000 0.045492 0.000000 -0.005910
# 5 -0.002427 -0.001927 -0.006959 0.000000 0.038331 0.000000
# 6 0.000000 0.000000 0.000000 -0.005910 0.000000 0.033825
#
#
# Mechanical properties :
#
#
# Convention : Reuss Voigt Hill
#
# Bulk Modulus (GPa) = 53.43762 70.98411 62.21087
# Shear Modulus (GPa) = 23.87535 28.49015 26.18275
#
# Velocity S-wave (km/s) = 3.15568 3.44719 3.30465
# Velocity P-wave (km/s) = 5.96375 6.74176 6.36465
#
# Compressibility (1/GPa) = 0.01871341
#
# Stress axis : x y z
#
# Youngs Moduli (GPa) = 40.85867 94.14024 58.73169
#
# Poissons Ratio (x) = 0.21100 0.70531
# Poissons Ratio (y) = 0.09158 0.14418
# Poissons Ratio (z) = 0.49067 0.23110
#
# Static dielectric constant tensor:
#      x y z
#    x 4.675500 0.000000 0.344580 
#    y 0.000000 4.113080 0.000000 
#    z 0.344580 0.000000 4.135550 
# 
# 
# High freq. dielectric constant tensor:
#      x y z
#    x 1.964950 0.000000 0.031530 
#    y 0.000000 1.941330 0.000000 
#    z 0.031530 0.000000 1.941060 
# 
# From -- ./inp_files/62466.got.cif
#   From: 2010.03.12/outbox.cif.g09.slc.cpg/sg14_32_cif.got.tgz:62466.got - 2010.03.31 13:35:05.
