data_PCOD8128572
_publ_section_title
;
Structure prediction by ZEFSAII (Michael W. Deem and Ramdas Pophale) SiO2 
 PCOD8128572
Probable space group: P 21/C
;
_chemical_formula_sum "Si O2"
_cell_formula_units_Z 24
_cell_length_a 8.306025
_cell_length_b 9.788326
_cell_length_c 14.898994
_cell_angle_alpha 90.000000
_cell_angle_beta 107.629101
_cell_angle_gamma 90.000000
_cell_volume 1154.431987
_symmetry_space_group_name_H-M "P 21/C"
_symmetry_group_IT_number 14
_symmetry_cell_setting 'monoclinic'
loop_
_space_group_symop_operation_xyz
x,y,z
-x,1/2+y,1/2-z
-x,-y,-z
x,1/2-y,1/2+z
loop_
_atom_site_type_symbol
_atom_site_label
_atom_site_fract_x
_atom_site_fract_y
_atom_site_fract_z
Si Si1 0.835910 0.089661 0.751135
Si Si2 0.363615 0.620607 0.966008
Si Si3 0.274088 0.837779 0.643994
Si Si4 0.529816 0.104309 0.082297
Si Si5 0.202700 0.446898 0.258827
Si Si6 0.644087 0.663698 0.272060
O O1 0.755462 0.112650 0.640586
O O2 0.765624 0.191069 0.816716
O O3 0.037026 0.108681 0.780331
O O4 0.796660 0.933081 0.768007
O O5 0.468154 0.756440 0.971474
O O6 0.500000 0.500000 0.000000
O O7 0.243881 0.648779 0.032412
O O8 0.471595 0.873916 0.691784
O O9 0.156608 0.956947 0.666288
O O10 0.378450 0.130115 0.126664
O O11 0.697996 0.052644 0.160443
O O12 0.500000 0.000000 0.000000
O O13 0.314350 0.320619 0.243003
#
# Coordination Sequence:
#
# PCOD8128572 Si02
#       6
#     4   4   4   4   4   4
#     4  12  24  42  66  98 136 171 215 281 332 380
#     4  12  23  41  70  99 128 171 229 268 321 399
#     4  11  22  44  66  93 128 174 222 264 324 399
#     4  11  24  43  67  97 129 176 228 268 322 403
#     4  11  24  43  65  95 135 171 211 279 337 378
#     4  11  21  40  68  90 129 177 219 262 327 393
#
# _framework density 20.789445000000001
#
# number of rings (size 3 to 8) (size 9 to 14) (size 15 to 20)
#    0.000    0.667    5.000    6.000    0.000    0.667 
#    3.000    1.667    0.000    0.000    0.000    0.000 
#    0.000    0.000    0.000    0.000    0.000    0.000 
#
# Total GULP energy -297426.277609 kJ/mol
# GULP energy per Si atom -12392.761567 kJ/mol
# Density = 2.074213 g / cm^3
# Si number density = 20.789445 Si / 1000 Ang^3
#
#
#
# Elastic Constant Matrix: (Units=GPa)
#
#
# Indices 1 2 3 4 5 6 
#
# 1 87.1935 27.1135 21.2232 0.0000 -13.9960 0.0000
# 2 27.1135 144.3813 42.1579 0.0000 -13.0625 0.0000
# 3 21.2232 42.1579 106.0953 0.0000 -33.2566 0.0000
# 4 0.0000 0.0000 0.0000 39.7813 0.0000 -12.4890
# 5 -13.9960 -13.0625 -33.2566 0.0000 25.0414 0.0000
# 6 0.0000 0.0000 0.0000 -12.4890 0.0000 36.4152
#
#
#
# Elastic Compliance Matrix: (Units=1/GPa)
#
#
# Indices 1 2 3 4 5 6 
#
# 1 0.013072 -0.001921 0.000213 0.000000 0.006587 0.000000
# 2 -0.001921 0.008118 -0.003170 0.000000 -0.001050 0.000000
# 3 0.000213 -0.003170 0.017409 0.000000 0.021585 0.000000
# 4 0.000000 0.000000 0.000000 0.028171 0.000000 0.009661
# 5 0.006587 -0.001050 0.021585 0.000000 0.071735 0.000000
# 6 0.000000 0.000000 0.000000 0.009661 0.000000 0.030775
#
#
# Mechanical properties :
#
#
# Convention : Reuss Voigt Hill
#
# Bulk Modulus (GPa) = 34.67211 57.62882 46.15046
# Shear Modulus (GPa) = 26.50444 36.72594 31.61519
#
# Velocity S-wave (km/s) = 3.57445 4.20761 3.90389
# Velocity P-wave (km/s) = 5.80943 7.16839 6.52439
#
# Compressibility (1/GPa) = 0.02884163
#
# Stress axis : x y z
#
# Youngs Moduli (GPa) = 76.50218 123.18903 57.44239
#
# Poissons Ratio (x) = 0.23665 -0.01225
# Poissons Ratio (y) = 0.14696 0.18211
# Poissons Ratio (z) = -0.01632 0.39055
#
# Static dielectric constant tensor:
#      x y z
#    x 3.463260 0.000000 -0.032040 
#    y 0.000000 4.084980 0.000000 
#    z -0.032040 0.000000 2.840190 
# 
# 
# High freq. dielectric constant tensor:
#      x y z
#    x 1.793670 0.000000 -0.026830 
#    y 0.000000 1.838540 0.000000 
#    z -0.026830 0.000000 1.817790 
# 
# From -- ./inp_files/39072.got.cif
#   From: 2010.03.12/outbox.cif.g09.slc.cpg/sg14_20_cif.got.tgz:39072.got - 2010.03.31 13:35:05.
