data_PCOD8128378
_publ_section_title
;
Structure prediction by ZEFSAII (Michael W. Deem and Ramdas Pophale) SiO2 
 PCOD8128378
Probable space group: P 21/C
;
_chemical_formula_sum "Si O2"
_cell_formula_units_Z 16
_cell_length_a 4.885643
_cell_length_b 14.451876
_cell_length_c 7.615630
_cell_angle_alpha 90.000000
_cell_angle_beta 97.202285
_cell_angle_gamma 90.000000
_cell_volume 533.471827
_symmetry_space_group_name_H-M "P 21/C"
_symmetry_group_IT_number 14
_symmetry_cell_setting 'monoclinic'
loop_
_space_group_symop_operation_xyz
x,y,z
-x,1/2+y,1/2-z
-x,-y,-z
x,1/2-y,1/2+z
loop_
_atom_site_type_symbol
_atom_site_label
_atom_site_fract_x
_atom_site_fract_y
_atom_site_fract_z
Si Si1 0.235038 0.417002 0.344363
Si Si2 0.997400 0.234169 0.045996
Si Si3 0.505791 0.860180 0.447658
Si Si4 0.201278 0.438866 0.727409
O O1 0.523230 0.411977 0.247306
O O2 0.322286 0.459025 0.541597
O O3 0.074332 0.318551 0.368345
O O4 0.014540 0.483130 0.226871
O O5 0.684279 0.272369 0.026286
O O6 0.187805 0.323949 0.076937
O O7 0.038743 0.160509 0.208702
O O8 0.541503 0.929344 0.615369
#
# Coordination Sequence:
#
# PCOD8128378 Si02
#       4
#     4   4   4   4
#     4   9  22  47  73 107 149 188 243 299 366 432
#     4  10  25  44  69 108 141 184 243 292 359 436
#     4  12  23  46  73 106 141 190 239 296 363 428
#     4   9  22  47  73 107 149 188 243 299 366 432
#
# _framework density 29.992208999999999
#
# number of rings (size 3 to 8) (size 9 to 14) (size 15 to 20)
#    1.500    0.500    0.000    2.250    0.000    8.000 
#    4.500   15.000    0.000    0.000    0.000    0.000 
#    0.000    0.000    0.000    0.000    0.000    0.000 
#
# Total GULP energy -198302.752028 kJ/mol
# GULP energy per Si atom -12393.922002 kJ/mol
# Density = 2.992395 g / cm^3
# Si number density = 29.992209 Si / 1000 Ang^3
#
#
#
# Elastic Constant Matrix: (Units=GPa)
#
#
# Indices 1 2 3 4 5 6 
#
# 1 101.8496 15.4859 48.1773 0.0000 -27.2126 0.0000
# 2 15.4859 83.9455 10.1027 0.0000 -7.5835 0.0000
# 3 48.1773 10.1027 127.7625 0.0000 -4.7655 0.0000
# 4 0.0000 0.0000 0.0000 42.3329 0.0000 -2.1599
# 5 -27.2126 -7.5835 -4.7655 0.0000 39.2631 0.0000
# 6 0.0000 0.0000 0.0000 -2.1599 0.0000 50.2314
#
#
#
# Elastic Compliance Matrix: (Units=1/GPa)
#
#
# Indices 1 2 3 4 5 6 
#
# 1 0.015024 -0.001284 -0.005208 0.000000 0.009533 0.000000
# 2 -0.001284 0.012332 -0.000437 0.000000 0.001439 0.000000
# 3 -0.005208 -0.000437 0.009732 0.000000 -0.002513 0.000000
# 4 0.000000 0.000000 0.000000 0.023674 0.000000 0.001018
# 5 0.009533 0.001439 -0.002513 0.000000 0.032049 0.000000
# 6 0.000000 0.000000 0.000000 0.001018 0.000000 0.019952
#
#
# Mechanical properties :
#
#
# Convention : Reuss Voigt Hill
#
# Bulk Modulus (GPa) = 43.04899 51.23214 47.14057
# Shear Modulus (GPa) = 37.21203 42.35161 39.78182
#
# Velocity S-wave (km/s) = 3.52621 3.76185 3.64594
# Velocity P-wave (km/s) = 5.56448 5.99897 5.78580
#
# Compressibility (1/GPa) = 0.02322935
#
# Stress axis : x y z
#
# Youngs Moduli (GPa) = 66.55879 81.09022 102.75527
#
# Poissons Ratio (x) = 0.10409 0.53519
# Poissons Ratio (y) = 0.08543 0.04495
# Poissons Ratio (z) = 0.34666 0.03547
#
# Static dielectric constant tensor:
#      x y z
#    x 4.790300 0.000000 -0.028260 
#    y 0.000000 5.448940 0.000000 
#    z -0.028260 0.000000 5.686650 
# 
# 
# High freq. dielectric constant tensor:
#      x y z
#    x 2.195320 0.000000 -0.012340 
#    y 0.000000 2.261030 0.000000 
#    z -0.012340 0.000000 2.247510 
# 
# From -- ./inp_files/5304.got.cif
#   From: 2010.03.12/outbox.cif.g09.slc.cpg/sg14_3_cif.got.tgz:5304.got - 2010.03.31 13:35:05.
