data_PCOD8128948
_publ_section_title
;
Structure prediction by ZEFSAII (Michael W. Deem and Ramdas Pophale) SiO2 
 PCOD8128948
Probable space group: P 21/C
;
_chemical_formula_sum "Si O2"
_cell_formula_units_Z 24
_cell_length_a 17.604553
_cell_length_b 6.327566
_cell_length_c 9.908839
_cell_angle_alpha 90.000000
_cell_angle_beta 101.896870
_cell_angle_gamma 90.000000
_cell_volume 1080.075898
_symmetry_space_group_name_H-M "P 21/C"
_symmetry_group_IT_number 14
_symmetry_cell_setting 'monoclinic'
loop_
_space_group_symop_operation_xyz
x,y,z
-x,1/2+y,1/2-z
-x,-y,-z
x,1/2-y,1/2+z
loop_
_atom_site_type_symbol
_atom_site_label
_atom_site_fract_x
_atom_site_fract_y
_atom_site_fract_z
Si Si1 0.715189 0.791095 0.029951
Si Si2 0.195078 0.847849 0.081820
Si Si3 0.649719 0.111824 0.371902
Si Si4 0.089372 0.034757 0.505982
Si Si5 0.149378 0.332906 0.759325
Si Si6 0.417053 0.590837 0.432189
O O1 0.759322 0.678052 0.168911
O O2 0.642305 0.906241 0.062310
O O3 0.681858 0.623602 0.909806
O O4 0.782158 0.948136 0.998981
O O5 0.276548 0.744019 0.153167
O O6 0.138120 0.678581 0.990255
O O7 0.144353 0.936521 0.187845
O O8 0.586153 0.132691 0.229506
O O9 0.607316 0.202808 0.490218
O O10 0.125974 0.144880 0.650386
O O11 0.095455 0.175618 0.372767
O O12 0.000000 0.000000 0.500000
O O13 0.500000 0.500000 0.500000
#
# Coordination Sequence:
#
# PCOD8128948 Si02
#       6
#     4   4   4   4   4   4
#     4  11  23  45  76 102 135 188 245 294 351 429
#     4  11  23  44  75 100 138 184 242 289 359 425
#     4  11  24  47  72 104 140 187 247 293 359 429
#     4  12  30  45  73 108 145 187 234 302 365 435
#     4  12  25  48  71 104 142 186 241 295 360 431
#     4  11  27  43  71 105 146 190 235 301 366 423
#
# _framework density 22.220662000000001
#
# number of rings (size 3 to 8) (size 9 to 14) (size 15 to 20)
#    0.000    0.667    3.333    3.000    9.333    2.667 
#    0.000    0.000    0.000    0.000    0.000    0.000 
#    0.000    0.000    0.000    0.000    0.000    0.000 
#
# Total GULP energy -297501.049264 kJ/mol
# GULP energy per Si atom -12395.877053 kJ/mol
# Density = 2.217009 g / cm^3
# Si number density = 22.220662 Si / 1000 Ang^3
#
#
#
# Elastic Constant Matrix: (Units=GPa)
#
#
# Indices 1 2 3 4 5 6 
#
# 1 103.1591 17.4831 18.7249 0.0000 -3.3184 0.0000
# 2 17.4831 93.4883 31.6121 0.0000 -12.1244 0.0000
# 3 18.7249 31.6121 120.7582 0.0000 -10.2168 0.0000
# 4 0.0000 0.0000 0.0000 33.5105 0.0000 -4.4359
# 5 -3.3184 -12.1244 -10.2168 0.0000 32.3108 0.0000
# 6 0.0000 0.0000 0.0000 -4.4359 0.0000 27.4632
#
#
#
# Elastic Compliance Matrix: (Units=1/GPa)
#
#
# Indices 1 2 3 4 5 6 
#
# 1 0.010163 -0.001488 -0.001177 0.000000 0.000113 0.000000
# 2 -0.001488 0.012358 -0.002697 0.000000 0.003632 0.000000
# 3 -0.001177 -0.002697 0.009323 0.000000 0.001815 0.000000
# 4 0.000000 0.000000 0.000000 0.030493 0.000000 0.004925
# 5 0.000113 0.003632 0.001815 0.000000 0.032898 0.000000
# 6 0.000000 0.000000 0.000000 0.004925 0.000000 0.037208
#
#
# Mechanical properties :
#
#
# Convention : Reuss Voigt Hill
#
# Bulk Modulus (GPa) = 47.34764 50.33842 48.84303
# Shear Modulus (GPa) = 33.28748 35.29595 34.29172
#
# Velocity S-wave (km/s) = 3.87465 3.98983 3.93267
# Velocity P-wave (km/s) = 6.43206 6.62783 6.53068
#
# Compressibility (1/GPa) = 0.02112038
#
# Stress axis : x y z
#
# Youngs Moduli (GPa) = 98.39425 80.92094 107.26062
#
# Poissons Ratio (x) = 0.12041 0.12622
# Poissons Ratio (y) = 0.14641 0.28929
# Poissons Ratio (z) = 0.11579 0.21825
#
# Static dielectric constant tensor:
#      x y z
#    x 3.944310 0.000000 -0.033760 
#    y 0.000000 4.228330 0.000000 
#    z -0.033760 0.000000 4.116040 
# 
# 
# High freq. dielectric constant tensor:
#      x y z
#    x 1.870580 0.000000 -0.004180 
#    y 0.000000 1.883810 0.000000 
#    z -0.004180 0.000000 1.880620 
# 
# From -- ./inp_files/33406.got.cif
#   From: 2010.03.12/outbox.cif.g09.slc.cpg/sg14_17_cif.got.tgz:33406.got - 2010.03.31 13:35:05.
