data_PCOD8128953
_publ_section_title
;
Structure prediction by ZEFSAII (Michael W. Deem and Ramdas Pophale) SiO2 
 PCOD8128953
Probable space group: P 21/C
;
_chemical_formula_sum "Si O2"
_cell_formula_units_Z 20
_cell_length_a 6.819777
_cell_length_b 5.846195
_cell_length_c 23.568719
_cell_angle_alpha 90.000000
_cell_angle_beta 74.743070
_cell_angle_gamma 90.000000
_cell_volume 906.560336
_symmetry_space_group_name_H-M "P 21/C"
_symmetry_group_IT_number 14
_symmetry_cell_setting 'monoclinic'
loop_
_space_group_symop_operation_xyz
x,y,z
-x,1/2+y,1/2-z
-x,-y,-z
x,1/2-y,1/2+z
loop_
_atom_site_type_symbol
_atom_site_label
_atom_site_fract_x
_atom_site_fract_y
_atom_site_fract_z
Si Si1 0.571448 0.143935 0.108793
Si Si2 0.776219 0.174965 0.879881
Si Si3 0.893274 0.253785 0.996424
Si Si4 0.454672 0.536440 0.193638
Si Si5 0.779881 0.614430 0.685377
O O1 0.512205 0.287463 0.168490
O O2 0.361057 0.048966 0.098852
O O3 0.724626 0.961863 0.125424
O O4 0.689885 0.270455 0.049593
O O5 0.834123 0.279821 0.935636
O O6 0.638084 0.343156 0.854256
O O7 0.977948 0.125280 0.828226
O O8 0.000000 0.500000 0.000000
O O9 0.000000 0.000000 0.000000
O O10 0.293347 0.544431 0.257163
O O11 0.664176 0.644538 0.201134
#
# Coordination Sequence:
#
# PCOD8128953 Si02
#       5
#     4   4   4   4   4
#     4  11  25  46  73 101 142 186 242 298 363 433
#     4  11  27  43  71 106 137 188 246 299 364 434
#     4  12  27  50  78 104 147 196 243 304 367 431
#     4  11  25  41  69 102 141 189 235 303 357 444
#     4  11  23  45  65 102 145 184 238 295 372 427
#
# _framework density 22.061409000000001
#
# number of rings (size 3 to 8) (size 9 to 14) (size 15 to 20)
#    0.000    0.800    4.000    1.800    8.400    2.400 
#    0.000    0.000    0.000    0.000    0.000    0.000 
#    0.000    0.000    0.000    0.000    0.000    0.000 
#
# Total GULP energy -247780.622026 kJ/mol
# GULP energy per Si atom -12389.031101 kJ/mol
# Density = 2.201120 g / cm^3
# Si number density = 22.061409 Si / 1000 Ang^3
#
#
#
# Elastic Constant Matrix: (Units=GPa)
#
#
# Indices 1 2 3 4 5 6 
#
# 1 124.7649 47.3493 42.1046 0.0000 -12.6938 0.0000
# 2 47.3493 105.4762 31.1297 0.0000 -0.1805 0.0000
# 3 42.1046 31.1297 132.6264 0.0000 -11.4026 0.0000
# 4 0.0000 0.0000 0.0000 34.0492 0.0000 2.5320
# 5 -12.6938 -0.1805 -11.4026 0.0000 42.9624 0.0000
# 6 0.0000 0.0000 0.0000 2.5320 0.0000 24.4011
#
#
#
# Elastic Compliance Matrix: (Units=1/GPa)
#
#
# Indices 1 2 3 4 5 6 
#
# 1 0.010560 -0.004094 -0.002174 0.000000 0.002526 0.000000
# 2 -0.004094 0.011789 -0.001604 0.000000 -0.001586 0.000000
# 3 -0.002174 -0.001604 0.008750 0.000000 0.001673 0.000000
# 4 0.000000 0.000000 0.000000 0.029598 0.000000 -0.003071
# 5 0.002526 -0.001586 0.001673 0.000000 0.024460 0.000000
# 6 0.000000 0.000000 0.000000 -0.003071 0.000000 0.041300
#
#
# Mechanical properties :
#
#
# Convention : Reuss Voigt Hill
#
# Bulk Modulus (GPa) = 65.12498 67.11497 66.11997
# Shear Modulus (GPa) = 33.93968 36.43479 35.18723
#
# Velocity S-wave (km/s) = 3.92652 4.06829 3.99804
# Velocity P-wave (km/s) = 7.08101 7.24955 7.16578
#
# Compressibility (1/GPa) = 0.01535509
#
# Stress axis : x y z
#
# Youngs Moduli (GPa) = 94.70058 84.82209 114.27929
#
# Poissons Ratio (x) = 0.34729 0.24846
# Poissons Ratio (y) = 0.38773 0.18327
# Poissons Ratio (z) = 0.20590 0.13603
#
# Static dielectric constant tensor:
#      x y z
#    x 4.002760 0.000000 -0.074990 
#    y 0.000000 4.089810 0.000000 
#    z -0.074990 0.000000 4.053010 
# 
# 
# High freq. dielectric constant tensor:
#      x y z
#    x 1.868420 0.000000 -0.004920 
#    y 0.000000 1.861990 0.000000 
#    z -0.004920 0.000000 1.890900 
# 
# From -- ./inp_files/75426.got.cif
#   From: 2010.03.12/outbox.cif.g09.slc.cpg/sg14_38_cif.got.tgz:75426.got - 2010.03.31 13:35:05.
