data_PCOD8128785
_publ_section_title
;
Structure prediction by ZEFSAII (Michael W. Deem and Ramdas Pophale) SiO2 
 PCOD8128785
Probable space group: P 21/C
;
_chemical_formula_sum "Si O2"
_cell_formula_units_Z 28
_cell_length_a 10.084347
_cell_length_b 14.244079
_cell_length_c 16.714151
_cell_angle_alpha 90.000000
_cell_angle_beta 33.101894
_cell_angle_gamma 90.000000
_cell_volume 1311.179752
_symmetry_space_group_name_H-M "P 21/C"
_symmetry_group_IT_number 14
_symmetry_cell_setting 'monoclinic'
loop_
_space_group_symop_operation_xyz
x,y,z
-x,1/2+y,1/2-z
-x,-y,-z
x,1/2-y,1/2+z
loop_
_atom_site_type_symbol
_atom_site_label
_atom_site_fract_x
_atom_site_fract_y
_atom_site_fract_z
Si Si1 0.952486 0.891363 0.653933
Si Si2 0.489632 0.697781 0.325560
Si Si3 0.346988 0.882558 0.324721
Si Si4 0.730213 0.466556 0.650436
Si Si5 0.491970 0.579090 0.072729
Si Si6 0.236326 0.756236 0.612600
Si Si7 0.045040 0.598297 0.822820
O O1 0.750296 0.852018 0.695924
O O2 0.194391 0.911987 0.480239
O O3 0.006905 0.814422 0.694379
O O4 0.874337 0.989961 0.733836
O O5 0.504703 0.790232 0.263479
O O6 0.291694 0.632174 0.383405
O O7 0.412426 0.721405 0.454153
O O8 0.538615 0.962935 0.206291
O O9 0.161918 0.865254 0.345891
O O10 0.681264 0.459194 0.769791
O O11 0.000000 0.500000 0.500000
O O12 0.386122 0.677078 0.095416
O O13 0.500000 0.500000 0.000000
O O14 0.754893 0.603534 0.975244
O O15 0.139091 0.663079 0.704045
#
# Coordination Sequence:
#
# PCOD8128785 Si02
#       7
#     4   4   4   4   4   4   4
#     4  11  22  46  73  95 138 190 232 287 357 432
#     4  11  25  45  69 104 143 179 240 295 357 418
#     4  11  24  46  70  99 132 191 233 288 359 429
#     4  12  27  45  72 105 140 180 237 301 355 416
#     4  12  24  48  74 104 144 194 239 291 369 436
#     4  11  26  42  68 110 141 191 232 296 361 430
#     4  12  23  44  75  98 140 187 244 287 355 437
#
# _framework density 21.354814999999999
#
# number of rings (size 3 to 8) (size 9 to 14) (size 15 to 20)
#    0.000    0.571    4.286    3.857    6.000    0.571 
#    7.714    0.000    0.000    0.000    0.000    0.000 
#    0.000    0.000    0.000    0.000    0.000    0.000 
#
# Total GULP energy -347341.189179 kJ/mol
# GULP energy per Si atom -12405.042471 kJ/mol
# Density = 2.130621 g / cm^3
# Si number density = 21.354815 Si / 1000 Ang^3
#
#
#
# Elastic Constant Matrix: (Units=GPa)
#
#
# Indices 1 2 3 4 5 6 
#
# 1 119.3091 35.0435 44.0813 0.0000 -6.9299 0.0000
# 2 35.0435 120.0872 33.1415 0.0000 -8.9044 0.0000
# 3 44.0813 33.1415 95.9155 0.0000 -6.7046 0.0000
# 4 0.0000 0.0000 0.0000 32.4881 0.0000 4.8511
# 5 -6.9299 -8.9044 -6.7046 0.0000 27.5457 0.0000
# 6 0.0000 0.0000 0.0000 4.8511 0.0000 52.9584
#
#
#
# Elastic Compliance Matrix: (Units=1/GPa)
#
#
# Indices 1 2 3 4 5 6 
#
# 1 0.010507 -0.001853 -0.004116 0.000000 0.001043 0.000000
# 2 -0.001853 0.009670 -0.002344 0.000000 0.002089 0.000000
# 3 -0.004116 -0.002344 0.013227 0.000000 0.001426 0.000000
# 4 0.000000 0.000000 0.000000 0.031207 0.000000 -0.002859
# 5 0.001043 0.002089 0.001426 0.000000 0.037588 0.000000
# 6 0.000000 0.000000 0.000000 -0.002859 0.000000 0.019145
#
#
# Mechanical properties :
#
#
# Convention : Reuss Voigt Hill
#
# Bulk Modulus (GPa) = 59.59789 62.20493 60.90141
# Shear Modulus (GPa) = 34.82835 37.46815 36.14825
#
# Velocity S-wave (km/s) = 4.04287 4.19328 4.11876
# Velocity P-wave (km/s) = 7.05422 7.25516 7.15539
#
# Compressibility (1/GPa) = 0.01677912
#
# Stress axis : x y z
#
# Youngs Moduli (GPa) = 95.17424 103.41600 75.60388
#
# Poissons Ratio (x) = 0.19163 0.31117
# Poissons Ratio (y) = 0.17636 0.17718
# Poissons Ratio (z) = 0.39171 0.24236
#
# Static dielectric constant tensor:
#      x y z
#    x 3.983100 0.000000 -0.042030 
#    y 0.000000 4.114210 0.000000 
#    z -0.042030 0.000000 3.604880 
# 
# 
# High freq. dielectric constant tensor:
#      x y z
#    x 1.854870 0.000000 -0.005340 
#    y 0.000000 1.858040 0.000000 
#    z -0.005340 0.000000 1.818450 
# 
# From -- ./inp_files/41389.got.cif
#   From: 2010.03.12/outbox.cif.g09.slc.cpg/sg14_21_cif.got.tgz:41389.got - 2010.03.31 13:35:05.
