data_PCOD8128665
_publ_section_title
;
Structure prediction by ZEFSAII (Michael W. Deem and Ramdas Pophale) SiO2 
 PCOD8128665
Probable space group: P 21/C
;
_chemical_formula_sum "Si O2"
_cell_formula_units_Z 20
_cell_length_a 13.116006
_cell_length_b 9.547554
_cell_length_c 7.404036
_cell_angle_alpha 90.000000
_cell_angle_beta 65.682525
_cell_angle_gamma 90.000000
_cell_volume 844.914972
_symmetry_space_group_name_H-M "P 21/C"
_symmetry_group_IT_number 14
_symmetry_cell_setting 'monoclinic'
loop_
_space_group_symop_operation_xyz
x,y,z
-x,1/2+y,1/2-z
-x,-y,-z
x,1/2-y,1/2+z
loop_
_atom_site_type_symbol
_atom_site_label
_atom_site_fract_x
_atom_site_fract_y
_atom_site_fract_z
Si Si1 0.595064 0.850127 0.604960
Si Si2 0.149590 0.546127 0.589561
Si Si3 0.058907 0.343738 0.370612
Si Si4 0.392183 0.039169 0.805642
Si Si5 0.169462 0.078780 0.430024
O O1 0.584774 0.680853 0.595693
O O2 0.613176 0.913009 0.395726
O O3 0.699047 0.893383 0.651938
O O4 0.486704 0.922627 0.773948
O O5 0.080429 0.418101 0.546829
O O6 0.277274 0.541289 0.432572
O O7 0.148041 0.551789 0.810714
O O8 0.074795 0.677976 0.574106
O O9 0.121380 0.198457 0.333822
O O10 0.109856 0.434933 0.165860
#
# Coordination Sequence:
#
# PCOD8128665 Si02
#       5
#     4   4   4   4   4
#     4  11  23  41  69  95 132 171 218 270 321 394
#     4  11  23  39  64  89 130 165 212 264 316 387
#     4  11  22  38  62  94 121 167 211 261 317 385
#     4  11  23  43  65  98 132 171 218 270 327 383
#     4  12  20  41  66  91 128 171 212 258 336 382
#
# _framework density 23.671019999999999
#
# number of rings (size 3 to 8) (size 9 to 14) (size 15 to 20)
#    0.000    0.800    6.000    1.800    0.000    3.200 
#    0.000    8.000    0.000    0.000    0.000    0.000 
#    0.000    0.000    0.000    0.000    0.000    0.000 
#
# Total GULP energy -247810.417516 kJ/mol
# GULP energy per Si atom -12390.520876 kJ/mol
# Density = 2.361714 g / cm^3
# Si number density = 23.671020 Si / 1000 Ang^3
#
#
#
# Elastic Constant Matrix: (Units=GPa)
#
#
# Indices 1 2 3 4 5 6 
#
# 1 188.0274 67.3268 51.6881 0.0000 -30.0770 0.0000
# 2 67.3268 33.1437 10.0183 0.0000 -7.4443 0.0000
# 3 51.6881 10.0183 100.4987 0.0000 5.6937 0.0000
# 4 0.0000 0.0000 0.0000 17.1797 0.0000 1.2970
# 5 -30.0770 -7.4443 5.6937 0.0000 36.7778 0.0000
# 6 0.0000 0.0000 0.0000 1.2970 0.0000 36.8262
#
#
#
# Elastic Compliance Matrix: (Units=1/GPa)
#
#
# Indices 1 2 3 4 5 6 
#
# 1 0.030969 -0.055977 -0.011239 0.000000 0.015736 0.000000
# 2 -0.055977 0.134091 0.016624 0.000000 -0.021210 0.000000
# 3 -0.011239 0.016624 0.014531 0.000000 -0.008076 0.000000
# 4 0.000000 0.000000 0.000000 0.058363 0.000000 -0.002056
# 5 0.015736 -0.021210 -0.008076 0.000000 0.037016 0.000000
# 6 0.000000 0.000000 0.000000 -0.002056 0.000000 0.027227
#
#
# Mechanical properties :
#
#
# Convention : Reuss Voigt Hill
#
# Bulk Modulus (GPa) = 12.75377 64.41514 38.58446
# Shear Modulus (GPa) = 11.64100 30.99917 21.32009
#
# Velocity S-wave (km/s) = 2.22002 3.62274 3.00439
# Velocity P-wave (km/s) = 3.45991 6.69109 5.32643
#
# Compressibility (1/GPa) = 0.07840816
#
# Stress axis : x y z
#
# Youngs Moduli (GPa) = 32.29085 7.45761 68.81784
#
# Poissons Ratio (x) = 0.41745 0.77344
# Poissons Ratio (y) = 1.80753 -1.14404
# Poissons Ratio (z) = 0.36292 -0.12398
#
# Static dielectric constant tensor:
#      x y z
#    x 4.678980 0.000000 -0.032830 
#    y 0.000000 4.126810 0.000000 
#    z -0.032830 0.000000 4.328340 
# 
# 
# High freq. dielectric constant tensor:
#      x y z
#    x 1.961120 0.000000 0.008570 
#    y 0.000000 1.891900 0.000000 
#    z 0.008570 0.000000 1.953320 
# 
# From -- ./inp_files/12047.got.cif
#   From: 2010.03.12/outbox.cif.g09.slc.cpg/sg14_7_cif.got.tgz:12047.got - 2010.03.31 13:35:05.
