data_PCOD8128802
_publ_section_title
;
Structure prediction by ZEFSAII (Michael W. Deem and Ramdas Pophale) SiO2 
 PCOD8128802
Probable space group: P 21/C
;
_chemical_formula_sum "Si O2"
_cell_formula_units_Z 24
_cell_length_a 15.731086
_cell_length_b 11.535868
_cell_length_c 13.426300
_cell_angle_alpha 90.000000
_cell_angle_beta 26.977079
_cell_angle_gamma 90.000000
_cell_volume 1105.276525
_symmetry_space_group_name_H-M "P 21/C"
_symmetry_group_IT_number 14
_symmetry_cell_setting 'monoclinic'
loop_
_space_group_symop_operation_xyz
x,y,z
-x,1/2+y,1/2-z
-x,-y,-z
x,1/2-y,1/2+z
loop_
_atom_site_type_symbol
_atom_site_label
_atom_site_fract_x
_atom_site_fract_y
_atom_site_fract_z
Si Si1 0.586507 0.393425 0.718296
Si Si2 0.191918 0.373903 0.201726
Si Si3 0.308080 0.373905 0.298277
Si Si4 0.150310 0.717216 0.951716
Si Si5 0.913492 0.106574 0.281706
Si Si6 0.650308 0.217217 0.951718
O O1 0.581902 0.527503 0.754679
O O2 0.730091 0.327394 0.638961
O O3 0.647364 0.381642 0.539366
O O4 0.379671 0.338679 0.946243
O O5 0.249997 0.421078 0.250004
O O6 0.081904 0.472495 0.254676
O O7 0.059794 0.261703 0.351552
O O8 0.120329 0.338681 0.553760
O O9 0.440205 0.261705 0.148449
O O10 0.147370 0.618357 0.039360
O O11 0.250002 0.663145 0.749998
O O12 0.769911 0.172606 0.361035
#
# Coordination Sequence:
#
# PCOD8128802 Si02
#       6
#     4   4   4   4   4   4
#     4  11  23  37  64  93 122 154 205 255 295 352
#     4  12  21  39  67  93 115 160 209 248 294 358
#     4  12  21  39  67  93 115 160 209 248 294 358
#     4  11  23  41  61  91 125 159 200 249 305 356
#     4  11  23  37  64  93 122 154 205 255 295 352
#     4  11  23  41  61  91 125 159 200 249 305 356
#
# _framework density 21.714023000000001
#
# number of rings (size 3 to 8) (size 9 to 14) (size 15 to 20)
#    0.000    0.667    6.667    3.000    0.000    0.000 
#    0.000    1.667    0.000    0.000    0.000    0.000 
#    0.000    0.000    0.000    0.000    0.000    0.000 
#
# Total GULP energy -297706.940771 kJ/mol
# GULP energy per Si atom -12404.455865 kJ/mol
# Density = 2.166460 g / cm^3
# Si number density = 21.714023 Si / 1000 Ang^3
#
#
#
# Elastic Constant Matrix: (Units=GPa)
#
#
# Indices 1 2 3 4 5 6 
#
# 1 100.1120 19.6114 48.2117 0.0000 19.3277 0.0000
# 2 19.6114 34.5438 1.4031 0.0000 7.8123 0.0000
# 3 48.2117 1.4031 138.2581 0.0000 11.2722 0.0000
# 4 0.0000 0.0000 0.0000 24.0107 0.0000 3.7601
# 5 19.3277 7.8123 11.2722 0.0000 56.1142 0.0000
# 6 0.0000 0.0000 0.0000 3.7601 0.0000 9.7562
#
#
#
# Elastic Compliance Matrix: (Units=1/GPa)
#
#
# Indices 1 2 3 4 5 6 
#
# 1 0.014206 -0.007208 -0.004639 0.000000 -0.002958 0.000000
# 2 -0.007208 0.033547 0.002390 0.000000 -0.002668 0.000000
# 3 -0.004639 0.002390 0.008869 0.000000 -0.000516 0.000000
# 4 0.000000 0.000000 0.000000 0.044323 0.000000 -0.017082
# 5 -0.002958 -0.002668 -0.000516 0.000000 0.019315 0.000000
# 6 0.000000 0.000000 0.000000 -0.017082 0.000000 0.109082
#
#
# Mechanical properties :
#
#
# Convention : Reuss Voigt Hill
#
# Bulk Modulus (GPa) = 26.51949 45.70735 36.11342
# Shear Modulus (GPa) = 19.16996 31.55540 25.36268
#
# Velocity S-wave (km/s) = 2.97448 3.81626 3.42136
# Velocity P-wave (km/s) = 4.90268 6.36505 5.68111
#
# Compressibility (1/GPa) = 0.03770812
#
# Stress axis : x y z
#
# Youngs Moduli (GPa) = 70.39263 29.80880 112.75852
#
# Poissons Ratio (x) = 0.21486 0.52314
# Poissons Ratio (y) = 0.50738 -0.26955
# Poissons Ratio (z) = 0.32658 -0.07126
#
# Static dielectric constant tensor:
#      x y z
#    x 3.922950 0.000000 0.024370 
#    y 0.000000 3.180770 0.000000 
#    z 0.024370 0.000000 4.312900 
# 
# 
# High freq. dielectric constant tensor:
#      x y z
#    x 1.859130 0.000000 -0.004580 
#    y 0.000000 1.796760 0.000000 
#    z -0.004580 0.000000 1.881640 
# 
# From -- ./inp_files/32693.got.cif
#   From: 2010.03.12/outbox.cif.g09.slc.cpg/sg14_17_cif.got.tgz:32693.got - 2010.03.31 13:35:05.
