data_PCOD8128575
_publ_section_title
;
Structure prediction by ZEFSAII (Michael W. Deem and Ramdas Pophale) SiO2 
 PCOD8128575
Probable space group: P 21/C
;
_chemical_formula_sum "Si O2"
_cell_formula_units_Z 24
_cell_length_a 9.406367
_cell_length_b 9.294392
_cell_length_c 13.697269
_cell_angle_alpha 90.000000
_cell_angle_beta 111.181782
_cell_angle_gamma 90.000000
_cell_volume 1116.598904
_symmetry_space_group_name_H-M "P 21/C"
_symmetry_group_IT_number 14
_symmetry_cell_setting 'monoclinic'
loop_
_space_group_symop_operation_xyz
x,y,z
-x,1/2+y,1/2-z
-x,-y,-z
x,1/2-y,1/2+z
loop_
_atom_site_type_symbol
_atom_site_label
_atom_site_fract_x
_atom_site_fract_y
_atom_site_fract_z
Si Si1 0.742112 0.561068 0.692299
Si Si2 0.222786 0.619095 0.010997
Si Si3 0.365644 0.746397 0.860030
Si Si4 0.585475 0.158935 0.836750
Si Si5 0.689676 0.620088 0.466308
Si Si6 0.880578 0.840958 0.415045
O O1 0.730708 0.388446 0.690288
O O2 0.593869 0.644956 0.693560
O O3 0.777983 0.614733 0.591617
O O4 0.874689 0.605696 0.800929
O O5 0.280310 0.644122 0.915437
O O6 0.055750 0.687685 0.985766
O O7 0.348225 0.686737 0.114534
O O8 0.204546 0.451111 0.031957
O O9 0.384397 0.644215 0.770902
O O10 0.527902 0.801023 0.941779
O O11 0.668602 0.041415 0.923589
O O12 0.792767 0.692515 0.409349
#
# Coordination Sequence:
#
# PCOD8128575 Si02
#       6
#     4   4   4   4   4   4
#     4  11  21  42  67  94 128 166 216 267 315 376
#     4  11  24  45  62  92 132 173 204 260 328 379
#     4  11  21  41  70  92 125 171 214 259 321 381
#     4  11  21  40  70  94 124 167 215 264 320 375
#     4  11  23  41  67  99 121 166 217 273 309 377
#     4  11  26  42  63  95 136 164 211 267 316 378
#
# _framework density 21.493841
#
# number of rings (size 3 to 8) (size 9 to 14) (size 15 to 20)
#    0.000    1.000    6.667    1.000    0.000    4.000 
#    3.000    0.000    0.000    0.000    0.000    0.000 
#    0.000    0.000    0.000    0.000    0.000    0.000 
#
# Total GULP energy -297614.185818 kJ/mol
# GULP energy per Si atom -12400.591076 kJ/mol
# Density = 2.144492 g / cm^3
# Si number density = 21.493841 Si / 1000 Ang^3
#
#
#
# Elastic Constant Matrix: (Units=GPa)
#
#
# Indices 1 2 3 4 5 6 
#
# 1 32.9043 22.3707 11.1021 0.0000 -7.6609 0.0000
# 2 22.3707 28.3543 22.3217 0.0000 -6.6630 0.0000
# 3 11.1021 22.3217 119.7318 0.0000 -25.7841 0.0000
# 4 0.0000 0.0000 0.0000 26.4987 0.0000 0.2338
# 5 -7.6609 -6.6630 -25.7841 0.0000 33.2098 0.0000
# 6 0.0000 0.0000 0.0000 0.2338 0.0000 19.5432
#
#
#
# Elastic Compliance Matrix: (Units=1/GPa)
#
#
# Indices 1 2 3 4 5 6 
#
# 1 0.069741 -0.057800 0.006335 0.000000 0.009410 0.000000
# 2 -0.057800 0.089451 -0.012396 0.000000 -0.005011 0.000000
# 3 0.006335 -0.012396 0.011833 0.000000 0.008162 0.000000
# 4 0.000000 0.000000 0.000000 0.037742 0.000000 -0.000451
# 5 0.009410 -0.005011 0.008162 0.000000 0.037614 0.000000
# 6 0.000000 0.000000 0.000000 -0.000451 0.000000 0.051174
#
#
# Mechanical properties :
#
#
# Convention : Reuss Voigt Hill
#
# Bulk Modulus (GPa) = 23.09212 32.50883 27.80047
# Shear Modulus (GPa) = 11.37111 24.19674 17.78392
#
# Velocity S-wave (km/s) = 2.30258 3.35886 2.87957
# Velocity P-wave (km/s) = 4.22328 5.49547 4.90083
#
# Compressibility (1/GPa) = 0.04330482
#
# Stress axis : x y z
#
# Youngs Moduli (GPa) = 14.33876 11.17925 84.50818
#
# Poissons Ratio (x) = 0.64616 -0.53539
# Poissons Ratio (y) = 0.82878 1.04757
# Poissons Ratio (z) = -0.09084 0.13858
#
# Static dielectric constant tensor:
#      x y z
#    x 3.700510 0.000000 0.011970 
#    y 0.000000 3.695460 0.000000 
#    z 0.011970 0.000000 4.023270 
# 
# 
# High freq. dielectric constant tensor:
#      x y z
#    x 1.823750 0.000000 -0.003810 
#    y 0.000000 1.834930 0.000000 
#    z -0.003810 0.000000 1.860640 
# 
# From -- ./inp_files/38893.got.cif
#   From: 2010.03.12/outbox.cif.g09.slc.cpg/sg14_20_cif.got.tgz:38893.got - 2010.03.31 13:35:05.
