data_PCOD8128812
_publ_section_title
;
Structure prediction by ZEFSAII (Michael W. Deem and Ramdas Pophale) SiO2 
 PCOD8128812
Probable space group: P 21/C
;
_chemical_formula_sum "Si O2"
_cell_formula_units_Z 32
_cell_length_a 14.392024
_cell_length_b 12.112698
_cell_length_c 26.478080
_cell_angle_alpha 90.000000
_cell_angle_beta 18.623207
_cell_angle_gamma 90.000000
_cell_volume 1474.031893
_symmetry_space_group_name_H-M "P 21/C"
_symmetry_group_IT_number 14
_symmetry_cell_setting 'monoclinic'
loop_
_space_group_symop_operation_xyz
x,y,z
-x,1/2+y,1/2-z
-x,-y,-z
x,1/2-y,1/2+z
loop_
_atom_site_type_symbol
_atom_site_label
_atom_site_fract_x
_atom_site_fract_y
_atom_site_fract_z
Si Si1 0.314251 0.390128 0.085311
Si Si2 0.769046 0.494299 0.326670
Si Si3 0.380514 0.967585 0.852375
Si Si4 0.291376 0.023521 0.784669
Si Si5 0.132610 0.281231 0.761140
Si Si6 0.267441 0.618894 0.756695
Si Si7 0.564227 0.259650 0.617702
Si Si8 0.393552 0.336425 0.932654
O O1 0.295033 0.312942 0.144478
O O2 0.980939 0.413188 0.245963
O O3 0.500000 0.500000 0.000000
O O4 0.417198 0.326831 0.981518
O O5 0.500000 0.500000 0.500000
O O6 0.942675 0.611180 0.233204
O O7 0.649828 0.446248 0.336016
O O8 0.425818 0.836376 0.837793
O O9 0.408156 0.988695 0.779054
O O10 0.636160 0.040294 0.746538
O O11 0.056177 0.992631 0.040102
O O12 0.410816 0.145193 0.711224
O O13 0.424105 0.944837 0.674160
O O14 0.374046 0.325269 0.675186
O O15 0.871496 0.245694 0.931382
O O16 0.456973 0.728605 0.666982
O O17 0.924820 0.649582 0.929116
#
# Coordination Sequence:
#
# PCOD8128812 Si02
#       8
#     4   4   4   4   4   4   4   4
#     4  11  25  41  65  98 138 188 233 287 348 423
#     4  11  23  39  64  97 137 181 235 285 349 415
#     4  11  26  47  72 102 140 183 235 302 360 423
#     4  11  26  47  73 105 140 184 240 295 364 426
#     4  12  23  43  68 101 138 185 235 290 349 420
#     4  11  24  45  67 100 139 183 231 286 355 422
#     4  12  24  45  71 103 138 184 236 292 355 422
#     4  11  25  45  70 101 143 186 231 291 355 425
#
# _framework density 21.709164999999999
#
# number of rings (size 3 to 8) (size 9 to 14) (size 15 to 20)
#    0.000    0.750    2.500    5.250    1.750    4.500 
#    0.000    0.000    0.000    0.000    0.000    0.000 
#    0.000    0.000    0.000    0.000    0.000    0.000 
#
# Total GULP energy -396582.863729 kJ/mol
# GULP energy per Si atom -12393.214492 kJ/mol
# Density = 2.165975 g / cm^3
# Si number density = 21.709165 Si / 1000 Ang^3
#
#
#
# Elastic Constant Matrix: (Units=GPa)
#
#
# Indices 1 2 3 4 5 6 
#
# 1 84.3125 16.0838 16.4782 0.0000 -7.0471 0.0000
# 2 16.0838 116.6822 12.2979 0.0000 4.7871 0.0000
# 3 16.4782 12.2979 82.7178 0.0000 3.0618 0.0000
# 4 0.0000 0.0000 0.0000 36.7815 0.0000 -1.0661
# 5 -7.0471 4.7871 3.0618 0.0000 29.7394 0.0000
# 6 0.0000 0.0000 0.0000 -1.0661 0.0000 35.5694
#
#
#
# Elastic Compliance Matrix: (Units=1/GPa)
#
#
# Indices 1 2 3 4 5 6 
#
# 1 0.012963 -0.001674 -0.002466 0.000000 0.003595 0.000000
# 2 -0.001674 0.008971 -0.000936 0.000000 -0.001744 0.000000
# 3 -0.002466 -0.000936 0.012785 0.000000 -0.001750 0.000000
# 4 0.000000 0.000000 0.000000 0.027211 0.000000 0.000816
# 5 0.003595 -0.001744 -0.001750 0.000000 0.034938 0.000000
# 6 0.000000 0.000000 0.000000 0.000816 0.000000 0.028138
#
#
# Mechanical properties :
#
#
# Convention : Reuss Voigt Hill
#
# Bulk Modulus (GPa) = 40.70748 41.49249 41.09998
# Shear Modulus (GPa) = 34.88022 36.34157 35.61090
#
# Velocity S-wave (km/s) = 4.01272 4.09592 4.05453
# Velocity P-wave (km/s) = 6.34517 6.44384 6.39470
#
# Compressibility (1/GPa) = 0.02456551
#
# Stress axis : x y z
#
# Youngs Moduli (GPa) = 77.14521 111.46694 78.21962
#
# Poissons Ratio (x) = 0.18663 0.19292
# Poissons Ratio (y) = 0.12917 0.07319
# Poissons Ratio (z) = 0.19027 0.10430
#
# Static dielectric constant tensor:
#      x y z
#    x 4.104260 0.000000 -0.095660 
#    y 0.000000 3.917790 0.000000 
#    z -0.095660 0.000000 3.872990 
# 
# 
# High freq. dielectric constant tensor:
#      x y z
#    x 1.861760 0.000000 -0.007060 
#    y 0.000000 1.864710 0.000000 
#    z -0.007060 0.000000 1.859570 
# 
# From -- ./inp_files/77588.got.cif
#   From: 2010.03.12/outbox.cif.g09.slc.cpg/sg14_39_cif.got.tgz:77588.got - 2010.03.31 13:35:05.
