data_PCOD8128308
_publ_section_title
;
Structure prediction by ZEFSAII (Michael W. Deem and Ramdas Pophale) SiO2 
 PCOD8128308
Probable space group: P 21/C
;
_chemical_formula_sum "Si O2"
_cell_formula_units_Z 20
_cell_length_a 4.984751
_cell_length_b 9.779637
_cell_length_c 16.891153
_cell_angle_alpha 90.000000
_cell_angle_beta 78.675698
_cell_angle_gamma 90.000000
_cell_volume 807.396816
_symmetry_space_group_name_H-M "P 21/C"
_symmetry_group_IT_number 14
_symmetry_cell_setting 'monoclinic'
loop_
_space_group_symop_operation_xyz
x,y,z
-x,1/2+y,1/2-z
-x,-y,-z
x,1/2-y,1/2+z
loop_
_atom_site_type_symbol
_atom_site_label
_atom_site_fract_x
_atom_site_fract_y
_atom_site_fract_z
Si Si1 0.564844 0.847492 0.394388
Si Si2 0.691818 0.893108 0.784115
Si Si3 0.137413 0.979626 0.873703
Si Si4 0.120567 0.218438 0.994518
Si Si5 0.063550 0.029819 0.392166
O O1 0.665856 0.764791 0.311282
O O2 0.606090 0.747178 0.468596
O O3 0.255025 0.900199 0.403642
O O4 0.760897 0.978552 0.390239
O O5 0.392032 0.959008 0.800947
O O6 0.811967 0.890995 0.689647
O O7 0.870368 0.984990 0.834214
O O8 0.186953 0.118859 0.918370
O O9 0.114430 0.851576 0.936750
O O10 0.027862 0.366079 0.967163
#
# Coordination Sequence:
#
# PCOD8128308 Si02
#       5
#     4   4   4   4   4
#     4  11  25  45  65 101 136 172 227 280 328 399
#     4  11  25  44  67  98 138 176 223 278 331 399
#     4  10  24  46  70  97 137 179 227 267 328 402
#     4  10  24  45  72 100 133 181 222 275 330 397
#     4  12  26  40  72  97 139 174 223 276 342 388
#
# _framework density 24.770969000000001
#
# number of rings (size 3 to 8) (size 9 to 14) (size 15 to 20)
#    0.000    1.200    0.000    4.800    5.600   13.600 
#    0.000    0.000    0.000    0.000    0.000    0.000 
#    0.000    0.000    0.000    0.000    0.000    0.000 
#
# Total GULP energy -248063.885589 kJ/mol
# GULP energy per Si atom -12403.194279 kJ/mol
# Density = 2.471459 g / cm^3
# Si number density = 24.770969 Si / 1000 Ang^3
#
#
#
# Elastic Constant Matrix: (Units=GPa)
#
#
# Indices 1 2 3 4 5 6 
#
# 1 67.7125 4.5732 11.5892 0.0000 4.4886 0.0000
# 2 4.5732 100.8990 5.9586 0.0000 17.9167 0.0000
# 3 11.5892 5.9586 91.1480 0.0000 0.0140 0.0000
# 4 0.0000 0.0000 0.0000 47.7161 0.0000 8.6627
# 5 4.4886 17.9167 0.0140 0.0000 31.1407 0.0000
# 6 0.0000 0.0000 0.0000 8.6627 0.0000 28.5782
#
#
#
# Elastic Compliance Matrix: (Units=1/GPa)
#
#
# Indices 1 2 3 4 5 6 
#
# 1 0.015250 -0.000209 -0.001925 0.000000 -0.002077 0.000000
# 2 -0.000209 0.011089 -0.000697 0.000000 -0.006350 0.000000
# 3 -0.001925 -0.000697 0.011261 0.000000 0.000674 0.000000
# 4 0.000000 0.000000 0.000000 0.022178 0.000000 -0.006723
# 5 -0.002077 -0.006350 0.000674 0.000000 0.036065 0.000000
# 6 0.000000 0.000000 0.000000 -0.006723 0.000000 0.037029
#
#
# Mechanical properties :
#
#
# Convention : Reuss Voigt Hill
#
# Bulk Modulus (GPa) = 31.31071 33.77793 32.54432
# Shear Modulus (GPa) = 33.51657 37.32959 35.42308
#
# Velocity S-wave (km/s) = 3.68238 3.88621 3.78567
# Velocity P-wave (km/s) = 5.54504 5.81399 5.68111
#
# Compressibility (1/GPa) = 0.03193795
#
# Stress axis : x y z
#
# Youngs Moduli (GPa) = 65.57558 90.17899 88.79878
#
# Poissons Ratio (x) = 0.01882 0.17094
# Poissons Ratio (y) = 0.01368 0.06193
# Poissons Ratio (z) = 0.12623 0.06289
#
# Static dielectric constant tensor:
#      x y z
#    x 4.208740 0.000000 0.130590 
#    y 0.000000 4.475150 0.000000 
#    z 0.130590 0.000000 4.510970 
# 
# 
# High freq. dielectric constant tensor:
#      x y z
#    x 1.983220 0.000000 -0.000240 
#    y 0.000000 1.992530 0.000000 
#    z -0.000240 0.000000 1.996830 
# 
# From -- ./inp_files/52700.got.cif
#   From: 2010.03.12/outbox.cif.g09.slc.cpg/sg14_27_cif.got.tgz:52700.got - 2010.03.31 13:35:05.
