data_PCOD8128442
_publ_section_title
;
Structure prediction by ZEFSAII (Michael W. Deem and Ramdas Pophale) SiO2 
 PCOD8128442
Probable space group: P 21/C
;
_chemical_formula_sum "Si O2"
_cell_formula_units_Z 32
_cell_length_a 12.377134
_cell_length_b 20.294743
_cell_length_c 8.909386
_cell_angle_alpha 90.000000
_cell_angle_beta 46.094392
_cell_angle_gamma 90.000000
_cell_volume 1612.409344
_symmetry_space_group_name_H-M "P 21/C"
_symmetry_group_IT_number 14
_symmetry_cell_setting 'monoclinic'
loop_
_space_group_symop_operation_xyz
x,y,z
-x,1/2+y,1/2-z
-x,-y,-z
x,1/2-y,1/2+z
loop_
_atom_site_type_symbol
_atom_site_label
_atom_site_fract_x
_atom_site_fract_y
_atom_site_fract_z
Si Si1 0.330098 0.379738 0.417241
Si Si2 0.141697 0.283213 0.442799
Si Si3 0.673304 0.496402 0.378935
Si Si4 0.548381 0.571730 0.998154
Si Si5 0.662528 0.135889 0.056682
Si Si6 0.216962 0.075096 0.480784
Si Si7 0.989541 0.174440 0.783477
Si Si8 0.401139 0.312720 0.637449
O O1 0.172461 0.343711 0.527390
O O2 0.292360 0.451276 0.522150
O O3 0.421691 0.332855 0.443648
O O4 0.429358 0.385619 0.172431
O O5 0.033921 0.230007 0.621591
O O6 0.061980 0.309434 0.372395
O O7 0.307013 0.254471 0.241710
O O8 0.500000 0.500000 0.500000
O O9 0.708778 0.423397 0.401230
O O10 0.778241 0.510515 0.131210
O O11 0.423095 0.607983 0.216674
O O12 0.704795 0.562662 0.935277
O O13 0.500000 0.500000 0.000000
O O14 0.562675 0.190271 0.063781
O O15 0.811105 0.172500 0.969720
O O16 0.049963 0.102779 0.669992
O O17 0.310772 0.129090 0.301795
#
# Coordination Sequence:
#
# PCOD8128442 Si02
#       8
#     4   4   4   4   4   4   4   4
#     4  11  19  35  69  92 111 162 219 250 301 367
#     4  11  22  43  65  85 121 173 218 248 305 394
#     4  11  18  37  65  93 124 159 208 260 307 381
#     4  11  19  34  62  96 121 156 206 261 304 364
#     4  11  23  40  61  96 131 156 201 273 320 358
#     4   9  19  35  60  86 118 168 199 236 313 376
#     4  11  24  43  61  88 128 166 203 264 319 370
#     4   9  20  38  63  90 114 162 217 249 301 375
#
# _framework density 19.846076
#
# number of rings (size 3 to 8) (size 9 to 14) (size 15 to 20)
#    0.000    1.500    7.500    0.000    0.000    0.500 
#    4.500    2.500    0.000    0.000    0.000    0.000 
#    0.000    0.000    0.000    0.000    0.000    0.000 
#
# Total GULP energy -396741.221244 kJ/mol
# GULP energy per Si atom -12398.163164 kJ/mol
# Density = 1.980091 g / cm^3
# Si number density = 19.846076 Si / 1000 Ang^3
#
#
#
# Elastic Constant Matrix: (Units=GPa)
#
#
# Indices 1 2 3 4 5 6 
#
# 1 130.7448 42.5307 56.4681 0.0000 1.1349 0.0000
# 2 42.5307 62.4332 18.7036 0.0000 -3.0397 0.0000
# 3 56.4681 18.7036 81.6806 0.0000 6.6256 0.0000
# 4 0.0000 0.0000 0.0000 26.6407 0.0000 5.3391
# 5 1.1349 -3.0397 6.6256 0.0000 36.7000 0.0000
# 6 0.0000 0.0000 0.0000 5.3391 0.0000 31.0615
#
#
#
# Elastic Compliance Matrix: (Units=1/GPa)
#
#
# Indices 1 2 3 4 5 6 
#
# 1 0.013054 -0.006613 -0.007544 0.000000 0.000411 0.000000
# 2 -0.006613 0.020718 -0.000333 0.000000 0.001981 0.000000
# 3 -0.007544 -0.000333 0.017778 0.000000 -0.003004 0.000000
# 4 0.000000 0.000000 0.000000 0.038876 0.000000 -0.006682
# 5 0.000411 0.001981 -0.003004 0.000000 0.027942 0.000000
# 6 0.000000 0.000000 0.000000 -0.006682 0.000000 0.033343
#
#
# Mechanical properties :
#
#
# Convention : Reuss Voigt Hill
#
# Bulk Modulus (GPa) = 44.30511 56.69593 50.50052
# Shear Modulus (GPa) = 26.56556 29.35751 27.96154
#
# Velocity S-wave (km/s) = 3.66263 3.85029 3.75763
# Velocity P-wave (km/s) = 6.34502 6.95673 6.65791
#
# Compressibility (1/GPa) = 0.02257076
#
# Stress axis : x y z
#
# Youngs Moduli (GPa) = 76.60394 48.26689 56.24932
#
# Poissons Ratio (x) = 0.31918 0.42433
# Poissons Ratio (y) = 0.50657 0.01874
# Poissons Ratio (z) = 0.57788 0.01608
#
# Static dielectric constant tensor:
#      x y z
#    x 3.703860 0.000000 0.113620 
#    y 0.000000 3.947020 0.000000 
#    z 0.113620 0.000000 3.545390 
# 
# 
# High freq. dielectric constant tensor:
#      x y z
#    x 1.775140 0.000000 0.025920 
#    y 0.000000 1.768450 0.000000 
#    z 0.025920 0.000000 1.758660 
# 
# From -- ./inp_files/14314.got.cif
#   From: 2010.03.12/outbox.cif.g09.slc.cpg/sg14_8_cif.got.tgz:14314.got - 2010.03.31 13:35:05.
