data_PCOD8128326
_publ_section_title
;
Structure prediction by ZEFSAII (Michael W. Deem and Ramdas Pophale) SiO2 
 PCOD8128326
Probable space group: P 21/C
;
_chemical_formula_sum "Si O2"
_cell_formula_units_Z 32
_cell_length_a 10.930341
_cell_length_b 11.748029
_cell_length_c 11.686383
_cell_angle_alpha 90.000000
_cell_angle_beta 71.327327
_cell_angle_gamma 90.000000
_cell_volume 1421.658528
_symmetry_space_group_name_H-M "P 21/C"
_symmetry_group_IT_number 14
_symmetry_cell_setting 'monoclinic'
loop_
_space_group_symop_operation_xyz
x,y,z
-x,1/2+y,1/2-z
-x,-y,-z
x,1/2-y,1/2+z
loop_
_atom_site_type_symbol
_atom_site_label
_atom_site_fract_x
_atom_site_fract_y
_atom_site_fract_z
Si Si1 0.468100 0.032191 0.683701
Si Si2 0.338136 0.241183 0.637623
Si Si3 0.146828 0.862500 0.229359
Si Si4 0.772805 0.111987 0.276633
Si Si5 0.270202 0.060015 0.332114
Si Si6 0.393509 0.431537 0.462030
Si Si7 0.134603 0.551367 0.495224
Si Si8 0.123504 0.083459 0.605296
O O1 0.453949 0.152719 0.625121
O O2 0.439365 0.064212 0.820881
O O3 0.370247 0.938051 0.662841
O O4 0.610611 0.982760 0.625858
O O5 0.307980 0.324642 0.753831
O O6 0.390998 0.304302 0.510393
O O7 0.208716 0.172288 0.650571
O O8 0.226365 0.745719 0.201311
O O9 0.101154 0.868545 0.111620
O O10 0.020583 0.865547 0.347515
O O11 0.237710 0.964895 0.246780
O O12 0.868480 0.039739 0.332015
O O13 0.809964 0.111089 0.132558
O O14 0.157627 0.078077 0.459729
O O15 0.500000 0.500000 0.500000
O O16 0.244176 0.469132 0.514660
O O17 0.000000 0.500000 0.500000
#
# Coordination Sequence:
#
# PCOD8128326 Si02
#       8
#     4   4   4   4   4   4   4   4
#     4  10  24  46  70 105 143 185 235 299 360 431
#     4  11  24  44  72 100 142 193 234 296 362 427
#     4  12  26  44  75 103 143 190 240 299 352 434
#     4  10  26  45  69 106 138 190 239 291 364 422
#     4  12  26  47  71 108 145 188 240 295 369 429
#     4  11  21  44  70 102 137 182 245 289 349 436
#     4  11  23  44  71  99 140 186 239 294 349 426
#     4  11  27  47  68 105 147 188 237 298 358 433
#
# _framework density 22.508921999999998
#
# number of rings (size 3 to 8) (size 9 to 14) (size 15 to 20)
#    0.000    1.000    3.750    1.125    7.000    3.000 
#    4.500    0.000    0.000    0.000    0.000    0.000 
#    0.000    0.000    0.000    0.000    0.000    0.000 
#
# Total GULP energy -396636.106562 kJ/mol
# GULP energy per Si atom -12394.878330 kJ/mol
# Density = 2.245769 g / cm^3
# Si number density = 22.508922 Si / 1000 Ang^3
#
#
#
# Elastic Constant Matrix: (Units=GPa)
#
#
# Indices 1 2 3 4 5 6 
#
# 1 110.6518 40.3248 -5.3842 0.0000 10.3475 0.0000
# 2 40.3248 133.7878 30.6536 0.0000 12.7576 0.0000
# 3 -5.3842 30.6536 84.1577 0.0000 10.9167 0.0000
# 4 0.0000 0.0000 0.0000 33.1067 0.0000 5.5176
# 5 10.3475 12.7576 10.9167 0.0000 33.7123 0.0000
# 6 0.0000 0.0000 0.0000 5.5176 0.0000 23.2962
#
#
#
# Elastic Compliance Matrix: (Units=1/GPa)
#
#
# Indices 1 2 3 4 5 6 
#
# 1 0.010673 -0.003487 0.002303 0.000000 -0.002702 0.000000
# 2 -0.003487 0.009456 -0.003489 0.000000 -0.001379 0.000000
# 3 0.002303 -0.003489 0.013801 0.000000 -0.003856 0.000000
# 4 0.000000 0.000000 0.000000 0.031447 0.000000 -0.007448
# 5 -0.002702 -0.001379 -0.003856 0.000000 0.032262 0.000000
# 6 0.000000 0.000000 0.000000 -0.007448 0.000000 0.044689
#
#
# Mechanical properties :
#
#
# Convention : Reuss Voigt Hill
#
# Bulk Modulus (GPa) = 40.67431 51.08728 45.88080
# Shear Modulus (GPa) = 31.27581 35.55658 33.41619
#
# Velocity S-wave (km/s) = 3.73162 3.97881 3.85720
# Velocity P-wave (km/s) = 6.05609 6.62221 6.34547
#
# Compressibility (1/GPa) = 0.02458554
#
# Stress axis : x y z
#
# Youngs Moduli (GPa) = 93.69514 105.74948 72.46023
#
# Poissons Ratio (x) = 0.36875 -0.16691
# Poissons Ratio (y) = 0.32672 0.25279
# Poissons Ratio (z) = -0.21582 0.36892
#
# Static dielectric constant tensor:
#      x y z
#    x 4.091430 0.000000 0.193540 
#    y 0.000000 4.174960 0.000000 
#    z 0.193540 0.000000 3.456440 
# 
# 
# High freq. dielectric constant tensor:
#      x y z
#    x 1.893020 0.000000 0.007770 
#    y 0.000000 1.881150 0.000000 
#    z 0.007770 0.000000 1.905760 
# 
# From -- ./inp_files/29068.got.cif
#   From: 2010.03.12/outbox.cif.g09.slc.cpg/sg14_15_cif.got.tgz:29068.got - 2010.03.31 13:35:05.
