data_PCOD8128593
_publ_section_title
;
Structure prediction by ZEFSAII (Michael W. Deem and Ramdas Pophale) SiO2 
 PCOD8128593
Probable space group: P 21/C
;
_chemical_formula_sum "Si O2"
_cell_formula_units_Z 24
_cell_length_a 9.384744
_cell_length_b 7.785904
_cell_length_c 21.064755
_cell_angle_alpha 90.000000
_cell_angle_beta 132.357624
_cell_angle_gamma 90.000000
_cell_volume 1137.378999
_symmetry_space_group_name_H-M "P 21/C"
_symmetry_group_IT_number 14
_symmetry_cell_setting 'monoclinic'
loop_
_space_group_symop_operation_xyz
x,y,z
-x,1/2+y,1/2-z
-x,-y,-z
x,1/2-y,1/2+z
loop_
_atom_site_type_symbol
_atom_site_label
_atom_site_fract_x
_atom_site_fract_y
_atom_site_fract_z
Si Si1 0.416363 0.642896 0.678619
Si Si2 0.289392 0.075434 0.255774
Si Si3 0.294179 0.122389 0.041517
Si Si4 0.934828 0.308069 0.986344
Si Si5 0.419566 0.606520 0.917521
Si Si6 0.142107 0.849971 0.906247
O O1 0.621257 0.739777 0.736625
O O2 0.378299 0.571752 0.737465
O O3 0.417617 0.488670 0.628331
O O4 0.253132 0.782836 0.613299
O O5 0.059945 0.087180 0.182285
O O6 0.333757 0.027943 0.341679
O O7 0.399563 0.298811 0.059153
O O8 0.090478 0.166508 0.012468
O O9 0.260164 0.016225 0.966359
O O10 0.885706 0.281345 0.044736
O O11 0.000000 0.500000 0.000000
O O12 0.261376 0.749799 0.888304
O O13 0.500000 0.500000 0.000000
#
# Coordination Sequence:
#
# PCOD8128593 Si02
#       6
#     4   4   4   4   4   4
#     4  11  23  42  69 100 135 171 230 287 331 395
#     4  12  25  43  66 103 140 174 231 286 339 395
#     4  11  21  46  71  94 131 179 226 279 329 405
#     4  11  21  41  72  99 128 176 223 276 332 402
#     4  12  27  45  65  98 140 182 225 268 345 416
#     4  11  24  44  67  98 136 174 227 276 338 398
#
# _framework density 21.101147000000001
#
# number of rings (size 3 to 8) (size 9 to 14) (size 15 to 20)
#    0.000    0.667    3.333    6.500    2.333    2.667 
#    3.000    0.000    0.000    0.000    0.000    0.000 
#    0.000    0.000    0.000    0.000    0.000    0.000 
#
# Total GULP energy -297756.600343 kJ/mol
# GULP energy per Si atom -12406.525014 kJ/mol
# Density = 2.105312 g / cm^3
# Si number density = 21.101147 Si / 1000 Ang^3
#
#
#
# Elastic Constant Matrix: (Units=GPa)
#
#
# Indices 1 2 3 4 5 6 
#
# 1 68.0553 5.9629 18.2504 0.0000 -1.0942 0.0000
# 2 5.9629 82.4840 21.2508 0.0000 -4.8000 0.0000
# 3 18.2504 21.2508 112.4834 0.0000 -13.9359 0.0000
# 4 0.0000 0.0000 0.0000 21.0305 0.0000 -0.8163
# 5 -1.0942 -4.8000 -13.9359 0.0000 28.7705 0.0000
# 6 0.0000 0.0000 0.0000 -0.8163 0.0000 51.5864
#
#
#
# Elastic Compliance Matrix: (Units=1/GPa)
#
#
# Indices 1 2 3 4 5 6 
#
# 1 0.015395 -0.000513 -0.002488 0.000000 -0.000705 0.000000
# 2 -0.000513 0.012789 -0.002203 0.000000 0.001047 0.000000
# 3 -0.002488 -0.002203 0.010269 0.000000 0.004512 0.000000
# 4 0.000000 0.000000 0.000000 0.047579 0.000000 0.000753
# 5 -0.000705 0.001047 0.004512 0.000000 0.037091 0.000000
# 6 0.000000 0.000000 0.000000 0.000753 0.000000 0.019397
#
#
# Mechanical properties :
#
#
# Convention : Reuss Voigt Hill
#
# Bulk Modulus (GPa) = 35.65786 39.32789 37.49287
# Shear Modulus (GPa) = 30.81141 34.78136 32.79638
#
# Velocity S-wave (km/s) = 3.82537 4.06435 3.94667
# Velocity P-wave (km/s) = 6.03710 6.37993 6.21088
#
# Compressibility (1/GPa) = 0.02804431
#
# Stress axis : x y z
#
# Youngs Moduli (GPa) = 64.95688 78.19092 97.37878
#
# Poissons Ratio (x) = 0.04010 0.24231
# Poissons Ratio (y) = 0.03332 0.21455
# Poissons Ratio (z) = 0.16163 0.17227
#
# Static dielectric constant tensor:
#      x y z
#    x 3.883070 0.000000 0.047870 
#    y 0.000000 3.842440 0.000000 
#    z 0.047870 0.000000 3.882780 
# 
# 
# High freq. dielectric constant tensor:
#      x y z
#    x 1.827160 0.000000 0.002350 
#    y 0.000000 1.838150 0.000000 
#    z 0.002350 0.000000 1.833070 
# 
# From -- ./inp_files/64731.got.cif
#   From: 2010.03.12/outbox.cif.g09.slc.cpg/sg14_33_cif.got.tgz:64731.got - 2010.03.31 13:35:05.
