data_PCOD8128143
_publ_section_title
;
Structure prediction by ZEFSAII (Michael W. Deem and Ramdas Pophale) SiO2 
 PCOD8128143
Probable space group: P 21/C
;
_chemical_formula_sum "Si O2"
_cell_formula_units_Z 28
_cell_length_a 12.591347
_cell_length_b 9.412567
_cell_length_c 14.097909
_cell_angle_alpha 90.000000
_cell_angle_beta 59.227058
_cell_angle_gamma 90.000000
_cell_volume 1435.588796
_symmetry_space_group_name_H-M "P 21/C"
_symmetry_group_IT_number 14
_symmetry_cell_setting 'monoclinic'
loop_
_space_group_symop_operation_xyz
x,y,z
-x,1/2+y,1/2-z
-x,-y,-z
x,1/2-y,1/2+z
loop_
_atom_site_type_symbol
_atom_site_label
_atom_site_fract_x
_atom_site_fract_y
_atom_site_fract_z
Si Si1 0.009922 0.167253 0.598786
Si Si2 0.640266 0.036886 0.437796
Si Si3 0.385473 0.914036 0.341694
Si Si4 0.162483 0.330088 0.209420
Si Si5 0.889441 0.448997 0.615413
Si Si6 0.835614 0.584695 0.144756
Si Si7 0.374493 0.611173 0.259235
O O1 0.068045 0.215258 0.671382
O O2 0.116428 0.167958 0.469898
O O3 0.904959 0.281665 0.625370
O O4 0.945786 0.013844 0.633735
O O5 0.670283 0.107838 0.526231
O O6 0.664556 0.136197 0.334330
O O7 0.500000 0.000000 0.500000
O O8 0.713575 0.888745 0.396011
O O9 0.413946 0.759368 0.286927
O O10 0.286510 0.995431 0.322566
O O11 0.513440 0.000784 0.282314
O O12 0.098213 0.457298 0.296220
O O13 0.197910 0.197462 0.258934
O O14 0.749264 0.458521 0.635969
O O15 0.000000 0.500000 0.500000
#
# Coordination Sequence:
#
# PCOD8128143 Si02
#       7
#     4   4   4   4   4   4   4
#     4  11  22  41  59  95 126 167 211 266 320 370
#     4   9  21  41  64  88 128 164 211 259 324 379
#     4  11  22  44  69  93 127 170 214 268 319 383
#     4  11  22  39  65  90 123 175 207 256 328 375
#     4  11  22  41  60  91 131 158 208 260 315 383
#     4  11  23  38  66  93 125 167 222 258 311 392
#     4  10  24  41  67  94 125 172 212 261 327 379
#
# _framework density 19.504193999999998
#
# number of rings (size 3 to 8) (size 9 to 14) (size 15 to 20)
#    0.000    1.429    4.286    0.857    6.000    0.000 
#    5.143    0.714    0.000    0.000    0.000    0.000 
#    0.000    0.000    0.000    0.000    0.000    0.000 
#
# Total GULP energy -347083.655846 kJ/mol
# GULP energy per Si atom -12395.844852 kJ/mol
# Density = 1.945980 g / cm^3
# Si number density = 19.504194 Si / 1000 Ang^3
#
#
#
# Elastic Constant Matrix: (Units=GPa)
#
#
# Indices 1 2 3 4 5 6 
#
# 1 105.6015 37.3915 53.0460 0.0000 -1.7425 0.0000
# 2 37.3915 99.6085 50.3600 0.0000 9.8430 0.0000
# 3 53.0460 50.3600 97.9832 0.0000 -4.1776 0.0000
# 4 0.0000 0.0000 0.0000 34.6587 0.0000 -0.9453
# 5 -1.7425 9.8430 -4.1776 0.0000 39.5123 0.0000
# 6 0.0000 0.0000 0.0000 -0.9453 0.0000 35.9375
#
#
#
# Elastic Compliance Matrix: (Units=1/GPa)
#
#
# Indices 1 2 3 4 5 6 
#
# 1 0.013252 -0.001885 -0.006188 0.000000 0.000400 0.000000
# 2 -0.001885 0.014540 -0.006640 0.000000 -0.004407 0.000000
# 3 -0.006188 -0.006640 0.017105 0.000000 0.003190 0.000000
# 4 0.000000 0.000000 0.000000 0.028873 0.000000 0.000759
# 5 0.000400 -0.004407 0.003190 0.000000 0.026761 0.000000
# 6 0.000000 0.000000 0.000000 0.000759 0.000000 0.027846
#
#
# Mechanical properties :
#
#
# Convention : Reuss Voigt Hill
#
# Bulk Modulus (GPa) = 64.64548 64.97647 64.81097
# Shear Modulus (GPa) = 30.68200 32.84807 31.76503
#
# Velocity S-wave (km/s) = 3.97053 4.10830 4.04000
# Velocity P-wave (km/s) = 7.36454 7.47600 7.42048
#
# Compressibility (1/GPa) = 0.01546899
#
# Stress axis : x y z
#
# Youngs Moduli (GPa) = 75.45826 68.77744 58.46293
#
# Poissons Ratio (x) = 0.12968 0.36179
# Poissons Ratio (y) = 0.14228 0.38820
# Poissons Ratio (z) = 0.46697 0.45668
#
# Static dielectric constant tensor:
#      x y z
#    x 3.651780 0.000000 0.097750 
#    y 0.000000 3.415000 0.000000 
#    z 0.097750 0.000000 4.187130 
# 
# 
# High freq. dielectric constant tensor:
#      x y z
#    x 1.767700 0.000000 -0.008680 
#    y 0.000000 1.751110 0.000000 
#    z -0.008680 0.000000 1.764140 
# 
# From -- ./inp_files/43296.got.cif
#   From: 2010.03.12/outbox.cif.g09.slc.cpg/sg14_22_cif.got.tgz:43296.got - 2010.03.31 13:35:05.
