data_PCOD8128877
_publ_section_title
;
Structure prediction by ZEFSAII (Michael W. Deem and Ramdas Pophale) SiO2 
 PCOD8128877
Probable space group: P 21/C
;
_chemical_formula_sum "Si O2"
_cell_formula_units_Z 32
_cell_length_a 23.698189
_cell_length_b 11.703830
_cell_length_c 29.426404
_cell_angle_alpha 90.000000
_cell_angle_beta 10.507886
_cell_angle_gamma 90.000000
_cell_volume 1488.455286
_symmetry_space_group_name_H-M "P 21/C"
_symmetry_group_IT_number 14
_symmetry_cell_setting 'monoclinic'
loop_
_space_group_symop_operation_xyz
x,y,z
-x,1/2+y,1/2-z
-x,-y,-z
x,1/2-y,1/2+z
loop_
_atom_site_type_symbol
_atom_site_label
_atom_site_fract_x
_atom_site_fract_y
_atom_site_fract_z
Si Si1 0.545629 0.387637 0.711251
Si Si2 0.881755 0.127028 0.599028
Si Si3 0.124852 0.444365 0.200101
Si Si4 0.235708 0.304815 0.638674
Si Si5 0.400259 0.607318 0.050794
Si Si6 0.844998 0.725279 0.539559
Si Si7 0.995501 0.741748 0.587106
Si Si8 0.691379 0.441986 0.034053
O O1 0.319527 0.290874 0.871587
O O2 0.347097 0.493546 0.887276
O O3 0.761033 0.429746 0.499024
O O4 0.752286 0.342210 0.589807
O O5 0.107224 0.195130 0.454454
O O6 0.852058 0.185816 0.573488
O O7 0.537083 0.120095 0.891672
O O8 0.000000 0.000000 0.500000
O O9 0.302370 0.330180 0.076829
O O10 0.235174 0.561407 0.136433
O O11 0.197628 0.462236 0.089627
O O12 0.137701 0.324760 0.768430
O O13 0.954598 0.345387 0.829313
O O14 0.175392 0.685197 0.259225
O O15 0.500000 0.500000 0.000000
O O16 0.708311 0.674077 0.792439
O O17 0.632806 0.618015 0.722720
#
# Coordination Sequence:
#
# PCOD8128877 Si02
#       8
#     4   4   4   4   4   4   4   4
#     4  11  25  45  69 101 137 178 223 289 345 402
#     4  12  29  44  69  98 140 185 228 275 338 415
#     4  11  23  42  70  99 134 172 229 279 346 392
#     4  11  25  45  66  99 135 176 228 275 334 413
#     4  12  21  43  76  97 135 180 225 287 342 401
#     4  12  25  45  66 107 139 174 238 282 340 418
#     4  11  23  48  71  96 138 178 225 284 344 397
#     4  12  25  42  72  99 134 181 224 283 341 405
#
# _framework density 21.498797
#
# number of rings (size 3 to 8) (size 9 to 14) (size 15 to 20)
#    0.000    0.500    7.500    1.500    3.500    3.500 
#    0.000    3.750    0.000    0.000    0.000    0.000 
#    0.000    0.000    0.000    0.000    0.000    0.000 
#
# Total GULP energy -396918.286243 kJ/mol
# GULP energy per Si atom -12403.696445 kJ/mol
# Density = 2.144987 g / cm^3
# Si number density = 21.498797 Si / 1000 Ang^3
#
#
#
# Elastic Constant Matrix: (Units=GPa)
#
#
# Indices 1 2 3 4 5 6 
#
# 1 78.9243 37.5820 36.8935 0.0000 6.4124 0.0000
# 2 37.5820 93.3058 39.9115 0.0000 6.1305 0.0000
# 3 36.8935 39.9115 94.2074 0.0000 -0.4823 0.0000
# 4 0.0000 0.0000 0.0000 39.8832 0.0000 1.1206
# 5 6.4124 6.1305 -0.4823 0.0000 29.5103 0.0000
# 6 0.0000 0.0000 0.0000 1.1206 0.0000 34.5976
#
#
#
# Elastic Compliance Matrix: (Units=1/GPa)
#
#
# Indices 1 2 3 4 5 6 
#
# 1 0.017428 -0.004769 -0.004819 0.000000 -0.002875 0.000000
# 2 -0.004769 0.014632 -0.004342 0.000000 -0.002074 0.000000
# 3 -0.004819 -0.004342 0.014353 0.000000 0.002184 0.000000
# 4 0.000000 0.000000 0.000000 0.025096 0.000000 -0.000813
# 5 -0.002875 -0.002074 0.002184 0.000000 0.034978 0.000000
# 6 0.000000 0.000000 0.000000 -0.000813 0.000000 0.028930
#
#
# Mechanical properties :
#
#
# Convention : Reuss Voigt Hill
#
# Bulk Modulus (GPa) = 53.90292 55.02348 54.46320
# Shear Modulus (GPa) = 29.50535 30.93494 30.22014
#
# Velocity S-wave (km/s) = 3.70864 3.79742 3.75329
# Velocity P-wave (km/s) = 6.59284 6.69899 6.64613
#
# Compressibility (1/GPa) = 0.01855187
#
# Stress axis : x y z
#
# Youngs Moduli (GPa) = 57.37975 68.34379 69.67291
#
# Poissons Ratio (x) = 0.32595 0.33577
# Poissons Ratio (y) = 0.27366 0.30250
# Poissons Ratio (z) = 0.27653 0.29673
#
# Static dielectric constant tensor:
#      x y z
#    x 0.174980 0.000000 3.014750 
#    y 0.000000 4.021680 0.000000 
#    z 3.014750 0.000000 1.630160 
# 
# 
# High freq. dielectric constant tensor:
#      x y z
#    x 1.838510 0.000000 0.003770 
#    y 0.000000 1.842350 0.000000 
#    z 0.003770 0.000000 1.854730 
# 
# From -- ./inp_files/80682.got.cif
#   From: 2010.03.12/outbox.cif.g09.slc.cpg/sg14_41_cif.got.tgz:80682.got - 2010.03.31 13:35:05.
