data_PCOD8128447
_publ_section_title
;
Structure prediction by ZEFSAII (Michael W. Deem and Ramdas Pophale) SiO2 
 PCOD8128447
Probable space group: P 21/C
;
_chemical_formula_sum "Si O2"
_cell_formula_units_Z 32
_cell_length_a 13.519744
_cell_length_b 17.956758
_cell_length_c 15.188663
_cell_angle_alpha 90.000000
_cell_angle_beta 152.888386
_cell_angle_gamma 90.000000
_cell_volume 1680.424976
_symmetry_space_group_name_H-M "P 21/C"
_symmetry_group_IT_number 14
_symmetry_cell_setting 'monoclinic'
loop_
_space_group_symop_operation_xyz
x,y,z
-x,1/2+y,1/2-z
-x,-y,-z
x,1/2-y,1/2+z
loop_
_atom_site_type_symbol
_atom_site_label
_atom_site_fract_x
_atom_site_fract_y
_atom_site_fract_z
Si Si1 0.673863 0.529805 0.284036
Si Si2 0.312402 0.172271 0.100679
Si Si3 0.688088 0.744993 0.575554
Si Si4 0.536981 0.255007 0.424446
Si Si5 0.888958 0.172271 0.100680
Si Si6 0.894208 0.529805 0.284035
Si Si7 0.606366 0.371912 0.217329
Si Si8 0.828293 0.128088 0.717329
O O1 0.588965 0.596355 0.279746
O O2 0.715975 0.557750 0.215975
O O3 0.515802 0.456599 0.162757
O O4 0.897210 0.500000 0.500000
O O5 0.378261 0.242600 0.214808
O O6 0.390539 0.186670 0.062002
O O7 0.054819 0.169590 0.886517
O O8 0.598492 0.716018 0.598492
O O9 0.595176 0.825971 0.478249
O O10 0.948644 0.757400 0.785192
O O11 0.733467 0.313330 0.562003
O O12 0.638679 0.174029 0.521751
O O13 0.029475 0.096355 0.220255
O O14 0.718217 0.169590 0.886518
O O15 0.809712 0.456600 0.162757
O O16 0.796994 0.379103 0.296994
#
# Coordination Sequence:
#
# PCOD8128447 Si02
#       8
#     4   4   4   4   4   4   4   4
#     4   8  15  29  53  78 101 131 166 213 269 306
#     4  11  19  34  51  76 107 139 168 208 260 306
#     4  11  22  33  52  80 105 138 177 206 255 314
#     4  11  22  33  52  80 105 138 177 206 255 314
#     4  11  19  34  51  76 107 139 168 208 260 306
#     4   8  15  29  53  78 101 131 166 213 269 306
#     4   9  18  34  54  79 106 130 169 221 263 307
#     4   9  18  34  54  79 106 130 169 221 263 307
#
# _framework density 19.042801000000001
#
# number of rings (size 3 to 8) (size 9 to 14) (size 15 to 20)
#    0.000    2.250    2.500    3.750    0.000    1.000 
#    0.000    3.750    0.000    6.750    0.000    1.750 
#    0.000    0.000    0.000    0.000    0.000    0.000 
#
# Total GULP energy -396435.638443 kJ/mol
# GULP energy per Si atom -12388.613701 kJ/mol
# Density = 1.899946 g / cm^3
# Si number density = 19.042801 Si / 1000 Ang^3
#
#
#
# Elastic Constant Matrix: (Units=GPa)
#
#
# Indices 1 2 3 4 5 6 
#
# 1 128.9753 53.0530 28.9967 0.0000 4.1473 0.0000
# 2 53.0530 80.0007 14.9446 0.0000 2.7810 0.0000
# 3 28.9967 14.9446 29.2910 0.0000 3.1271 0.0000
# 4 0.0000 0.0000 0.0000 29.9520 0.0000 0.0467
# 5 4.1473 2.7810 3.1271 0.0000 21.6478 0.0000
# 6 0.0000 0.0000 0.0000 0.0467 0.0000 30.5919
#
#
#
# Elastic Compliance Matrix: (Units=1/GPa)
#
#
# Indices 1 2 3 4 5 6 
#
# 1 0.012494 -0.006600 -0.008974 0.000000 -0.000249 0.000000
# 2 -0.006600 0.017316 -0.002233 0.000000 -0.000637 0.000000
# 3 -0.008974 -0.002233 0.044638 0.000000 -0.004442 0.000000
# 4 0.000000 0.000000 0.000000 0.033387 0.000000 -0.000051
# 5 -0.000249 -0.000637 -0.004442 0.000000 0.046965 0.000000
# 6 0.000000 0.000000 0.000000 -0.000051 0.000000 0.032688
#
#
# Mechanical properties :
#
#
# Convention : Reuss Voigt Hill
#
# Bulk Modulus (GPa) = 25.75129 48.02842 36.88985
# Shear Modulus (GPa) = 21.18209 25.85651 23.51930
#
# Velocity S-wave (km/s) = 3.33880 3.68885 3.51818
# Velocity P-wave (km/s) = 5.33063 6.58935 5.99313
#
# Compressibility (1/GPa) = 0.03883301
#
# Stress axis : x y z
#
# Youngs Moduli (GPa) = 80.03765 57.74913 22.40255
#
# Poissons Ratio (x) = 0.38117 0.20105
# Poissons Ratio (y) = 0.52828 0.05002
# Poissons Ratio (z) = 0.71828 0.12894
#
# Static dielectric constant tensor:
#      x y z
#    x 3.420920 0.000000 -0.010250 
#    y 0.000000 3.974960 0.000000 
#    z -0.010250 0.000000 3.561420 
# 
# 
# High freq. dielectric constant tensor:
#      x y z
#    x 1.703110 0.000000 -0.003850 
#    y 0.000000 1.726860 0.000000 
#    z -0.003850 0.000000 1.755900 
# 
# From -- ./inp_files/45469.got.cif
#   From: 2010.03.12/outbox.cif.g09.slc.cpg/sg14_23_cif.got.tgz:45469.got - 2010.03.31 13:35:05.
