data_PCOD8128205
_publ_section_title
;
Structure prediction by ZEFSAII (Michael W. Deem and Ramdas Pophale) SiO2 
 PCOD8128205
Probable space group: P 21/C
;
_chemical_formula_sum "Si O2"
_cell_formula_units_Z 20
_cell_length_a 12.407256
_cell_length_b 9.442430
_cell_length_c 7.342437
_cell_angle_alpha 90.000000
_cell_angle_beta 72.795790
_cell_angle_gamma 90.000000
_cell_volume 821.712337
_symmetry_space_group_name_H-M "P 21/C"
_symmetry_group_IT_number 14
_symmetry_cell_setting 'monoclinic'
loop_
_space_group_symop_operation_xyz
x,y,z
-x,1/2+y,1/2-z
-x,-y,-z
x,1/2-y,1/2+z
loop_
_atom_site_type_symbol
_atom_site_label
_atom_site_fract_x
_atom_site_fract_y
_atom_site_fract_z
Si Si1 0.891531 0.346319 0.192997
Si Si2 0.596469 0.849876 0.072135
Si Si3 0.692599 0.567330 0.895245
Si Si4 0.354703 0.910876 0.230102
Si Si5 0.928963 0.458802 0.775497
O O1 0.757447 0.340164 0.302447
O O2 0.939918 0.187035 0.157802
O O3 0.958285 0.444997 0.307016
O O4 0.910780 0.419247 0.992812
O O5 0.620564 0.935989 0.246060
O O6 0.462809 0.809378 0.144103
O O7 0.672856 0.711102 0.018755
O O8 0.622142 0.941472 0.881862
O O9 0.822810 0.554166 0.768365
O O10 0.659831 0.438371 0.046080
#
# Coordination Sequence:
#
# PCOD8128205 Si02
#       5
#     4   4   4   4   4
#     4  10  24  45  65  98 132 173 221 278 327 400
#     4  11  23  40  68  95 134 179 218 273 330 394
#     4  11  23  43  67  98 132 176 222 274 329 400
#     4  10  24  43  63  97 133 174 226 270 328 395
#     4  10  25  43  69  97 132 173 224 274 334 394
#
# _framework density 24.33942
#
# number of rings (size 3 to 8) (size 9 to 14) (size 15 to 20)
#    0.000    1.600    2.000    0.600    5.600    7.200 
#    0.000    0.000    0.000    0.000    0.000    0.000 
#    0.000    0.000    0.000    0.000    0.000    0.000 
#
# Total GULP energy -247967.234383 kJ/mol
# GULP energy per Si atom -12398.361719 kJ/mol
# Density = 2.428402 g / cm^3
# Si number density = 24.339420 Si / 1000 Ang^3
#
#
#
# Elastic Constant Matrix: (Units=GPa)
#
#
# Indices 1 2 3 4 5 6 
#
# 1 181.9471 64.3418 28.6063 0.0000 -4.9549 0.0000
# 2 64.3418 94.5767 -2.4221 0.0000 -5.7390 0.0000
# 3 28.6063 -2.4221 39.8958 0.0000 -2.7603 0.0000
# 4 0.0000 0.0000 0.0000 -11.3325 0.0000 -4.5544
# 5 -4.9549 -5.7390 -2.7603 0.0000 20.4343 0.0000
# 6 0.0000 0.0000 0.0000 -4.5544 0.0000 41.7209
#
#
#
# Elastic Compliance Matrix: (Units=1/GPa)
#
#
# Indices 1 2 3 4 5 6 
#
# 1 0.008686 -0.006110 -0.006634 0.000000 -0.000506 0.000000
# 2 -0.006110 0.015084 0.005539 0.000000 0.003503 0.000000
# 3 -0.006634 0.005539 0.030439 0.000000 0.004059 0.000000
# 4 0.000000 0.000000 0.000000 -0.084533 0.000000 -0.009228
# 5 -0.000506 0.003503 0.004059 0.000000 0.050347 0.000000
# 6 0.000000 0.000000 0.000000 -0.009228 0.000000 0.022961
#
#
# Mechanical properties :
#
#
# Convention : Reuss Voigt Hill
#
# Bulk Modulus (GPa) = 25.12558 55.27461 40.20010
# Shear Modulus (GPa) = 70.76094 25.22413 47.99254
#
# Velocity S-wave (km/s) = 5.39775 3.22273 4.44532
# Velocity P-wave (km/s) = 7.01377 6.05039 6.54982
#
# Compressibility (1/GPa) = 0.03980007
#
# Stress axis : x y z
#
# Youngs Moduli (GPa) = 115.12889 66.29364 32.85246
#
# Poissons Ratio (x) = 0.40504 0.21794
# Poissons Ratio (y) = 0.70341 -0.18197
# Poissons Ratio (z) = 0.76376 -0.36720
#
# Static dielectric constant tensor:
#      x y z
#    x 4.967280 0.000000 0.008550 
#    y 0.000000 4.163530 0.000000 
#    z 0.008550 0.000000 4.184000 
# 
# 
# High freq. dielectric constant tensor:
#      x y z
#    x 1.977270 0.000000 0.004900 
#    y 0.000000 1.949870 0.000000 
#    z 0.004900 0.000000 1.968760 
# 
# From -- ./inp_files/11810.got.cif
#   From: 2010.03.12/outbox.cif.g09.slc.cpg/sg14_6_cif.got.tgz:11810.got - 2010.03.31 13:35:05.
