data_PCOD8128515
_publ_section_title
;
Structure prediction by ZEFSAII (Michael W. Deem and Ramdas Pophale) SiO2 
 PCOD8128515
Probable space group: P 21/C
;
_chemical_formula_sum "Si O2"
_cell_formula_units_Z 32
_cell_length_a 11.653602
_cell_length_b 16.668290
_cell_length_c 14.171527
_cell_angle_alpha 90.000000
_cell_angle_beta 148.527303
_cell_angle_gamma 90.000000
_cell_volume 1437.192964
_symmetry_space_group_name_H-M "P 21/C"
_symmetry_group_IT_number 14
_symmetry_cell_setting 'monoclinic'
loop_
_space_group_symop_operation_xyz
x,y,z
-x,1/2+y,1/2-z
-x,-y,-z
x,1/2-y,1/2+z
loop_
_atom_site_type_symbol
_atom_site_label
_atom_site_fract_x
_atom_site_fract_y
_atom_site_fract_z
Si Si1 0.361294 0.369257 0.818701
Si Si2 0.771553 0.126745 0.727341
Si Si3 0.270193 0.185278 0.705183
Si Si4 0.860851 0.302748 0.802545
Si Si5 0.339711 0.631104 0.639196
Si Si6 0.045978 0.180632 0.241664
Si Si7 0.789481 0.546280 0.472769
Si Si8 0.647638 0.665037 0.535397
O O1 0.334588 0.277249 0.768939
O O2 0.194673 0.384780 0.789829
O O3 0.318614 0.427125 0.701506
O O4 0.605512 0.388494 0.025316
O O5 0.899153 0.210057 0.800490
O O6 0.645668 0.131251 0.738240
O O7 0.947927 0.055335 0.852173
O O8 0.416446 0.152416 0.722710
O O9 0.312594 0.133682 0.829793
O O10 0.015543 0.174901 0.498909
O O11 0.609454 0.314288 0.656283
O O12 0.941392 0.352408 0.766374
O O13 0.268270 0.545234 0.547703
O O14 0.163220 0.696464 0.475440
O O15 0.195589 0.258207 0.368510
O O16 0.700459 0.596813 0.498076
#
# Coordination Sequence:
#
# PCOD8128515 Si02
#       8
#     4   4   4   4   4   4   4   4
#     4  11  23  41  70 101 128 177 231 277 332 403
#     4  12  22  41  69  99 136 173 222 283 338 403
#     4  11  23  43  69 100 130 178 231 280 334 402
#     4  12  22  43  72 104 129 173 233 289 327 395
#     4  12  26  44  70  98 145 181 220 280 350 409
#     4  11  20  43  69  98 131 175 224 273 337 402
#     4  12  27  46  63 102 144 181 220 283 345 400
#     4  11  24  43  70  99 133 175 234 281 329 398
#
# _framework density 22.265625
#
# number of rings (size 3 to 8) (size 9 to 14) (size 15 to 20)
#    0.000    0.500    7.500    1.875    1.750    2.000 
#    2.250    0.625    0.000    0.000    0.000    0.000 
#    0.000    0.000    0.000    0.000    0.000    0.000 
#
# Total GULP energy -396729.980545 kJ/mol
# GULP energy per Si atom -12397.811892 kJ/mol
# Density = 2.221495 g / cm^3
# Si number density = 22.265625 Si / 1000 Ang^3
#
#
#
# Elastic Constant Matrix: (Units=GPa)
#
#
# Indices 1 2 3 4 5 6 
#
# 1 117.3204 33.0936 63.9816 0.0000 6.6084 0.0000
# 2 33.0936 49.9083 39.9270 0.0000 -4.6081 0.0000
# 3 63.9816 39.9270 145.2492 0.0000 -1.3224 0.0000
# 4 0.0000 0.0000 0.0000 15.9131 0.0000 0.9406
# 5 6.6084 -4.6081 -1.3224 0.0000 26.9799 0.0000
# 6 0.0000 0.0000 0.0000 0.9406 0.0000 5.4658
#
#
#
# Elastic Compliance Matrix: (Units=1/GPa)
#
#
# Indices 1 2 3 4 5 6 
#
# 1 0.012502 -0.005436 -0.004051 0.000000 -0.004189 0.000000
# 2 -0.005436 0.028497 -0.005385 0.000000 0.005935 0.000000
# 3 -0.004051 -0.005385 0.010155 0.000000 0.000570 0.000000
# 4 0.000000 0.000000 0.000000 0.063487 0.000000 -0.010925
# 5 -0.004189 0.005935 0.000570 0.000000 0.039132 0.000000
# 6 0.000000 0.000000 0.000000 -0.010925 0.000000 0.184837
#
#
# Mechanical properties :
#
#
# Convention : Reuss Voigt Hill
#
# Bulk Modulus (GPa) = 46.70686 65.16470 55.93578
# Shear Modulus (GPa) = 13.31588 21.37014 17.34301
#
# Velocity S-wave (km/s) = 2.44815 3.10140 2.79393
# Velocity P-wave (km/s) = 5.38646 6.49272 5.96529
#
# Compressibility (1/GPa) = 0.02141013
#
# Stress axis : x y z
#
# Youngs Moduli (GPa) = 79.98529 35.09110 98.47736
#
# Poissons Ratio (x) = 0.19076 0.39894
# Poissons Ratio (y) = 0.43480 0.53029
# Poissons Ratio (z) = 0.32402 0.18896
#
# Static dielectric constant tensor:
#      x y z
#    x 4.305440 0.000000 -0.088910 
#    y 0.000000 3.700470 0.000000 
#    z -0.088910 0.000000 4.188420 
# 
# 
# High freq. dielectric constant tensor:
#      x y z
#    x 1.893550 0.000000 -0.002210 
#    y 0.000000 1.831800 0.000000 
#    z -0.002210 0.000000 1.896560 
# 
# From -- ./inp_files/45428.got.cif
#   From: 2010.03.12/outbox.cif.g09.slc.cpg/sg14_23_cif.got.tgz:45428.got - 2010.03.31 13:35:05.
