data_PCOD8128860
_publ_section_title
;
Structure prediction by ZEFSAII (Michael W. Deem and Ramdas Pophale) SiO2 
 PCOD8128860
Probable space group: P 21/C
;
_chemical_formula_sum "Si O2"
_cell_formula_units_Z 28
_cell_length_a 6.522279
_cell_length_b 7.605008
_cell_length_c 27.248403
_cell_angle_alpha 90.000000
_cell_angle_beta 111.734935
_cell_angle_gamma 90.000000
_cell_volume 1255.487274
_symmetry_space_group_name_H-M "P 21/C"
_symmetry_group_IT_number 14
_symmetry_cell_setting 'monoclinic'
loop_
_space_group_symop_operation_xyz
x,y,z
-x,1/2+y,1/2-z
-x,-y,-z
x,1/2-y,1/2+z
loop_
_atom_site_type_symbol
_atom_site_label
_atom_site_fract_x
_atom_site_fract_y
_atom_site_fract_z
Si Si1 0.776405 0.075302 0.271961
Si Si2 0.526016 0.416065 0.949330
Si Si3 0.123104 0.912837 0.829133
Si Si4 0.083182 0.253156 0.377064
Si Si5 0.454741 0.250061 0.108853
Si Si6 0.328584 0.284376 0.705151
Si Si7 0.171978 0.586493 0.552609
O O1 0.871964 0.132101 0.228102
O O2 0.519415 0.127677 0.254306
O O3 0.904971 0.148180 0.329739
O O4 0.787992 0.865906 0.273559
O O5 0.278514 0.373799 0.910885
O O6 0.626563 0.575916 0.926095
O O7 0.688059 0.246045 0.960621
O O8 0.500000 0.500000 0.000000
O O9 0.280157 0.778554 0.873172
O O10 0.869180 0.918360 0.824357
O O11 0.202365 0.106991 0.851542
O O12 0.962887 0.339087 0.413240
O O13 0.419858 0.290388 0.162706
O O14 0.334217 0.071661 0.081790
O O15 0.000000 0.500000 0.500000
#
# Coordination Sequence:
#
# PCOD8128860 Si02
#       7
#     4   4   4   4   4   4   4
#     4  11  25  38  68 105 143 191 239 293 363 447
#     4  12  29  48  75 109 142 187 253 306 371 440
#     4  11  23  42  71 103 143 193 237 294 366 443
#     4  12  25  46  74 103 151 193 243 311 371 435
#     4  11  25  46  72 101 143 191 238 298 370 434
#     4  11  23  42  65 101 147 185 238 291 362 436
#     4  12  28  48  76 106 145 196 251 311 374 433
#
# _framework density 22.302095000000001
#
# number of rings (size 3 to 8) (size 9 to 14) (size 15 to 20)
#    0.000    0.571    2.857    4.286    4.000   10.286 
#    0.000    0.000    0.000    0.000    0.000    0.000 
#    0.000    0.000    0.000    0.000    0.000    0.000 
#
# Total GULP energy -347060.859973 kJ/mol
# GULP energy per Si atom -12395.030713 kJ/mol
# Density = 2.225133 g / cm^3
# Si number density = 22.302095 Si / 1000 Ang^3
#
#
#
# Elastic Constant Matrix: (Units=GPa)
#
#
# Indices 1 2 3 4 5 6 
#
# 1 97.3456 37.1616 42.6162 0.0000 13.8760 0.0000
# 2 37.1616 129.3632 46.5571 0.0000 2.4472 0.0000
# 3 42.6162 46.5571 124.5782 0.0000 4.1732 0.0000
# 4 0.0000 0.0000 0.0000 37.1858 0.0000 -1.2537
# 5 13.8760 2.4472 4.1732 0.0000 30.1589 0.0000
# 6 0.0000 0.0000 0.0000 -1.2537 0.0000 41.2449
#
#
#
# Elastic Compliance Matrix: (Units=1/GPa)
#
#
# Indices 1 2 3 4 5 6 
#
# 1 0.013566 -0.002529 -0.003510 0.000000 -0.005551 0.000000
# 2 -0.002529 0.009405 -0.002676 0.000000 0.000771 0.000000
# 3 -0.003510 -0.002676 0.010214 0.000000 0.000419 0.000000
# 4 0.000000 0.000000 0.000000 0.026920 0.000000 0.000818
# 5 -0.005551 0.000771 0.000419 0.000000 0.035591 0.000000
# 6 0.000000 0.000000 0.000000 0.000818 0.000000 0.024270
#
#
# Mechanical properties :
#
#
# Convention : Reuss Voigt Hill
#
# Bulk Modulus (GPa) = 63.46695 67.10630 65.28662
# Shear Modulus (GPa) = 35.05198 36.71473 35.88335
#
# Velocity S-wave (km/s) = 3.96876 4.06180 4.01555
# Velocity P-wave (km/s) = 7.03711 7.22168 7.12999
#
# Compressibility (1/GPa) = 0.01575623
#
# Stress axis : x y z
#
# Youngs Moduli (GPa) = 73.71509 106.32686 97.90929
#
# Poissons Ratio (x) = 0.26889 0.34362
# Poissons Ratio (y) = 0.18642 0.26196
# Poissons Ratio (z) = 0.25871 0.28448
#
# Static dielectric constant tensor:
#      x y z
#    x 4.779470 0.000000 0.690450 
#    y 0.000000 3.483930 0.000000 
#    z 0.690450 0.000000 4.527690 
# 
# 
# High freq. dielectric constant tensor:
#      x y z
#    x 1.881990 0.000000 0.008830 
#    y 0.000000 1.890900 0.000000 
#    z 0.008830 0.000000 1.891050 
# 
# From -- ./inp_files/78861.got.cif
#   From: 2010.03.12/outbox.cif.g09.slc.cpg/sg14_40_cif.got.tgz:78861.got - 2010.03.31 13:35:05.
