data_PCOD8128925
_publ_section_title
;
Structure prediction by ZEFSAII (Michael W. Deem and Ramdas Pophale) SiO2 
 PCOD8128925
Probable space group: P 21/C
;
_chemical_formula_sum "Si O2"
_cell_formula_units_Z 28
_cell_length_a 31.723437
_cell_length_b 8.365503
_cell_length_c 31.311400
_cell_angle_alpha 90.000000
_cell_angle_beta 170.968943
_cell_angle_gamma 90.000000
_cell_volume 1304.340343
_symmetry_space_group_name_H-M "P 21/C"
_symmetry_group_IT_number 14
_symmetry_cell_setting 'monoclinic'
loop_
_space_group_symop_operation_xyz
x,y,z
-x,1/2+y,1/2-z
-x,-y,-z
x,1/2-y,1/2+z
loop_
_atom_site_type_symbol
_atom_site_label
_atom_site_fract_x
_atom_site_fract_y
_atom_site_fract_z
Si Si1 0.094193 0.568467 0.974173
Si Si2 0.749136 0.998938 0.718635
Si Si3 0.597687 0.726253 0.993907
Si Si4 0.582655 0.905993 0.729510
Si Si5 0.781215 0.467868 0.997517
Si Si6 0.100054 0.768655 0.203018
Si Si7 0.700243 0.822628 0.942089
O O1 0.845480 0.687048 0.719073
O O2 0.992118 0.413244 0.898373
O O3 0.182053 0.505843 0.015889
O O4 0.345906 0.653696 0.249560
O O5 0.775820 0.155801 0.715773
O O6 0.500000 0.000000 0.500000
O O7 0.713566 0.839638 0.654590
O O8 0.000000 0.000000 0.000000
O O9 0.508531 0.583705 0.873865
O O10 0.342657 0.778447 0.480326
O O11 0.642124 0.906739 0.838888
O O12 0.846211 0.869663 0.965339
O O13 0.030251 0.392009 0.269904
O O14 0.721598 0.635216 0.959224
O O15 0.531420 0.352090 0.755313
#
# Coordination Sequence:
#
# PCOD8128925 Si02
#       7
#     4   4   4   4   4   4   4
#     4  12  25  45  64 100 139 174 225 279 330 393
#     4  11  23  46  72 102 133 169 218 271 332 417
#     4  11  25  42  72 100 133 175 225 268 335 401
#     4  11  23  44  66  94 130 182 230 267 324 408
#     4  12  28  44  64  95 137 180 224 288 331 382
#     4  11  23  44  72  95 132 181 216 270 336 406
#     4  12  27  45  65  96 134 177 237 281 343 372
#
# _framework density 21.46679
#
# number of rings (size 3 to 8) (size 9 to 14) (size 15 to 20)
#    0.000    0.571    1.429    7.714    8.000    0.000 
#    0.000    4.286    0.000    0.000    0.000    0.000 
#    0.000    0.000    0.000    0.000    0.000    0.000 
#
# Total GULP energy -347311.036225 kJ/mol
# GULP energy per Si atom -12403.965579 kJ/mol
# Density = 2.141793 g / cm^3
# Si number density = 21.466790 Si / 1000 Ang^3
#
#
#
# Elastic Constant Matrix: (Units=GPa)
#
#
# Indices 1 2 3 4 5 6 
#
# 1 77.9111 39.8048 47.9768 0.0000 -2.5677 0.0000
# 2 39.8048 125.9411 51.4579 0.0000 7.1473 0.0000
# 3 47.9768 51.4579 179.6582 0.0000 -0.2981 0.0000
# 4 0.0000 0.0000 0.0000 17.2261 0.0000 -18.4217
# 5 -2.5677 7.1473 -0.2981 0.0000 48.7113 0.0000
# 6 0.0000 0.0000 0.0000 -18.4217 0.0000 6.3195
#
#
#
# Elastic Compliance Matrix: (Units=1/GPa)
#
#
# Indices 1 2 3 4 5 6 
#
# 1 0.017057 -0.004094 -0.003380 0.000000 0.001479 0.000000
# 2 -0.004094 0.010063 -0.001792 0.000000 -0.001703 0.000000
# 3 -0.003380 -0.001792 0.006982 0.000000 0.000127 0.000000
# 4 0.000000 0.000000 0.000000 -0.027416 0.000000 -0.079920
# 5 0.001479 -0.001703 0.000127 0.000000 0.020858 0.000000
# 6 0.000000 0.000000 0.000000 -0.079920 0.000000 -0.074733
#
#
# Mechanical properties :
#
#
# Convention : Reuss Voigt Hill
#
# Bulk Modulus (GPa) = 64.22351 73.55436 68.88893
# Shear Modulus (GPa) = -213.05123 30.73610 -91.15756
#
# Velocity S-wave (km/s) = -9.97308 3.78802 -6.52355
# Velocity P-wave (km/s) = 10.13084 7.31237 4.95798
#
# Compressibility (1/GPa) = 0.01557062
#
# Stress axis : x y z
#
# Youngs Moduli (GPa) = 58.62777 99.37489 143.22288
#
# Poissons Ratio (x) = 0.40683 0.48408
# Poissons Ratio (y) = 0.24002 0.25663
# Poissons Ratio (z) = 0.19816 0.17806
#
# Static dielectric constant tensor:
#      x y z
#    x 4.447970 0.000000 -0.148000 
#    y 0.000000 3.979510 0.000000 
#    z -0.148000 0.000000 4.314760 
# 
# 
# High freq. dielectric constant tensor:
#      x y z
#    x 1.833270 0.000000 0.004590 
#    y 0.000000 1.849970 0.000000 
#    z 0.004590 0.000000 1.872430 
# 
# From -- ./inp_files/80919.got.cif
#   From: 2010.03.12/outbox.cif.g09.slc.cpg/sg14_41_cif.got.tgz:80919.got - 2010.03.31 13:35:05.
