data_PCOD8128697
_publ_section_title
;
Structure prediction by ZEFSAII (Michael W. Deem and Ramdas Pophale) SiO2 
 PCOD8128697
Probable space group: P 21/C
;
_chemical_formula_sum "Si O2"
_cell_formula_units_Z 20
_cell_length_a 16.776860
_cell_length_b 4.674697
_cell_length_c 8.042469
_cell_angle_alpha 90.000000
_cell_angle_beta 90.352767
_cell_angle_gamma 90.000000
_cell_volume 630.732647
_symmetry_space_group_name_H-M "P 21/C"
_symmetry_group_IT_number 14
_symmetry_cell_setting 'monoclinic'
loop_
_space_group_symop_operation_xyz
x,y,z
-x,1/2+y,1/2-z
-x,-y,-z
x,1/2-y,1/2+z
loop_
_atom_site_type_symbol
_atom_site_label
_atom_site_fract_x
_atom_site_fract_y
_atom_site_fract_z
Si Si1 0.948353 0.557072 0.285085
Si Si2 0.742048 0.402030 0.849192
Si Si3 0.643033 0.531937 0.139002
Si Si4 0.144668 0.604052 0.419565
Si Si5 0.546983 0.527004 0.822298
O O1 0.889209 0.404214 0.154219
O O2 0.923617 0.564052 0.478439
O O3 0.964452 0.890359 0.233983
O O4 0.804770 0.566042 0.725650
O O5 0.667591 0.239591 0.754733
O O6 0.711206 0.596945 0.002387
O O7 0.791436 0.152573 0.935747
O O8 0.627961 0.816060 0.249535
O O9 0.561786 0.495404 0.022831
O O10 0.530776 0.216504 0.738097
#
# Coordination Sequence:
#
# PCOD8128697 Si02
#       5
#     4   4   4   4   4
#     4  11  22  40  68 100 140 187 238 298 360 427
#     4   9  21  46  72 102 143 193 244 302 362 433
#     4  11  24  45  75 106 144 192 244 298 368 439
#     4   9  20  41  67 102 142 186 242 298 358 429
#     4  12  27  48  78 112 147 190 244 308 370 442
#
# _framework density 31.709156
#
# number of rings (size 3 to 8) (size 9 to 14) (size 15 to 20)
#    0.000    1.600    0.000    3.600    0.000    6.400 
#    0.000   30.000    0.000    0.000    0.000    0.000 
#    0.000    0.000    0.000    0.000    0.000    0.000 
#
# Total GULP energy -247824.370032 kJ/mol
# GULP energy per Si atom -12391.218502 kJ/mol
# Density = 3.163698 g / cm^3
# Si number density = 31.709156 Si / 1000 Ang^3
#
#
#
# Elastic Constant Matrix: (Units=GPa)
#
#
# Indices 1 2 3 4 5 6 
#
# 1 129.0264 0.3900 42.8731 0.0000 -17.7782 0.0000
# 2 0.3900 119.7163 73.8669 0.0000 -0.9610 0.0000
# 3 42.8731 73.8669 225.0386 0.0000 -18.5863 0.0000
# 4 0.0000 0.0000 0.0000 58.8816 0.0000 6.3181
# 5 -17.7782 -0.9610 -18.5863 0.0000 72.7172 0.0000
# 6 0.0000 0.0000 0.0000 6.3181 0.0000 16.9000
#
#
#
# Elastic Compliance Matrix: (Units=1/GPa)
#
#
# Indices 1 2 3 4 5 6 
#
# 1 0.008596 0.001144 -0.001878 0.000000 0.001637 0.000000
# 2 0.001144 0.010668 -0.003764 0.000000 -0.000541 0.000000
# 3 -0.001878 -0.003764 0.006124 0.000000 0.001056 0.000000
# 4 0.000000 0.000000 0.000000 0.017693 0.000000 -0.006615
# 5 0.001637 -0.000541 0.001056 0.000000 0.014415 0.000000
# 6 0.000000 0.000000 0.000000 -0.006615 0.000000 0.061645
#
#
# Mechanical properties :
#
#
# Convention : Reuss Voigt Hill
#
# Bulk Modulus (GPa) = 61.00649 78.67124 69.83887
# Shear Modulus (GPa) = 37.42474 53.47650 45.45062
#
# Velocity S-wave (km/s) = 3.43920 4.11112 3.79008
# Velocity P-wave (km/s) = 5.92047 6.88471 6.42072
#
# Compressibility (1/GPa) = 0.01639170
#
# Stress axis : x y z
#
# Youngs Moduli (GPa) = 116.32694 93.74204 163.28421
#
# Poissons Ratio (x) = -0.10723 0.30665
# Poissons Ratio (y) = -0.13307 0.61463
# Poissons Ratio (z) = 0.21847 0.35286
#
# Static dielectric constant tensor:
#      x y z
#    x 7.438610 0.000000 -0.056590 
#    y 0.000000 5.009280 0.000000 
#    z -0.056590 0.000000 6.437900 
# 
# 
# High freq. dielectric constant tensor:
#      x y z
#    x 2.388440 0.000000 0.001990 
#    y 0.000000 2.271900 0.000000 
#    z 0.001990 0.000000 2.359190 
# 
# From -- ./inp_files/17259.got.cif
#   From: 2010.03.12/outbox.cif.g09.slc.cpg/sg14_9_cif.got.tgz:17259.got - 2010.03.31 13:35:05.
