data_PCOD8128711
_publ_section_title
;
Structure prediction by ZEFSAII (Michael W. Deem and Ramdas Pophale) SiO2 
 PCOD8128711
Probable space group: P 21/C
;
_chemical_formula_sum "Si O2"
_cell_formula_units_Z 32
_cell_length_a 6.572835
_cell_length_b 26.628992
_cell_length_c 12.173431
_cell_angle_alpha 90.000000
_cell_angle_beta 45.510171
_cell_angle_gamma 90.000000
_cell_volume 1519.981343
_symmetry_space_group_name_H-M "P 21/C"
_symmetry_group_IT_number 14
_symmetry_cell_setting 'monoclinic'
loop_
_space_group_symop_operation_xyz
x,y,z
-x,1/2+y,1/2-z
-x,-y,-z
x,1/2-y,1/2+z
loop_
_atom_site_type_symbol
_atom_site_label
_atom_site_fract_x
_atom_site_fract_y
_atom_site_fract_z
Si Si1 0.599071 0.868941 0.791930
Si Si2 0.592914 0.570322 0.727336
Si Si3 0.779061 0.967671 0.381170
Si Si4 0.375281 0.015672 0.162346
Si Si5 0.664496 0.710353 0.452116
Si Si6 0.975098 0.198503 0.761912
Si Si7 0.034846 0.344329 0.475945
Si Si8 0.008624 0.118662 0.556164
O O1 0.569480 0.926505 0.836616
O O2 0.694030 0.837847 0.862399
O O3 0.829829 0.858841 0.609894
O O4 0.292245 0.850868 0.864641
O O5 0.775804 0.561514 0.767553
O O6 0.533360 0.516782 0.695083
O O7 0.785696 0.604415 0.573446
O O8 0.298839 0.598817 0.865672
O O9 0.801644 0.927061 0.469596
O O10 0.500000 0.000000 0.500000
O O11 0.039457 0.006021 0.290213
O O12 0.500000 0.000000 0.000000
O O13 0.793401 0.758590 0.344296
O O14 0.836827 0.699840 0.498408
O O15 0.336928 0.722571 0.604300
O O16 0.068601 0.169318 0.835464
O O17 0.966496 0.161040 0.662907
#
# Coordination Sequence:
#
# PCOD8128711 Si02
#       8
#     4   4   4   4   4   4   4   4
#     4  11  26  43  65 106 137 172 222 280 327 398
#     4  11  22  41  68  93 132 186 219 272 329 391
#     4  11  23  40  64  97 134 181 224 266 328 393
#     4  11  24  40  65  96 141 176 227 272 324 395
#     4  11  27  46  70  97 133 169 224 279 338 407
#     4  11  26  46  69  97 129 173 220 280 340 401
#     4  11  24  45  69  96 133 175 221 270 339 399
#     4  11  24  43  66  97 138 170 226 280 330 395
#
# _framework density 21.052889
#
# number of rings (size 3 to 8) (size 9 to 14) (size 15 to 20)
#    0.000    1.000    2.500    3.000    7.000   10.000 
#    0.000    0.000    0.000    0.000    0.000    0.000 
#    0.000    0.000    0.000    0.000    0.000    0.000 
#
# Total GULP energy -397020.584425 kJ/mol
# GULP energy per Si atom -12406.893263 kJ/mol
# Density = 2.100497 g / cm^3
# Si number density = 21.052889 Si / 1000 Ang^3
#
#
#
# Elastic Constant Matrix: (Units=GPa)
#
#
# Indices 1 2 3 4 5 6 
#
# 1 82.5898 15.2022 10.1646 0.0000 -2.2775 0.0000
# 2 15.2022 95.5867 24.1472 0.0000 -8.7156 0.0000
# 3 10.1646 24.1472 97.1110 0.0000 4.0199 0.0000
# 4 0.0000 0.0000 0.0000 37.6106 0.0000 -4.6211
# 5 -2.2775 -8.7156 4.0199 0.0000 26.8069 0.0000
# 6 0.0000 0.0000 0.0000 -4.6211 0.0000 23.4624
#
#
#
# Elastic Compliance Matrix: (Units=1/GPa)
#
#
# Indices 1 2 3 4 5 6 
#
# 1 0.012553 -0.001706 -0.000917 0.000000 0.000649 0.000000
# 2 -0.001706 0.011854 -0.002941 0.000000 0.004150 0.000000
# 3 -0.000917 -0.002941 0.011237 0.000000 -0.002719 0.000000
# 4 0.000000 0.000000 0.000000 0.027248 0.000000 0.005367
# 5 0.000649 0.004150 -0.002719 0.000000 0.039116 0.000000
# 6 0.000000 0.000000 0.000000 0.005367 0.000000 0.043678
#
#
# Mechanical properties :
#
#
# Convention : Reuss Voigt Hill
#
# Bulk Modulus (GPa) = 40.78648 41.59061 41.18854
# Shear Modulus (GPa) = 30.30569 32.62754 31.46661
#
# Velocity S-wave (km/s) = 3.79819 3.94101 3.87026
# Velocity P-wave (km/s) = 6.21695 6.36450 6.29116
#
# Compressibility (1/GPa) = 0.02451793
#
# Stress axis : x y z
#
# Youngs Moduli (GPa) = 79.66406 84.35739 88.98957
#
# Poissons Ratio (x) = 0.14388 0.08157
# Poissons Ratio (y) = 0.13588 0.26171
# Poissons Ratio (z) = 0.07303 0.24809
#
# Static dielectric constant tensor:
#      x y z
#    x 3.877390 0.000000 -0.004770 
#    y 0.000000 3.708770 0.000000 
#    z -0.004770 0.000000 3.847860 
# 
# 
# High freq. dielectric constant tensor:
#      x y z
#    x 1.837710 0.000000 -0.003190 
#    y 0.000000 1.828240 0.000000 
#    z -0.003190 0.000000 1.833580 
# 
# From -- ./inp_files/6964.got.cif
#   From: 2010.03.12/outbox.cif.g09.slc.cpg/sg14_4_cif.got.tgz:6964.got - 2010.03.31 13:35:05.
