data_PCOD8128629
_publ_section_title
;
Structure prediction by ZEFSAII (Michael W. Deem and Ramdas Pophale) SiO2 
 PCOD8128629
Probable space group: P 21/C
;
_chemical_formula_sum "Si O2"
_cell_formula_units_Z 28
_cell_length_a 16.580651
_cell_length_b 14.853099
_cell_length_c 10.019074
_cell_angle_alpha 90.000000
_cell_angle_beta 148.150534
_cell_angle_gamma 90.000000
_cell_volume 1302.040720
_symmetry_space_group_name_H-M "P 21/C"
_symmetry_group_IT_number 14
_symmetry_cell_setting 'monoclinic'
loop_
_space_group_symop_operation_xyz
x,y,z
-x,1/2+y,1/2-z
-x,-y,-z
x,1/2-y,1/2+z
loop_
_atom_site_type_symbol
_atom_site_label
_atom_site_fract_x
_atom_site_fract_y
_atom_site_fract_z
Si Si1 0.070522 0.420667 0.357489
Si Si2 0.375712 0.632307 0.135662
Si Si3 0.279189 0.388878 0.416969
Si Si4 0.748878 0.440837 0.780111
Si Si5 0.059416 0.233140 0.045786
Si Si6 0.758296 0.174930 0.042112
Si Si7 0.138388 0.899073 0.079355
O O1 0.206365 0.436609 0.443796
O O2 0.055558 0.506574 0.433040
O O3 0.108982 0.333106 0.497396
O O4 0.914230 0.404679 0.057531
O O5 0.541077 0.619303 0.303805
O O6 0.371163 0.581790 0.271804
O O7 0.347960 0.738008 0.114251
O O8 0.244736 0.589337 0.858778
O O9 0.246734 0.452241 0.242712
O O10 0.207556 0.289763 0.297204
O O11 0.695678 0.390213 0.570357
O O12 0.934342 0.303188 0.818409
O O13 0.991329 0.176145 0.074641
O O14 0.752324 0.128770 0.889179
#
# Coordination Sequence:
#
# PCOD8128629 Si02
#       7
#     4   4   4   4   4   4   4
#     4  12  23  43  70 103 131 174 236 280 335 393
#     4  11  26  43  68 100 139 179 225 270 347 403
#     4  12  26  45  66 105 139 175 225 283 336 404
#     4  12  23  46  71  97 134 185 224 274 337 413
#     4  11  23  40  70 101 135 168 231 284 330 391
#     4  11  21  44  72  92 133 182 225 271 340 403
#     4  11  23  44  70 100 133 181 224 283 333 404
#
# _framework density 21.504705000000001
#
# number of rings (size 3 to 8) (size 9 to 14) (size 15 to 20)
#    0.000    0.571    5.714    4.714    0.000    2.857 
#    2.571    0.000    0.000    0.000    0.000    0.000 
#    0.000    0.000    0.000    0.000    0.000    0.000 
#
# Total GULP energy -347360.069970 kJ/mol
# GULP energy per Si atom -12405.716785 kJ/mol
# Density = 2.145576 g / cm^3
# Si number density = 21.504705 Si / 1000 Ang^3
#
#
#
# Elastic Constant Matrix: (Units=GPa)
#
#
# Indices 1 2 3 4 5 6 
#
# 1 98.7431 21.4409 38.8388 0.0000 -4.4203 0.0000
# 2 21.4409 102.6103 38.1894 0.0000 -7.9629 0.0000
# 3 38.8388 38.1894 49.5059 0.0000 -3.0794 0.0000
# 4 0.0000 0.0000 0.0000 23.7529 0.0000 -20.5633
# 5 -4.4203 -7.9629 -3.0794 0.0000 42.1942 0.0000
# 6 0.0000 0.0000 0.0000 -20.5633 0.0000 32.5947
#
#
#
# Elastic Compliance Matrix: (Units=1/GPa)
#
#
# Indices 1 2 3 4 5 6 
#
# 1 0.014901 0.001808 -0.013026 0.000000 0.000952 0.000000
# 2 0.001808 0.014030 -0.012120 0.000000 0.001953 0.000000
# 3 -0.013026 -0.012120 0.039721 0.000000 -0.000753 0.000000
# 4 0.000000 0.000000 0.000000 0.092765 0.000000 0.058524
# 5 0.000952 0.001953 -0.000753 0.000000 0.024113 0.000000
# 6 0.000000 0.000000 0.000000 0.058524 0.000000 0.067601
#
#
# Mechanical properties :
#
#
# Convention : Reuss Voigt Hill
#
# Bulk Modulus (GPa) = 45.50217 49.75530 47.62874
# Shear Modulus (GPa) = 16.27963 29.86770 23.07366
#
# Velocity S-wave (km/s) = 2.75440 3.73083 3.27916
# Velocity P-wave (km/s) = 5.59649 6.46111 6.04428
#
# Compressibility (1/GPa) = 0.02197697
#
# Stress axis : x y z
#
# Youngs Moduli (GPa) = 67.11103 71.27495 25.17538
#
# Poissons Ratio (x) = -0.12888 0.32793
# Poissons Ratio (y) = -0.12135 0.30513
# Poissons Ratio (z) = 0.87416 0.86386
#
# Static dielectric constant tensor:
#      x y z
#    x 4.018140 0.000000 -0.212260 
#    y 0.000000 3.931530 0.000000 
#    z -0.212260 0.000000 3.543130 
# 
# 
# High freq. dielectric constant tensor:
#      x y z
#    x 1.856750 0.000000 -0.016350 
#    y 0.000000 1.855120 0.000000 
#    z -0.016350 0.000000 1.815400 
# 
# From -- ./inp_files/16446.got.cif
#   From: 2010.03.12/outbox.cif.g09.slc.cpg/sg14_9_cif.got.tgz:16446.got - 2010.03.31 13:35:05.
