data_PCOD8128172
_publ_section_title
;
Structure prediction by ZEFSAII (Michael W. Deem and Ramdas Pophale) SiO2 
 PCOD8128172
Probable space group: P 21/C
;
_chemical_formula_sum "Si O2"
_cell_formula_units_Z 28
_cell_length_a 9.442063
_cell_length_b 10.852994
_cell_length_c 13.835502
_cell_angle_alpha 90.000000
_cell_angle_beta 108.376137
_cell_angle_gamma 90.000000
_cell_volume 1345.491548
_symmetry_space_group_name_H-M "P 21/C"
_symmetry_group_IT_number 14
_symmetry_cell_setting 'monoclinic'
loop_
_space_group_symop_operation_xyz
x,y,z
-x,1/2+y,1/2-z
-x,-y,-z
x,1/2-y,1/2+z
loop_
_atom_site_type_symbol
_atom_site_label
_atom_site_fract_x
_atom_site_fract_y
_atom_site_fract_z
Si Si1 0.183501 0.244018 0.128500
Si Si2 0.079429 0.705550 0.293118
Si Si3 0.414463 0.125300 0.398502
Si Si4 0.745387 0.969948 0.213708
Si Si5 0.497434 0.148072 0.212132
Si Si6 0.846439 0.779357 0.102353
Si Si7 0.625114 0.162519 0.606575
O O1 0.226004 0.373758 0.191217
O O2 0.319408 0.146223 0.156855
O O3 0.041663 0.181289 0.148845
O O4 0.144346 0.262107 0.006716
O O5 0.135430 0.579962 0.256039
O O6 0.208942 0.785147 0.373486
O O7 0.009373 0.780904 0.187655
O O8 0.523239 0.144631 0.331663
O O9 0.250677 0.183139 0.354883
O O10 0.502678 0.200487 0.500362
O O11 0.378260 0.982886 0.402267
O O12 0.579279 0.029403 0.182656
O O13 0.766559 0.909586 0.111410
O O14 0.565139 0.278786 0.192880
#
# Coordination Sequence:
#
# PCOD8128172 Si02
#       7
#     4   4   4   4   4   4   4
#     4  11  23  43  66  98 131 173 220 259 334 390
#     4  10  24  44  64  95 137 170 211 275 323 391
#     4  11  22  40  70  92 129 171 220 273 318 387
#     4  10  24  43  63  95 134 166 221 269 325 382
#     4  11  21  41  66  94 128 169 213 274 325 382
#     4  11  24  41  66  96 131 172 216 266 329 387
#     4  10  24  42  65  99 127 164 229 269 323 386
#
# _framework density 20.810237000000001
#
# number of rings (size 3 to 8) (size 9 to 14) (size 15 to 20)
#    0.000    1.429    4.286    0.857    6.000    4.000 
#    0.000    0.000    0.000    0.000    0.000    0.000 
#    0.000    0.000    0.000    0.000    0.000    0.000 
#
# Total GULP energy -346874.200295 kJ/mol
# GULP energy per Si atom -12388.364296 kJ/mol
# Density = 2.076287 g / cm^3
# Si number density = 20.810237 Si / 1000 Ang^3
#
#
#
# Elastic Constant Matrix: (Units=GPa)
#
#
# Indices 1 2 3 4 5 6 
#
# 1 136.4740 44.1773 41.4072 0.0000 -3.2255 0.0000
# 2 44.1773 87.9414 49.6005 0.0000 -1.2148 0.0000
# 3 41.4072 49.6005 66.2531 0.0000 -4.2481 0.0000
# 4 0.0000 0.0000 0.0000 -332.3816 0.0000 455.9325
# 5 -3.2255 -1.2148 -4.2481 0.0000 29.2080 0.0000
# 6 0.0000 0.0000 0.0000 455.9325 0.0000 -543.8817
#
#
#
# Elastic Compliance Matrix: (Units=1/GPa)
#
#
# Indices 1 2 3 4 5 6 
#
# 1 0.009334 -0.002434 -0.003989 0.000000 0.000349 0.000000
# 2 -0.002434 0.020369 -0.013819 0.000000 -0.001432 0.000000
# 3 -0.003989 -0.013819 0.028130 0.000000 0.003076 0.000000
# 4 0.000000 0.000000 0.000000 0.020071 0.000000 0.016825
# 5 0.000349 -0.001432 0.003076 0.000000 0.034664 0.000000
# 6 0.000000 0.000000 0.000000 0.016825 0.000000 0.012266
#
#
# Mechanical properties :
#
#
# Convention : Reuss Voigt Hill
#
# Bulk Modulus (GPa) = 57.64562 62.33761 59.99161
# Shear Modulus (GPa) = 29.22269 -159.04550 -64.91140
#
# Velocity S-wave (km/s) = 3.75139 -8.75171 -5.59104
# Velocity P-wave (km/s) = 6.82090 8.49135 3.57620
#
# Compressibility (1/GPa) = 0.01734737
#
# Stress axis : x y z
#
# Youngs Moduli (GPa) = 107.13678 49.09480 35.54966
#
# Poissons Ratio (x) = 0.11952 0.14179
# Poissons Ratio (y) = 0.26081 0.49128
# Poissons Ratio (z) = 0.42733 0.67846
#
# Static dielectric constant tensor:
#      x y z
#    x 4.018290 0.000000 0.018750 
#    y 0.000000 3.680370 0.000000 
#    z 0.018750 0.000000 3.941500 
# 
# 
# High freq. dielectric constant tensor:
#      x y z
#    x 1.828560 0.000000 -0.002710 
#    y 0.000000 1.806660 0.000000 
#    z -0.002710 0.000000 1.808710 
# 
# From -- ./inp_files/40106.got.cif
#   From: 2010.03.12/outbox.cif.g09.slc.cpg/sg14_21_cif.got.tgz:40106.got - 2010.03.31 13:35:05.
