data_PCOD8128668
_publ_section_title
;
Structure prediction by ZEFSAII (Michael W. Deem and Ramdas Pophale) SiO2 
 PCOD8128668
Probable space group: P 21/C
;
_chemical_formula_sum "Si O2"
_cell_formula_units_Z 32
_cell_length_a 20.286811
_cell_length_b 10.304913
_cell_length_c 19.924753
_cell_angle_alpha 90.000000
_cell_angle_beta 19.886387
_cell_angle_gamma 90.000000
_cell_volume 1416.867924
_symmetry_space_group_name_H-M "P 21/C"
_symmetry_group_IT_number 14
_symmetry_cell_setting 'monoclinic'
loop_
_space_group_symop_operation_xyz
x,y,z
-x,1/2+y,1/2-z
-x,-y,-z
x,1/2-y,1/2+z
loop_
_atom_site_type_symbol
_atom_site_label
_atom_site_fract_x
_atom_site_fract_y
_atom_site_fract_z
Si Si1 0.335893 0.598762 0.478506
Si Si2 0.703807 0.643214 0.205470
Si Si3 0.966231 0.738567 0.344076
Si Si4 0.051611 0.997874 0.059977
Si Si5 0.374075 0.693075 0.296874
Si Si6 0.099224 0.875443 0.491250
Si Si7 0.894767 0.684138 0.614992
Si Si8 0.236066 0.182819 0.092473
O O1 0.484251 0.610365 0.398412
O O2 0.407726 0.675313 0.343982
O O3 0.314609 0.447345 0.480689
O O4 0.138317 0.662371 0.693959
O O5 0.709491 0.729839 0.268627
O O6 0.788740 0.724299 0.061889
O O7 0.835522 0.517222 0.092975
O O8 0.022132 0.587593 0.307892
O O9 0.908580 0.753598 0.321401
O O10 0.259776 0.931376 0.876430
O O11 0.068453 0.081809 0.977538
O O12 0.888774 0.887690 0.195002
O O13 0.248461 0.822544 0.404137
O O14 0.585358 0.719592 0.061342
O O15 0.082217 0.782157 0.441711
O O16 0.878863 0.866229 0.731836
#
# Coordination Sequence:
#
# PCOD8128668 Si02
#       8
#     4   4   4   4   4   4   4   4
#     4  12  23  38  62 101 133 166 215 265 335 396
#     4  11  22  40  63  92 130 170 214 269 324 391
#     4  11  22  38  64  96 132 168 211 270 329 392
#     4   9  20  42  66  88 126 173 218 266 320 389
#     4  11  22  38  64  96 132 168 211 270 329 392
#     4  11  22  40  63  92 130 170 214 269 324 391
#     4   9  21  42  64  87 121 177 222 259 321 384
#     4  12  23  38  62 101 133 166 215 265 335 396
#
# _framework density 22.585027
#
# number of rings (size 3 to 8) (size 9 to 14) (size 15 to 20)
#    0.000    1.250    6.250    0.375    0.000    0.000 
#    0.000   18.125    0.000    0.000    0.000    0.000 
#    0.000    0.000    0.000    0.000    0.000    0.000 
#
# Total GULP energy -396471.590790 kJ/mol
# GULP energy per Si atom -12389.737212 kJ/mol
# Density = 2.253362 g / cm^3
# Si number density = 22.585027 Si / 1000 Ang^3
#
#
#
# Elastic Constant Matrix: (Units=GPa)
#
#
# Indices 1 2 3 4 5 6 
#
# 1 88.6846 28.3241 19.5485 0.0000 -28.3842 0.0000
# 2 28.3241 101.5490 16.3435 0.0000 -17.1801 0.0000
# 3 19.5485 16.3435 83.8047 0.0000 -19.4358 0.0000
# 4 0.0000 0.0000 0.0000 30.1766 0.0000 -7.9931
# 5 -28.3842 -17.1801 -19.4358 0.0000 27.2427 0.0000
# 6 0.0000 0.0000 0.0000 -7.9931 0.0000 41.4903
#
#
#
# Elastic Compliance Matrix: (Units=1/GPa)
#
#
# Indices 1 2 3 4 5 6 
#
# 1 0.017273 -0.001998 0.000290 0.000000 0.016944 0.000000
# 2 -0.001998 0.011284 -0.000679 0.000000 0.004550 0.000000
# 3 0.000290 -0.000679 0.014341 0.000000 0.010105 0.000000
# 4 0.000000 0.000000 0.000000 0.034920 0.000000 0.006727
# 5 0.016944 0.004550 0.010105 0.000000 0.064439 0.000000
# 6 0.000000 0.000000 0.000000 0.006727 0.000000 0.025398
#
#
# Mechanical properties :
#
#
# Convention : Reuss Voigt Hill
#
# Bulk Modulus (GPa) = 26.23073 44.71896 35.47485
# Shear Modulus (GPa) = 27.00694 33.77005 30.38849
#
# Velocity S-wave (km/s) = 3.46177 3.87103 3.67211
# Velocity P-wave (km/s) = 5.25527 6.31055 5.80693
#
# Compressibility (1/GPa) = 0.03812322
#
# Stress axis : x y z
#
# Youngs Moduli (GPa) = 57.89345 88.62287 69.73079
#
# Poissons Ratio (x) = 0.17706 -0.02023
# Poissons Ratio (y) = 0.11567 0.04737
# Poissons Ratio (z) = -0.01679 0.06021
#
# Static dielectric constant tensor:
#      x y z
#    x 4.289960 0.000000 -0.301080 
#    y 0.000000 4.604760 0.000000 
#    z -0.301080 0.000000 3.603320 
# 
# 
# High freq. dielectric constant tensor:
#      x y z
#    x 1.904270 0.000000 -0.022760 
#    y 0.000000 1.914620 0.000000 
#    z -0.022760 0.000000 1.840870 
# 
# From -- ./inp_files/69920.got.cif
#   From: 2010.03.12/outbox.cif.g09.slc.cpg/sg14_35_cif.got.tgz:69920.got - 2010.03.31 13:35:05.
