data_PCOD8128209
_publ_section_title
;
Structure prediction by ZEFSAII (Michael W. Deem and Ramdas Pophale) SiO2 
 PCOD8128209
Probable space group: P 21/C
;
_chemical_formula_sum "Si O2"
_cell_formula_units_Z 24
_cell_length_a 10.527410
_cell_length_b 11.405585
_cell_length_c 13.415464
_cell_angle_alpha 90.000000
_cell_angle_beta 44.893019
_cell_angle_gamma 90.000000
_cell_volume 1136.887222
_symmetry_space_group_name_H-M "P 21/C"
_symmetry_group_IT_number 14
_symmetry_cell_setting 'monoclinic'
loop_
_space_group_symop_operation_xyz
x,y,z
-x,1/2+y,1/2-z
-x,-y,-z
x,1/2-y,1/2+z
loop_
_atom_site_type_symbol
_atom_site_label
_atom_site_fract_x
_atom_site_fract_y
_atom_site_fract_z
Si Si1 0.820348 0.870537 0.043558
Si Si2 0.229297 0.233737 0.245320
Si Si3 0.446373 0.634932 0.036071
Si Si4 0.295955 0.023456 0.094212
Si Si5 0.827481 0.287893 0.417366
Si Si6 0.776825 0.119860 0.154533
O O1 0.739835 0.762701 0.154465
O O2 0.788256 0.980143 0.134804
O O3 0.725558 0.892349 0.990914
O O4 0.030507 0.842822 0.906174
O O5 0.224451 0.093594 0.230997
O O6 0.039793 0.281432 0.312137
O O7 0.386413 0.285143 0.087614
O O8 0.270595 0.670410 0.067572
O O9 0.386095 0.657791 0.183279
O O10 0.500000 0.500000 0.000000
O O11 0.196217 0.899435 0.142388
O O12 0.500000 0.000000 0.000000
O O13 0.734209 0.316616 0.574503
#
# Coordination Sequence:
#
# PCOD8128209 Si02
#       6
#     4   4   4   4   4   4
#     4   9  19  39  65  90 123 178 211 261 330 392
#     4  11  23  40  68  96 126 174 226 264 337 388
#     4  12  23  39  65 103 127 166 231 277 323 395
#     4  11  22  42  64  96 134 174 215 270 334 395
#     4  10  24  43  65  94 134 179 217 273 334 403
#     4   9  19  39  65  89 127 167 218 265 326 384
#
# _framework density 21.110271999999998
#
# number of rings (size 3 to 8) (size 9 to 14) (size 15 to 20)
#    0.000    1.667    3.333    2.000    2.333    1.333 
#    0.000    0.000    0.000    3.000    0.000    0.000 
#    0.000    0.000    0.000    0.000    0.000    0.000 
#
# Total GULP energy -297459.927005 kJ/mol
# GULP energy per Si atom -12394.163625 kJ/mol
# Density = 2.106222 g / cm^3
# Si number density = 21.110272 Si / 1000 Ang^3
#
#
#
# Elastic Constant Matrix: (Units=GPa)
#
#
# Indices 1 2 3 4 5 6 
#
# 1 72.7814 33.9081 7.8103 0.0000 1.1556 0.0000
# 2 33.9081 82.7782 21.0423 0.0000 10.0733 0.0000
# 3 7.8103 21.0423 108.1152 0.0000 0.5451 0.0000
# 4 0.0000 0.0000 0.0000 33.4666 0.0000 -0.3466
# 5 1.1556 10.0733 0.5451 0.0000 26.5422 0.0000
# 6 0.0000 0.0000 0.0000 -0.3466 0.0000 41.5607
#
#
#
# Elastic Compliance Matrix: (Units=1/GPa)
#
#
# Indices 1 2 3 4 5 6 
#
# 1 0.017085 -0.007288 0.000174 0.000000 0.002019 0.000000
# 2 -0.007288 0.016453 -0.002646 0.000000 -0.005873 0.000000
# 3 0.000174 -0.002646 0.009748 0.000000 0.000796 0.000000
# 4 0.000000 0.000000 0.000000 0.029883 0.000000 0.000249
# 5 0.002019 -0.005873 0.000796 0.000000 0.039800 0.000000
# 6 0.000000 0.000000 0.000000 0.000249 0.000000 0.024063
#
#
# Mechanical properties :
#
#
# Convention : Reuss Voigt Hill
#
# Bulk Modulus (GPa) = 42.07846 43.24401 42.66124
# Shear Modulus (GPa) = 30.39988 33.70818 32.05403
#
# Velocity S-wave (km/s) = 3.79892 4.00029 3.90090
# Velocity P-wave (km/s) = 6.26245 6.47037 6.36726
#
# Compressibility (1/GPa) = 0.02376513
#
# Stress axis : x y z
#
# Youngs Moduli (GPa) = 58.53255 60.77855 102.58707
#
# Poissons Ratio (x) = 0.44296 -0.01786
# Poissons Ratio (y) = 0.42659 0.27146
# Poissons Ratio (z) = -0.01019 0.16083
#
# Static dielectric constant tensor:
#      x y z
#    x 3.910100 0.000000 0.221360 
#    y 0.000000 3.929580 0.000000 
#    z 0.221360 0.000000 3.313610 
# 
# 
# High freq. dielectric constant tensor:
#      x y z
#    x 1.827920 0.000000 -0.005690 
#    y 0.000000 1.817540 0.000000 
#    z -0.005690 0.000000 1.826080 
# 
# From -- ./inp_files/44285.got.cif
#   From: 2010.03.12/outbox.cif.g09.slc.cpg/sg14_23_cif.got.tgz:44285.got - 2010.03.31 13:35:05.
