data_PCOD8128061
_publ_section_title
;
Structure prediction by ZEFSAII (Michael W. Deem and Ramdas Pophale) SiO2 
 PCOD8128061
Probable space group: P 21/C
;
_chemical_formula_sum "Si O2"
_cell_formula_units_Z 28
_cell_length_a 20.382046
_cell_length_b 11.034046
_cell_length_c 8.485828
_cell_angle_alpha 90.000000
_cell_angle_beta 39.395327
_cell_angle_gamma 90.000000
_cell_volume 1211.220028
_symmetry_space_group_name_H-M "P 21/C"
_symmetry_group_IT_number 14
_symmetry_cell_setting 'monoclinic'
loop_
_space_group_symop_operation_xyz
x,y,z
-x,1/2+y,1/2-z
-x,-y,-z
x,1/2-y,1/2+z
loop_
_atom_site_type_symbol
_atom_site_label
_atom_site_fract_x
_atom_site_fract_y
_atom_site_fract_z
Si Si1 0.826773 0.869687 0.669330
Si Si2 0.891286 0.631376 0.394063
Si Si3 0.229286 0.921252 0.706411
Si Si4 0.600688 0.075376 0.834487
Si Si5 0.596188 0.342782 0.913761
Si Si6 0.076169 0.934328 0.739526
Si Si7 0.609939 0.541757 0.631325
O O1 0.828622 0.746305 0.568604
O O2 0.858425 0.974391 0.489655
O O3 0.900730 0.871378 0.686697
O O4 0.710629 0.874276 0.950881
O O5 0.834800 0.511038 0.563263
O O6 0.007707 0.647102 0.248643
O O7 0.316672 0.986504 0.436857
O O8 0.296976 0.826810 0.683990
O O9 0.153421 0.859361 0.714175
O O10 0.584356 0.219937 0.834731
O O11 0.500000 0.000000 0.000000
O O12 0.631432 0.057845 0.957984
O O13 0.605883 0.465638 0.797734
O O14 0.491150 0.371373 0.209417
O O15 0.000000 0.000000 0.000000
#
# Coordination Sequence:
#
# PCOD8128061 Si02
#       7
#     4   4   4   4   4   4   4
#     4  12  24  46  74 105 142 190 238 299 365 439
#     4  11  25  44  72 104 143 190 245 299 367 430
#     4  11  22  46  68  99 144 185 242 293 362 434
#     4  12  25  43  69 100 144 193 237 294 369 434
#     4  11  25  46  66 107 147 186 239 301 357 441
#     4  10  23  46  69 104 141 176 243 298 360 439
#     4  11  25  42  72 105 141 186 241 291 362 434
#
# _framework density 23.117187999999999
#
# number of rings (size 3 to 8) (size 9 to 14) (size 15 to 20)
#    0.000    0.857    4.286    3.000    2.000    0.000 
#    7.714    0.000    0.000    0.000    0.000    0.000 
#    0.000    0.000    0.000    0.000    0.000    0.000 
#
# Total GULP energy -346874.075176 kJ/mol
# GULP energy per Si atom -12388.359828 kJ/mol
# Density = 2.306457 g / cm^3
# Si number density = 23.117188 Si / 1000 Ang^3
#
#
#
# Elastic Constant Matrix: (Units=GPa)
#
#
# Indices 1 2 3 4 5 6 
#
# 1 138.7946 30.3095 23.6997 0.0000 -11.6883 0.0000
# 2 30.3095 79.3307 10.1552 0.0000 -5.1053 0.0000
# 3 23.6997 10.1552 81.9255 0.0000 3.2371 0.0000
# 4 0.0000 0.0000 0.0000 24.2702 0.0000 6.5333
# 5 -11.6883 -5.1053 3.2371 0.0000 45.8420 0.0000
# 6 0.0000 0.0000 0.0000 6.5333 0.0000 29.2291
#
#
#
# Elastic Compliance Matrix: (Units=1/GPa)
#
#
# Indices 1 2 3 4 5 6 
#
# 1 0.008346 -0.002787 -0.002147 0.000000 0.001969 0.000000
# 2 -0.002787 0.013849 -0.000946 0.000000 0.000898 0.000000
# 3 -0.002147 -0.000946 0.013007 0.000000 -0.001571 0.000000
# 4 0.000000 0.000000 0.000000 0.043841 0.000000 -0.009799
# 5 0.001969 0.000898 -0.001571 0.000000 0.022527 0.000000
# 6 0.000000 0.000000 0.000000 -0.009799 0.000000 0.036403
#
#
# Mechanical properties :
#
#
# Convention : Reuss Voigt Hill
#
# Bulk Modulus (GPa) = 42.65809 47.59772 45.12791
# Shear Modulus (GPa) = 31.73678 35.59403 33.66541
#
# Velocity S-wave (km/s) = 3.70924 3.92819 3.82028
# Velocity P-wave (km/s) = 6.06940 6.41940 6.24685
#
# Compressibility (1/GPa) = 0.02344221
#
# Stress axis : x y z
#
# Youngs Moduli (GPa) = 119.81901 72.20610 76.88442
#
# Poissons Ratio (x) = 0.20125 0.16504
# Poissons Ratio (y) = 0.33396 0.07273
# Poissons Ratio (z) = 0.25721 0.06830
#
# Static dielectric constant tensor:
#      x y z
#    x 4.296490 0.000000 -0.951370 
#    y 0.000000 3.901860 0.000000 
#    z -0.951370 0.000000 3.312910 
# 
# 
# High freq. dielectric constant tensor:
#      x y z
#    x 1.939260 0.000000 0.002160 
#    y 0.000000 1.871790 0.000000 
#    z 0.002160 0.000000 1.930620 
# 
# From -- ./inp_files/18915.got.cif
#   From: 2010.03.12/outbox.cif.g09.slc.cpg/sg14_10_cif.got.tgz:18915.got - 2010.03.31 13:35:05.
