data_PCOD8128584
_publ_section_title
;
Structure prediction by ZEFSAII (Michael W. Deem and Ramdas Pophale) SiO2 
 PCOD8128584
Probable space group: P 21/C
;
_chemical_formula_sum "Si O2"
_cell_formula_units_Z 32
_cell_length_a 22.736074
_cell_length_b 9.285803
_cell_length_c 14.714411
_cell_angle_alpha 90.000000
_cell_angle_beta 26.216370
_cell_angle_gamma 90.000000
_cell_volume 1372.354673
_symmetry_space_group_name_H-M "P 21/C"
_symmetry_group_IT_number 14
_symmetry_cell_setting 'monoclinic'
loop_
_space_group_symop_operation_xyz
x,y,z
-x,1/2+y,1/2-z
-x,-y,-z
x,1/2-y,1/2+z
loop_
_atom_site_type_symbol
_atom_site_label
_atom_site_fract_x
_atom_site_fract_y
_atom_site_fract_z
Si Si1 0.373811 0.384594 0.746452
Si Si2 0.259397 0.707970 0.491960
Si Si3 0.908739 0.983471 0.710005
Si Si4 0.530675 0.658705 0.574178
Si Si5 0.266895 0.266954 0.067704
Si Si6 0.855040 0.061185 0.217933
Si Si7 0.084865 0.990109 0.619666
Si Si8 0.112375 0.826740 0.017425
O O1 0.485562 0.493677 0.627701
O O2 0.424820 0.293870 0.589085
O O3 0.348581 0.271187 0.860724
O O4 0.240648 0.474879 0.904030
O O5 0.228911 0.576079 0.602955
O O6 0.415117 0.742926 0.277331
O O7 0.170911 0.847757 0.651077
O O8 0.227396 0.654223 0.433766
O O9 0.871061 0.813776 0.766672
O O10 0.994730 0.068371 0.668014
O O11 0.000000 0.000000 0.500000
O O12 0.656659 0.670443 0.464952
O O13 0.244962 0.426120 0.138331
O O14 0.822094 0.161233 0.174613
O O15 0.000000 0.000000 0.000000
O O16 0.054053 0.829430 0.625180
O O17 0.007984 0.051281 0.815676
#
# Coordination Sequence:
#
# PCOD8128584 Si02
#       8
#     4   4   4   4   4   4   4   4
#     4  11  24  48  72  98 144 197 241 287 362 431
#     4  11  24  44  65 103 143 184 235 289 360 426
#     4  11  24  40  68 109 145 176 234 297 362 419
#     4  11  26  45  71  99 140 197 241 285 353 423
#     4  12  26  46  73 108 140 192 243 297 349 435
#     4  12  24  43  71 101 140 181 239 296 363 427
#     4  11  21  41  68 101 139 183 229 295 362 420
#     4  11  23  39  69 101 137 180 230 296 362 428
#
# _framework density 23.317589000000002
#
# number of rings (size 3 to 8) (size 9 to 14) (size 15 to 20)
#    0.000    0.750    2.500    5.250    1.750    6.000 
#    0.000    1.250    0.000    0.000    0.000    0.000 
#    0.000    0.000    0.000    0.000    0.000    0.000 
#
# Total GULP energy -396447.404401 kJ/mol
# GULP energy per Si atom -12388.981388 kJ/mol
# Density = 2.326452 g / cm^3
# Si number density = 23.317589 Si / 1000 Ang^3
#
#
#
# Elastic Constant Matrix: (Units=GPa)
#
#
# Indices 1 2 3 4 5 6 
#
# 1 93.9049 27.4289 45.5858 0.0000 12.7798 0.0000
# 2 27.4289 90.7751 30.0797 0.0000 11.5420 0.0000
# 3 45.5858 30.0797 114.5081 0.0000 32.9551 0.0000
# 4 0.0000 0.0000 0.0000 39.9771 0.0000 2.4114
# 5 12.7798 11.5420 32.9551 0.0000 39.6431 0.0000
# 6 0.0000 0.0000 0.0000 2.4114 0.0000 34.0395
#
#
#
# Elastic Compliance Matrix: (Units=1/GPa)
#
#
# Indices 1 2 3 4 5 6 
#
# 1 0.013727 -0.002574 -0.004904 0.000000 0.000401 0.000000
# 2 -0.002574 0.012589 -0.001928 0.000000 -0.001233 0.000000
# 3 -0.004904 -0.001928 0.013901 0.000000 -0.009414 0.000000
# 4 0.000000 0.000000 0.000000 0.025122 0.000000 -0.001780
# 5 0.000401 -0.001233 -0.009414 0.000000 0.033280 0.000000
# 6 0.000000 0.000000 0.000000 -0.001780 0.000000 0.029504
#
#
# Mechanical properties :
#
#
# Convention : Reuss Voigt Hill
#
# Bulk Modulus (GPa) = 46.71423 56.15298 51.43360
# Shear Modulus (GPa) = 32.45301 35.80487 34.12894
#
# Velocity S-wave (km/s) = 3.73471 3.92284 3.82993
# Velocity P-wave (km/s) = 6.21890 6.68224 6.45473
#
# Compressibility (1/GPa) = 0.02140675
#
# Stress axis : x y z
#
# Youngs Moduli (GPa) = 72.84968 79.43160 71.93820
#
# Poissons Ratio (x) = 0.20443 0.35278
# Poissons Ratio (y) = 0.18749 0.13866
# Poissons Ratio (z) = 0.35725 0.15311
#
# Static dielectric constant tensor:
#      x y z
#    x 4.301720 0.000000 0.153510 
#    y 0.000000 3.595750 0.000000 
#    z 0.153510 0.000000 4.224420 
# 
# 
# High freq. dielectric constant tensor:
#      x y z
#    x 1.933770 0.000000 0.014290 
#    y 0.000000 1.914100 0.000000 
#    z 0.014290 0.000000 1.924080 
# 
# From -- ./inp_files/51338.got.cif
#   From: 2010.03.12/outbox.cif.g09.slc.cpg/sg14_26_cif.got.tgz:51338.got - 2010.03.31 13:35:05.
