data_PCOD8128686
_publ_section_title
;
Structure prediction by ZEFSAII (Michael W. Deem and Ramdas Pophale) SiO2 
 PCOD8128686
Probable space group: P 21/C
;
_chemical_formula_sum "Si O2"
_cell_formula_units_Z 28
_cell_length_a 11.371801
_cell_length_b 8.351584
_cell_length_c 14.749432
_cell_angle_alpha 90.000000
_cell_angle_beta 121.341207
_cell_angle_gamma 90.000000
_cell_volume 1196.394702
_symmetry_space_group_name_H-M "P 21/C"
_symmetry_group_IT_number 14
_symmetry_cell_setting 'monoclinic'
loop_
_space_group_symop_operation_xyz
x,y,z
-x,1/2+y,1/2-z
-x,-y,-z
x,1/2-y,1/2+z
loop_
_atom_site_type_symbol
_atom_site_label
_atom_site_fract_x
_atom_site_fract_y
_atom_site_fract_z
Si Si1 0.019765 0.340476 0.565616
Si Si2 0.357505 0.392440 0.510713
Si Si3 0.822429 0.351502 0.654196
Si Si4 0.423635 0.825415 0.170111
Si Si5 0.279770 0.179922 0.627541
Si Si6 0.430208 0.832040 0.493796
Si Si7 0.171951 0.841683 0.636742
O O1 0.949764 0.344788 0.636048
O O2 0.957087 0.201738 0.477356
O O3 0.000000 0.500000 0.500000
O O4 0.180268 0.297497 0.646424
O O5 0.261928 0.487231 0.402177
O O6 0.407969 0.504441 0.613990
O O7 0.273812 0.243280 0.521113
O O8 0.486854 0.323090 0.508485
O O9 0.725772 0.192926 0.605362
O O10 0.876804 0.362981 0.778723
O O11 0.561461 0.812792 0.281790
O O12 0.426161 0.678903 0.100204
O O13 0.290915 0.795370 0.180982
O O14 0.229604 0.001468 0.616228
O O15 0.500000 0.000000 0.500000
#
# Coordination Sequence:
#
# PCOD8128686 Si02
#       7
#     4   4   4   4   4   4   4
#     4  12  26  50  69 101 150 192 230 296 361 435
#     4  11  22  43  71 100 145 187 233 302 357 420
#     4  11  24  47  71 100 145 189 239 291 360 431
#     4  11  22  43  68 103 140 186 236 293 363 419
#     4  12  24  41  71 102 139 185 237 293 358 417
#     4  11  22  39  68 107 142 179 242 301 348 420
#     4  12  25  46  74 106 139 188 245 297 353 431
#
# _framework density 23.403649000000001
#
# number of rings (size 3 to 8) (size 9 to 14) (size 15 to 20)
#    0.000    0.571    4.286    6.429    0.000    3.429 
#    2.571    0.000    0.000    0.000    0.000    0.000 
#    0.000    0.000    0.000    0.000    0.000    0.000 
#
# Total GULP energy -347158.933281 kJ/mol
# GULP energy per Si atom -12398.533331 kJ/mol
# Density = 2.335038 g / cm^3
# Si number density = 23.403649 Si / 1000 Ang^3
#
#
#
# Elastic Constant Matrix: (Units=GPa)
#
#
# Indices 1 2 3 4 5 6 
#
# 1 103.1476 -7.4267 17.0853 0.0000 -23.7284 0.0000
# 2 -7.4267 66.8666 19.3225 0.0000 -10.8470 0.0000
# 3 17.0853 19.3225 85.8002 0.0000 -30.8961 0.0000
# 4 0.0000 0.0000 0.0000 18.9165 0.0000 -8.0792
# 5 -23.7284 -10.8470 -30.8961 0.0000 40.2133 0.0000
# 6 0.0000 0.0000 0.0000 -8.0792 0.0000 37.2055
#
#
#
# Elastic Compliance Matrix: (Units=1/GPa)
#
#
# Indices 1 2 3 4 5 6 
#
# 1 0.011610 0.002552 -0.000238 0.000000 0.007357 0.000000
# 2 0.002552 0.016691 -0.002908 0.000000 0.003773 0.000000
# 3 -0.000238 -0.002908 0.016623 0.000000 0.011847 0.000000
# 4 0.000000 0.000000 0.000000 0.058268 0.000000 0.012653
# 5 0.007357 0.003773 0.011847 0.000000 0.039328 0.000000
# 6 0.000000 0.000000 0.000000 0.012653 0.000000 0.029625
#
#
# Mechanical properties :
#
#
# Convention : Reuss Voigt Hill
#
# Bulk Modulus (GPa) = 22.86438 34.86407 28.86423
# Shear Modulus (GPa) = 26.60801 34.38927 30.49864
#
# Velocity S-wave (km/s) = 3.37548 3.83743 3.61384
# Velocity P-wave (km/s) = 4.99826 5.87909 5.45648
#
# Compressibility (1/GPa) = 0.04373615
#
# Stress axis : x y z
#
# Youngs Moduli (GPa) = 86.13106 59.91239 60.15653
#
# Poissons Ratio (x) = -0.15287 0.01429
# Poissons Ratio (y) = -0.21976 0.17495
# Poissons Ratio (z) = 0.02046 0.17424
#
# Static dielectric constant tensor:
#      x y z
#    x 4.687830 0.000000 -0.046520 
#    y 0.000000 4.360380 0.000000 
#    z -0.046520 0.000000 4.082230 
# 
# 
# High freq. dielectric constant tensor:
#      x y z
#    x 1.944160 0.000000 -0.013780 
#    y 0.000000 1.934210 0.000000 
#    z -0.013780 0.000000 1.904260 
# 
# From -- ./inp_files/43468.got.cif
#   From: 2010.03.12/outbox.cif.g09.slc.cpg/sg14_22_cif.got.tgz:43468.got - 2010.03.31 13:35:05.
