data_PCOD8128380
_publ_section_title
;
Structure prediction by ZEFSAII (Michael W. Deem and Ramdas Pophale) SiO2 
 PCOD8128380
Probable space group: P 21/C
;
_chemical_formula_sum "Si O2"
_cell_formula_units_Z 20
_cell_length_a 17.786685
_cell_length_b 4.605913
_cell_length_c 8.726598
_cell_angle_alpha 90.000000
_cell_angle_beta 100.145332
_cell_angle_gamma 90.000000
_cell_volume 703.738792
_symmetry_space_group_name_H-M "P 21/C"
_symmetry_group_IT_number 14
_symmetry_cell_setting 'monoclinic'
loop_
_space_group_symop_operation_xyz
x,y,z
-x,1/2+y,1/2-z
-x,-y,-z
x,1/2-y,1/2+z
loop_
_atom_site_type_symbol
_atom_site_label
_atom_site_fract_x
_atom_site_fract_y
_atom_site_fract_z
Si Si1 0.857735 0.511858 0.371562
Si Si2 0.350024 0.809803 0.454510
Si Si3 0.048349 0.627786 0.310730
Si Si4 0.249649 0.961519 0.676838
Si Si5 0.447367 0.024061 0.221810
O O1 0.886422 0.336537 0.232040
O O2 0.926833 0.504437 0.517682
O O3 0.783948 0.338442 0.403219
O O4 0.972533 0.839260 0.300062
O O5 0.311049 0.033913 0.563920
O O6 0.289741 0.590812 0.353649
O O7 0.414314 0.607885 0.553544
O O8 0.385209 0.013990 0.334950
O O9 0.176654 0.327803 0.177871
O O10 0.474224 0.353565 0.203013
#
# Coordination Sequence:
#
# PCOD8128380 Si02
#       5
#     4   4   4   4   4
#     4  12  26  46  72 105 143 188 237 292 357 430
#     4  10  25  44  70 102 143 188 238 298 358 424
#     4  12  25  46  74 106 145 190 238 296 358 428
#     4  11  26  45  68 103 143 188 239 294 357 427
#     4  11  24  43  70 102 140 186 238 294 356 425
#
# _framework density 28.419633999999999
#
# number of rings (size 3 to 8) (size 9 to 14) (size 15 to 20)
#    0.000    0.800    0.000    6.000    0.000   14.400 
#    0.000    2.000    0.000    0.000    0.000    0.000 
#    0.000    0.000    0.000    0.000    0.000    0.000 
#
# Total GULP energy -248017.170354 kJ/mol
# GULP energy per Si atom -12400.858518 kJ/mol
# Density = 2.835495 g / cm^3
# Si number density = 28.419634 Si / 1000 Ang^3
#
#
#
# Elastic Constant Matrix: (Units=GPa)
#
#
# Indices 1 2 3 4 5 6 
#
# 1 86.5751 11.2553 24.1320 0.0000 19.7767 0.0000
# 2 11.2553 93.2303 33.7112 0.0000 16.5059 0.0000
# 3 24.1320 33.7112 93.0507 0.0000 13.5510 0.0000
# 4 0.0000 0.0000 0.0000 24.2867 0.0000 -3.0193
# 5 19.7767 16.5059 13.5510 0.0000 45.5996 0.0000
# 6 0.0000 0.0000 0.0000 -3.0193 0.0000 18.6729
#
#
#
# Elastic Compliance Matrix: (Units=1/GPa)
#
#
# Indices 1 2 3 4 5 6 
#
# 1 0.013475 0.000313 -0.002864 0.000000 -0.005106 0.000000
# 2 0.000313 0.012839 -0.004218 0.000000 -0.003529 0.000000
# 3 -0.002864 -0.004218 0.013185 0.000000 -0.001149 0.000000
# 4 0.000000 0.000000 0.000000 0.042020 0.000000 0.006794
# 5 -0.005106 -0.003529 -0.001149 0.000000 0.025764 0.000000
# 6 0.000000 0.000000 0.000000 0.006794 0.000000 0.054652
#
#
# Mechanical properties :
#
#
# Convention : Reuss Voigt Hill
#
# Bulk Modulus (GPa) = 38.52226 45.67256 42.09741
# Shear Modulus (GPa) = 27.15522 31.29567 29.22545
#
# Velocity S-wave (km/s) = 3.09448 3.32203 3.21028
# Velocity P-wave (km/s) = 5.13342 5.55159 5.34660
#
# Compressibility (1/GPa) = 0.02595901
#
# Stress axis : x y z
#
# Youngs Moduli (GPa) = 74.21254 77.89048 75.84197
#
# Poissons Ratio (x) = -0.02438 0.21724
# Poissons Ratio (y) = -0.02323 0.31993
# Poissons Ratio (z) = 0.21257 0.32858
#
# Static dielectric constant tensor:
#      x y z
#    x 5.503520 0.000000 0.225010 
#    y 0.000000 5.117890 0.000000 
#    z 0.225010 0.000000 4.797780 
# 
# 
# High freq. dielectric constant tensor:
#      x y z
#    x 2.182640 0.000000 0.005330 
#    y 0.000000 2.151130 0.000000 
#    z 0.005330 0.000000 2.143300 
# 
# From -- ./inp_files/17281.got.cif
#   From: 2010.03.12/outbox.cif.g09.slc.cpg/sg14_9_cif.got.tgz:17281.got - 2010.03.31 13:35:05.
