data_PCOD8128599
_publ_section_title
;
Structure prediction by ZEFSAII (Michael W. Deem and Ramdas Pophale) SiO2 
 PCOD8128599
Probable space group: P 21/C
;
_chemical_formula_sum "Si O2"
_cell_formula_units_Z 20
_cell_length_a 7.932788
_cell_length_b 7.369710
_cell_length_c 22.903222
_cell_angle_alpha 90.000000
_cell_angle_beta 137.516938
_cell_angle_gamma 90.000000
_cell_volume 904.307272
_symmetry_space_group_name_H-M "P 21/C"
_symmetry_group_IT_number 14
_symmetry_cell_setting 'monoclinic'
loop_
_space_group_symop_operation_xyz
x,y,z
-x,1/2+y,1/2-z
-x,-y,-z
x,1/2-y,1/2+z
loop_
_atom_site_type_symbol
_atom_site_label
_atom_site_fract_x
_atom_site_fract_y
_atom_site_fract_z
Si Si1 0.974899 0.157136 0.914091
Si Si2 0.664677 0.385041 0.438821
Si Si3 0.251328 0.882177 0.366711
Si Si4 0.229394 0.995795 0.489864
Si Si5 0.115815 0.469528 0.327788
O O1 0.995746 0.368560 0.939176
O O2 0.729668 0.084443 0.886201
O O3 0.961958 0.127195 0.840941
O O4 0.227388 0.053354 0.997645
O O5 0.370362 0.362526 0.375857
O O6 0.813521 0.205830 0.497489
O O7 0.534941 0.909038 0.417276
O O8 0.186207 0.673656 0.362416
O O9 0.247657 0.996306 0.424716
O O10 0.061495 0.973542 0.273261
#
# Coordination Sequence:
#
# PCOD8128599 Si02
#       5
#     4   4   4   4   4
#     4  11  23  41  67  94 127 168 210 260 317 379
#     4  11  23  41  67  94 127 168 210 260 317 379
#     4  11  23  38  69  94 127 174 212 264 324 379
#     4  11  21  42  66  97 127 170 215 257 322 383
#     4  12  22  44  63  95 133 166 215 270 318 372
#
# _framework density 22.116378000000001
#
# number of rings (size 3 to 8) (size 9 to 14) (size 15 to 20)
#    0.000    0.800    4.000    6.000    0.000    0.000 
#    0.000   10.000    0.000    0.000    0.000    0.000 
#    0.000    0.000    0.000    0.000    0.000    0.000 
#
# Total GULP energy -247890.805260 kJ/mol
# GULP energy per Si atom -12394.540263 kJ/mol
# Density = 2.206604 g / cm^3
# Si number density = 22.116378 Si / 1000 Ang^3
#
#
#
# Elastic Constant Matrix: (Units=GPa)
#
#
# Indices 1 2 3 4 5 6 
#
# 1 101.5570 -12.7984 37.0750 0.0000 -14.7800 0.0000
# 2 -12.7984 96.2889 13.2124 0.0000 -1.8931 0.0000
# 3 37.0750 13.2124 102.9358 0.0000 -14.2418 0.0000
# 4 0.0000 0.0000 0.0000 29.9622 0.0000 -1.9002
# 5 -14.7800 -1.8931 -14.2418 0.0000 13.5825 0.0000
# 6 0.0000 0.0000 0.0000 -1.9002 0.0000 17.1760
#
#
#
# Elastic Compliance Matrix: (Units=1/GPa)
#
#
# Indices 1 2 3 4 5 6 
#
# 1 0.013003 0.002421 -0.003497 0.000000 0.010820 0.000000
# 2 0.002421 0.011022 -0.002000 0.000000 0.002074 0.000000
# 3 -0.003497 -0.002000 0.012476 0.000000 0.008997 0.000000
# 4 0.000000 0.000000 0.000000 0.033611 0.000000 0.003719
# 5 0.010820 0.002074 0.008997 0.000000 0.095121 0.000000
# 6 0.000000 0.000000 0.000000 0.003719 0.000000 0.058632
#
#
# Mechanical properties :
#
#
# Convention : Reuss Voigt Hill
#
# Bulk Modulus (GPa) = 32.94968 41.75109 37.35039
# Shear Modulus (GPa) = 20.82168 29.69699 25.25934
#
# Velocity S-wave (km/s) = 3.07165 3.66834 3.38318
# Velocity P-wave (km/s) = 5.24507 6.07134 5.67327
#
# Compressibility (1/GPa) = 0.03034931
#
# Stress axis : x y z
#
# Youngs Moduli (GPa) = 76.90452 90.72458 80.15453
#
# Poissons Ratio (x) = -0.21964 0.28031
# Poissons Ratio (y) = -0.18618 0.16030
# Poissons Ratio (z) = 0.26895 0.18143
#
# Static dielectric constant tensor:
#      x y z
#    x 3.887070 0.000000 -0.105120 
#    y 0.000000 4.010640 0.000000 
#    z -0.105120 0.000000 3.756870 
# 
# 
# High freq. dielectric constant tensor:
#      x y z
#    x 1.866580 0.000000 -0.013920 
#    y 0.000000 1.890060 0.000000 
#    z -0.013920 0.000000 1.843980 
# 
# From -- ./inp_files/12711.got.cif
#   From: 2010.03.12/outbox.cif.g09.slc.cpg/sg14_7_cif.got.tgz:12711.got - 2010.03.31 13:35:05.
