data_PCOD8128267
_publ_section_title
;
Structure prediction by ZEFSAII (Michael W. Deem and Ramdas Pophale) SiO2 
 PCOD8128267
Probable space group: P 21/C
;
_chemical_formula_sum "Si O2"
_cell_formula_units_Z 24
_cell_length_a 9.432028
_cell_length_b 8.508954
_cell_length_c 14.317748
_cell_angle_alpha 90.000000
_cell_angle_beta 104.597827
_cell_angle_gamma 90.000000
_cell_volume 1112.000847
_symmetry_space_group_name_H-M "P 21/C"
_symmetry_group_IT_number 14
_symmetry_cell_setting 'monoclinic'
loop_
_space_group_symop_operation_xyz
x,y,z
-x,1/2+y,1/2-z
-x,-y,-z
x,1/2-y,1/2+z
loop_
_atom_site_type_symbol
_atom_site_label
_atom_site_fract_x
_atom_site_fract_y
_atom_site_fract_z
Si Si1 0.463761 0.327421 0.028729
Si Si2 0.609236 0.668129 0.663693
Si Si3 0.721609 0.162636 0.849291
Si Si4 0.726980 0.331952 0.661080
Si Si5 0.942949 0.342081 0.536359
Si Si6 0.750061 0.708605 0.358947
O O1 0.622487 0.255964 0.071740
O O2 0.367809 0.318038 0.106917
O O3 0.500000 0.500000 0.000000
O O4 0.370479 0.225005 0.939161
O O5 0.444984 0.717678 0.665452
O O6 0.640247 0.484493 0.682088
O O7 0.727025 0.759761 0.745679
O O8 0.772516 0.220289 0.755386
O O9 0.726677 0.976586 0.868355
O O10 0.830427 0.240985 0.944733
O O11 0.869696 0.378088 0.624890
O O12 0.000000 0.500000 0.500000
O O13 0.087417 0.237219 0.581543
#
# Coordination Sequence:
#
# PCOD8128267 Si02
#       6
#     4   4   4   4   4   4
#     4  12  25  41  69 100 131 179 233 278 337 404
#     4  12  22  40  71  99 133 177 227 286 332 401
#     4  11  21  42  70  95 137 176 226 282 338 399
#     4  12  24  41  72 102 132 182 229 274 346 409
#     4  10  24  44  67  97 142 180 218 278 344 404
#     4  11  25  43  65 101 138 171 226 282 336 403
#
# _framework density 21.582716999999999
#
# number of rings (size 3 to 8) (size 9 to 14) (size 15 to 20)
#    0.000    0.667    5.000    3.500    2.333    4.000 
#    0.000    3.333    0.000    0.000    0.000    0.000 
#    0.000    0.000    0.000    0.000    0.000    0.000 
#
# Total GULP energy -297577.810479 kJ/mol
# GULP energy per Si atom -12399.075437 kJ/mol
# Density = 2.153359 g / cm^3
# Si number density = 21.582717 Si / 1000 Ang^3
#
#
#
# Elastic Constant Matrix: (Units=GPa)
#
#
# Indices 1 2 3 4 5 6 
#
# 1 117.1584 24.6231 47.3254 0.0000 6.1927 0.0000
# 2 24.6231 64.5502 23.8608 0.0000 9.2377 0.0000
# 3 47.3254 23.8608 139.5523 0.0000 16.5088 0.0000
# 4 0.0000 0.0000 0.0000 42.3517 0.0000 -4.5143
# 5 6.1927 9.2377 16.5088 0.0000 50.4992 0.0000
# 6 0.0000 0.0000 0.0000 -4.5143 0.0000 25.2074
#
#
#
# Elastic Compliance Matrix: (Units=1/GPa)
#
#
# Indices 1 2 3 4 5 6 
#
# 1 0.010356 -0.002858 -0.003053 0.000000 0.000251 0.000000
# 2 -0.002858 0.017561 -0.001763 0.000000 -0.002286 0.000000
# 3 -0.003053 -0.001763 0.008759 0.000000 -0.002166 0.000000
# 4 0.000000 0.000000 0.000000 0.024071 0.000000 0.004311
# 5 0.000251 -0.002286 -0.002166 0.000000 0.020898 0.000000
# 6 0.000000 0.000000 0.000000 0.004311 0.000000 0.040443
#
#
# Mechanical properties :
#
#
# Convention : Reuss Voigt Hill
#
# Bulk Modulus (GPa) = 46.88677 56.98661 51.93669
# Shear Modulus (GPa) = 34.59140 38.64177 36.61659
#
# Velocity S-wave (km/s) = 4.00776 4.23591 4.12341
# Velocity P-wave (km/s) = 6.57173 7.09824 6.84005
#
# Compressibility (1/GPa) = 0.02132798
#
# Stress axis : x y z
#
# Youngs Moduli (GPa) = 96.56179 56.94533 114.17003
#
# Poissons Ratio (x) = 0.16274 0.34857
# Poissons Ratio (y) = 0.27595 0.20129
# Poissons Ratio (z) = 0.29481 0.10040
#
# Static dielectric constant tensor:
#      x y z
#    x 5.398680 0.000000 1.597430 
#    y 0.000000 4.282730 0.000000 
#    z 1.597430 0.000000 5.494670 
# 
# 
# High freq. dielectric constant tensor:
#      x y z
#    x 1.847160 0.000000 0.008520 
#    y 0.000000 1.821660 0.000000 
#    z 0.008520 0.000000 1.869750 
# 
# From -- ./inp_files/39053.got.cif
#   From: 2010.03.12/outbox.cif.g09.slc.cpg/sg14_20_cif.got.tgz:39053.got - 2010.03.31 13:35:05.
