data_PCOD8128359
_publ_section_title
;
Structure prediction by ZEFSAII (Michael W. Deem and Ramdas Pophale) SiO2 
 PCOD8128359
Probable space group: P 21/C
;
_chemical_formula_sum "Si O2"
_cell_formula_units_Z 24
_cell_length_a 11.387767
_cell_length_b 9.052330
_cell_length_c 10.492799
_cell_angle_alpha 90.000000
_cell_angle_beta 94.410568
_cell_angle_gamma 90.000000
_cell_volume 1078.455599
_symmetry_space_group_name_H-M "P 21/C"
_symmetry_group_IT_number 14
_symmetry_cell_setting 'monoclinic'
loop_
_space_group_symop_operation_xyz
x,y,z
-x,1/2+y,1/2-z
-x,-y,-z
x,1/2-y,1/2+z
loop_
_atom_site_type_symbol
_atom_site_label
_atom_site_fract_x
_atom_site_fract_y
_atom_site_fract_z
Si Si1 0.157664 0.499313 0.119015
Si Si2 0.846841 0.009242 0.094854
Si Si3 0.414601 0.533013 0.108036
Si Si4 0.996304 0.750025 0.501003
Si Si5 0.561473 0.766748 0.220671
Si Si6 0.617433 0.593748 0.477507
O O1 0.202081 0.500944 0.267020
O O2 0.279437 0.516850 0.050592
O O3 0.100475 0.340520 0.086434
O O4 0.067709 0.632614 0.090990
O O5 0.915352 0.163738 0.084909
O O6 0.734722 0.007768 0.990682
O O7 0.934033 0.870522 0.084405
O O8 0.436591 0.696559 0.167009
O O9 0.458826 0.427911 0.225450
O O10 0.500000 0.500000 0.000000
O O11 0.621017 0.669150 0.338197
O O12 0.634529 0.783128 0.092707
O O13 0.500000 0.500000 0.500000
#
# Coordination Sequence:
#
# PCOD8128359 Si02
#       6
#     4   4   4   4   4   4
#     4  11  23  45  67  95 136 178 225 288 334 411
#     4  11  23  44  69  95 136 175 228 280 347 402
#     4  12  26  41  68 102 138 180 227 282 347 411
#     4  10  25  42  68  98 128 176 235 278 338 399
#     4  12  24  43  66 101 143 177 226 273 350 412
#     4  12  25  43  70 105 139 183 223 287 347 415
#
# _framework density 22.254048000000001
#
# number of rings (size 3 to 8) (size 9 to 14) (size 15 to 20)
#    0.000    0.667    5.000    2.000    2.333    1.333 
#    0.000    0.000    0.000    0.000    0.000    0.000 
#    0.000    0.000    0.000    0.000    0.000    0.000 
#
# Total GULP energy -297457.047845 kJ/mol
# GULP energy per Si atom -12394.043660 kJ/mol
# Density = 2.220340 g / cm^3
# Si number density = 22.254048 Si / 1000 Ang^3
#
#
#
# Elastic Constant Matrix: (Units=GPa)
#
#
# Indices 1 2 3 4 5 6 
#
# 1 140.2734 35.7171 27.2726 0.0000 5.6237 0.0000
# 2 35.7171 93.1711 6.7363 0.0000 10.2391 0.0000
# 3 27.2726 6.7363 98.4445 0.0000 5.1245 0.0000
# 4 0.0000 0.0000 0.0000 30.1237 0.0000 5.7366
# 5 5.6237 10.2391 5.1245 0.0000 28.5871 0.0000
# 6 0.0000 0.0000 0.0000 5.7366 0.0000 28.3671
#
#
#
# Elastic Compliance Matrix: (Units=1/GPa)
#
#
# Indices 1 2 3 4 5 6 
#
# 1 0.008309 -0.003015 -0.002086 0.000000 -0.000181 0.000000
# 2 -0.003015 0.012297 0.000194 0.000000 -0.003846 0.000000
# 3 -0.002086 0.000194 0.010806 0.000000 -0.001596 0.000000
# 4 0.000000 0.000000 0.000000 0.034526 0.000000 -0.006982
# 5 -0.000181 -0.003846 -0.001596 0.000000 0.036680 0.000000
# 6 0.000000 0.000000 0.000000 -0.006982 0.000000 0.036664
#
#
# Mechanical properties :
#
#
# Convention : Reuss Voigt Hill
#
# Bulk Modulus (GPa) = 46.29982 52.37124 49.33553
# Shear Modulus (GPa) = 31.99052 34.89313 33.44182
#
# Velocity S-wave (km/s) = 3.79557 3.96402 3.88071
# Velocity P-wave (km/s) = 6.32920 6.67351 6.50363
#
# Compressibility (1/GPa) = 0.02159836
#
# Stress axis : x y z
#
# Youngs Moduli (GPa) = 120.34513 81.31866 92.54290
#
# Poissons Ratio (x) = 0.24515 0.19307
# Poissons Ratio (y) = 0.36280 -0.01795
# Poissons Ratio (z) = 0.25108 -0.01577
#
# Static dielectric constant tensor:
#      x y z
#    x 3.954980 0.000000 0.038910 
#    y 0.000000 4.344310 0.000000 
#    z 0.038910 0.000000 4.205620 
# 
# 
# High freq. dielectric constant tensor:
#      x y z
#    x 1.875910 0.000000 0.004470 
#    y 0.000000 1.886470 0.000000 
#    z 0.004470 0.000000 1.876380 
# 
# From -- ./inp_files/28103.got.cif
#   From: 2010.03.12/outbox.cif.g09.slc.cpg/sg14_15_cif.got.tgz:28103.got - 2010.03.31 13:35:05.
