data_PCOD8128525
_publ_section_title
;
Structure prediction by ZEFSAII (Michael W. Deem and Ramdas Pophale) SiO2 
 PCOD8128525
Probable space group: P 21/C
;
_chemical_formula_sum "Si O2"
_cell_formula_units_Z 24
_cell_length_a 8.987440
_cell_length_b 14.945957
_cell_length_c 18.166358
_cell_angle_alpha 90.000000
_cell_angle_beta 31.776612
_cell_angle_gamma 90.000000
_cell_volume 1285.037306
_symmetry_space_group_name_H-M "P 21/C"
_symmetry_group_IT_number 14
_symmetry_cell_setting 'monoclinic'
loop_
_space_group_symop_operation_xyz
x,y,z
-x,1/2+y,1/2-z
-x,-y,-z
x,1/2-y,1/2+z
loop_
_atom_site_type_symbol
_atom_site_label
_atom_site_fract_x
_atom_site_fract_y
_atom_site_fract_z
Si Si1 0.455040 0.669954 0.503135
Si Si2 0.357259 0.162660 0.769515
Si Si3 0.586294 0.588658 0.592491
Si Si4 0.878455 0.558206 0.243303
Si Si5 0.143704 0.697954 0.040783
Si Si6 0.991026 0.975227 0.166939
O O1 0.510253 0.668574 0.567400
O O2 0.735747 0.646783 0.338991
O O3 0.328638 0.764395 0.531407
O O4 0.249743 0.590010 0.569728
O O5 0.388033 0.133102 0.839827
O O6 0.660569 0.197209 0.613995
O O7 0.275799 0.076607 0.754038
O O8 0.126480 0.240892 0.862617
O O9 0.342145 0.513565 0.695743
O O10 0.891438 0.548527 0.440509
O O11 0.079413 0.516490 0.222880
O O12 0.057781 0.596834 0.099323
#
# Coordination Sequence:
#
# PCOD8128525 Si02
#       6
#     4   4   4   4   4   4
#     4   8  16  35  56  77 103 147 177 211 263 326
#     4  11  22  36  54  83 112 143 171 226 275 316
#     4   9  18  36  58  79 108 140 185 218 267 319
#     4   9  17  35  58  78 102 143 185 220 252 322
#     4  11  21  36  55  78 115 143 178 217 275 316
#     4   8  17  34  59  78 100 141 184 213 262 321
#
# _framework density 18.676499
#
# number of rings (size 3 to 8) (size 9 to 14) (size 15 to 20)
#    0.000    2.667    1.667    2.500    0.000    1.333 
#    6.000    0.000    0.000    0.000    0.000    0.000 
#    0.000    0.000    0.000    0.000    0.000    0.000 
#
# Total GULP energy -297446.630345 kJ/mol
# GULP energy per Si atom -12393.609598 kJ/mol
# Density = 1.863399 g / cm^3
# Si number density = 18.676499 Si / 1000 Ang^3
#
#
#
# Elastic Constant Matrix: (Units=GPa)
#
#
# Indices 1 2 3 4 5 6 
#
# 1 100.3212 28.9036 29.1775 0.0000 21.2318 0.0000
# 2 28.9036 49.8967 20.5830 0.0000 12.9825 0.0000
# 3 29.1775 20.5830 84.2764 0.0000 12.5585 0.0000
# 4 0.0000 0.0000 0.0000 26.5473 0.0000 8.9871
# 5 21.2318 12.9825 12.5585 0.0000 19.1243 0.0000
# 6 0.0000 0.0000 0.0000 8.9871 0.0000 19.7734
#
#
#
# Elastic Compliance Matrix: (Units=1/GPa)
#
#
# Indices 1 2 3 4 5 6 
#
# 1 0.014291 -0.004405 -0.002165 0.000000 -0.011454 0.000000
# 2 -0.004405 0.026887 -0.003381 0.000000 -0.011141 0.000000
# 3 -0.002165 -0.003381 0.014123 0.000000 -0.004575 0.000000
# 4 0.000000 0.000000 0.000000 0.044518 0.000000 -0.020234
# 5 -0.011454 -0.011141 -0.004575 0.000000 0.075573 0.000000
# 6 0.000000 0.000000 0.000000 -0.020234 0.000000 0.059769
#
#
# Mechanical properties :
#
#
# Convention : Reuss Voigt Hill
#
# Bulk Modulus (GPa) = 28.25046 43.53582 35.89314
# Shear Modulus (GPa) = 18.73621 23.47768 21.10695
#
# Velocity S-wave (km/s) = 3.17076 3.54937 3.36539
# Velocity P-wave (km/s) = 5.34453 6.33707 5.86185
#
# Compressibility (1/GPa) = 0.03539766
#
# Stress axis : x y z
#
# Youngs Moduli (GPa) = 69.97493 37.19308 70.80706
#
# Poissons Ratio (x) = 0.16384 0.15330
# Poissons Ratio (y) = 0.30824 0.23942
# Poissons Ratio (z) = 0.15150 0.12576
#
# Static dielectric constant tensor:
#      x y z
#    x 3.488210 0.000000 -0.016020 
#    y 0.000000 3.608090 0.000000 
#    z -0.016020 0.000000 3.304050 
# 
# 
# High freq. dielectric constant tensor:
#      x y z
#    x 1.715710 0.000000 0.006890 
#    y 0.000000 1.711250 0.000000 
#    z 0.006890 0.000000 1.713190 
# 
# From -- ./inp_files/8523.got.cif
#   From: 2010.03.12/outbox.cif.g09.slc.cpg/sg14_5_cif.got.tgz:8523.got - 2010.03.31 13:35:05.
