data_PCOD8128508
_publ_section_title
;
Structure prediction by ZEFSAII (Michael W. Deem and Ramdas Pophale) SiO2 
 PCOD8128508
Probable space group: P 21/C
;
_chemical_formula_sum "Si O2"
_cell_formula_units_Z 20
_cell_length_a 12.522922
_cell_length_b 12.079724
_cell_length_c 10.398686
_cell_angle_alpha 90.000000
_cell_angle_beta 35.512623
_cell_angle_gamma 90.000000
_cell_volume 913.754011
_symmetry_space_group_name_H-M "P 21/C"
_symmetry_group_IT_number 14
_symmetry_cell_setting 'monoclinic'
loop_
_space_group_symop_operation_xyz
x,y,z
-x,1/2+y,1/2-z
-x,-y,-z
x,1/2-y,1/2+z
loop_
_atom_site_type_symbol
_atom_site_label
_atom_site_fract_x
_atom_site_fract_y
_atom_site_fract_z
Si Si1 0.506683 0.278982 0.344380
Si Si2 0.737837 0.012313 0.569344
Si Si3 0.270481 0.280404 0.826503
Si Si4 0.056692 0.428577 0.567740
Si Si5 0.583502 0.452020 0.789811
O O1 0.632231 0.387531 0.242902
O O2 0.351263 0.274414 0.604862
O O3 0.415222 0.267146 0.291737
O O4 0.644229 0.176268 0.240068
O O5 0.904394 0.063710 0.326285
O O6 0.803906 0.907687 0.590088
O O7 0.588422 0.948546 0.633981
O O8 0.090620 0.200633 0.002794
O O9 0.248911 0.477644 0.431180
O O10 0.000000 0.500000 0.500000
O O11 0.500000 0.500000 0.000000
#
# Coordination Sequence:
#
# PCOD8128508 Si02
#       5
#     4   4   4   4   4
#     4  11  22  44  71  93 140 179 217 278 342 389
#     4  11  24  40  66  98 136 174 216 288 338 378
#     4  11  24  44  69  99 136 175 226 275 330 410
#     4  12  23  41  69  98 133 179 233 266 328 413
#     4  11  20  42  65  97 130 181 227 265 327 411
#
# _framework density 21.887730000000001
#
# number of rings (size 3 to 8) (size 9 to 14) (size 15 to 20)
#    0.000    0.800    6.000    1.800    2.800    0.000 
#    0.000    1.000    0.000    0.000    0.000    0.000 
#    0.000    0.000    0.000    0.000    0.000    0.000 
#
# Total GULP energy -247792.881388 kJ/mol
# GULP energy per Si atom -12389.644069 kJ/mol
# Density = 2.183791 g / cm^3
# Si number density = 21.887730 Si / 1000 Ang^3
#
#
#
# Elastic Constant Matrix: (Units=GPa)
#
#
# Indices 1 2 3 4 5 6 
#
# 1 37.7143 12.3742 13.5197 0.0000 7.9445 0.0000
# 2 12.3742 197.1798 40.4732 0.0000 -5.0305 0.0000
# 3 13.5197 40.4732 121.0971 0.0000 -4.7329 0.0000
# 4 0.0000 0.0000 0.0000 47.1189 0.0000 -7.0217
# 5 7.9445 -5.0305 -4.7329 0.0000 30.9499 0.0000
# 6 0.0000 0.0000 0.0000 -7.0217 0.0000 28.2553
#
#
#
# Elastic Compliance Matrix: (Units=1/GPa)
#
#
# Indices 1 2 3 4 5 6 
#
# 1 0.029897 -0.001436 -0.003186 0.000000 -0.008395 0.000000
# 2 -0.001436 0.005526 -0.001647 0.000000 0.001015 0.000000
# 3 -0.003186 -0.001647 0.009241 0.000000 0.001963 0.000000
# 4 0.000000 0.000000 0.000000 0.022039 0.000000 0.005477
# 5 -0.008395 0.001015 0.001963 0.000000 0.034930 0.000000
# 6 0.000000 0.000000 0.000000 0.005477 0.000000 0.036753
#
#
# Mechanical properties :
#
#
# Convention : Reuss Voigt Hill
#
# Bulk Modulus (GPa) = 31.12830 54.30281 42.71555
# Shear Modulus (GPa) = 30.93456 40.57309 35.75383
#
# Velocity S-wave (km/s) = 3.76351 4.31012 4.04606
# Velocity P-wave (km/s) = 5.75656 7.04508 6.43316
#
# Compressibility (1/GPa) = 0.03212511
#
# Stress axis : x y z
#
# Youngs Moduli (GPa) = 33.44829 180.97706 108.21797
#
# Poissons Ratio (x) = 0.25997 0.34476
# Poissons Ratio (y) = 0.04805 0.17820
# Poissons Ratio (z) = 0.10656 0.29802
#
# Static dielectric constant tensor:
#      x y z
#    x 3.882380 0.000000 -0.176400 
#    y 0.000000 4.722560 0.000000 
#    z -0.176400 0.000000 3.962130 
# 
# 
# High freq. dielectric constant tensor:
#      x y z
#    x 1.831630 0.000000 0.005660 
#    y 0.000000 1.898250 0.000000 
#    z 0.005660 0.000000 1.854510 
# 
# From -- ./inp_files/23526.got.cif
#   From: 2010.03.12/outbox.cif.g09.slc.cpg/sg14_12_cif.got.tgz:23526.got - 2010.03.31 13:35:05.
