data_PCOD8128581
_publ_section_title
;
Structure prediction by ZEFSAII (Michael W. Deem and Ramdas Pophale) SiO2 
 PCOD8128581
Probable space group: P 21/C
;
_chemical_formula_sum "Si O2"
_cell_formula_units_Z 24
_cell_length_a 4.847954
_cell_length_b 26.121822
_cell_length_c 9.741881
_cell_angle_alpha 90.000000
_cell_angle_beta 114.642571
_cell_angle_gamma 90.000000
_cell_volume 1121.330333
_symmetry_space_group_name_H-M "P 21/C"
_symmetry_group_IT_number 14
_symmetry_cell_setting 'monoclinic'
loop_
_space_group_symop_operation_xyz
x,y,z
-x,1/2+y,1/2-z
-x,-y,-z
x,1/2-y,1/2+z
loop_
_atom_site_type_symbol
_atom_site_label
_atom_site_fract_x
_atom_site_fract_y
_atom_site_fract_z
Si Si1 0.501076 0.126706 0.998967
Si Si2 0.983361 0.218805 0.318052
Si Si3 0.146967 0.118048 0.199527
Si Si4 0.287072 0.011015 0.329025
Si Si5 0.363382 0.028287 0.840986
Si Si6 0.382422 0.760481 0.018023
O O1 0.337936 0.140283 0.109952
O O2 0.818892 0.096529 0.085749
O O3 0.299660 0.088197 0.865107
O O4 0.593128 0.179100 0.939785
O O5 0.076335 0.161089 0.299437
O O6 0.273749 0.245686 0.444856
O O7 0.725699 0.223788 0.380983
O O8 0.846015 0.247638 0.156634
O O9 0.329531 0.071094 0.303344
O O10 0.500000 0.000000 0.500000
O O11 0.383882 0.975293 0.223317
O O12 0.938251 0.996972 0.285049
O O13 0.500000 0.000000 0.000000
#
# Coordination Sequence:
#
# PCOD8128581 Si02
#       6
#     4   4   4   4   4   4
#     4  11  22  39  70  95 123 169 229 264 307 383
#     4  11  23  42  67  90 128 167 212 268 324 381
#     4  11  21  41  66  93 128 177 210 254 334 394
#     4  12  25  42  63  99 141 166 210 271 329 383
#     4  12  22  42  70  94 126 174 221 262 304 389
#     4  11  23  43  64  94 126 163 214 269 320 382
#
# _framework density 21.40315
#
# number of rings (size 3 to 8) (size 9 to 14) (size 15 to 20)
#    0.000    0.667    3.333    7.000    0.000    0.000 
#    9.000    0.000    0.000    0.000    0.000    0.000 
#    0.000    0.000    0.000    0.000    0.000    0.000 
#
# Total GULP energy -297556.404710 kJ/mol
# GULP energy per Si atom -12398.183530 kJ/mol
# Density = 2.135444 g / cm^3
# Si number density = 21.403150 Si / 1000 Ang^3
#
#
#
# Elastic Constant Matrix: (Units=GPa)
#
#
# Indices 1 2 3 4 5 6 
#
# 1 92.4228 16.3363 25.4322 0.0000 4.0245 0.0000
# 2 16.3363 87.5393 29.1727 0.0000 3.1686 0.0000
# 3 25.4322 29.1727 85.8008 0.0000 9.3643 0.0000
# 4 0.0000 0.0000 0.0000 27.7087 0.0000 -2.8226
# 5 4.0245 3.1686 9.3643 0.0000 44.3112 0.0000
# 6 0.0000 0.0000 0.0000 -2.8226 0.0000 35.3178
#
#
#
# Elastic Compliance Matrix: (Units=1/GPa)
#
#
# Indices 1 2 3 4 5 6 
#
# 1 0.011892 -0.001178 -0.003087 0.000000 -0.000344 0.000000
# 2 -0.001178 0.013000 -0.004075 0.000000 0.000039 0.000000
# 3 -0.003087 -0.004075 0.014221 0.000000 -0.002434 0.000000
# 4 0.000000 0.000000 0.000000 0.036386 0.000000 0.002908
# 5 -0.000344 0.000039 -0.002434 0.000000 0.023110 0.000000
# 6 0.000000 0.000000 0.000000 0.002908 0.000000 0.028547
#
#
# Mechanical properties :
#
#
# Convention : Reuss Voigt Hill
#
# Bulk Modulus (GPa) = 44.57696 45.29393 44.93544
# Shear Modulus (GPa) = 33.04376 34.45568 33.74972
#
# Velocity S-wave (km/s) = 3.93348 4.01664 3.97527
# Velocity P-wave (km/s) = 6.44222 6.53601 6.48928
#
# Compressibility (1/GPa) = 0.02243311
#
# Stress axis : x y z
#
# Youngs Moduli (GPa) = 84.08667 76.92355 70.31832
#
# Poissons Ratio (x) = 0.09063 0.21707
# Poissons Ratio (y) = 0.09907 0.28655
# Poissons Ratio (z) = 0.25957 0.31347
#
# Static dielectric constant tensor:
#      x y z
#    x 4.090090 0.000000 0.169680 
#    y 0.000000 3.745030 0.000000 
#    z 0.169680 0.000000 3.594750 
# 
# 
# High freq. dielectric constant tensor:
#      x y z
#    x 1.862730 0.000000 0.004630 
#    y 0.000000 1.838860 0.000000 
#    z 0.004630 0.000000 1.818320 
# 
# From -- ./inp_files/6443.got.cif
#   From: 2010.03.12/outbox.cif.g09.slc.cpg/sg14_4_cif.got.tgz:6443.got - 2010.03.31 13:35:05.
