data_PCOD8128147
_publ_section_title
;
Structure prediction by ZEFSAII (Michael W. Deem and Ramdas Pophale) SiO2 
 PCOD8128147
Probable space group: P 21/C
;
_chemical_formula_sum "Si O2"
_cell_formula_units_Z 28
_cell_length_a 20.735591
_cell_length_b 9.024726
_cell_length_c 14.622634
_cell_angle_alpha 90.000000
_cell_angle_beta 150.617058
_cell_angle_gamma 90.000000
_cell_volume 1342.588306
_symmetry_space_group_name_H-M "P 21/C"
_symmetry_group_IT_number 14
_symmetry_cell_setting 'monoclinic'
loop_
_space_group_symop_operation_xyz
x,y,z
-x,1/2+y,1/2-z
-x,-y,-z
x,1/2-y,1/2+z
loop_
_atom_site_type_symbol
_atom_site_label
_atom_site_fract_x
_atom_site_fract_y
_atom_site_fract_z
Si Si1 0.126404 0.581198 0.194127
Si Si2 0.435710 0.595860 0.342431
Si Si3 0.798345 0.871973 0.869752
Si Si4 0.011094 0.789652 0.727653
Si Si5 0.797129 0.217717 0.872592
Si Si6 0.696124 0.693883 0.581643
Si Si7 0.266944 0.160390 0.565670
O O1 0.155389 0.724516 0.167593
O O2 0.250135 0.472420 0.341384
O O3 0.104259 0.621344 0.272950
O O4 0.000000 0.500000 0.000000
O O5 0.500000 0.500000 0.500000
O O6 0.340722 0.712812 0.271546
O O7 0.542643 0.688367 0.417554
O O8 0.355384 0.486159 0.176249
O O9 0.782557 0.806149 0.749102
O O10 0.769060 0.044226 0.832409
O O11 0.947319 0.849449 0.093036
O O12 0.696927 0.777465 0.808263
O O13 0.886729 0.887391 0.610637
O O14 0.095169 0.737773 0.918286
O O15 0.709415 0.750606 0.496576
#
# Coordination Sequence:
#
# PCOD8128147 Si02
#       7
#     4   4   4   4   4   4   4
#     4  12  22  43  70  97 139 193 223 281 369 419
#     4  12  24  50  71  97 141 197 233 281 354 427
#     4  10  24  43  65 107 139 175 229 305 337 416
#     4  10  24  41  69 104 140 175 239 288 357 413
#     4  12  26  41  72 102 139 185 230 291 358 422
#     4  12  24  46  73  99 144 189 238 288 352 421
#     4  10  24  45  71  97 142 179 234 296 345 415
#
# _framework density 20.855239999999998
#
# number of rings (size 3 to 8) (size 9 to 14) (size 15 to 20)
#    0.857    0.000    4.286    2.571    4.000    4.571 
#    2.571    0.000    0.000    0.000    0.000    0.000 
#    0.000    0.000    0.000    0.000    0.000    0.000 
#
# Total GULP energy -347156.345873 kJ/mol
# GULP energy per Si atom -12398.440924 kJ/mol
# Density = 2.080777 g / cm^3
# Si number density = 20.855240 Si / 1000 Ang^3
#
#
#
# Elastic Constant Matrix: (Units=GPa)
#
#
# Indices 1 2 3 4 5 6 
#
# 1 109.7601 28.7932 27.7680 0.0000 11.5598 0.0000
# 2 28.7932 116.5445 23.7890 0.0000 6.6440 0.0000
# 3 27.7680 23.7890 74.1537 0.0000 16.8433 0.0000
# 4 0.0000 0.0000 0.0000 24.4295 0.0000 5.5406
# 5 11.5598 6.6440 16.8433 0.0000 31.8414 0.0000
# 6 0.0000 0.0000 0.0000 5.5406 0.0000 35.9564
#
#
#
# Elastic Compliance Matrix: (Units=1/GPa)
#
#
# Indices 1 2 3 4 5 6 
#
# 1 0.010545 -0.001904 -0.002908 0.000000 -0.001893 0.000000
# 2 -0.001904 0.009530 -0.002330 0.000000 -0.000065 0.000000
# 3 -0.002908 -0.002330 0.017016 0.000000 -0.007459 0.000000
# 4 0.000000 0.000000 0.000000 0.042417 0.000000 -0.006536
# 5 -0.001893 -0.000065 -0.007459 0.000000 0.036052 0.000000
# 6 0.000000 0.000000 0.000000 -0.006536 0.000000 0.028819
#
#
# Mechanical properties :
#
#
# Convention : Reuss Voigt Hill
#
# Bulk Modulus (GPa) = 43.84367 51.23985 47.54176
# Shear Modulus (GPa) = 30.07257 33.11933 31.59595
#
# Velocity S-wave (km/s) = 3.80144 3.98937 3.89654
# Velocity P-wave (km/s) = 6.35110 6.77072 6.56427
#
# Compressibility (1/GPa) = 0.02280831
#
# Stress axis : x y z
#
# Youngs Moduli (GPa) = 94.82919 104.93195 58.76773
#
# Poissons Ratio (x) = 0.19977 0.17091
# Poissons Ratio (y) = 0.18053 0.13691
# Poissons Ratio (z) = 0.27578 0.24445
#
# Static dielectric constant tensor:
#      x y z
#    x 3.925970 0.000000 0.088020 
#    y 0.000000 3.723580 0.000000 
#    z 0.088020 0.000000 3.882480 
# 
# 
# High freq. dielectric constant tensor:
#      x y z
#    x 1.825290 0.000000 -0.003320 
#    y 0.000000 1.811310 0.000000 
#    z -0.003320 0.000000 1.812550 
# 
# From -- ./inp_files/50145.got.cif
#   From: 2010.03.12/outbox.cif.g09.slc.cpg/sg14_26_cif.got.tgz:50145.got - 2010.03.31 13:35:05.
