data_PCOD8128703
_publ_section_title
;
Structure prediction by ZEFSAII (Michael W. Deem and Ramdas Pophale) SiO2 
 PCOD8128703
Probable space group: P 21/C
;
_chemical_formula_sum "Si O2"
_cell_formula_units_Z 24
_cell_length_a 7.812589
_cell_length_b 18.000465
_cell_length_c 13.483001
_cell_angle_alpha 90.000000
_cell_angle_beta 36.608162
_cell_angle_gamma 90.000000
_cell_volume 1130.729314
_symmetry_space_group_name_H-M "P 21/C"
_symmetry_group_IT_number 14
_symmetry_cell_setting 'monoclinic'
loop_
_space_group_symop_operation_xyz
x,y,z
-x,1/2+y,1/2-z
-x,-y,-z
x,1/2-y,1/2+z
loop_
_atom_site_type_symbol
_atom_site_label
_atom_site_fract_x
_atom_site_fract_y
_atom_site_fract_z
Si Si1 0.537956 0.322816 0.766324
Si Si2 0.886277 0.541235 0.786629
Si Si3 0.262521 0.535683 0.434635
Si Si4 0.678328 0.379204 0.913292
Si Si5 0.814878 0.052391 0.656238
Si Si6 0.109885 0.806699 0.492112
O O1 0.588534 0.404385 0.702869
O O2 0.594368 0.326693 0.858857
O O3 0.748402 0.269422 0.608178
O O4 0.218811 0.298867 0.886858
O O5 0.863865 0.450961 0.792007
O O6 0.134807 0.567511 0.596029
O O7 0.973420 0.570715 0.852975
O O8 0.590660 0.584660 0.901676
O O9 0.517403 0.478290 0.337567
O O10 0.000000 0.500000 0.500000
O O11 0.853118 0.325411 0.907545
O O12 0.732777 0.127516 0.639169
O O13 0.000000 0.000000 0.500000
#
# Coordination Sequence:
#
# PCOD8128703 Si02
#       6
#     4   4   4   4   4   4
#     4  12  28  48  68 105 145 188 233 290 359 426
#     4  11  22  40  75 107 137 183 238 296 350 416
#     4  12  24  41  72 107 137 181 248 292 343 420
#     4  11  23  46  73 103 141 187 231 291 360 415
#     4  12  22  45  72 104 139 185 240 297 348 413
#     4  12  28  45  73 101 147 184 233 293 354 423
#
# _framework density 21.225238999999998
#
# number of rings (size 3 to 8) (size 9 to 14) (size 15 to 20)
#    0.000    0.333    6.667    1.500    4.667    2.667 
#    0.000    0.000    0.000    0.000    0.000    0.000 
#    0.000    0.000    0.000    0.000    0.000    0.000 
#
# Total GULP energy -297583.831654 kJ/mol
# GULP energy per Si atom -12399.326319 kJ/mol
# Density = 2.117693 g / cm^3
# Si number density = 21.225239 Si / 1000 Ang^3
#
#
#
# Elastic Constant Matrix: (Units=GPa)
#
#
# Indices 1 2 3 4 5 6 
#
# 1 144.1756 20.8660 28.1467 0.0000 4.6214 0.0000
# 2 20.8660 54.9988 2.9204 0.0000 -6.7943 0.0000
# 3 28.1467 2.9204 98.6954 0.0000 -4.7923 0.0000
# 4 0.0000 0.0000 0.0000 37.8119 0.0000 -0.2819
# 5 4.6214 -6.7943 -4.7923 0.0000 39.3940 0.0000
# 6 0.0000 0.0000 0.0000 -0.2819 0.0000 23.1003
#
#
#
# Elastic Compliance Matrix: (Units=1/GPa)
#
#
# Indices 1 2 3 4 5 6 
#
# 1 0.007874 -0.003082 -0.002238 0.000000 -0.001728 0.000000
# 2 -0.003082 0.019800 0.000479 0.000000 0.003835 0.000000
# 3 -0.002238 0.000479 0.010837 0.000000 0.001664 0.000000
# 4 0.000000 0.000000 0.000000 0.026449 0.000000 0.000323
# 5 -0.001728 0.003835 0.001664 0.000000 0.026451 0.000000
# 6 0.000000 0.000000 0.000000 0.000323 0.000000 0.043293
#
#
# Mechanical properties :
#
#
# Convention : Reuss Voigt Hill
#
# Bulk Modulus (GPa) = 34.68717 44.63731 39.66224
# Shear Modulus (GPa) = 32.46821 36.45701 34.46261
#
# Velocity S-wave (km/s) = 3.91538 4.14892 4.03384
# Velocity P-wave (km/s) = 6.06780 6.63531 6.35789
#
# Compressibility (1/GPa) = 0.02882910
#
# Stress axis : x y z
#
# Youngs Moduli (GPa) = 126.99376 50.50558 92.27526
#
# Poissons Ratio (x) = 0.15566 0.20655
# Poissons Ratio (y) = 0.39140 -0.04423
# Poissons Ratio (z) = 0.28426 -0.02421
#
# Static dielectric constant tensor:
#      x y z
#    x 4.086440 0.000000 0.092290 
#    y 0.000000 3.884380 0.000000 
#    z 0.092290 0.000000 4.350630 
# 
# 
# High freq. dielectric constant tensor:
#      x y z
#    x 1.851100 0.000000 -0.002130 
#    y 0.000000 1.813950 0.000000 
#    z -0.002130 0.000000 1.839330 
# 
# From -- ./inp_files/16618.got.cif
#   From: 2010.03.12/outbox.cif.g09.slc.cpg/sg14_9_cif.got.tgz:16618.got - 2010.03.31 13:35:05.
