data_PCOD8128232
_publ_section_title
;
Structure prediction by ZEFSAII (Michael W. Deem and Ramdas Pophale) SiO2 
 PCOD8128232
Probable space group: P 21/C
;
_chemical_formula_sum "Si O2"
_cell_formula_units_Z 32
_cell_length_a 17.596756
_cell_length_b 11.142212
_cell_length_c 14.891596
_cell_angle_alpha 90.000000
_cell_angle_beta 150.427212
_cell_angle_gamma 90.000000
_cell_volume 1440.979570
_symmetry_space_group_name_H-M "P 21/C"
_symmetry_group_IT_number 14
_symmetry_cell_setting 'monoclinic'
loop_
_space_group_symop_operation_xyz
x,y,z
-x,1/2+y,1/2-z
-x,-y,-z
x,1/2-y,1/2+z
loop_
_atom_site_type_symbol
_atom_site_label
_atom_site_fract_x
_atom_site_fract_y
_atom_site_fract_z
Si Si1 0.475741 0.913110 0.393119
Si Si2 0.844442 0.210851 0.149193
Si Si3 0.452704 0.413556 0.374057
Si Si4 0.150575 0.098072 0.478651
Si Si5 0.075218 0.836048 0.443104
Si Si6 0.743789 0.731938 0.078011
Si Si7 0.628966 0.987970 0.898936
Si Si8 0.714809 0.250376 0.194704
O O1 0.619880 0.821096 0.522757
O O2 0.319331 0.846903 0.263725
O O3 0.500000 0.000000 0.500000
O O4 0.430238 0.993371 0.262008
O O5 0.823981 0.270280 0.030856
O O6 0.785599 0.293490 0.171997
O O7 0.023876 0.200758 0.356830
O O8 0.764033 0.080240 0.065995
O O9 0.500000 0.500000 0.500000
O O10 0.270856 0.385521 0.184456
O O11 0.485576 0.482796 0.315261
O O12 0.549104 0.295332 0.490953
O O13 0.234334 0.122889 0.469504
O O14 0.062128 0.971247 0.393257
O O15 0.167854 0.839976 0.633236
O O16 0.909080 0.772568 0.289898
O O17 0.675783 0.849338 0.958568
#
# Coordination Sequence:
#
# PCOD8128232 Si02
#       8
#     4   4   4   4   4   4   4   4
#     4  12  28  46  69 106 145 190 235 292 360 423
#     4  10  24  43  70 100 139 185 232 296 365 419
#     4  11  22  39  70 102 136 177 236 296 351 416
#     4  11  23  43  70 106 136 186 234 296 360 420
#     4  11  23  46  72  99 145 179 242 292 354 435
#     4  11  26  46  73 104 140 191 233 292 358 431
#     4  11  23  46  68  99 143 184 235 294 352 433
#     4  11  25  42  68 103 137 186 232 295 351 429
#
# _framework density 22.207115999999999
#
# number of rings (size 3 to 8) (size 9 to 14) (size 15 to 20)
#    0.000    1.000    5.000    0.750    3.500    2.500 
#    2.250    0.625    0.000    0.000    0.000    0.000 
#    0.000    0.000    0.000    0.000    0.000    0.000 
#
# Total GULP energy -396442.877482 kJ/mol
# GULP energy per Si atom -12388.839921 kJ/mol
# Density = 2.215657 g / cm^3
# Si number density = 22.207116 Si / 1000 Ang^3
#
#
#
# Elastic Constant Matrix: (Units=GPa)
#
#
# Indices 1 2 3 4 5 6 
#
# 1 137.2232 29.8662 42.4665 0.0000 -11.4192 0.0000
# 2 29.8662 66.3153 24.1749 0.0000 -3.3416 0.0000
# 3 42.4665 24.1749 127.3388 0.0000 -8.0043 0.0000
# 4 0.0000 0.0000 0.0000 32.6220 0.0000 -3.0075
# 5 -11.4192 -3.3416 -8.0043 0.0000 33.8007 0.0000
# 6 0.0000 0.0000 0.0000 -3.0075 0.0000 36.8942
#
#
#
# Elastic Compliance Matrix: (Units=1/GPa)
#
#
# Indices 1 2 3 4 5 6 
#
# 1 0.008820 -0.003052 -0.002227 0.000000 0.002151 0.000000
# 2 -0.003052 0.017283 -0.002254 0.000000 0.000144 0.000000
# 3 -0.002227 -0.002254 0.009098 0.000000 0.001179 0.000000
# 4 0.000000 0.000000 0.000000 0.030886 0.000000 0.002518
# 5 0.002151 0.000144 0.001179 0.000000 0.030605 0.000000
# 6 0.000000 0.000000 0.000000 0.002518 0.000000 0.027310
#
#
# Mechanical properties :
#
#
# Convention : Reuss Voigt Hill
#
# Bulk Modulus (GPa) = 49.66598 58.21029 53.93813
# Shear Modulus (GPa) = 34.29844 36.28804 35.29324
#
# Velocity S-wave (km/s) = 3.93425 4.04675 3.99090
# Velocity P-wave (km/s) = 6.56134 6.93573 6.75113
#
# Compressibility (1/GPa) = 0.02013451
#
# Stress axis : x y z
#
# Youngs Moduli (GPa) = 113.38222 57.86025 109.91726
#
# Poissons Ratio (x) = 0.17659 0.24475
# Poissons Ratio (y) = 0.34604 0.24778
# Poissons Ratio (z) = 0.25247 0.13043
#
# Static dielectric constant tensor:
#      x y z
#    x 4.656320 0.000000 0.888450 
#    y 0.000000 3.933570 0.000000 
#    z 0.888450 0.000000 5.388110 
# 
# 
# High freq. dielectric constant tensor:
#      x y z
#    x 1.884880 0.000000 0.003360 
#    y 0.000000 1.855090 0.000000 
#    z 0.003360 0.000000 1.884700 
# 
# From -- ./inp_files/49027.got.cif
#   From: 2010.03.12/outbox.cif.g09.slc.cpg/sg14_25_cif.got.tgz:49027.got - 2010.03.31 13:35:05.
