data_PCOD8128338
_publ_section_title
;
Structure prediction by ZEFSAII (Michael W. Deem and Ramdas Pophale) SiO2 
 PCOD8128338
Probable space group: P 21/C
;
_chemical_formula_sum "Si O2"
_cell_formula_units_Z 32
_cell_length_a 11.225154
_cell_length_b 9.171545
_cell_length_c 13.564499
_cell_angle_alpha 90.000000
_cell_angle_beta 108.173071
_cell_angle_gamma 90.000000
_cell_volume 1326.833576
_symmetry_space_group_name_H-M "P 21/C"
_symmetry_group_IT_number 14
_symmetry_cell_setting 'monoclinic'
loop_
_space_group_symop_operation_xyz
x,y,z
-x,1/2+y,1/2-z
-x,-y,-z
x,1/2-y,1/2+z
loop_
_atom_site_type_symbol
_atom_site_label
_atom_site_fract_x
_atom_site_fract_y
_atom_site_fract_z
Si Si1 0.739461 0.427322 0.903561
Si Si2 0.081485 0.793028 0.958517
Si Si3 0.504797 0.211441 0.428996
Si Si4 0.588048 0.283405 0.169893
Si Si5 0.563580 0.529139 0.719770
Si Si6 0.094820 0.116713 0.933701
Si Si7 0.242258 0.378889 0.906703
Si Si8 0.133452 0.866115 0.271858
O O1 0.603374 0.348011 0.875663
O O2 0.712901 0.511994 0.792453
O O3 0.844395 0.302322 0.939476
O O4 0.770964 0.548622 0.990796
O O5 0.074892 0.714385 0.851912
O O6 0.146345 0.952027 0.958796
O O7 0.942281 0.819277 0.967592
O O8 0.580154 0.206696 0.550146
O O9 0.453772 0.368493 0.379845
O O10 0.384733 0.106976 0.407297
O O11 0.516332 0.412408 0.207565
O O12 0.737939 0.288208 0.232115
O O13 0.518198 0.132133 0.177900
O O14 0.201020 0.211213 0.907612
O O15 0.966162 0.126496 0.839848
O O16 0.158361 0.465455 0.806932
#
# Coordination Sequence:
#
# PCOD8128338 Si02
#       8
#     4   4   4   4   4   4   4   4
#     4  11  22  47  71 101 143 188 225 298 368 419
#     4  10  24  47  71  98 145 188 234 304 354 413
#     4  12  24  46  72 107 148 178 238 293 367 433
#     4  12  25  45  73 107 148 190 232 303 359 432
#     4  12  26  42  69 112 138 190 237 279 367 438
#     4  11  25  46  68 107 137 190 251 289 351 423
#     4  11  24  44  74 101 141 191 232 298 352 430
#     4  11  24  45  74 101 145 191 237 297 359 419
#
# _framework density 24.117570000000001
#
# number of rings (size 3 to 8) (size 9 to 14) (size 15 to 20)
#    0.000    0.750    5.000    3.000    1.750    3.000 
#   11.250    0.000    0.000    0.000    0.000    0.000 
#    0.000    0.000    0.000    0.000    0.000    0.000 
#
# Total GULP energy -396591.936860 kJ/mol
# GULP energy per Si atom -12393.498027 kJ/mol
# Density = 2.406268 g / cm^3
# Si number density = 24.117570 Si / 1000 Ang^3
#
#
#
# Elastic Constant Matrix: (Units=GPa)
#
#
# Indices 1 2 3 4 5 6 
#
# 1 37.9817 8.3282 8.7997 0.0000 7.1924 0.0000
# 2 8.3282 82.4826 -0.1576 0.0000 1.0744 0.0000
# 3 8.7997 -0.1576 32.8297 0.0000 0.8923 0.0000
# 4 0.0000 0.0000 0.0000 31.4931 0.0000 3.8971
# 5 7.1924 1.0744 0.8923 0.0000 25.3131 0.0000
# 6 0.0000 0.0000 0.0000 3.8971 0.0000 35.9562
#
#
#
# Elastic Compliance Matrix: (Units=1/GPa)
#
#
# Indices 1 2 3 4 5 6 
#
# 1 0.030376 -0.002975 -0.007933 0.000000 -0.008225 0.000000
# 2 -0.002975 0.012422 0.000849 0.000000 0.000288 0.000000
# 3 -0.007933 0.000849 0.032562 0.000000 0.001070 0.000000
# 4 0.000000 0.000000 0.000000 0.032185 0.000000 -0.003488
# 5 -0.008225 0.000288 0.001070 0.000000 0.041792 0.000000
# 6 0.000000 0.000000 0.000000 -0.003488 0.000000 0.028190
#
#
# Mechanical properties :
#
#
# Convention : Reuss Voigt Hill
#
# Bulk Modulus (GPa) = 18.10201 20.80385 19.45293
# Shear Modulus (GPa) = 23.14191 27.64071 25.39131
#
# Velocity S-wave (km/s) = 3.10101 3.38906 3.24823
# Velocity P-wave (km/s) = 4.51040 4.89479 4.70653
#
# Compressibility (1/GPa) = 0.05524247
#
# Stress axis : x y z
#
# Youngs Moduli (GPa) = 32.92042 80.50209 30.71106
#
# Poissons Ratio (x) = 0.23950 0.24363
# Poissons Ratio (y) = 0.09794 -0.02608
# Poissons Ratio (z) = 0.26115 -0.06837
#
# Static dielectric constant tensor:
#      x y z
#    x 3.996720 0.000000 -0.047820 
#    y 0.000000 4.530060 0.000000 
#    z -0.047820 0.000000 4.427690 
# 
# 
# High freq. dielectric constant tensor:
#      x y z
#    x 1.930030 0.000000 -0.006920 
#    y 0.000000 1.973820 0.000000 
#    z -0.006920 0.000000 1.970320 
# 
# From -- ./inp_files/43781.got.cif
#   From: 2010.03.12/outbox.cif.g09.slc.cpg/sg14_22_cif.got.tgz:43781.got - 2010.03.31 13:35:05.
