data_PCOD8128827
_publ_section_title
;
Structure prediction by ZEFSAII (Michael W. Deem and Ramdas Pophale) SiO2 
 PCOD8128827
Probable space group: P 21/C
;
_chemical_formula_sum "Si O2"
_cell_formula_units_Z 32
_cell_length_a 25.230456
_cell_length_b 12.944542
_cell_length_c 9.316218
_cell_angle_alpha 90.000000
_cell_angle_beta 151.183655
_cell_angle_gamma 90.000000
_cell_volume 1466.566468
_symmetry_space_group_name_H-M "P 21/C"
_symmetry_group_IT_number 14
_symmetry_cell_setting 'monoclinic'
loop_
_space_group_symop_operation_xyz
x,y,z
-x,1/2+y,1/2-z
-x,-y,-z
x,1/2-y,1/2+z
loop_
_atom_site_type_symbol
_atom_site_label
_atom_site_fract_x
_atom_site_fract_y
_atom_site_fract_z
Si Si1 0.939717 0.292897 0.740776
Si Si2 0.235332 0.405701 0.764142
Si Si3 0.418220 0.745614 0.061149
Si Si4 0.871608 0.519752 0.218069
Si Si5 0.241534 0.922560 0.064961
Si Si6 0.469434 0.122324 0.925004
Si Si7 0.232262 0.870216 0.736244
Si Si8 0.088935 0.284855 0.837922
O O1 0.875410 0.393894 0.641329
O O2 0.857058 0.220106 0.455252
O O3 0.040477 0.322118 0.875588
O O4 0.986615 0.234795 0.990276
O O5 0.155072 0.471635 0.676865
O O6 0.281967 0.475747 0.744234
O O7 0.166980 0.313046 0.535398
O O8 0.338689 0.365645 0.100078
O O9 0.500452 0.676333 0.352123
O O10 0.476801 0.813959 0.078384
O O11 0.327863 0.670868 0.776362
O O12 0.354880 0.825135 0.014622
O O13 0.837755 0.624245 0.055006
O O14 0.000000 0.500000 0.500000
O O15 0.795584 0.429901 0.975775
O O16 0.225595 0.945728 0.858287
O O17 0.500000 0.000000 0.000000
#
# Coordination Sequence:
#
# PCOD8128827 Si02
#       8
#     4   4   4   4   4   4   4   4
#     4  11  23  40  66  96 143 182 231 285 353 429
#     4  12  28  44  69 103 143 188 239 298 368 429
#     4  11  25  48  75 104 140 184 245 304 362 433
#     4  12  25  45  69 101 143 190 235 290 365 440
#     4  11  24  43  71 106 134 184 243 297 352 435
#     4  12  26  51  77 106 143 192 245 311 374 429
#     4  11  23  42  70 102 131 181 243 294 349 434
#     4  12  24  43  60  99 144 190 228 289 366 433
#
# _framework density 21.819673999999999
#
# number of rings (size 3 to 8) (size 9 to 14) (size 15 to 20)
#    0.000    0.500    6.250    1.500    3.500    0.500 
#    0.000    1.250    0.000    0.000    0.000    0.000 
#    0.000    0.000    0.000    0.000    0.000    0.000 
#
# Total GULP energy -396843.585138 kJ/mol
# GULP energy per Si atom -12401.362036 kJ/mol
# Density = 2.177001 g / cm^3
# Si number density = 21.819674 Si / 1000 Ang^3
#
#
#
# Elastic Constant Matrix: (Units=GPa)
#
#
# Indices 1 2 3 4 5 6 
#
# 1 96.9598 36.6661 28.6244 0.0000 -5.9502 0.0000
# 2 36.6661 85.2612 21.4993 0.0000 -3.3053 0.0000
# 3 28.6244 21.4993 85.3113 0.0000 3.1727 0.0000
# 4 0.0000 0.0000 0.0000 40.2027 0.0000 -11.4726
# 5 -5.9502 -3.3053 3.1727 0.0000 32.9771 0.0000
# 6 0.0000 0.0000 0.0000 -11.4726 0.0000 36.6837
#
#
#
# Elastic Compliance Matrix: (Units=1/GPa)
#
#
# Indices 1 2 3 4 5 6 
#
# 1 0.013234 -0.004767 -0.003322 0.000000 0.002230 0.000000
# 2 -0.004767 0.014323 -0.002039 0.000000 0.000772 0.000000
# 3 -0.003322 -0.002039 0.013428 0.000000 -0.002096 0.000000
# 4 0.000000 0.000000 0.000000 0.027311 0.000000 0.008541
# 5 0.002230 0.000772 -0.002096 0.000000 0.031005 0.000000
# 6 0.000000 0.000000 0.000000 0.008541 0.000000 0.029931
#
#
# Mechanical properties :
#
#
# Convention : Reuss Voigt Hill
#
# Bulk Modulus (GPa) = 48.24084 49.01242 48.62663
# Shear Modulus (GPa) = 31.96980 34.02219 32.99600
#
# Velocity S-wave (km/s) = 3.83192 3.95301 3.89294
# Velocity P-wave (km/s) = 6.46027 6.58379 6.52232
#
# Compressibility (1/GPa) = 0.02072932
#
# Stress axis : x y z
#
# Youngs Moduli (GPa) = 75.56433 69.81930 74.47092
#
# Poissons Ratio (x) = 0.33283 0.24738
# Poissons Ratio (y) = 0.36022 0.15182
# Poissons Ratio (z) = 0.25102 0.14234
#
# Static dielectric constant tensor:
#      x y z
#    x 3.901220 0.000000 -0.084660 
#    y 0.000000 4.019780 0.000000 
#    z -0.084660 0.000000 3.919090 
# 
# 
# High freq. dielectric constant tensor:
#      x y z
#    x 1.862690 0.000000 -0.010520 
#    y 0.000000 1.854950 0.000000 
#    z -0.010520 0.000000 1.857040 
# 
# From -- ./inp_files/19551.got.cif
#   From: 2010.03.12/outbox.cif.g09.slc.cpg/sg14_10_cif.got.tgz:19551.got - 2010.03.31 13:35:05.
