data_PCOD8128002
_publ_section_title
;
Structure prediction by ZEFSAII (Michael W. Deem and Ramdas Pophale) SiO2 
 PCOD8128002
Probable space group: P 21/C
;
_chemical_formula_sum "Si O2"
_cell_formula_units_Z 16
_cell_length_a 5.187326
_cell_length_b 13.926735
_cell_length_c 9.059966
_cell_angle_alpha 90.000000
_cell_angle_beta 74.665365
_cell_angle_gamma 90.000000
_cell_volume 631.212517
_symmetry_space_group_name_H-M "P 21/C"
_symmetry_group_IT_number 14
_symmetry_cell_setting 'monoclinic'
loop_
_space_group_symop_operation_xyz
x,y,z
-x,1/2+y,1/2-z
-x,-y,-z
x,1/2-y,1/2+z
loop_
_atom_site_type_symbol
_atom_site_label
_atom_site_fract_x
_atom_site_fract_y
_atom_site_fract_z
Si Si1 0.248552 0.950912 0.887563
Si Si2 0.085785 0.792666 0.111932
Si Si3 0.829343 0.420271 0.942582
Si Si4 0.496738 0.378520 0.254528
O O1 0.214127 0.950239 0.717225
O O2 0.504648 0.024641 0.860235
O O3 0.261838 0.844431 0.954442
O O4 0.000000 0.000000 0.000000
O O5 0.275639 0.804301 0.226696
O O6 0.799356 0.836835 0.190585
O O7 0.025204 0.683334 0.079911
O O8 0.551919 0.406451 0.075090
O O9 0.000000 0.500000 0.000000
#
# Coordination Sequence:
#
# PCOD8128002 Si02
#       4
#     4   4   4   4
#     4  10  23  44  71 102 143 188 238 298 361 426
#     4  11  26  48  73 105 146 195 246 300 364 434
#     4  12  26  45  73 110 149 192 243 302 364 436
#     4  11  25  47  73 105 142 191 247 304 363 430
#
# _framework density 25.348039
#
# number of rings (size 3 to 8) (size 9 to 14) (size 15 to 20)
#    0.000    1.000    0.000    6.000    0.000   14.000 
#    0.000    0.000    0.000    0.000    0.000    0.000 
#    0.000    0.000    0.000    0.000    0.000    0.000 
#
# Total GULP energy -198234.999365 kJ/mol
# GULP energy per Si atom -12389.687460 kJ/mol
# Density = 2.529035 g / cm^3
# Si number density = 25.348039 Si / 1000 Ang^3
#
#
#
# Elastic Constant Matrix: (Units=GPa)
#
#
# Indices 1 2 3 4 5 6 
#
# 1 109.2929 34.4890 25.9339 0.0000 -20.5590 0.0000
# 2 34.4890 169.3296 44.9415 0.0000 -12.8199 0.0000
# 3 25.9339 44.9415 147.3352 0.0000 -28.7428 0.0000
# 4 0.0000 0.0000 0.0000 36.5319 0.0000 -0.6302
# 5 -20.5590 -12.8199 -28.7428 0.0000 30.0701 0.0000
# 6 0.0000 0.0000 0.0000 -0.6302 0.0000 23.7656
#
#
#
# Elastic Compliance Matrix: (Units=1/GPa)
#
#
# Indices 1 2 3 4 5 6 
#
# 1 0.010967 -0.001699 -0.000111 0.000000 0.006667 0.000000
# 2 -0.001699 0.006717 -0.001743 0.000000 0.000036 0.000000
# 3 -0.000111 -0.001743 0.008824 0.000000 0.007615 0.000000
# 4 0.000000 0.000000 0.000000 0.027386 0.000000 0.000726
# 5 0.006667 0.000036 0.007615 0.000000 0.045108 0.000000
# 6 0.000000 0.000000 0.000000 0.000726 0.000000 0.042097
#
#
# Mechanical properties :
#
#
# Convention : Reuss Voigt Hill
#
# Bulk Modulus (GPa) = 51.54450 70.74293 61.14372
# Shear Modulus (GPa) = 32.32635 39.44641 35.88638
#
# Velocity S-wave (km/s) = 3.57501 3.94914 3.76672
# Velocity P-wave (km/s) = 6.11717 6.98309 6.56442
#
# Compressibility (1/GPa) = 0.01940071
#
# Stress axis : x y z
#
# Youngs Moduli (GPa) = 91.18670 148.87534 113.32625
#
# Poissons Ratio (x) = 0.25299 0.01262
# Poissons Ratio (y) = 0.15496 0.19750
# Poissons Ratio (z) = 0.01016 0.25945
#
# Static dielectric constant tensor:
#      x y z
#    x 4.127270 0.000000 -0.180060 
#    y 0.000000 5.758770 0.000000 
#    z -0.180060 0.000000 5.287380 
# 
# 
# High freq. dielectric constant tensor:
#      x y z
#    x 1.981640 0.000000 -0.009710 
#    y 0.000000 2.035810 0.000000 
#    z -0.009710 0.000000 2.043560 
# 
# From -- ./inp_files/5100.got.cif
#   From: 2010.03.12/outbox.cif.g09.slc.cpg/sg14_3_cif.got.tgz:5100.got - 2010.03.31 13:35:05.
