data_PCOD8128251
_publ_section_title
;
Structure prediction by ZEFSAII (Michael W. Deem and Ramdas Pophale) SiO2 
 PCOD8128251
Probable space group: P 21/C
;
_chemical_formula_sum "Si O2"
_cell_formula_units_Z 32
_cell_length_a 8.661624
_cell_length_b 15.767615
_cell_length_c 10.331743
_cell_angle_alpha 90.000000
_cell_angle_beta 108.034347
_cell_angle_gamma 90.000000
_cell_volume 1341.715932
_symmetry_space_group_name_H-M "P 21/C"
_symmetry_group_IT_number 14
_symmetry_cell_setting 'monoclinic'
loop_
_space_group_symop_operation_xyz
x,y,z
-x,1/2+y,1/2-z
-x,-y,-z
x,1/2-y,1/2+z
loop_
_atom_site_type_symbol
_atom_site_label
_atom_site_fract_x
_atom_site_fract_y
_atom_site_fract_z
Si Si1 0.869900 0.621614 0.944971
Si Si2 0.401042 0.259375 0.620852
Si Si3 0.692490 0.060895 0.843869
Si Si4 0.925863 0.161405 0.752248
Si Si5 0.605989 0.265754 0.427717
Si Si6 0.836780 0.163065 0.329319
Si Si7 0.789456 0.912114 0.024274
Si Si8 0.662722 0.501651 0.746182
O O1 0.743739 0.694881 0.942664
O O2 0.773617 0.534142 0.895459
O O3 0.982136 0.644193 0.853930
O O4 0.993591 0.614505 0.097862
O O5 0.541014 0.241157 0.551847
O O6 0.468090 0.247008 0.782225
O O7 0.334923 0.353598 0.586403
O O8 0.770612 0.099469 0.732813
O O9 0.663014 0.136798 0.938243
O O10 0.525282 0.012560 0.765534
O O11 0.817764 0.994632 0.942109
O O12 0.870141 0.259757 0.739056
O O13 0.045690 0.139110 0.904257
O O14 0.757156 0.202889 0.438953
O O15 0.708974 0.096801 0.233395
O O16 0.699147 0.940482 0.131910
#
# Coordination Sequence:
#
# PCOD8128251 Si02
#       8
#     4   4   4   4   4   4   4   4
#     4  11  24  45  68  92 145 182 237 286 362 423
#     4  12  23  48  70 104 140 190 238 295 352 424
#     4  11  22  41  68 101 140 176 230 302 344 416
#     4  10  24  44  65 103 137 185 232 297 351 430
#     4  11  26  41  73 103 143 184 240 287 357 420
#     4  11  25  41  69  99 137 189 230 287 362 426
#     4  11  22  42  72 101 140 182 244 295 354 413
#     4  11  23  44  66 102 139 185 233 302 350 421
#
# _framework density 23.850055000000001
#
# number of rings (size 3 to 8) (size 9 to 14) (size 15 to 20)
#    0.000    1.000    3.750    2.625    5.250    1.000 
#    4.500    6.250    0.000    0.000    0.000    0.000 
#    0.000    0.000    0.000    0.000    0.000    0.000 
#
# Total GULP energy -396824.627016 kJ/mol
# GULP energy per Si atom -12400.769594 kJ/mol
# Density = 2.379577 g / cm^3
# Si number density = 23.850055 Si / 1000 Ang^3
#
#
#
# Elastic Constant Matrix: (Units=GPa)
#
#
# Indices 1 2 3 4 5 6 
#
# 1 98.3772 27.4638 -3.7732 0.0000 2.0916 0.0000
# 2 27.4638 125.3575 17.6741 0.0000 12.5583 0.0000
# 3 -3.7732 17.6741 19.9240 0.0000 6.7093 0.0000
# 4 0.0000 0.0000 0.0000 30.5936 0.0000 12.7378
# 5 2.0916 12.5583 6.7093 0.0000 41.7517 0.0000
# 6 0.0000 0.0000 0.0000 12.7378 0.0000 39.5369
#
#
#
# Elastic Compliance Matrix: (Units=1/GPa)
#
#
# Indices 1 2 3 4 5 6 
#
# 1 0.011242 -0.003132 0.005053 0.000000 -0.000433 0.000000
# 2 -0.003132 0.010083 -0.009059 0.000000 -0.001420 0.000000
# 3 0.005053 -0.009059 0.061690 0.000000 -0.007442 0.000000
# 4 0.000000 0.000000 0.000000 0.037750 0.000000 -0.012162
# 5 -0.000433 -0.001420 -0.007442 0.000000 0.025596 0.000000
# 6 0.000000 0.000000 0.000000 -0.012162 0.000000 0.029211
#
#
# Mechanical properties :
#
#
# Convention : Reuss Voigt Hill
#
# Bulk Modulus (GPa) = 14.54773 36.26534 25.40653
# Shear Modulus (GPa) = 23.50047 35.86269 29.68158
#
# Velocity S-wave (km/s) = 3.14242 3.88193 3.53159
# Velocity P-wave (km/s) = 4.39082 5.94399 5.22544
#
# Compressibility (1/GPa) = 0.06873923
#
# Stress axis : x y z
#
# Youngs Moduli (GPa) = 88.94927 99.17780 16.21008
#
# Poissons Ratio (x) = 0.31063 -0.08191
# Poissons Ratio (y) = 0.27860 0.14685
# Poissons Ratio (z) = -0.44949 0.89848
#
# Static dielectric constant tensor:
#      x y z
#    x 4.496510 0.000000 0.367130 
#    y 0.000000 4.419280 0.000000 
#    z 0.367130 0.000000 4.085050 
# 
# 
# High freq. dielectric constant tensor:
#      x y z
#    x 1.955380 0.000000 0.023120 
#    y 0.000000 1.954630 0.000000 
#    z 0.023120 0.000000 1.926480 
# 
# From -- ./inp_files/25559.got.cif
#   From: 2010.03.12/outbox.cif.g09.slc.cpg/sg14_13_cif.got.tgz:25559.got - 2010.03.31 13:35:05.
