data_PCOD8128216
_publ_section_title
;
Structure prediction by ZEFSAII (Michael W. Deem and Ramdas Pophale) SiO2 
 PCOD8128216
Probable space group: P 21/C
;
_chemical_formula_sum "Si O2"
_cell_formula_units_Z 24
_cell_length_a 18.338863
_cell_length_b 12.543758
_cell_length_c 13.280624
_cell_angle_alpha 90.000000
_cell_angle_beta 160.584499
_cell_angle_gamma 90.000000
_cell_volume 1015.548967
_symmetry_space_group_name_H-M "P 21/C"
_symmetry_group_IT_number 14
_symmetry_cell_setting 'monoclinic'
loop_
_space_group_symop_operation_xyz
x,y,z
-x,1/2+y,1/2-z
-x,-y,-z
x,1/2-y,1/2+z
loop_
_atom_site_type_symbol
_atom_site_label
_atom_site_fract_x
_atom_site_fract_y
_atom_site_fract_z
Si Si1 0.325349 0.273249 0.948230
Si Si2 0.356535 0.360656 0.678434
Si Si3 0.079256 0.226857 0.456269
Si Si4 0.250907 0.990049 0.363799
Si Si5 0.974706 0.009863 0.587497
Si Si6 0.712543 0.139254 0.390491
O O1 0.339694 0.238618 0.081220
O O2 0.474516 0.192638 0.074095
O O3 0.084922 0.250165 0.584845
O O4 0.377124 0.398248 0.014712
O O5 0.275438 0.307251 0.675715
O O6 0.203071 0.455753 0.436469
O O7 0.605239 0.404882 0.013902
O O8 0.856538 0.261445 0.114731
O O9 0.101933 0.101850 0.464441
O O10 0.263727 0.955843 0.497211
O O11 0.000000 0.000000 0.000000
O O12 0.787543 0.094944 0.378709
O O13 0.000000 0.000000 0.500000
#
# Coordination Sequence:
#
# PCOD8128216 Si02
#       6
#     4   4   4   4   4   4
#     4  11  22  43  65  98 132 176 225 275 340 400
#     4  10  24  43  66  99 137 175 222 281 339 398
#     4  11  22  43  65  98 132 176 225 275 340 400
#     4  11  22  44  70  98 136 176 225 280 337 403
#     4  11  22  44  70  98 136 176 225 280 337 403
#     4  10  24  43  66  99 137 175 222 281 339 398
#
# _framework density 23.632538
#
# number of rings (size 3 to 8) (size 9 to 14) (size 15 to 20)
#    0.000    1.333    3.333    2.000    0.000    1.333 
#   18.000    0.000    0.000    0.000    0.000    0.000 
#    0.000    0.000    0.000    0.000    0.000    0.000 
#
# Total GULP energy -297351.901065 kJ/mol
# GULP energy per Si atom -12389.662544 kJ/mol
# Density = 2.357875 g / cm^3
# Si number density = 23.632538 Si / 1000 Ang^3
#
#
#
# Elastic Constant Matrix: (Units=GPa)
#
#
# Indices 1 2 3 4 5 6 
#
# 1 78.6673 45.7614 30.5770 0.0000 6.9572 0.0000
# 2 45.7614 154.4326 46.4657 0.0000 -1.2115 0.0000
# 3 30.5770 46.4657 73.8609 0.0000 0.3313 0.0000
# 4 0.0000 0.0000 0.0000 21.8267 0.0000 -17.2075
# 5 6.9572 -1.2115 0.3313 0.0000 31.9226 0.0000
# 6 0.0000 0.0000 0.0000 -17.2075 0.0000 10.6888
#
#
#
# Elastic Compliance Matrix: (Units=1/GPa)
#
#
# Indices 1 2 3 4 5 6 
#
# 1 0.017007 -0.003646 -0.004730 0.000000 -0.003796 0.000000
# 2 -0.003646 0.008773 -0.004015 0.000000 0.001169 0.000000
# 3 -0.004730 -0.004015 0.018020 0.000000 0.000691 0.000000
# 4 0.000000 0.000000 0.000000 -0.170213 0.000000 -0.274020
# 5 -0.003796 0.001169 0.000691 0.000000 0.032190 0.000000
# 6 0.000000 0.000000 0.000000 -0.274020 0.000000 -0.347578
#
#
# Mechanical properties :
#
#
# Convention : Reuss Voigt Hill
#
# Bulk Modulus (GPa) = 52.58184 61.39656 56.98920
# Shear Modulus (GPa) = -12.17491 25.16473 6.49491
#
# Velocity S-wave (km/s) = -2.27221 3.26672 1.65960
# Velocity P-wave (km/s) = 3.92609 6.34545 5.27631
#
# Compressibility (1/GPa) = 0.01901797
#
# Stress axis : x y z
#
# Youngs Moduli (GPa) = 58.79987 113.98750 55.49518
#
# Poissons Ratio (x) = 0.41562 0.26248
# Poissons Ratio (y) = 0.21439 0.22280
# Poissons Ratio (z) = 0.27811 0.45764
#
# Static dielectric constant tensor:
#      x y z
#    x 4.280690 0.000000 0.076310 
#    y 0.000000 4.375460 0.000000 
#    z 0.076310 0.000000 4.226390 
# 
# 
# High freq. dielectric constant tensor:
#      x y z
#    x 1.926600 0.000000 -0.003520 
#    y 0.000000 1.955490 0.000000 
#    z -0.003520 0.000000 1.928580 
# 
# From -- ./inp_files/50491.got.cif
#   From: 2010.03.12/outbox.cif.g09.slc.cpg/sg14_26_cif.got.tgz:50491.got - 2010.03.31 13:35:05.
