data_PCOD8128795
_publ_section_title
;
Structure prediction by ZEFSAII (Michael W. Deem and Ramdas Pophale) SiO2 
 PCOD8128795
Probable space group: P 21/C
;
_chemical_formula_sum "Si O2"
_cell_formula_units_Z 20
_cell_length_a 5.466993
_cell_length_b 18.019830
_cell_length_c 8.923955
_cell_angle_alpha 90.000000
_cell_angle_beta 88.885337
_cell_angle_gamma 90.000000
_cell_volume 878.970679
_symmetry_space_group_name_H-M "P 21/C"
_symmetry_group_IT_number 14
_symmetry_cell_setting 'monoclinic'
loop_
_space_group_symop_operation_xyz
x,y,z
-x,1/2+y,1/2-z
-x,-y,-z
x,1/2-y,1/2+z
loop_
_atom_site_type_symbol
_atom_site_label
_atom_site_fract_x
_atom_site_fract_y
_atom_site_fract_z
Si Si1 0.331849 0.454012 0.614035
Si Si2 0.782642 0.877193 0.162032
Si Si3 0.731631 0.299439 0.385785
Si Si4 0.281236 0.651114 0.277557
Si Si5 0.957025 0.006360 0.326624
O O1 0.500000 0.500000 0.500000
O O2 0.153249 0.408371 0.504796
O O3 0.468636 0.395007 0.717179
O O4 0.197313 0.513209 0.723878
O O5 0.519945 0.836846 0.169456
O O6 0.019096 0.826787 0.201924
O O7 0.754073 0.946092 0.279990
O O8 0.701293 0.212580 0.351754
O O9 0.770505 0.310024 0.562540
O O10 0.082887 0.591331 0.223753
O O11 0.000000 0.000000 0.500000
#
# Coordination Sequence:
#
# PCOD8128795 Si02
#       5
#     4   4   4   4   4
#     4  11  22  47  76 102 143 194 247 296 371 444
#     4  11  24  47  71 103 142 200 242 292 374 439
#     4  11  27  44  73 101 148 191 244 299 369 443
#     4  11  26  46  70 105 145 194 244 298 371 436
#     4  12  26  43  75 110 146 185 254 311 358 429
#
# _framework density 22.753886999999999
#
# number of rings (size 3 to 8) (size 9 to 14) (size 15 to 20)
#    0.000    0.800    4.000    3.000    5.600    2.400 
#    0.000    0.000    0.000    0.000    0.000    0.000 
#    0.000    0.000    0.000    0.000    0.000    0.000 
#
# Total GULP energy -247852.571990 kJ/mol
# GULP energy per Si atom -12392.628600 kJ/mol
# Density = 2.270210 g / cm^3
# Si number density = 22.753887 Si / 1000 Ang^3
#
#
#
# Elastic Constant Matrix: (Units=GPa)
#
#
# Indices 1 2 3 4 5 6 
#
# 1 123.3287 43.7726 58.2341 0.0000 7.9166 0.0000
# 2 43.7726 136.8068 63.9682 0.0000 12.1891 0.0000
# 3 58.2341 63.9682 122.7791 0.0000 12.4288 0.0000
# 4 0.0000 0.0000 0.0000 52.0877 0.0000 10.2640
# 5 7.9166 12.1891 12.4288 0.0000 25.1639 0.0000
# 6 0.0000 0.0000 0.0000 10.2640 0.0000 32.5270
#
#
#
# Elastic Compliance Matrix: (Units=1/GPa)
#
#
# Indices 1 2 3 4 5 6 
#
# 1 0.010650 -0.001351 -0.004289 0.000000 -0.000578 0.000000
# 2 -0.001351 0.009964 -0.004321 0.000000 -0.002267 0.000000
# 3 -0.004289 -0.004321 0.012718 0.000000 -0.002839 0.000000
# 4 0.000000 0.000000 0.000000 0.020471 0.000000 -0.006460
# 5 -0.000578 -0.002267 -0.002839 0.000000 0.042422 0.000000
# 6 0.000000 0.000000 0.000000 -0.006460 0.000000 0.032782
#
#
# Mechanical properties :
#
#
# Convention : Reuss Voigt Hill
#
# Bulk Modulus (GPa) = 74.57062 79.42937 77.00000
# Shear Modulus (GPa) = 32.59460 36.41838 34.50649
#
# Velocity S-wave (km/s) = 3.78892 4.00501 3.89846
# Velocity P-wave (km/s) = 7.21007 7.50804 7.36056
#
# Compressibility (1/GPa) = 0.01341011
#
# Stress axis : x y z
#
# Youngs Moduli (GPa) = 93.89522 100.35849 78.62947
#
# Poissons Ratio (x) = 0.13554 0.33726
# Poissons Ratio (y) = 0.12681 0.33978
# Poissons Ratio (z) = 0.40274 0.43368
#
# Static dielectric constant tensor:
#      x y z
#    x 4.197380 0.000000 0.163170 
#    y 0.000000 4.643900 0.000000 
#    z 0.163170 0.000000 3.941180 
# 
# 
# High freq. dielectric constant tensor:
#      x y z
#    x 1.905790 0.000000 0.013420 
#    y 0.000000 1.904370 0.000000 
#    z 0.013420 0.000000 1.880940 
# 
# From -- ./inp_files/5463.got.cif
#   From: 2010.03.12/outbox.cif.g09.slc.cpg/sg14_3_cif.got.tgz:5463.got - 2010.03.31 13:35:05.
