data_PCOD8128295
_publ_section_title
;
Structure prediction by ZEFSAII (Michael W. Deem and Ramdas Pophale) SiO2 
 PCOD8128295
Probable space group: P 21/C
;
_chemical_formula_sum "Si O2"
_cell_formula_units_Z 20
_cell_length_a 5.183061
_cell_length_b 7.443878
_cell_length_c 22.964960
_cell_angle_alpha 90.000000
_cell_angle_beta 59.707226
_cell_angle_gamma 90.000000
_cell_volume 765.055723
_symmetry_space_group_name_H-M "P 21/C"
_symmetry_group_IT_number 14
_symmetry_cell_setting 'monoclinic'
loop_
_space_group_symop_operation_xyz
x,y,z
-x,1/2+y,1/2-z
-x,-y,-z
x,1/2-y,1/2+z
loop_
_atom_site_type_symbol
_atom_site_label
_atom_site_fract_x
_atom_site_fract_y
_atom_site_fract_z
Si Si1 0.678043 0.281330 0.552709
Si Si2 0.845937 0.049544 0.713485
Si Si3 0.523295 0.556833 0.136096
Si Si4 0.087128 0.383362 0.411176
Si Si5 0.099696 0.421688 0.669616
O O1 0.710573 0.080785 0.574436
O O2 0.793435 0.287455 0.472769
O O3 0.336066 0.342676 0.596521
O O4 0.881483 0.417459 0.566578
O O5 0.172166 0.963648 0.664603
O O6 0.861228 0.266093 0.711998
O O7 0.603375 0.985714 0.694293
O O8 0.736682 0.987197 0.789973
O O9 0.625290 0.758460 0.108656
O O10 0.053062 0.407710 0.345095
#
# Coordination Sequence:
#
# PCOD8128295 Si02
#       5
#     4   4   4   4   4
#     4  10  24  45  66 103 136 179 231 282 339 416
#     4  11  26  43  71  99 143 177 234 284 342 414
#     4  11  25  46  68 106 134 183 226 286 344 408
#     4  11  23  43  73  95 139 182 226 283 347 404
#     4  11  24  43  67 101 138 181 232 285 344 409
#
# _framework density 26.141883
#
# number of rings (size 3 to 8) (size 9 to 14) (size 15 to 20)
#    0.000    1.200    2.000    2.400    8.400    0.000 
#    0.000    3.000    0.000    0.000    0.000    0.000 
#    0.000    0.000    0.000    0.000    0.000    0.000 
#
# Total GULP energy -248049.187388 kJ/mol
# GULP energy per Si atom -12402.459369 kJ/mol
# Density = 2.608238 g / cm^3
# Si number density = 26.141883 Si / 1000 Ang^3
#
#
#
# Elastic Constant Matrix: (Units=GPa)
#
#
# Indices 1 2 3 4 5 6 
#
# 1 36.8623 -0.9622 -11.0404 0.0000 1.6580 0.0000
# 2 -0.9622 88.8725 28.7445 0.0000 -3.6794 0.0000
# 3 -11.0404 28.7445 77.9254 0.0000 6.3588 0.0000
# 4 0.0000 0.0000 0.0000 40.2110 0.0000 -0.9860
# 5 1.6580 -3.6794 6.3588 0.0000 31.4900 0.0000
# 6 0.0000 0.0000 0.0000 -0.9860 0.0000 39.4210
#
#
#
# Elastic Compliance Matrix: (Units=1/GPa)
#
#
# Indices 1 2 3 4 5 6 
#
# 1 0.028639 -0.001340 0.004766 0.000000 -0.002627 0.000000
# 2 -0.001340 0.013033 -0.005213 0.000000 0.002646 0.000000
# 3 0.004766 -0.005213 0.015761 0.000000 -0.004043 0.000000
# 4 0.000000 0.000000 0.000000 0.024884 0.000000 0.000622
# 5 -0.002627 0.002646 -0.004043 0.000000 0.033020 0.000000
# 6 0.000000 0.000000 0.000000 0.000622 0.000000 0.025383
#
#
# Mechanical properties :
#
#
# Convention : Reuss Voigt Hill
#
# Bulk Modulus (GPa) = 18.56731 26.34934 22.45832
# Shear Modulus (GPa) = 30.81711 34.68562 32.75137
#
# Velocity S-wave (km/s) = 3.43715 3.64651 3.54338
# Velocity P-wave (km/s) = 4.78225 5.27547 5.03490
#
# Compressibility (1/GPa) = 0.05385810
#
# Stress axis : x y z
#
# Youngs Moduli (GPa) = 34.91784 76.72634 63.44747
#
# Poissons Ratio (x) = 0.10284 -0.30241
# Poissons Ratio (y) = 0.04680 0.33078
# Poissons Ratio (z) = -0.16643 0.40001
#
# Static dielectric constant tensor:
#      x y z
#    x 4.158380 0.000000 0.003650 
#    y 0.000000 4.860280 0.000000 
#    z 0.003650 0.000000 4.871850 
# 
# 
# High freq. dielectric constant tensor:
#      x y z
#    x 2.027980 0.000000 -0.007310 
#    y 0.000000 2.057600 0.000000 
#    z -0.007310 0.000000 2.049860 
# 
# From -- ./inp_files/52683.got.cif
#   From: 2010.03.12/outbox.cif.g09.slc.cpg/sg14_27_cif.got.tgz:52683.got - 2010.03.31 13:35:05.
