data_PCOD8128775
_publ_section_title
;
Structure prediction by ZEFSAII (Michael W. Deem and Ramdas Pophale) SiO2 
 PCOD8128775
Probable space group: P 21/C
;
_chemical_formula_sum "Si O2"
_cell_formula_units_Z 20
_cell_length_a 7.271823
_cell_length_b 6.514071
_cell_length_c 17.178795
_cell_angle_alpha 90.000000
_cell_angle_beta 79.031253
_cell_angle_gamma 90.000000
_cell_volume 798.879067
_symmetry_space_group_name_H-M "P 21/C"
_symmetry_group_IT_number 14
_symmetry_cell_setting 'monoclinic'
loop_
_space_group_symop_operation_xyz
x,y,z
-x,1/2+y,1/2-z
-x,-y,-z
x,1/2-y,1/2+z
loop_
_atom_site_type_symbol
_atom_site_label
_atom_site_fract_x
_atom_site_fract_y
_atom_site_fract_z
Si Si1 0.500850 0.406200 0.585498
Si Si2 0.666693 0.952081 0.321046
Si Si3 0.892360 0.955980 0.087615
Si Si4 0.819160 0.370061 0.310943
Si Si5 0.726090 0.622243 0.188384
O O1 0.500000 0.500000 0.500000
O O2 0.712702 0.391920 0.602511
O O3 0.390499 0.558935 0.650276
O O4 0.405061 0.179483 0.597966
O O5 0.825139 0.124585 0.327454
O O6 0.490501 0.074390 0.301656
O O7 0.756499 0.805080 0.249296
O O8 0.817973 0.717171 0.101901
O O9 0.034517 0.996030 0.147382
O O10 0.000000 0.000000 0.000000
O O11 0.840096 0.429076 0.217179
#
# Coordination Sequence:
#
# PCOD8128775 Si02
#       5
#     4   4   4   4   4
#     4  11  24  48  70 100 151 191 243 304 371 456
#     4  11  22  45  79 102 141 197 251 310 370 438
#     4  12  26  47  71 107 156 192 242 316 381 456
#     4  11  25  45  72 106 140 195 251 310 372 447
#     4  11  23  43  74 104 140 189 252 307 368 447
#
# _framework density 25.035079
#
# number of rings (size 3 to 8) (size 9 to 14) (size 15 to 20)
#    0.000    0.800    6.000    1.200    2.800    0.800 
#    3.600    2.000    0.000    0.000    0.000    0.000 
#    0.000    0.000    0.000    0.000    0.000    0.000 
#
# Total GULP energy -247782.268635 kJ/mol
# GULP energy per Si atom -12389.113432 kJ/mol
# Density = 2.497810 g / cm^3
# Si number density = 25.035079 Si / 1000 Ang^3
#
#
#
# Elastic Constant Matrix: (Units=GPa)
#
#
# Indices 1 2 3 4 5 6 
#
# 1 86.1294 21.4608 26.9779 0.0000 3.9332 0.0000
# 2 21.4608 137.2767 52.4528 0.0000 -6.0563 0.0000
# 3 26.9779 52.4528 107.6473 0.0000 -0.7093 0.0000
# 4 0.0000 0.0000 0.0000 43.5205 0.0000 -1.4183
# 5 3.9332 -6.0563 -0.7093 0.0000 39.6734 0.0000
# 6 0.0000 0.0000 0.0000 -1.4183 0.0000 39.1598
#
#
#
# Elastic Compliance Matrix: (Units=1/GPa)
#
#
# Indices 1 2 3 4 5 6 
#
# 1 0.012783 -0.001027 -0.002713 0.000000 -0.001473 0.000000
# 2 -0.001027 0.009100 -0.004167 0.000000 0.001416 0.000000
# 3 -0.002713 -0.004167 0.011999 0.000000 -0.000153 0.000000
# 4 0.000000 0.000000 0.000000 0.023005 0.000000 0.000833
# 5 -0.001473 0.001416 -0.000153 0.000000 0.025565 0.000000
# 6 0.000000 0.000000 0.000000 0.000833 0.000000 0.025567
#
#
# Mechanical properties :
#
#
# Convention : Reuss Voigt Hill
#
# Bulk Modulus (GPa) = 55.34679 59.20403 57.27541
# Shear Modulus (GPa) = 38.50412 39.81486 39.15949
#
# Velocity S-wave (km/s) = 3.92600 3.99226 3.95927
# Velocity P-wave (km/s) = 6.53506 6.70452 6.62033
#
# Compressibility (1/GPa) = 0.01806790
#
# Stress axis : x y z
#
# Youngs Moduli (GPa) = 78.22694 109.89119 83.33917
#
# Poissons Ratio (x) = 0.11283 0.22611
# Poissons Ratio (y) = 0.08032 0.34731
# Poissons Ratio (z) = 0.21224 0.45796
#
# Static dielectric constant tensor:
#      x y z
#    x 4.844250 0.000000 -0.134290 
#    y 0.000000 4.969020 0.000000 
#    z -0.134290 0.000000 4.484720 
# 
# 
# High freq. dielectric constant tensor:
#      x y z
#    x 2.023880 0.000000 -0.003740 
#    y 0.000000 1.990110 0.000000 
#    z -0.003740 0.000000 1.967810 
# 
# From -- ./inp_files/54003.got.cif
#   From: 2010.03.12/outbox.cif.g09.slc.cpg/sg14_28_cif.got.tgz:54003.got - 2010.03.31 13:35:05.
