data_PCOD8128036
_publ_section_title
;
Structure prediction by ZEFSAII (Michael W. Deem and Ramdas Pophale) SiO2 
 PCOD8128036
Probable space group: P 21/C
;
_chemical_formula_sum "Si O2"
_cell_formula_units_Z 32
_cell_length_a 9.350519
_cell_length_b 10.158294
_cell_length_c 16.099705
_cell_angle_alpha 90.000000
_cell_angle_beta 112.600867
_cell_angle_gamma 90.000000
_cell_volume 1411.797082
_symmetry_space_group_name_H-M "P 21/C"
_symmetry_group_IT_number 14
_symmetry_cell_setting 'monoclinic'
loop_
_space_group_symop_operation_xyz
x,y,z
-x,1/2+y,1/2-z
-x,-y,-z
x,1/2-y,1/2+z
loop_
_atom_site_type_symbol
_atom_site_label
_atom_site_fract_x
_atom_site_fract_y
_atom_site_fract_z
Si Si1 0.866503 0.458119 0.679149
Si Si2 0.726998 0.403024 0.042423
Si Si3 0.372449 0.151271 0.822834
Si Si4 0.705768 0.085918 0.843574
Si Si5 0.264731 0.292635 0.634007
Si Si6 0.619623 0.686114 0.009724
Si Si7 0.094435 0.683484 0.478145
Si Si8 0.885340 0.178658 0.740757
O O1 0.701761 0.507528 0.678030
O O2 0.836032 0.402592 0.581076
O O3 0.932456 0.334262 0.748426
O O4 0.976569 0.585483 0.697087
O O5 0.725839 0.556936 0.021462
O O6 0.804570 0.318188 0.985750
O O7 0.846546 0.374903 0.142271
O O8 0.558404 0.352020 0.027796
O O9 0.557345 0.142484 0.858078
O O10 0.303278 0.196280 0.718766
O O11 0.331498 0.242748 0.893297
O O12 0.732657 0.163054 0.763733
O O13 0.683861 0.933031 0.818728
O O14 0.866250 0.099263 0.931369
O O15 0.355900 0.270365 0.568233
O O16 0.084108 0.283188 0.572772
#
# Coordination Sequence:
#
# PCOD8128036 Si02
#       8
#     4   4   4   4   4   4   4   4
#     4  11  26  45  73 102 141 188 243 290 366 425
#     4  10  23  45  69  99 144 186 234 294 360 425
#     4  12  27  45  71 106 141 192 241 293 363 431
#     4  12  26  43  71 101 147 184 241 299 361 420
#     4  12  27  45  72 106 142 185 249 296 352 439
#     4  11  25  44  73 102 142 192 234 295 368 420
#     4  11  24  47  67 105 140 183 238 300 354 430
#     4  11  25  46  72 103 141 190 235 303 355 432
#
# _framework density 22.666146000000001
#
# number of rings (size 3 to 8) (size 9 to 14) (size 15 to 20)
#    0.000    0.750    2.500    4.125    8.750    3.500 
#    0.000    0.000    0.000    0.000    0.000    0.000 
#    0.000    0.000    0.000    0.000    0.000    0.000 
#
# Total GULP energy -396713.700707 kJ/mol
# GULP energy per Si atom -12397.303147 kJ/mol
# Density = 2.261456 g / cm^3
# Si number density = 22.666146 Si / 1000 Ang^3
#
#
#
# Elastic Constant Matrix: (Units=GPa)
#
#
# Indices 1 2 3 4 5 6 
#
# 1 81.1465 31.8689 15.8606 0.0000 -3.3343 0.0000
# 2 31.8689 120.7914 18.9364 0.0000 -5.0013 0.0000
# 3 15.8606 18.9364 68.5427 0.0000 -4.0088 0.0000
# 4 0.0000 0.0000 0.0000 21.6755 0.0000 1.3744
# 5 -3.3343 -5.0013 -4.0088 0.0000 40.5061 0.0000
# 6 0.0000 0.0000 0.0000 1.3744 0.0000 38.7950
#
#
#
# Elastic Compliance Matrix: (Units=1/GPa)
#
#
# Indices 1 2 3 4 5 6 
#
# 1 0.014108 -0.003338 -0.002312 0.000000 0.000520 0.000000
# 2 -0.003338 0.009472 -0.001802 0.000000 0.000716 0.000000
# 3 -0.002312 -0.001802 0.015689 0.000000 0.001140 0.000000
# 4 0.000000 0.000000 0.000000 0.046239 0.000000 -0.001638
# 5 0.000520 0.000716 0.001140 0.000000 0.024932 0.000000
# 6 0.000000 0.000000 0.000000 -0.001638 0.000000 0.025835
#
#
# Mechanical properties :
#
#
# Convention : Reuss Voigt Hill
#
# Bulk Modulus (GPa) = 41.04484 44.86806 42.95645
# Shear Modulus (GPa) = 31.38742 33.78295 32.58518
#
# Velocity S-wave (km/s) = 3.72529 3.86483 3.79570
# Velocity P-wave (km/s) = 6.05404 6.30508 6.18084
#
# Compressibility (1/GPa) = 0.02436360
#
# Stress axis : x y z
#
# Youngs Moduli (GPa) = 70.88365 105.57809 63.73887
#
# Poissons Ratio (x) = 0.35243 0.14735
# Poissons Ratio (y) = 0.23662 0.11488
# Poissons Ratio (z) = 0.16387 0.19030
#
# Static dielectric constant tensor:
#      x y z
#    x 4.086990 0.000000 -0.122770 
#    y 0.000000 4.526250 0.000000 
#    z -0.122770 0.000000 3.980470 
# 
# 
# High freq. dielectric constant tensor:
#      x y z
#    x 1.899770 0.000000 -0.002670 
#    y 0.000000 1.903290 0.000000 
#    z -0.002670 0.000000 1.891790 
# 
# From -- ./inp_files/40361.got.cif
#   From: 2010.03.12/outbox.cif.g09.slc.cpg/sg14_21_cif.got.tgz:40361.got - 2010.03.31 13:35:05.
