data_PCOD8128967
_publ_section_title
;
Structure prediction by ZEFSAII (Michael W. Deem and Ramdas Pophale) SiO2 
 PCOD8128967
Probable space group: P 21/C
;
_chemical_formula_sum "Si O2"
_cell_formula_units_Z 28
_cell_length_a 6.525072
_cell_length_b 8.741401
_cell_length_c 22.901897
_cell_angle_alpha 90.000000
_cell_angle_beta 83.677436
_cell_angle_gamma 90.000000
_cell_volume 1298.339342
_symmetry_space_group_name_H-M "P 21/C"
_symmetry_group_IT_number 14
_symmetry_cell_setting 'monoclinic'
loop_
_space_group_symop_operation_xyz
x,y,z
-x,1/2+y,1/2-z
-x,-y,-z
x,1/2-y,1/2+z
loop_
_atom_site_type_symbol
_atom_site_label
_atom_site_fract_x
_atom_site_fract_y
_atom_site_fract_z
Si Si1 0.973446 0.258156 0.700360
Si Si2 0.713715 0.851902 0.900830
Si Si3 0.414377 0.549639 0.314898
Si Si4 0.111647 0.622307 0.538845
Si Si5 0.775512 0.944637 0.719151
Si Si6 0.274691 0.253677 0.386550
Si Si7 0.491591 0.818291 0.507262
O O1 0.759378 0.347683 0.709026
O O2 0.080688 0.283529 0.634471
O O3 0.119852 0.307311 0.748718
O O4 0.938515 0.080301 0.711211
O O5 0.526880 0.849925 0.860891
O O6 0.756629 0.026462 0.918367
O O7 0.660500 0.749535 0.958173
O O8 0.569972 0.499384 0.258731
O O9 0.317816 0.401038 0.346558
O O10 0.268877 0.739003 0.500808
O O11 0.000000 0.500000 0.500000
O O12 0.946568 0.728758 0.575994
O O13 0.724526 0.893495 0.655193
O O14 0.450595 0.226348 0.428717
O O15 0.500000 0.000000 0.500000
#
# Coordination Sequence:
#
# PCOD8128967 Si02
#       7
#     4   4   4   4   4   4   4
#     4  11  25  45  70  99 141 176 237 288 350 419
#     4  11  24  44  70 101 133 187 227 281 350 428
#     4  11  23  45  71  99 135 183 234 284 353 422
#     4  12  24  45  75 100 139 190 240 284 348 436
#     4  11  27  43  69 104 139 183 233 290 354 421
#     4  12  25  45  73 100 141 187 232 295 354 416
#     4  12  29  45  69 109 147 180 238 295 360 421
#
# _framework density 21.566012000000001
#
# number of rings (size 3 to 8) (size 9 to 14) (size 15 to 20)
#    0.000    0.571    4.286    3.000    6.000    2.857 
#    0.000    0.000    0.000    0.000    0.000    0.000 
#    0.000    0.000    0.000    0.000    0.000    0.000 
#
# Total GULP energy -347368.037103 kJ/mol
# GULP energy per Si atom -12406.001325 kJ/mol
# Density = 2.151693 g / cm^3
# Si number density = 21.566012 Si / 1000 Ang^3
#
#
#
# Elastic Constant Matrix: (Units=GPa)
#
#
# Indices 1 2 3 4 5 6 
#
# 1 93.2310 28.3379 34.5560 0.0000 -8.8442 0.0000
# 2 28.3379 105.9620 37.2907 0.0000 -14.7404 0.0000
# 3 34.5560 37.2907 105.5628 0.0000 -13.2746 0.0000
# 4 0.0000 0.0000 0.0000 36.4328 0.0000 3.9773
# 5 -8.8442 -14.7404 -13.2746 0.0000 33.9957 0.0000
# 6 0.0000 0.0000 0.0000 3.9773 0.0000 31.6312
#
#
#
# Elastic Compliance Matrix: (Units=1/GPa)
#
#
# Indices 1 2 3 4 5 6 
#
# 1 0.012679 -0.002083 -0.003274 0.000000 0.001117 0.000000
# 2 -0.002083 0.011495 -0.002966 0.000000 0.003284 0.000000
# 3 -0.003274 -0.002966 0.011908 0.000000 0.002512 0.000000
# 4 0.000000 0.000000 0.000000 0.027830 0.000000 -0.003499
# 5 0.001117 0.003284 0.002512 0.000000 0.032111 0.000000
# 6 0.000000 0.000000 0.000000 -0.003499 0.000000 0.032054
#
#
# Mechanical properties :
#
#
# Convention : Reuss Voigt Hill
#
# Bulk Modulus (GPa) = 51.45046 56.12499 53.78773
# Shear Modulus (GPa) = 33.06836 34.05004 33.55920
#
# Velocity S-wave (km/s) = 3.92006 3.97782 3.94904
# Velocity P-wave (km/s) = 6.66319 6.86867 6.76671
#
# Compressibility (1/GPa) = 0.01943617
#
# Stress axis : x y z
#
# Youngs Moduli (GPa) = 78.87256 86.99396 83.97439
#
# Poissons Ratio (x) = 0.18122 0.27494
# Poissons Ratio (y) = 0.16430 0.24905
# Poissons Ratio (z) = 0.25823 0.25801
#
# Static dielectric constant tensor:
#      x y z
#    x 4.007690 0.000000 -0.067050 
#    y 0.000000 3.819670 0.000000 
#    z -0.067050 0.000000 4.023470 
# 
# 
# High freq. dielectric constant tensor:
#      x y z
#    x 1.857740 0.000000 -0.004300 
#    y 0.000000 1.842430 0.000000 
#    z -0.004300 0.000000 1.857110 
# 
# From -- ./inp_files/75643.got.cif
#   From: 2010.03.12/outbox.cif.g09.slc.cpg/sg14_38_cif.got.tgz:75643.got - 2010.03.31 13:35:05.
