data_PCOD8128377
_publ_section_title
;
Structure prediction by ZEFSAII (Michael W. Deem and Ramdas Pophale) SiO2 
 PCOD8128377
Probable space group: P 21/C
;
_chemical_formula_sum "Si O2"
_cell_formula_units_Z 24
_cell_length_a 12.126832
_cell_length_b 10.101449
_cell_length_c 25.291004
_cell_angle_alpha 90.000000
_cell_angle_beta 159.166884
_cell_angle_gamma 90.000000
_cell_volume 1101.834892
_symmetry_space_group_name_H-M "P 21/C"
_symmetry_group_IT_number 14
_symmetry_cell_setting 'monoclinic'
loop_
_space_group_symop_operation_xyz
x,y,z
-x,1/2+y,1/2-z
-x,-y,-z
x,1/2-y,1/2+z
loop_
_atom_site_type_symbol
_atom_site_label
_atom_site_fract_x
_atom_site_fract_y
_atom_site_fract_z
Si Si1 0.768783 0.437017 0.547783
Si Si2 0.207703 0.128555 0.604247
Si Si3 0.638918 0.908887 0.518050
Si Si4 0.435220 0.993826 0.321236
Si Si5 0.265563 0.649450 0.351928
Si Si6 0.644930 0.221016 0.886318
O O1 0.479166 0.529739 0.429267
O O2 0.827682 0.354248 0.627916
O O3 0.690915 0.338223 0.465137
O O4 0.071501 0.524944 0.670829
O O5 0.422728 0.122685 0.753354
O O6 0.978492 0.255850 0.506210
O O7 0.452829 0.129180 0.665621
O O8 0.000000 0.000000 0.500000
O O9 0.413520 0.788346 0.405132
O O10 0.967936 0.854300 0.681858
O O11 0.500000 0.000000 0.500000
O O12 0.652891 0.993097 0.470556
O O13 0.476902 0.137284 0.313651
#
# Coordination Sequence:
#
# PCOD8128377 Si02
#       6
#     4   4   4   4   4   4
#     4  11  24  44  72 103 143 192 237 288 364 422
#     4  10  25  44  69 106 138 178 245 293 353 423
#     4  12  25  45  72 103 152 185 237 295 356 422
#     4  11  24  46  69 103 139 190 236 294 361 416
#     4  11  27  42  69 112 145 186 242 292 352 430
#     4  11  23  46  74 101 138 189 238 296 357 434
#
# _framework density 21.781848
#
# number of rings (size 3 to 8) (size 9 to 14) (size 15 to 20)
#    0.000    1.000    3.333    2.000    7.000    3.333 
#    3.000    0.000    0.000    0.000    0.000    0.000 
#    0.000    0.000    0.000    0.000    0.000    0.000 
#
# Total GULP energy -297532.180064 kJ/mol
# GULP energy per Si atom -12397.174169 kJ/mol
# Density = 2.173227 g / cm^3
# Si number density = 21.781848 Si / 1000 Ang^3
#
#
#
# Elastic Constant Matrix: (Units=GPa)
#
#
# Indices 1 2 3 4 5 6 
#
# 1 134.1795 30.8104 59.2250 0.0000 -5.7328 0.0000
# 2 30.8104 64.5850 35.5543 0.0000 -4.0792 0.0000
# 3 59.2250 35.5543 168.5732 0.0000 -6.3954 0.0000
# 4 0.0000 0.0000 0.0000 38.9822 0.0000 -1.9626
# 5 -5.7328 -4.0792 -6.3954 0.0000 41.0458 0.0000
# 6 0.0000 0.0000 0.0000 -1.9626 0.0000 42.8309
#
#
#
# Elastic Compliance Matrix: (Units=1/GPa)
#
#
# Indices 1 2 3 4 5 6 
#
# 1 0.009317 -0.002961 -0.002626 0.000000 0.000598 0.000000
# 2 -0.002961 0.018515 -0.002827 0.000000 0.000986 0.000000
# 3 -0.002626 -0.002827 0.007471 0.000000 0.000516 0.000000
# 4 0.000000 0.000000 0.000000 0.025712 0.000000 0.001178
# 5 0.000598 0.000986 0.000516 0.000000 0.024625 0.000000
# 6 0.000000 0.000000 0.000000 0.001178 0.000000 0.023402
#
#
# Mechanical properties :
#
#
# Convention : Reuss Voigt Hill
#
# Bulk Modulus (GPa) = 54.13199 68.72411 61.42805
# Shear Modulus (GPa) = 37.87047 40.68831 39.27939
#
# Velocity S-wave (km/s) = 4.17421 4.32672 4.25114
# Velocity P-wave (km/s) = 6.93814 7.52198 7.23595
#
# Compressibility (1/GPa) = 0.01847337
#
# Stress axis : x y z
#
# Youngs Moduli (GPa) = 107.32582 54.01068 133.85634
#
# Poissons Ratio (x) = 0.15995 0.35154
# Poissons Ratio (y) = 0.31783 0.37844
# Poissons Ratio (z) = 0.28186 0.15270
#
# Static dielectric constant tensor:
#      x y z
#    x 4.423660 0.000000 0.199600 
#    y 0.000000 3.751770 0.000000 
#    z 0.199600 0.000000 4.318380 
# 
# 
# High freq. dielectric constant tensor:
#      x y z
#    x 1.867590 0.000000 0.002590 
#    y 0.000000 1.839530 0.000000 
#    z 0.002590 0.000000 1.875010 
# 
# From -- ./inp_files/73332.got.cif
#   From: 2010.03.12/outbox.cif.g09.slc.cpg/sg14_37_cif.got.tgz:73332.got - 2010.03.31 13:35:05.
