data_PCOD8128082
_publ_section_title
;
Structure prediction by ZEFSAII (Michael W. Deem and Ramdas Pophale) SiO2 
 PCOD8128082
Probable space group: P 21/C
;
_chemical_formula_sum "Si O2"
_cell_formula_units_Z 24
_cell_length_a 26.594304
_cell_length_b 5.516281
_cell_length_c 13.219719
_cell_angle_alpha 90.000000
_cell_angle_beta 147.069888
_cell_angle_gamma 90.000000
_cell_volume 1054.263515
_symmetry_space_group_name_H-M "P 21/C"
_symmetry_group_IT_number 14
_symmetry_cell_setting 'monoclinic'
loop_
_space_group_symop_operation_xyz
x,y,z
-x,1/2+y,1/2-z
-x,-y,-z
x,1/2-y,1/2+z
loop_
_atom_site_type_symbol
_atom_site_label
_atom_site_fract_x
_atom_site_fract_y
_atom_site_fract_z
Si Si1 0.444795 0.530077 0.640321
Si Si2 0.676004 0.979881 0.249425
Si Si3 0.814552 0.141520 0.028869
Si Si4 0.704505 0.821634 0.977816
Si Si5 0.000633 0.249816 0.439063
Si Si6 0.190807 0.178104 0.162113
O O1 0.499711 0.275408 0.743350
O O2 0.411231 0.546517 0.467317
O O3 0.359486 0.519707 0.574421
O O4 0.720668 0.206084 0.381970
O O5 0.643617 0.804786 0.286630
O O6 0.759270 0.875631 0.322799
O O7 0.909561 0.273261 0.216023
O O8 0.796810 0.929922 0.081148
O O9 0.819209 0.066060 0.919023
O O10 0.745856 0.633187 0.131073
O O11 0.000000 0.500000 0.500000
O O12 0.088953 0.230041 0.516206
O O13 0.000000 0.000000 0.500000
#
# Coordination Sequence:
#
# PCOD8128082 Si02
#       6
#     4   4   4   4   4   4
#     4  11  28  47  73 107 140 178 234 300 363 428
#     4  10  25  44  73 101 137 190 236 286 362 424
#     4  11  25  42  74 101 142 196 238 289 354 417
#     4  10  23  47  71 100 143 184 234 290 360 427
#     4  12  27  44  70 104 144 190 244 289 344 408
#     4  10  24  43  67 101 144 186 239 290 345 410
#
# _framework density 22.764707000000001
#
# number of rings (size 3 to 8) (size 9 to 14) (size 15 to 20)
#    0.000    1.333    1.667    1.000   16.333    2.667 
#    0.000    0.000    0.000    0.000    0.000    0.000 
#    0.000    0.000    0.000    0.000    0.000    0.000 
#
# Total GULP energy -297452.667219 kJ/mol
# GULP energy per Si atom -12393.861134 kJ/mol
# Density = 2.271289 g / cm^3
# Si number density = 22.764707 Si / 1000 Ang^3
#
#
#
# Elastic Constant Matrix: (Units=GPa)
#
#
# Indices 1 2 3 4 5 6 
#
# 1 91.7008 14.4167 31.6991 0.0000 -14.6227 0.0000
# 2 14.4167 101.6493 39.8247 0.0000 -9.0987 0.0000
# 3 31.6991 39.8247 154.3571 0.0000 -19.1296 0.0000
# 4 0.0000 0.0000 0.0000 45.3696 0.0000 -2.6897
# 5 -14.6227 -9.0987 -19.1296 0.0000 35.9184 0.0000
# 6 0.0000 0.0000 0.0000 -2.6897 0.0000 22.7487
#
#
#
# Elastic Compliance Matrix: (Units=1/GPa)
#
#
# Indices 1 2 3 4 5 6 
#
# 1 0.012267 -0.000663 -0.001874 0.000000 0.003828 0.000000
# 2 -0.000663 0.011042 -0.002569 0.000000 0.001159 0.000000
# 3 -0.001874 -0.002569 0.007870 0.000000 0.002778 0.000000
# 4 0.000000 0.000000 0.000000 0.022197 0.000000 0.002624
# 5 0.003828 0.001159 0.002778 0.000000 0.031173 0.000000
# 6 0.000000 0.000000 0.000000 0.002624 0.000000 0.044269
#
#
# Mechanical properties :
#
#
# Convention : Reuss Voigt Hill
#
# Bulk Modulus (GPa) = 47.69159 57.73201 52.71180
# Shear Modulus (GPa) = 34.24206 38.25846 36.25026
#
# Velocity S-wave (km/s) = 3.88257 4.10396 3.99480
# Velocity P-wave (km/s) = 6.41050 6.91896 6.66958
#
# Compressibility (1/GPa) = 0.02096806
#
# Stress axis : x y z
#
# Youngs Moduli (GPa) = 81.51652 90.56285 127.05827
#
# Poissons Ratio (x) = 0.06005 0.23808
# Poissons Ratio (y) = 0.05405 0.32642
# Poissons Ratio (z) = 0.15274 0.23266
#
# Static dielectric constant tensor:
#      x y z
#    x 4.248520 0.000000 -0.152930 
#    y 0.000000 3.976490 0.000000 
#    z -0.152930 0.000000 4.218770 
# 
# 
# High freq. dielectric constant tensor:
#      x y z
#    x 1.909840 0.000000 -0.009940 
#    y 0.000000 1.886850 0.000000 
#    z -0.009940 0.000000 1.906860 
# 
# From -- ./inp_files/52178.got.cif
#   From: 2010.03.12/outbox.cif.g09.slc.cpg/sg14_27_cif.got.tgz:52178.got - 2010.03.31 13:35:05.
