data_PCOD8128468
_publ_section_title
;
Structure prediction by ZEFSAII (Michael W. Deem and Ramdas Pophale) SiO2 
 PCOD8128468
Probable space group: P 21/C
;
_chemical_formula_sum "Si O2"
_cell_formula_units_Z 20
_cell_length_a 8.000934
_cell_length_b 10.152902
_cell_length_c 22.582512
_cell_angle_alpha 90.000000
_cell_angle_beta 149.238340
_cell_angle_gamma 90.000000
_cell_volume 938.256481
_symmetry_space_group_name_H-M "P 21/C"
_symmetry_group_IT_number 14
_symmetry_cell_setting 'monoclinic'
loop_
_space_group_symop_operation_xyz
x,y,z
-x,1/2+y,1/2-z
-x,-y,-z
x,1/2-y,1/2+z
loop_
_atom_site_type_symbol
_atom_site_label
_atom_site_fract_x
_atom_site_fract_y
_atom_site_fract_z
Si Si1 0.684753 0.136458 0.559752
Si Si2 0.630857 0.994224 0.361237
Si Si3 0.370917 0.477445 0.279317
Si Si4 0.554366 0.742257 0.127672
Si Si5 0.291582 0.749662 0.815740
O O1 0.704797 0.211628 0.503521
O O2 0.547253 0.231869 0.569682
O O3 0.037176 0.098732 0.690830
O O4 0.500000 0.000000 0.500000
O O5 0.604114 0.002565 0.282435
O O6 0.441522 0.862537 0.320147
O O7 0.424855 0.117404 0.322524
O O8 0.000000 0.000000 0.500000
O O9 0.596434 0.367398 0.381327
O O10 0.410758 0.612401 0.326164
O O11 0.898122 0.757307 0.197324
#
# Coordination Sequence:
#
# PCOD8128468 Si02
#       5
#     4   4   4   4   4
#     4  11  19  41  67  93 130 178 220 256 339 400
#     4  12  23  43  70  93 133 179 215 267 341 390
#     4  11  23  39  63 100 132 165 226 278 319 384
#     4  11  22  41  69  94 134 179 217 269 325 403
#     4  11  23  39  69  99 126 175 228 268 318 400
#
# _framework density 21.316130999999999
#
# number of rings (size 3 to 8) (size 9 to 14) (size 15 to 20)
#    0.000    0.800    6.000    2.400    0.000    0.800 
#    0.000    1.000    0.000    0.000    0.000    0.000 
#    0.000    0.000    0.000    0.000    0.000    0.000 
#
# Total GULP energy -247810.076171 kJ/mol
# GULP energy per Si atom -12390.503809 kJ/mol
# Density = 2.126761 g / cm^3
# Si number density = 21.316131 Si / 1000 Ang^3
#
#
#
# Elastic Constant Matrix: (Units=GPa)
#
#
# Indices 1 2 3 4 5 6 
#
# 1 118.0360 80.4435 40.7728 0.0000 -39.8390 0.0000
# 2 80.4435 195.0790 52.3857 0.0000 -33.0884 0.0000
# 3 40.7728 52.3857 53.7420 0.0000 -29.0389 0.0000
# 4 0.0000 0.0000 0.0000 32.5592 0.0000 -10.1051
# 5 -39.8390 -33.0884 -29.0389 0.0000 57.7976 0.0000
# 6 0.0000 0.0000 0.0000 -10.1051 0.0000 53.5687
#
#
#
# Elastic Compliance Matrix: (Units=1/GPa)
#
#
# Indices 1 2 3 4 5 6 
#
# 1 0.014462 -0.003899 -0.004106 0.000000 0.005674 0.000000
# 2 -0.003899 0.008021 -0.005259 0.000000 -0.000738 0.000000
# 3 -0.004106 -0.005259 0.032522 0.000000 0.010499 0.000000
# 4 0.000000 0.000000 0.000000 0.032623 0.000000 0.006154
# 5 0.005674 -0.000738 0.010499 0.000000 0.026065 0.000000
# 6 0.000000 0.000000 0.000000 0.006154 0.000000 0.019828
#
#
# Mechanical properties :
#
#
# Convention : Reuss Voigt Hill
#
# Bulk Modulus (GPa) = 35.11631 79.34012 57.22821
# Shear Modulus (GPa) = 29.49103 41.66877 35.57990
#
# Velocity S-wave (km/s) = 3.72359 4.42611 4.08996
# Velocity P-wave (km/s) = 5.91580 7.96380 7.01494
#
# Compressibility (1/GPa) = 0.02847680
#
# Stress axis : x y z
#
# Youngs Moduli (GPa) = 69.14479 124.67255 30.74832
#
# Poissons Ratio (x) = 0.48607 0.12626
# Poissons Ratio (y) = 0.26958 0.16172
# Poissons Ratio (z) = 0.28392 0.65570
#
# Static dielectric constant tensor:
#      x y z
#    x 4.051980 0.000000 -0.167610 
#    y 0.000000 4.043470 0.000000 
#    z -0.167610 0.000000 3.251270 
# 
# 
# High freq. dielectric constant tensor:
#      x y z
#    x 1.847400 0.000000 -0.025210 
#    y 0.000000 1.849900 0.000000 
#    z -0.025210 0.000000 1.820690 
# 
# From -- ./inp_files/23018.got.cif
#   From: 2010.03.12/outbox.cif.g09.slc.cpg/sg14_12_cif.got.tgz:23018.got - 2010.03.31 13:35:05.
