data_PCOD8128939
_publ_section_title
;
Structure prediction by ZEFSAII (Michael W. Deem and Ramdas Pophale) SiO2 
 PCOD8128939
Probable space group: P 21/C
;
_chemical_formula_sum "Si O2"
_cell_formula_units_Z 20
_cell_length_a 11.343098
_cell_length_b 8.006099
_cell_length_c 9.541808
_cell_angle_alpha 90.000000
_cell_angle_beta 106.150570
_cell_angle_gamma 90.000000
_cell_volume 832.330989
_symmetry_space_group_name_H-M "P 21/C"
_symmetry_group_IT_number 14
_symmetry_cell_setting 'monoclinic'
loop_
_space_group_symop_operation_xyz
x,y,z
-x,1/2+y,1/2-z
-x,-y,-z
x,1/2-y,1/2+z
loop_
_atom_site_type_symbol
_atom_site_label
_atom_site_fract_x
_atom_site_fract_y
_atom_site_fract_z
Si Si1 0.564608 0.366871 0.420834
Si Si2 0.200923 0.653827 0.362007
Si Si3 0.204503 0.275897 0.435100
Si Si4 0.050581 0.816703 0.547737
Si Si5 0.653213 0.644556 0.257672
O O1 0.500000 0.500000 0.500000
O O2 0.669884 0.266043 0.543752
O O3 0.624762 0.459643 0.305801
O O4 0.471173 0.229410 0.335235
O O5 0.230799 0.458350 0.384293
O O6 0.088510 0.720646 0.419509
O O7 0.167997 0.688095 0.189752
O O8 0.247840 0.135952 0.336912
O O9 0.283577 0.243140 0.600829
O O10 0.060197 0.277736 0.414640
O O11 0.000000 0.000000 0.500000
#
# Coordination Sequence:
#
# PCOD8128939 Si02
#       5
#     4   4   4   4   4
#     4  11  25  45  69 102 143 178 238 289 344 412
#     4  11  25  44  68  97 142 178 229 283 343 413
#     4  11  24  45  66  97 137 181 227 283 348 410
#     4  12  26  43  71 102 138 179 232 283 347 413
#     4  11  23  44  71  96 139 181 231 291 344 411
#
# _framework density 24.028904000000001
#
# number of rings (size 3 to 8) (size 9 to 14) (size 15 to 20)
#    0.000    0.800    4.000    4.200    2.800    5.600 
#    0.000    0.000    0.000    0.000    0.000    0.000 
#    0.000    0.000    0.000    0.000    0.000    0.000 
#
# Total GULP energy -247997.651764 kJ/mol
# GULP energy per Si atom -12399.882588 kJ/mol
# Density = 2.397421 g / cm^3
# Si number density = 24.028904 Si / 1000 Ang^3
#
#
#
# Elastic Constant Matrix: (Units=GPa)
#
#
# Indices 1 2 3 4 5 6 
#
# 1 91.8939 3.3223 22.3758 0.0000 11.5523 0.0000
# 2 3.3223 29.3113 5.3158 0.0000 8.5406 0.0000
# 3 22.3758 5.3158 123.8618 0.0000 24.0558 0.0000
# 4 0.0000 0.0000 0.0000 30.9085 0.0000 1.3811
# 5 11.5523 8.5406 24.0558 0.0000 58.2571 0.0000
# 6 0.0000 0.0000 0.0000 1.3811 0.0000 38.9256
#
#
#
# Elastic Compliance Matrix: (Units=1/GPa)
#
#
# Indices 1 2 3 4 5 6 
#
# 1 0.011518 -0.000556 -0.001771 0.000000 -0.001471 0.000000
# 2 -0.000556 0.035701 -0.000475 0.000000 -0.004928 0.000000
# 3 -0.001771 -0.000475 0.009059 0.000000 -0.003320 0.000000
# 4 0.000000 0.000000 0.000000 0.032405 0.000000 -0.001150
# 5 -0.001471 -0.004928 -0.003320 0.000000 0.019550 0.000000
# 6 0.000000 0.000000 0.000000 -0.001150 0.000000 0.025731
#
#
# Mechanical properties :
#
#
# Convention : Reuss Voigt Hill
#
# Bulk Modulus (GPa) = 19.73355 34.12163 26.92759
# Shear Modulus (GPa) = 31.95714 39.88843 35.92279
#
# Velocity S-wave (km/s) = 3.65080 4.07875 3.87069
# Velocity P-wave (km/s) = 5.09915 6.03429 5.58633
#
# Compressibility (1/GPa) = 0.05067513
#
# Stress axis : x y z
#
# Youngs Moduli (GPa) = 86.81720 28.01009 110.39229
#
# Poissons Ratio (x) = 0.01556 0.19553
# Poissons Ratio (y) = 0.04824 0.05241
# Poissons Ratio (z) = 0.15377 0.01330
#
# Static dielectric constant tensor:
#      x y z
#    x 5.159140 0.000000 0.495770 
#    y 0.000000 4.290580 0.000000 
#    z 0.495770 0.000000 4.857410 
# 
# 
# High freq. dielectric constant tensor:
#      x y z
#    x 1.971060 0.000000 0.009910 
#    y 0.000000 1.924780 0.000000 
#    z 0.009910 0.000000 1.970330 
# 
# From -- ./inp_files/11775.got.cif
#   From: 2010.03.12/outbox.cif.g09.slc.cpg/sg14_6_cif.got.tgz:11775.got - 2010.03.31 13:35:05.
