data_PCOD8128272
_publ_section_title
;
Structure prediction by ZEFSAII (Michael W. Deem and Ramdas Pophale) SiO2 
 PCOD8128272
Probable space group: P 21/C
;
_chemical_formula_sum "Si O2"
_cell_formula_units_Z 32
_cell_length_a 11.247968
_cell_length_b 8.814854
_cell_length_c 28.137226
_cell_angle_alpha 90.000000
_cell_angle_beta 146.899335
_cell_angle_gamma 90.000000
_cell_volume 1523.533271
_symmetry_space_group_name_H-M "P 21/C"
_symmetry_group_IT_number 14
_symmetry_cell_setting 'monoclinic'
loop_
_space_group_symop_operation_xyz
x,y,z
-x,1/2+y,1/2-z
-x,-y,-z
x,1/2-y,1/2+z
loop_
_atom_site_type_symbol
_atom_site_label
_atom_site_fract_x
_atom_site_fract_y
_atom_site_fract_z
Si Si1 0.589608 0.364478 0.690897
Si Si2 0.261795 0.348637 0.829341
Si Si3 0.201339 0.795925 0.326225
Si Si4 0.200479 0.688473 0.142956
Si Si5 0.387008 0.213342 0.777667
Si Si6 0.085050 0.332724 0.522369
Si Si7 0.970843 0.864057 0.409748
Si Si8 0.620646 0.141511 0.517984
O O1 0.655256 0.300359 0.662006
O O2 0.741660 0.286295 0.782205
O O3 0.619595 0.544956 0.702163
O O4 0.341020 0.319599 0.616541
O O5 0.217115 0.524839 0.823616
O O6 0.362509 0.336241 0.810780
O O7 0.047479 0.249348 0.763016
O O8 0.436303 0.275694 0.924733
O O9 0.285356 0.755192 0.407710
O O10 0.390550 0.756928 0.174694
O O11 0.167584 0.511213 0.121728
O O12 0.981250 0.775951 0.052909
O O13 0.184727 0.240487 0.674654
O O14 0.964737 0.227611 0.521298
O O15 0.000000 0.500000 0.500000
O O16 0.184916 0.911264 0.451915
O O17 0.500000 0.000000 0.500000
#
# Coordination Sequence:
#
# PCOD8128272 Si02
#       8
#     4   4   4   4   4   4   4   4
#     4  11  26  42  66  99 140 172 225 274 338 405
#     4  11  24  43  72  92 134 173 231 273 341 391
#     4  11  25  44  68  98 131 180 224 279 332 399
#     4  11  25  42  72  96 136 180 219 271 344 402
#     4  11  22  45  68  98 138 177 219 282 335 400
#     4  12  25  43  67 102 139 171 220 281 339 398
#     4  11  24  44  71  97 137 179 228 271 340 410
#     4  10  24  44  68  96 129 177 225 275 322 403
#
# _framework density 21.003809
#
# number of rings (size 3 to 8) (size 9 to 14) (size 15 to 20)
#    0.000    1.000    3.750    1.875   10.500    1.000 
#    0.000    2.500    0.000    0.000    0.000    0.000 
#    0.000    0.000    0.000    0.000    0.000    0.000 
#
# Total GULP energy -396813.392610 kJ/mol
# GULP energy per Si atom -12400.418519 kJ/mol
# Density = 2.095600 g / cm^3
# Si number density = 21.003809 Si / 1000 Ang^3
#
#
#
# Elastic Constant Matrix: (Units=GPa)
#
#
# Indices 1 2 3 4 5 6 
#
# 1 87.2097 28.2878 34.1708 0.0000 -3.5542 0.0000
# 2 28.2878 71.5524 39.0802 0.0000 -12.8014 0.0000
# 3 34.1708 39.0802 155.5406 0.0000 -14.1377 0.0000
# 4 0.0000 0.0000 0.0000 34.8280 0.0000 2.2222
# 5 -3.5542 -12.8014 -14.1377 0.0000 31.6724 0.0000
# 6 0.0000 0.0000 0.0000 2.2222 0.0000 38.0563
#
#
#
# Elastic Compliance Matrix: (Units=1/GPa)
#
#
# Indices 1 2 3 4 5 6 
#
# 1 0.013661 -0.004537 -0.001969 0.000000 -0.001179 0.000000
# 2 -0.004537 0.018479 -0.003141 0.000000 0.005558 0.000000
# 3 -0.001969 -0.003141 0.007833 0.000000 0.002006 0.000000
# 4 0.000000 0.000000 0.000000 0.028820 0.000000 -0.001683
# 5 -0.001179 0.005558 0.002006 0.000000 0.034583 0.000000
# 6 0.000000 0.000000 0.000000 -0.001683 0.000000 0.026375
#
#
# Mechanical properties :
#
#
# Convention : Reuss Voigt Hill
#
# Bulk Modulus (GPa) = 48.35364 57.48672 52.92018
# Shear Modulus (GPa) = 32.06392 35.09559 33.57976
#
# Velocity S-wave (km/s) = 3.91138 4.09212 4.00277
# Velocity P-wave (km/s) = 6.59317 7.05382 6.82738
#
# Compressibility (1/GPa) = 0.02068097
#
# Stress axis : x y z
#
# Youngs Moduli (GPa) = 73.19852 54.11451 127.66112
#
# Poissons Ratio (x) = 0.24551 0.25132
# Poissons Ratio (y) = 0.33209 0.40100
# Poissons Ratio (z) = 0.14410 0.16998
#
# Static dielectric constant tensor:
#      x y z
#    x 4.222740 0.000000 -0.243960 
#    y 0.000000 3.649000 0.000000 
#    z -0.243960 0.000000 4.573820 
# 
# 
# High freq. dielectric constant tensor:
#      x y z
#    x 1.825330 0.000000 -0.004990 
#    y 0.000000 1.804040 0.000000 
#    z -0.004990 0.000000 1.851510 
# 
# From -- ./inp_files/80036.got.cif
#   From: 2010.03.12/outbox.cif.g09.slc.cpg/sg14_41_cif.got.tgz:80036.got - 2010.03.31 13:35:05.
