data_PCOD8128164
_publ_section_title
;
Structure prediction by ZEFSAII (Michael W. Deem and Ramdas Pophale) SiO2 
 PCOD8128164
Probable space group: P 21/C
;
_chemical_formula_sum "Si O2"
_cell_formula_units_Z 28
_cell_length_a 17.527367
_cell_length_b 11.194744
_cell_length_c 19.163365
_cell_angle_alpha 90.000000
_cell_angle_beta 21.537924
_cell_angle_gamma 90.000000
_cell_volume 1380.406834
_symmetry_space_group_name_H-M "P 21/C"
_symmetry_group_IT_number 14
_symmetry_cell_setting 'monoclinic'
loop_
_space_group_symop_operation_xyz
x,y,z
-x,1/2+y,1/2-z
-x,-y,-z
x,1/2-y,1/2+z
loop_
_atom_site_type_symbol
_atom_site_label
_atom_site_fract_x
_atom_site_fract_y
_atom_site_fract_z
Si Si1 0.819001 0.931825 0.307409
Si Si2 0.566928 0.128931 0.594074
Si Si3 0.979342 0.212357 0.294220
Si Si4 0.885514 0.637993 0.472675
Si Si5 0.115407 0.676756 0.866106
Si Si6 0.459839 0.256883 0.041347
Si Si7 0.117248 0.079865 0.308757
O O1 0.960917 0.844452 0.232462
O O2 0.686071 0.862145 0.363038
O O3 0.663301 0.001536 0.490910
O O4 0.971839 0.021590 0.136451
O O5 0.355886 0.104434 0.815282
O O6 0.534136 0.211856 0.555060
O O7 0.729562 0.199437 0.504927
O O8 0.072907 0.113586 0.266749
O O9 0.076382 0.190396 0.136068
O O10 0.940056 0.734486 0.485701
O O11 0.337246 0.742675 0.679740
O O12 0.124191 0.562437 0.807715
O O13 0.061924 0.636838 0.989944
O O14 0.338301 0.131748 0.145633
#
# Coordination Sequence:
#
# PCOD8128164 Si02
#       7
#     4   4   4   4   4   4   4
#     4  10  24  42  63  95 130 164 209 267 320 380
#     4  11  23  40  65  95 125 172 207 258 327 376
#     4  10  24  44  62  92 133 165 214 270 318 380
#     4  11  24  40  66  94 129 168 209 267 317 381
#     4  11  22  41  67  93 128 169 216 264 313 381
#     4  11  21  41  66  94 126 166 215 259 319 384
#     4  10  24  42  65  95 128 167 219 268 313 380
#
# _framework density 20.283874000000001
#
# number of rings (size 3 to 8) (size 9 to 14) (size 15 to 20)
#    0.000    1.429    4.286    0.857    4.000    6.286 
#    0.000    0.000    0.000    0.000    0.000    0.000 
#    0.000    0.000    0.000    0.000    0.000    0.000 
#
# Total GULP energy -347328.434725 kJ/mol
# GULP energy per Si atom -12404.586954 kJ/mol
# Density = 2.023771 g / cm^3
# Si number density = 20.283874 Si / 1000 Ang^3
#
#
#
# Elastic Constant Matrix: (Units=GPa)
#
#
# Indices 1 2 3 4 5 6 
#
# 1 61.3704 23.9828 8.8963 0.0000 -15.2334 0.0000
# 2 23.9828 101.3433 36.3285 0.0000 -17.9129 0.0000
# 3 8.8963 36.3285 132.5142 0.0000 -8.2903 0.0000
# 4 0.0000 0.0000 0.0000 34.4675 0.0000 -5.9749
# 5 -15.2334 -17.9129 -8.2903 0.0000 30.9826 0.0000
# 6 0.0000 0.0000 0.0000 -5.9749 0.0000 25.9743
#
#
#
# Elastic Compliance Matrix: (Units=1/GPa)
#
#
# Indices 1 2 3 4 5 6 
#
# 1 0.019475 -0.003273 0.000072 0.000000 0.007702 0.000000
# 2 -0.003273 0.012547 -0.002916 0.000000 0.004865 0.000000
# 3 0.000072 -0.002916 0.008378 0.000000 0.000591 0.000000
# 4 0.000000 0.000000 0.000000 0.030218 0.000000 0.006951
# 5 0.007702 0.004865 0.000591 0.000000 0.039034 0.000000
# 6 0.000000 0.000000 0.000000 0.006951 0.000000 0.040099
#
#
# Mechanical properties :
#
#
# Convention : Reuss Voigt Hill
#
# Bulk Modulus (GPa) = 35.50383 48.18256 41.84319
# Shear Modulus (GPa) = 29.17611 33.35290 31.26450
#
# Velocity S-wave (km/s) = 3.79672 4.05940 3.93026
# Velocity P-wave (km/s) = 6.06314 6.76590 6.42413
#
# Compressibility (1/GPa) = 0.02816597
#
# Stress axis : x y z
#
# Youngs Moduli (GPa) = 51.34781 79.69996 119.36217
#
# Poissons Ratio (x) = 0.26086 -0.00856
# Poissons Ratio (y) = 0.16806 0.34802
# Poissons Ratio (z) = -0.00368 0.23238
#
# Static dielectric constant tensor:
#      x y z
#    x 3.529600 0.000000 -0.132900 
#    y 0.000000 3.764510 0.000000 
#    z -0.132900 0.000000 3.872440 
# 
# 
# High freq. dielectric constant tensor:
#      x y z
#    x 1.786960 0.000000 -0.006950 
#    y 0.000000 1.799580 0.000000 
#    z -0.006950 0.000000 1.802310 
# 
# From -- ./inp_files/69274.got.cif
#   From: 2010.03.12/outbox.cif.g09.slc.cpg/sg14_35_cif.got.tgz:69274.got - 2010.03.31 13:35:05.
