data_PCOD8128485
_publ_section_title
;
Structure prediction by ZEFSAII (Michael W. Deem and Ramdas Pophale) SiO2 
 PCOD8128485
Probable space group: P 21/C
;
_chemical_formula_sum "Si O2"
_cell_formula_units_Z 24
_cell_length_a 15.763336
_cell_length_b 13.104384
_cell_length_c 13.722188
_cell_angle_alpha 90.000000
_cell_angle_beta 26.015750
_cell_angle_gamma 90.000000
_cell_volume 1243.296629
_symmetry_space_group_name_H-M "P 21/C"
_symmetry_group_IT_number 14
_symmetry_cell_setting 'monoclinic'
loop_
_space_group_symop_operation_xyz
x,y,z
-x,1/2+y,1/2-z
-x,-y,-z
x,1/2-y,1/2+z
loop_
_atom_site_type_symbol
_atom_site_label
_atom_site_fract_x
_atom_site_fract_y
_atom_site_fract_z
Si Si1 0.431495 0.280604 0.466444
Si Si2 0.712076 0.490795 0.359992
Si Si3 0.812347 0.815062 0.433371
Si Si4 0.130785 0.991070 0.513986
Si Si5 0.791533 0.287065 0.963705
Si Si6 0.522654 0.222501 0.088139
O O1 0.380360 0.400957 0.513718
O O2 0.253620 0.212392 0.608655
O O3 0.621434 0.250899 0.210309
O O4 0.475211 0.241439 0.529030
O O5 0.579645 0.397731 0.533482
O O6 0.921561 0.477132 0.190933
O O7 0.725694 0.483501 0.227636
O O8 0.671794 0.751996 0.650682
O O9 0.784801 0.931810 0.493203
O O10 0.037124 0.793731 0.215809
O O11 0.114276 0.889179 0.593143
O O12 0.698248 0.290769 0.951282
#
# Coordination Sequence:
#
# PCOD8128485 Si02
#       6
#     4   4   4   4   4   4
#     4  11  22  38  62  93 122 158 201 251 306 358
#     4  11  20  37  68  94 117 154 205 264 303 343
#     4  11  23  38  59  92 127 158 197 252 306 359
#     4  11  21  38  64  93 121 158 204 255 301 358
#     4  11  23  38  59  92 127 158 197 252 306 359
#     4  11  22  38  62  93 122 158 201 251 306 358
#
# _framework density 19.303519000000001
#
# number of rings (size 3 to 8) (size 9 to 14) (size 15 to 20)
#    0.000    1.000    6.667    1.500    0.000    1.333 
#    0.000    0.833    0.000    2.000    0.000    0.000 
#    0.000    0.000    0.000    0.000    0.000    0.000 
#
# Total GULP energy -297476.448269 kJ/mol
# GULP energy per Si atom -12394.852011 kJ/mol
# Density = 1.925958 g / cm^3
# Si number density = 19.303519 Si / 1000 Ang^3
#
#
#
# Elastic Constant Matrix: (Units=GPa)
#
#
# Indices 1 2 3 4 5 6 
#
# 1 139.0938 24.5098 24.6531 0.0000 11.1697 0.0000
# 2 24.5098 49.9353 8.7766 0.0000 11.9078 0.0000
# 3 24.6531 8.7766 84.8139 0.0000 -5.7615 0.0000
# 4 0.0000 0.0000 0.0000 28.2580 0.0000 -0.1508
# 5 11.1697 11.9078 -5.7615 0.0000 26.8903 0.0000
# 6 0.0000 0.0000 0.0000 -0.1508 0.0000 38.6119
#
#
#
# Elastic Compliance Matrix: (Units=1/GPa)
#
#
# Indices 1 2 3 4 5 6 
#
# 1 0.008344 -0.003076 -0.002283 0.000000 -0.002593 0.000000
# 2 -0.003076 0.024321 -0.002301 0.000000 -0.009986 0.000000
# 3 -0.002283 -0.002301 0.013015 0.000000 0.004756 0.000000
# 4 0.000000 0.000000 0.000000 0.035389 0.000000 0.000138
# 5 -0.002593 -0.009986 0.004756 0.000000 0.043706 0.000000
# 6 0.000000 0.000000 0.000000 0.000138 0.000000 0.025899
#
#
# Mechanical properties :
#
#
# Convention : Reuss Voigt Hill
#
# Bulk Modulus (GPa) = 32.93758 43.30246 38.12002
# Shear Modulus (GPa) = 28.39032 33.14561 30.76796
#
# Velocity S-wave (km/s) = 3.83917 4.14826 3.99670
# Velocity P-wave (km/s) = 6.06237 6.73982 6.41005
#
# Compressibility (1/GPa) = 0.03036046
#
# Stress axis : x y z
#
# Youngs Moduli (GPa) = 119.84155 41.11615 76.83197
#
# Poissons Ratio (x) = 0.12647 0.17543
# Poissons Ratio (y) = 0.36863 0.17679
# Poissons Ratio (z) = 0.27364 0.09461
#
# Static dielectric constant tensor:
#      x y z
#    x 3.911240 0.000000 -0.117570 
#    y 0.000000 3.271200 0.000000 
#    z -0.117570 0.000000 3.598960 
# 
# 
# High freq. dielectric constant tensor:
#      x y z
#    x 1.770130 0.000000 -0.021180 
#    y 0.000000 1.720600 0.000000 
#    z -0.021180 0.000000 1.757360 
# 
# From -- ./inp_files/32516.got.cif
#   From: 2010.03.12/outbox.cif.g09.slc.cpg/sg14_17_cif.got.tgz:32516.got - 2010.03.31 13:35:05.
