data_PCOD8128808
_publ_section_title
;
Structure prediction by ZEFSAII (Michael W. Deem and Ramdas Pophale) SiO2 
 PCOD8128808
Probable space group: P 21/C
;
_chemical_formula_sum "Si O2"
_cell_formula_units_Z 32
_cell_length_a 14.529204
_cell_length_b 23.071229
_cell_length_c 9.176091
_cell_angle_alpha 90.000000
_cell_angle_beta 30.024642
_cell_angle_gamma 90.000000
_cell_volume 1539.088613
_symmetry_space_group_name_H-M "P 21/C"
_symmetry_group_IT_number 14
_symmetry_cell_setting 'monoclinic'
loop_
_space_group_symop_operation_xyz
x,y,z
-x,1/2+y,1/2-z
-x,-y,-z
x,1/2-y,1/2+z
loop_
_atom_site_type_symbol
_atom_site_label
_atom_site_fract_x
_atom_site_fract_y
_atom_site_fract_z
Si Si1 0.693328 0.378171 0.671824
Si Si2 0.952898 0.940832 0.384999
Si Si3 0.118686 0.769468 0.950237
Si Si4 0.317700 0.657218 0.636026
Si Si5 0.867714 0.728047 0.541608
Si Si6 0.665159 0.626899 0.678721
Si Si7 0.673720 0.652225 0.333612
Si Si8 0.032534 0.931426 0.614557
O O1 0.744799 0.317026 0.673255
O O2 0.640716 0.373455 0.574122
O O3 0.866980 0.421165 0.452671
O O4 0.513555 0.402663 0.002057
O O5 0.781975 0.897605 0.594421
O O6 0.995190 0.937810 0.496411
O O7 0.901677 0.006710 0.409594
O O8 0.233761 0.719697 0.709372
O O9 0.019741 0.733265 0.210518
O O10 0.968473 0.797958 0.047009
O O11 0.499438 0.668527 0.478005
O O12 0.188849 0.617340 0.916914
O O13 0.702113 0.687506 0.712596
O O14 0.799766 0.791722 0.677337
O O15 0.619076 0.633679 0.571370
O O16 0.845704 0.587254 0.453155
#
# Coordination Sequence:
#
# PCOD8128808 Si02
#       8
#     4   4   4   4   4   4   4   4
#     4  11  24  38  60  92 120 154 196 246 298 347
#     4   9  19  40  63  83 116 159 200 244 292 348
#     4  12  22  39  63  87 121 159 196 240 294 354
#     4  11  23  39  60  89 120 157 200 238 293 359
#     4  12  22  39  63  87 121 159 196 240 294 354
#     4  11  24  38  60  92 120 154 196 246 298 347
#     4  11  23  39  60  89 120 157 200 238 293 359
#     4   9  19  40  63  83 116 159 200 244 292 348
#
# _framework density 20.791526000000001
#
# number of rings (size 3 to 8) (size 9 to 14) (size 15 to 20)
#    0.000    1.250    5.000    1.500    3.500    3.000 
#    0.000    0.000    0.000    5.250    0.000    0.000 
#    0.000    0.000    0.000    0.000    0.000    0.000 
#
# Total GULP energy -396775.837073 kJ/mol
# GULP energy per Si atom -12399.244909 kJ/mol
# Density = 2.074420 g / cm^3
# Si number density = 20.791526 Si / 1000 Ang^3
#
#
#
# Elastic Constant Matrix: (Units=GPa)
#
#
# Indices 1 2 3 4 5 6 
#
# 1 84.6733 13.9926 23.5307 0.0000 -10.9812 0.0000
# 2 13.9926 76.9450 27.9164 0.0000 0.2425 0.0000
# 3 23.5307 27.9164 124.8480 0.0000 -0.7481 0.0000
# 4 0.0000 0.0000 0.0000 18.1893 0.0000 -3.1264
# 5 -10.9812 0.2425 -0.7481 0.0000 24.2660 0.0000
# 6 0.0000 0.0000 0.0000 -3.1264 0.0000 16.0407
#
#
#
# Elastic Compliance Matrix: (Units=1/GPa)
#
#
# Indices 1 2 3 4 5 6 
#
# 1 0.013464 -0.001698 -0.002122 0.000000 0.006045 0.000000
# 2 -0.001698 0.014359 -0.002897 0.000000 -0.001001 0.000000
# 3 -0.002122 -0.002897 0.009053 0.000000 -0.000652 0.000000
# 4 0.000000 0.000000 0.000000 0.056883 0.000000 0.011087
# 5 0.006045 -0.001001 -0.000652 0.000000 0.043935 0.000000
# 6 0.000000 0.000000 0.000000 0.011087 0.000000 0.064502
#
#
# Mechanical properties :
#
#
# Convention : Reuss Voigt Hill
#
# Bulk Modulus (GPa) = 42.65448 46.37176 44.51312
# Shear Modulus (GPa) = 22.37692 26.43431 24.40562
#
# Velocity S-wave (km/s) = 3.28419 3.56954 3.42983
# Velocity P-wave (km/s) = 5.91109 6.27219 6.09432
#
# Compressibility (1/GPa) = 0.02344420
#
# Stress axis : x y z
#
# Youngs Moduli (GPa) = 74.27078 69.64191 110.45483
#
# Poissons Ratio (x) = 0.11823 0.23437
# Poissons Ratio (y) = 0.12609 0.31996
# Poissons Ratio (z) = 0.15759 0.20174
#
# Static dielectric constant tensor:
#      x y z
#    x 3.536750 0.000000 -0.020310 
#    y 0.000000 4.002620 0.000000 
#    z -0.020310 0.000000 3.875390 
# 
# 
# High freq. dielectric constant tensor:
#      x y z
#    x 1.796850 0.000000 -0.004000 
#    y 0.000000 1.800780 0.000000 
#    z -0.004000 0.000000 1.819740 
# 
# From -- ./inp_files/17029.got.cif
#   From: 2010.03.12/outbox.cif.g09.slc.cpg/sg14_9_cif.got.tgz:17029.got - 2010.03.31 13:35:05.
