data_PCOD8128817
_publ_section_title
;
Structure prediction by ZEFSAII (Michael W. Deem and Ramdas Pophale) SiO2 
 PCOD8128817
Probable space group: P 21/C
;
_chemical_formula_sum "Si O2"
_cell_formula_units_Z 28
_cell_length_a 27.729528
_cell_length_b 5.119496
_cell_length_c 8.887791
_cell_angle_alpha 90.000000
_cell_angle_beta 76.360520
_cell_angle_gamma 90.000000
_cell_volume 1226.139411
_symmetry_space_group_name_H-M "P 21/C"
_symmetry_group_IT_number 14
_symmetry_cell_setting 'monoclinic'
loop_
_space_group_symop_operation_xyz
x,y,z
-x,1/2+y,1/2-z
-x,-y,-z
x,1/2-y,1/2+z
loop_
_atom_site_type_symbol
_atom_site_label
_atom_site_fract_x
_atom_site_fract_y
_atom_site_fract_z
Si Si1 0.181133 0.066659 0.256037
Si Si2 0.023555 0.781367 0.083843
Si Si3 0.633772 0.979463 0.208829
Si Si4 0.216639 0.554997 0.061227
Si Si5 0.481027 0.054813 0.680162
Si Si6 0.669950 0.030386 0.516171
Si Si7 0.070005 0.459165 0.793850
O O1 0.214384 0.306539 0.174381
O O2 0.190692 0.806032 0.153406
O O3 0.190945 0.012897 0.423029
O O4 0.124213 0.161987 0.278148
O O5 0.071425 0.839215 0.154576
O O6 0.975505 0.726207 0.227277
O O7 0.048444 0.554584 0.968158
O O8 0.000000 0.000000 0.000000
O O9 0.577534 0.899807 0.282682
O O10 0.662302 0.017965 0.343721
O O11 0.634748 0.248293 0.113840
O O12 0.659510 0.750629 0.095624
O O13 0.274083 0.618601 0.990414
O O14 0.506282 0.318963 0.718407
O O15 0.500000 0.000000 0.500000
#
# Coordination Sequence:
#
# PCOD8128817 Si02
#       7
#     4   4   4   4   4   4   4
#     4  12  27  44  74  98 140 171 227 268 357 395
#     4  11  23  40  61  88 125 161 210 253 315 364
#     4  12  24  43  70 101 132 187 224 279 332 400
#     4  12  26  48  69 104 132 180 215 294 334 403
#     4  12  25  43  66  99 144 180 226 278 334 396
#     4  12  25  45  71  98 137 171 239 275 339 398
#     4  11  25  40  65  92 124 168 209 265 310 406
#
# _framework density 22.835902999999998
#
# number of rings (size 3 to 8) (size 9 to 14) (size 15 to 20)
#    0.000    0.286    1.429    8.143    4.000    0.000 
#    0.000    0.000    0.000    0.000    0.000    0.000 
#    0.000    0.000    0.000    0.000    0.000    0.000 
#
# Total GULP energy -347142.824300 kJ/mol
# GULP energy per Si atom -12397.958011 kJ/mol
# Density = 2.278393 g / cm^3
# Si number density = 22.835903 Si / 1000 Ang^3
#
#
#
# Elastic Constant Matrix: (Units=GPa)
#
#
# Indices 1 2 3 4 5 6 
#
# 1 110.5549 0.1020 4.8874 0.0000 -4.1952 0.0000
# 2 0.1020 87.0600 15.4232 0.0000 -2.8923 0.0000
# 3 4.8874 15.4232 79.5728 0.0000 -2.0297 0.0000
# 4 0.0000 0.0000 0.0000 39.7617 0.0000 -0.0495
# 5 -4.1952 -2.8923 -2.0297 0.0000 32.4924 0.0000
# 6 0.0000 0.0000 0.0000 -0.0495 0.0000 31.4571
#
#
#
# Elastic Compliance Matrix: (Units=1/GPa)
#
#
# Indices 1 2 3 4 5 6 
#
# 1 0.009113 0.000126 -0.000555 0.000000 0.001153 0.000000
# 2 0.000126 0.011924 -0.002295 0.000000 0.000934 0.000000
# 3 -0.000555 -0.002295 0.013060 0.000000 0.000540 0.000000
# 4 0.000000 0.000000 0.000000 0.025150 0.000000 0.000040
# 5 0.001153 0.000934 0.000540 0.000000 0.031042 0.000000
# 6 0.000000 0.000000 0.000000 0.000040 0.000000 0.031789
#
#
# Mechanical properties :
#
#
# Convention : Reuss Voigt Hill
#
# Bulk Modulus (GPa) = 34.90484 35.33475 35.11980
# Shear Modulus (GPa) = 36.47612 37.86058 37.16835
#
# Velocity S-wave (km/s) = 4.00098 4.07620 4.03876
# Velocity P-wave (km/s) = 6.05492 6.13684 6.09602
#
# Compressibility (1/GPa) = 0.02864932
#
# Stress axis : x y z
#
# Youngs Moduli (GPa) = 109.72795 83.86587 76.57091
#
# Poissons Ratio (x) = -0.01056 0.04248
# Poissons Ratio (y) = -0.01382 0.17573
# Poissons Ratio (z) = 0.06087 0.19247
#
# Static dielectric constant tensor:
#      x y z
#    x 4.431760 0.000000 0.009760 
#    y 0.000000 7.722410 0.000000 
#    z 0.009760 0.000000 3.986850 
# 
# 
# High freq. dielectric constant tensor:
#      x y z
#    x 1.913030 0.000000 0.004840 
#    y 0.000000 1.907450 0.000000 
#    z 0.004840 0.000000 1.923780 
# 
# From -- ./inp_files/19594.got.cif
#   From: 2010.03.12/outbox.cif.g09.slc.cpg/sg14_10_cif.got.tgz:19594.got - 2010.03.31 13:35:05.
