data_PCOD8128328
_publ_section_title
;
Structure prediction by ZEFSAII (Michael W. Deem and Ramdas Pophale) SiO2 
 PCOD8128328
Probable space group: P 21/C
;
_chemical_formula_sum "Si O2"
_cell_formula_units_Z 32
_cell_length_a 11.804141
_cell_length_b 13.937723
_cell_length_c 8.715811
_cell_angle_alpha 90.000000
_cell_angle_beta 86.593811
_cell_angle_gamma 90.000000
_cell_volume 1431.416851
_symmetry_space_group_name_H-M "P 21/C"
_symmetry_group_IT_number 14
_symmetry_cell_setting 'monoclinic'
loop_
_space_group_symop_operation_xyz
x,y,z
-x,1/2+y,1/2-z
-x,-y,-z
x,1/2-y,1/2+z
loop_
_atom_site_type_symbol
_atom_site_label
_atom_site_fract_x
_atom_site_fract_y
_atom_site_fract_z
Si Si1 0.528140 0.558450 0.649532
Si Si2 0.324001 0.575160 0.865116
Si Si3 0.596157 0.377887 0.815859
Si Si4 0.820136 0.151444 0.144512
Si Si5 0.115768 0.839373 0.215546
Si Si6 0.340709 0.145654 0.335526
Si Si7 0.725313 0.825066 0.002901
Si Si8 0.917419 0.953998 0.129105
O O1 0.500000 0.500000 0.500000
O O2 0.413047 0.604605 0.724939
O O3 0.581815 0.489356 0.773136
O O4 0.615768 0.641266 0.605918
O O5 0.199931 0.605771 0.822351
O O6 0.326655 0.461815 0.896468
O O7 0.355875 0.631218 0.016632
O O8 0.687438 0.328024 0.694035
O O9 0.474085 0.325932 0.813124
O O10 0.897739 0.229732 0.225747
O O11 0.850158 0.044554 0.208179
O O12 0.837899 0.157614 0.961487
O O13 0.994021 0.892861 0.241965
O O14 0.271532 0.211640 0.461291
O O15 0.283031 0.156160 0.175419
O O16 0.835517 0.879349 0.052704
O O17 0.000000 0.000000 0.000000
#
# Coordination Sequence:
#
# PCOD8128328 Si02
#       8
#     4   4   4   4   4   4   4   4
#     4  11  20  40  66  91 135 179 218 273 344 394
#     4  11  24  43  65 100 140 177 227 280 333 407
#     4  11  23  41  67  97 138 178 220 278 337 409
#     4  11  23  44  69  99 129 177 230 275 341 400
#     4  11  25  43  71  98 131 178 229 288 328 398
#     4  11  26  39  63 100 140 175 219 270 341 407
#     4  12  25  41  66 100 134 184 218 277 337 408
#     4  10  24  46  71  92 133 178 229 280 337 396
#
# _framework density 22.355471999999999
#
# number of rings (size 3 to 8) (size 9 to 14) (size 15 to 20)
#    0.000    1.000    3.750    4.500    5.250    3.000 
#    0.000    2.500    0.000    0.000    0.000    0.000 
#    0.000    0.000    0.000    0.000    0.000    0.000 
#
# Total GULP energy -396845.719364 kJ/mol
# GULP energy per Si atom -12401.428730 kJ/mol
# Density = 2.230459 g / cm^3
# Si number density = 22.355472 Si / 1000 Ang^3
#
#
#
# Elastic Constant Matrix: (Units=GPa)
#
#
# Indices 1 2 3 4 5 6 
#
# 1 115.7041 39.3075 30.8914 0.0000 29.0670 0.0000
# 2 39.3075 76.3629 11.9775 0.0000 8.4676 0.0000
# 3 30.8914 11.9775 90.9056 0.0000 20.6547 0.0000
# 4 0.0000 0.0000 0.0000 33.7672 0.0000 -0.2971
# 5 29.0670 8.4676 20.6547 0.0000 37.5200 0.0000
# 6 0.0000 0.0000 0.0000 -0.2971 0.0000 36.1313
#
#
#
# Elastic Compliance Matrix: (Units=1/GPa)
#
#
# Indices 1 2 3 4 5 6 
#
# 1 0.012978 -0.005520 -0.001922 0.000000 -0.007751 0.000000
# 2 -0.005520 0.015901 -0.000429 0.000000 0.000924 0.000000
# 3 -0.001922 -0.000429 0.012972 0.000000 -0.005555 0.000000
# 4 0.000000 0.000000 0.000000 0.029617 0.000000 0.000244
# 5 -0.007751 0.000924 -0.005555 0.000000 0.035507 0.000000
# 6 0.000000 0.000000 0.000000 0.000244 0.000000 0.027679
#
#
# Mechanical properties :
#
#
# Convention : Reuss Voigt Hill
#
# Bulk Modulus (GPa) = 38.29929 49.70284 44.00107
# Shear Modulus (GPa) = 31.42695 34.87011 33.14853
#
# Velocity S-wave (km/s) = 3.75345 3.95372 3.85488
# Velocity P-wave (km/s) = 5.99613 6.56687 6.28798
#
# Compressibility (1/GPa) = 0.02611014
#
# Stress axis : x y z
#
# Youngs Moduli (GPa) = 77.05311 62.88738 77.08697
#
# Poissons Ratio (x) = 0.34711 0.14816
# Poissons Ratio (y) = 0.42530 0.03310
# Poissons Ratio (z) = 0.14809 0.02700
#
# Static dielectric constant tensor:
#      x y z
#    x 4.335020 0.000000 0.009360 
#    y 0.000000 4.404320 0.000000 
#    z 0.009360 0.000000 3.879470 
# 
# 
# High freq. dielectric constant tensor:
#      x y z
#    x 1.881000 0.000000 0.007280 
#    y 0.000000 1.887190 0.000000 
#    z 0.007280 0.000000 1.871160 
# 
# From -- ./inp_files/13107.got.cif
#   From: 2010.03.12/outbox.cif.g09.slc.cpg/sg14_7_cif.got.tgz:13107.got - 2010.03.31 13:35:05.
