data_PCOD8128914
_publ_section_title
;
Structure prediction by ZEFSAII (Michael W. Deem and Ramdas Pophale) SiO2 
 PCOD8128914
Probable space group: P 21/C
;
_chemical_formula_sum "Si O2"
_cell_formula_units_Z 24
_cell_length_a 10.737274
_cell_length_b 8.047255
_cell_length_c 11.357982
_cell_angle_alpha 90.000000
_cell_angle_beta 107.989875
_cell_angle_gamma 90.000000
_cell_volume 933.413826
_symmetry_space_group_name_H-M "P 21/C"
_symmetry_group_IT_number 14
_symmetry_cell_setting 'monoclinic'
loop_
_space_group_symop_operation_xyz
x,y,z
-x,1/2+y,1/2-z
-x,-y,-z
x,1/2-y,1/2+z
loop_
_atom_site_type_symbol
_atom_site_label
_atom_site_fract_x
_atom_site_fract_y
_atom_site_fract_z
Si Si1 0.102740 0.166729 0.716287
Si Si2 0.683641 0.210947 0.581479
Si Si3 0.905162 0.071558 0.076513
Si Si4 0.529313 0.693337 0.336281
Si Si5 0.235326 0.017815 0.191557
Si Si6 0.314097 0.986380 0.644258
O O1 0.204332 0.320820 0.763863
O O2 0.169924 0.022841 0.655984
O O3 0.978858 0.251458 0.615631
O O4 0.056280 0.081157 0.824929
O O5 0.755979 0.378867 0.563534
O O6 0.529130 0.265098 0.550213
O O7 0.742294 0.140559 0.721479
O O8 0.700626 0.060007 0.495843
O O9 0.894038 0.009547 0.933942
O O10 0.637037 0.547579 0.354677
O O11 0.596521 0.855799 0.305976
O O12 0.392519 0.662740 0.227974
#
# Coordination Sequence:
#
# PCOD8128914 Si02
#       6
#     4   4   4   4   4   4
#     4  11  27  50  76 106 143 198 253 305 377 428
#     4  12  25  46  74 110 155 198 245 302 379 438
#     4  12  27  50  78 106 150 195 255 311 365 450
#     4  11  23  43  72 109 148 192 246 298 376 435
#     4  11  27  47  74 112 152 193 248 308 374 445
#     4  11  25  46  73 110 150 196 245 307 371 452
#
# _framework density 25.712069
#
# number of rings (size 3 to 8) (size 9 to 14) (size 15 to 20)
#    0.000    0.667    3.333    3.000    4.667    2.667 
#    0.000    0.000    0.000    0.000    0.000    0.000 
#    0.000    0.000    0.000    0.000    0.000    0.000 
#
# Total GULP energy -297393.819265 kJ/mol
# GULP energy per Si atom -12391.409136 kJ/mol
# Density = 2.565355 g / cm^3
# Si number density = 25.712069 Si / 1000 Ang^3
#
#
#
# Elastic Constant Matrix: (Units=GPa)
#
#
# Indices 1 2 3 4 5 6 
#
# 1 103.6898 29.4108 49.9455 0.0000 -7.4210 0.0000
# 2 29.4108 106.8715 66.1038 0.0000 -3.5743 0.0000
# 3 49.9455 66.1038 127.9176 0.0000 -7.0123 0.0000
# 4 0.0000 0.0000 0.0000 34.3094 0.0000 1.7374
# 5 -7.4210 -3.5743 -7.0123 0.0000 37.5693 0.0000
# 6 0.0000 0.0000 0.0000 1.7374 0.0000 57.1696
#
#
#
# Elastic Compliance Matrix: (Units=1/GPa)
#
#
# Indices 1 2 3 4 5 6 
#
# 1 0.011988 -0.000595 -0.004290 0.000000 0.001511 0.000000
# 2 -0.000595 0.013783 -0.006895 0.000000 -0.000093 0.000000
# 3 -0.004290 -0.006895 0.013108 0.000000 0.000943 0.000000
# 4 0.000000 0.000000 0.000000 0.029191 0.000000 -0.000887
# 5 0.001511 -0.000093 0.000943 0.000000 0.027083 0.000000
# 6 0.000000 0.000000 0.000000 -0.000887 0.000000 0.017519
#
#
# Mechanical properties :
#
#
# Convention : Reuss Voigt Hill
#
# Bulk Modulus (GPa) = 65.28690 69.93324 67.61007
# Shear Modulus (GPa) = 35.37628 38.67756 37.02692
#
# Velocity S-wave (km/s) = 3.71329 3.88268 3.79893
# Velocity P-wave (km/s) = 6.62052 6.88171 6.75238
#
# Compressibility (1/GPa) = 0.01531701
#
# Stress axis : x y z
#
# Youngs Moduli (GPa) = 83.41987 72.55546 76.29083
#
# Poissons Ratio (x) = 0.04314 0.32732
# Poissons Ratio (y) = 0.04960 0.52605
# Poissons Ratio (z) = 0.35791 0.50029
#
# Static dielectric constant tensor:
#      x y z
#    x 5.406560 0.000000 -0.235790 
#    y 0.000000 4.527770 0.000000 
#    z -0.235790 0.000000 4.296910 
# 
# 
# High freq. dielectric constant tensor:
#      x y z
#    x 2.071410 0.000000 -0.012010 
#    y 0.000000 2.036870 0.000000 
#    z -0.012010 0.000000 1.992520 
# 
# From -- ./inp_files/28208.got.cif
#   From: 2010.03.12/outbox.cif.g09.slc.cpg/sg14_15_cif.got.tgz:28208.got - 2010.03.31 13:35:05.
