data_PCOD8128873
_publ_section_title
;
Structure prediction by ZEFSAII (Michael W. Deem and Ramdas Pophale) SiO2 
 PCOD8128873
Probable space group: P 21/C
;
_chemical_formula_sum "Si O2"
_cell_formula_units_Z 24
_cell_length_a 7.827163
_cell_length_b 21.351458
_cell_length_c 7.932303
_cell_angle_alpha 90.000000
_cell_angle_beta 56.318060
_cell_angle_gamma 90.000000
_cell_volume 1103.117698
_symmetry_space_group_name_H-M "P 21/C"
_symmetry_group_IT_number 14
_symmetry_cell_setting 'monoclinic'
loop_
_space_group_symop_operation_xyz
x,y,z
-x,1/2+y,1/2-z
-x,-y,-z
x,1/2-y,1/2+z
loop_
_atom_site_type_symbol
_atom_site_label
_atom_site_fract_x
_atom_site_fract_y
_atom_site_fract_z
Si Si1 0.500218 0.688818 0.419099
Si Si2 0.494263 0.943525 0.375092
Si Si3 0.217605 0.904695 0.259131
Si Si4 0.153784 0.018733 0.057953
Si Si5 0.045640 0.363221 0.827552
Si Si6 0.627285 0.322518 0.890046
O O1 0.387624 0.646978 0.620803
O O2 0.743271 0.675279 0.290689
O O3 0.473970 0.760686 0.480392
O O4 0.388195 0.675759 0.303219
O O5 0.278818 0.942778 0.395261
O O6 0.516368 0.879004 0.465000
O O7 0.500000 0.000000 0.500000
O O8 0.653751 0.950062 0.136729
O O9 0.011768 0.870000 0.440413
O O10 0.198081 0.952142 0.117800
O O11 0.069443 0.067655 0.237591
O O12 0.000000 0.000000 0.000000
O O13 0.865501 0.327861 0.820147
#
# Coordination Sequence:
#
# PCOD8128873 Si02
#       6
#     4   4   4   4   4   4
#     4  12  26  49  75 100 145 197 232 308 362 425
#     4  11  23  42  70 102 143 186 232 301 353 417
#     4  11  24  46  69 106 145 184 240 301 353 435
#     4  12  24  41  71 107 149 186 239 296 364 427
#     4  11  26  46  73 107 141 190 247 288 367 434
#     4  11  27  48  71 105 145 186 251 296 360 438
#
# _framework density 21.756516999999999
#
# number of rings (size 3 to 8) (size 9 to 14) (size 15 to 20)
#    0.000    0.667    1.667    7.000    4.667    2.667 
#    0.000    0.000    0.000    0.000    0.000    0.000 
#    0.000    0.000    0.000    0.000    0.000    0.000 
#
# Total GULP energy -297515.420984 kJ/mol
# GULP energy per Si atom -12396.475874 kJ/mol
# Density = 2.170700 g / cm^3
# Si number density = 21.756517 Si / 1000 Ang^3
#
#
#
# Elastic Constant Matrix: (Units=GPa)
#
#
# Indices 1 2 3 4 5 6 
#
# 1 90.0659 62.1718 45.9128 0.0000 -0.5725 0.0000
# 2 62.1718 167.6245 68.0545 0.0000 -7.6768 0.0000
# 3 45.9128 68.0545 154.2599 0.0000 -14.8285 0.0000
# 4 0.0000 0.0000 0.0000 41.6143 0.0000 3.9841
# 5 -0.5725 -7.6768 -14.8285 0.0000 44.3018 0.0000
# 6 0.0000 0.0000 0.0000 3.9841 0.0000 33.4601
#
#
#
# Elastic Compliance Matrix: (Units=1/GPa)
#
#
# Indices 1 2 3 4 5 6 
#
# 1 0.015817 -0.004831 -0.002725 0.000000 -0.001545 0.000000
# 2 -0.004831 0.008745 -0.002356 0.000000 0.000664 0.000000
# 3 -0.002725 -0.002356 0.008566 0.000000 0.002424 0.000000
# 4 0.000000 0.000000 0.000000 0.024307 0.000000 -0.002894
# 5 -0.001545 0.000664 0.002424 0.000000 0.023479 0.000000
# 6 0.000000 0.000000 0.000000 -0.002894 0.000000 0.030231
#
#
# Mechanical properties :
#
#
# Convention : Reuss Voigt Hill
#
# Bulk Modulus (GPa) = 75.16760 84.91430 80.04095
# Shear Modulus (GPa) = 36.92680 39.59598 38.26139
#
# Velocity S-wave (km/s) = 4.12427 4.27073 4.19814
# Velocity P-wave (km/s) = 7.56994 7.96448 7.76971
#
# Compressibility (1/GPa) = 0.01330360
#
# Stress axis : x y z
#
# Youngs Moduli (GPa) = 63.22305 114.35754 116.74074
#
# Poissons Ratio (x) = 0.55246 0.31810
# Poissons Ratio (y) = 0.30543 0.27505
# Poissons Ratio (z) = 0.17228 0.26944
#
# Static dielectric constant tensor:
#      x y z
#    x 3.995730 0.000000 0.058210 
#    y 0.000000 3.807610 0.000000 
#    z 0.058210 0.000000 4.207840 
# 
# 
# High freq. dielectric constant tensor:
#      x y z
#    x 1.856700 0.000000 0.005340 
#    y 0.000000 1.862970 0.000000 
#    z 0.005340 0.000000 1.879270 
# 
# From -- ./inp_files/10125.got.cif
#   From: 2010.03.12/outbox.cif.g09.slc.cpg/sg14_6_cif.got.tgz:10125.got - 2010.03.31 13:35:05.
