data_PCOD8128465
_publ_section_title
;
Structure prediction by ZEFSAII (Michael W. Deem and Ramdas Pophale) SiO2 
 PCOD8128465
Probable space group: P 21/C
;
_chemical_formula_sum "Si O2"
_cell_formula_units_Z 28
_cell_length_a 17.090570
_cell_length_b 7.938688
_cell_length_c 17.000469
_cell_angle_alpha 90.000000
_cell_angle_beta 31.436294
_cell_angle_gamma 90.000000
_cell_volume 1202.990805
_symmetry_space_group_name_H-M "P 21/C"
_symmetry_group_IT_number 14
_symmetry_cell_setting 'monoclinic'
loop_
_space_group_symop_operation_xyz
x,y,z
-x,1/2+y,1/2-z
-x,-y,-z
x,1/2-y,1/2+z
loop_
_atom_site_type_symbol
_atom_site_label
_atom_site_fract_x
_atom_site_fract_y
_atom_site_fract_z
Si Si1 0.360692 0.190036 0.176812
Si Si2 0.265485 0.919819 0.480343
Si Si3 0.850217 0.270194 0.767704
Si Si4 0.357338 0.492580 0.521928
Si Si5 0.904781 0.559802 0.007158
Si Si6 0.511188 0.723718 0.190879
Si Si7 0.362038 0.942610 0.671468
O O1 0.344924 0.154438 0.097763
O O2 0.260812 0.074544 0.316735
O O3 0.300955 0.376278 0.251176
O O4 0.531762 0.147273 0.051356
O O5 0.176975 0.904344 0.639167
O O6 0.385650 0.765655 0.365807
O O7 0.131049 0.923753 0.531115
O O8 0.361933 0.092335 0.392274
O O9 0.761814 0.333070 0.766784
O O10 0.021402 0.230787 0.593586
O O11 0.801717 0.086392 0.843014
O O12 0.403100 0.400203 0.401904
O O13 0.000000 0.500000 0.000000
O O14 0.417143 0.666963 0.196411
O O15 0.500000 0.000000 0.500000
#
# Coordination Sequence:
#
# PCOD8128465 Si02
#       7
#     4   4   4   4   4   4   4
#     4  11  21  39  72 104 132 181 243 285 344 418
#     4  12  27  45  70 108 144 188 240 303 364 418
#     4  12  25  46  71 105 148 184 233 294 362 430
#     4  11  19  39  75 103 133 184 233 294 348 413
#     4  12  27  49  70  99 151 194 237 283 367 452
#     4  12  24  43  73 108 141 175 243 303 350 415
#     4  12  21  42  73 106 134 177 239 295 341 423
#
# _framework density 23.275323
#
# number of rings (size 3 to 8) (size 9 to 14) (size 15 to 20)
#    0.000    0.286    7.143    2.571    2.000    1.714 
#    5.143    0.000    0.000    0.000    0.000    0.000 
#    0.000    0.000    0.000    0.000    0.000    0.000 
#
# Total GULP energy -346957.994955 kJ/mol
# GULP energy per Si atom -12391.356963 kJ/mol
# Density = 2.322235 g / cm^3
# Si number density = 23.275323 Si / 1000 Ang^3
#
#
#
# Elastic Constant Matrix: (Units=GPa)
#
#
# Indices 1 2 3 4 5 6 
#
# 1 109.6220 12.4662 13.7593 0.0000 0.7982 0.0000
# 2 12.4662 84.5609 8.7235 0.0000 -7.0322 0.0000
# 3 13.7593 8.7235 86.6513 0.0000 4.9367 0.0000
# 4 0.0000 0.0000 0.0000 37.8385 0.0000 -3.4802
# 5 0.7982 -7.0322 4.9367 0.0000 25.7413 0.0000
# 6 0.0000 0.0000 0.0000 -3.4802 0.0000 32.1766
#
#
#
# Elastic Compliance Matrix: (Units=1/GPa)
#
#
# Indices 1 2 3 4 5 6 
#
# 1 0.009440 -0.001285 -0.001348 0.000000 -0.000385 0.000000
# 2 -0.001285 0.012451 -0.001259 0.000000 0.003683 0.000000
# 3 -0.001348 -0.001259 0.012030 0.000000 -0.002609 0.000000
# 4 0.000000 0.000000 0.000000 0.026694 0.000000 0.002887
# 5 -0.000385 0.003683 -0.002609 0.000000 0.040367 0.000000
# 6 0.000000 0.000000 0.000000 0.002887 0.000000 0.031391
#
#
# Mechanical properties :
#
#
# Convention : Reuss Voigt Hill
#
# Bulk Modulus (GPa) = 38.25841 38.97026 38.61433
# Shear Modulus (GPa) = 33.58658 35.54362 34.56510
#
# Velocity S-wave (km/s) = 3.80282 3.91204 3.85782
# Velocity P-wave (km/s) = 5.97954 6.09795 6.03904
#
# Compressibility (1/GPa) = 0.02613805
#
# Stress axis : x y z
#
# Youngs Moduli (GPa) = 105.92859 80.31228 83.12575
#
# Poissons Ratio (x) = 0.10318 0.11203
# Poissons Ratio (y) = 0.13609 0.10468
# Poissons Ratio (z) = 0.14276 0.10114
#
# Static dielectric constant tensor:
#      x y z
#    x 4.002350 0.000000 0.255570 
#    y 0.000000 10.082370 0.000000 
#    z 0.255570 0.000000 4.322410 
# 
# 
# High freq. dielectric constant tensor:
#      x y z
#    x 1.912500 0.000000 0.019420 
#    y 0.000000 1.917310 0.000000 
#    z 0.019420 0.000000 1.921610 
# 
# From -- ./inp_files/60292.got.cif
#   From: 2010.03.12/outbox.cif.g09.slc.cpg/sg14_31_cif.got.tgz:60292.got - 2010.03.31 13:35:05.
