data_PCOD8128632
_publ_section_title
;
Structure prediction by ZEFSAII (Michael W. Deem and Ramdas Pophale) SiO2 
 PCOD8128632
Probable space group: P 21/C
;
_chemical_formula_sum "Si O2"
_cell_formula_units_Z 24
_cell_length_a 13.163214
_cell_length_b 9.870538
_cell_length_c 13.643854
_cell_angle_alpha 90.000000
_cell_angle_beta 39.702263
_cell_angle_gamma 90.000000
_cell_volume 1132.409536
_symmetry_space_group_name_H-M "P 21/C"
_symmetry_group_IT_number 14
_symmetry_cell_setting 'monoclinic'
loop_
_space_group_symop_operation_xyz
x,y,z
-x,1/2+y,1/2-z
-x,-y,-z
x,1/2-y,1/2+z
loop_
_atom_site_type_symbol
_atom_site_label
_atom_site_fract_x
_atom_site_fract_y
_atom_site_fract_z
Si Si1 0.028633 0.898049 0.289672
Si Si2 0.952097 0.805002 0.692729
Si Si3 0.421337 0.612524 0.166324
Si Si4 0.795366 0.149090 0.651115
Si Si5 0.683880 0.888840 0.634530
Si Si6 0.641145 0.682130 0.834029
O O1 0.168282 0.861082 0.261219
O O2 0.054746 0.806397 0.174416
O O3 0.856663 0.858656 0.461334
O O4 0.051351 0.055436 0.241913
O O5 0.780017 0.746315 0.796479
O O6 0.036105 0.847525 0.529374
O O7 0.298433 0.715394 0.305911
O O8 0.565737 0.584105 0.132693
O O9 0.324094 0.474244 0.218911
O O10 0.483215 0.679740 0.018641
O O11 0.688857 0.022253 0.697904
O O12 0.619514 0.766233 0.749826
#
# Coordination Sequence:
#
# PCOD8128632 Si02
#       6
#     4   4   4   4   4   4
#     4  11  23  41  70  95 127 169 221 265 320 379
#     4  11  23  43  68  93 128 171 213 269 319 379
#     4  11  26  39  66  97 132 169 211 265 321 389
#     4  11  24  43  65  98 126 166 221 269 313 381
#     4  11  21  45  66  90 130 175 212 260 327 379
#     4  11  23  44  64  92 132 171 207 264 327 376
#
# _framework density 21.193746000000001
#
# number of rings (size 3 to 8) (size 9 to 14) (size 15 to 20)
#    0.000    1.000    5.000    2.000    2.333    5.333 
#    3.000    0.000    0.000    0.000    0.000    0.000 
#    0.000    0.000    0.000    0.000    0.000    0.000 
#
# Total GULP energy -297665.539959 kJ/mol
# GULP energy per Si atom -12402.730832 kJ/mol
# Density = 2.114551 g / cm^3
# Si number density = 21.193746 Si / 1000 Ang^3
#
#
#
# Elastic Constant Matrix: (Units=GPa)
#
#
# Indices 1 2 3 4 5 6 
#
# 1 76.5966 33.0666 6.1282 0.0000 0.7792 0.0000
# 2 33.0666 151.9979 40.5286 0.0000 -1.6597 0.0000
# 3 6.1282 40.5286 38.4175 0.0000 3.1082 0.0000
# 4 0.0000 0.0000 0.0000 39.0727 0.0000 2.6858
# 5 0.7792 -1.6597 3.1082 0.0000 24.5524 0.0000
# 6 0.0000 0.0000 0.0000 2.6858 0.0000 41.5634
#
#
#
# Elastic Compliance Matrix: (Units=1/GPa)
#
#
# Indices 1 2 3 4 5 6 
#
# 1 0.014482 -0.003567 0.001525 0.000000 -0.000894 0.000000
# 2 -0.003567 0.010117 -0.010274 0.000000 0.002098 0.000000
# 3 0.001525 -0.010274 0.037065 0.000000 -0.005435 0.000000
# 4 0.000000 0.000000 0.000000 0.025707 0.000000 -0.001661
# 5 -0.000894 0.002098 -0.005435 0.000000 0.041587 0.000000
# 6 0.000000 0.000000 0.000000 -0.001661 0.000000 0.024167
#
#
# Mechanical properties :
#
#
# Convention : Reuss Voigt Hill
#
# Bulk Modulus (GPa) = 27.00311 47.38433 37.19372
# Shear Modulus (GPa) = 26.30156 33.52360 29.91258
#
# Velocity S-wave (km/s) = 3.52661 3.98146 3.76092
# Velocity P-wave (km/s) = 5.41769 6.59866 6.03712
#
# Compressibility (1/GPa) = 0.03703278
#
# Stress axis : x y z
#
# Youngs Moduli (GPa) = 69.04959 98.83942 26.97967
#
# Poissons Ratio (x) = 0.35256 -0.04115
# Poissons Ratio (y) = 0.24630 0.27719
# Poissons Ratio (z) = -0.10531 1.01549
#
# Static dielectric constant tensor:
#      x y z
#    x 3.770420 0.000000 0.152150 
#    y 0.000000 4.059520 0.000000 
#    z 0.152150 0.000000 3.567740 
# 
# 
# High freq. dielectric constant tensor:
#      x y z
#    x 1.839180 0.000000 0.006980 
#    y 0.000000 1.845480 0.000000 
#    z 0.006980 0.000000 1.810010 
# 
# From -- ./inp_files/46340.got.cif
#   From: 2010.03.12/outbox.cif.g09.slc.cpg/sg14_24_cif.got.tgz:46340.got - 2010.03.31 13:35:05.
