data_PCOD8128363
_publ_section_title
;
Structure prediction by ZEFSAII (Michael W. Deem and Ramdas Pophale) SiO2 
 PCOD8128363
Probable space group: P 21/C
;
_chemical_formula_sum "Si O2"
_cell_formula_units_Z 28
_cell_length_a 10.970114
_cell_length_b 16.397286
_cell_length_c 11.428699
_cell_angle_alpha 90.000000
_cell_angle_beta 145.648265
_cell_angle_gamma 90.000000
_cell_volume 1160.027296
_symmetry_space_group_name_H-M "P 21/C"
_symmetry_group_IT_number 14
_symmetry_cell_setting 'monoclinic'
loop_
_space_group_symop_operation_xyz
x,y,z
-x,1/2+y,1/2-z
-x,-y,-z
x,1/2-y,1/2+z
loop_
_atom_site_type_symbol
_atom_site_label
_atom_site_fract_x
_atom_site_fract_y
_atom_site_fract_z
Si Si1 0.295395 0.121065 0.508195
Si Si2 0.831792 0.793492 0.159063
Si Si3 0.724668 0.351470 0.042629
Si Si4 0.846088 0.430732 0.619333
Si Si5 0.258505 0.937409 0.211969
Si Si6 0.681144 0.581642 0.376626
Si Si7 0.500620 0.684057 0.591808
O O1 0.195539 0.197135 0.358718
O O2 0.480605 0.076074 0.580801
O O3 0.386279 0.154511 0.700964
O O4 0.090996 0.060033 0.361339
O O5 0.669827 0.833414 0.123161
O O6 0.081207 0.816553 0.382913
O O7 0.776248 0.829989 0.985251
O O8 0.577233 0.410936 0.847480
O O9 0.571927 0.278453 0.967450
O O10 0.830849 0.401953 0.236894
O O11 0.840485 0.392774 0.481319
O O12 0.728541 0.519465 0.522524
O O13 0.712971 0.370634 0.599284
O O14 0.215211 0.036514 0.158372
#
# Coordination Sequence:
#
# PCOD8128363 Si02
#       7
#     4   4   4   4   4   4   4
#     4  11  21  45  67  95 131 183 223 264 340 395
#     4  12  26  40  71 102 129 177 231 271 330 407
#     4  12  23  43  69 103 132 173 226 285 330 384
#     4   9  23  44  67  93 137 182 210 271 342 393
#     4   9  23  42  70  95 142 172 215 280 330 397
#     4  10  25  43  65 104 138 170 227 272 339 397
#     4  11  24  44  67  98 134 174 224 279 327 399
#
# _framework density 24.137362
#
# number of rings (size 3 to 8) (size 9 to 14) (size 15 to 20)
#    0.857    0.571    4.286    0.429    2.000    4.571 
#    0.000    1.429    0.000    0.000    0.000    0.000 
#    0.000    0.000    0.000    0.000    0.000    0.000 
#
# Total GULP energy -346950.770245 kJ/mol
# GULP energy per Si atom -12391.098937 kJ/mol
# Density = 2.408242 g / cm^3
# Si number density = 24.137362 Si / 1000 Ang^3
#
#
#
# Elastic Constant Matrix: (Units=GPa)
#
#
# Indices 1 2 3 4 5 6 
#
# 1 89.0967 6.1559 -0.1443 0.0000 20.2342 0.0000
# 2 6.1559 75.2550 -1.9187 0.0000 -5.7737 0.0000
# 3 -0.1443 -1.9187 45.4586 0.0000 -1.7142 0.0000
# 4 0.0000 0.0000 0.0000 50.4122 0.0000 3.9861
# 5 20.2342 -5.7737 -1.7142 0.0000 16.4547 0.0000
# 6 0.0000 0.0000 0.0000 3.9861 0.0000 23.8207
#
#
#
# Elastic Compliance Matrix: (Units=1/GPa)
#
#
# Indices 1 2 3 4 5 6 
#
# 1 0.016211 -0.002964 -0.000868 0.000000 -0.021065 0.000000
# 2 -0.002964 0.014224 0.000920 0.000000 0.008732 0.000000
# 3 -0.000868 0.000920 0.022174 0.000000 0.003700 0.000000
# 4 0.000000 0.000000 0.000000 0.020102 0.000000 -0.003364
# 5 -0.021065 0.008732 0.003700 0.000000 0.090126 0.000000
# 6 0.000000 0.000000 0.000000 -0.003364 0.000000 0.042543
#
#
# Mechanical properties :
#
#
# Convention : Reuss Voigt Hill
#
# Bulk Modulus (GPa) = 21.37459 24.22180 22.79819
# Shear Modulus (GPa) = 22.04585 31.85201 26.94893
#
# Velocity S-wave (km/s) = 3.02545 3.63659 3.34501
# Velocity P-wave (km/s) = 4.59119 5.26211 4.93806
#
# Compressibility (1/GPa) = 0.04678453
#
# Stress axis : x y z
#
# Youngs Moduli (GPa) = 61.68577 70.30345 45.09859
#
# Poissons Ratio (x) = 0.20841 0.03915
# Poissons Ratio (y) = 0.18286 -0.04150
# Poissons Ratio (z) = 0.05354 -0.06470
#
# Static dielectric constant tensor:
#      x y z
#    x 3.944590 0.000000 0.234990 
#    y 0.000000 4.338930 0.000000 
#    z 0.234990 0.000000 4.407780 
# 
# 
# High freq. dielectric constant tensor:
#      x y z
#    x 1.918300 0.000000 0.025770 
#    y 0.000000 1.959260 0.000000 
#    z 0.025770 0.000000 1.970720 
# 
# From -- ./inp_files/30688.got.cif
#   From: 2010.03.12/outbox.cif.g09.slc.cpg/sg14_16_cif.got.tgz:30688.got - 2010.03.31 13:35:05.
