data_PCOD8128351
_publ_section_title
;
Structure prediction by ZEFSAII (Michael W. Deem and Ramdas Pophale) SiO2 
 PCOD8128351
Probable space group: P 21/C
;
_chemical_formula_sum "Si O2"
_cell_formula_units_Z 28
_cell_length_a 28.051246
_cell_length_b 8.665822
_cell_length_c 27.886191
_cell_angle_alpha 90.000000
_cell_angle_beta 10.496458
_cell_angle_gamma 90.000000
_cell_volume 1234.921293
_symmetry_space_group_name_H-M "P 21/C"
_symmetry_group_IT_number 14
_symmetry_cell_setting 'monoclinic'
loop_
_space_group_symop_operation_xyz
x,y,z
-x,1/2+y,1/2-z
-x,-y,-z
x,1/2-y,1/2+z
loop_
_atom_site_type_symbol
_atom_site_label
_atom_site_fract_x
_atom_site_fract_y
_atom_site_fract_z
Si Si1 0.977635 0.072057 0.824125
Si Si2 0.765704 0.549763 0.024765
Si Si3 0.984499 0.926130 0.914613
Si Si4 0.548804 0.753205 0.167023
Si Si5 0.496947 0.067943 0.450473
Si Si6 0.031929 0.427634 0.070526
Si Si7 0.516247 0.932550 0.036817
O O1 0.037618 0.993020 0.712736
O O2 0.205875 0.201000 0.609223
O O3 0.700317 0.153191 0.101497
O O4 0.977635 0.938001 0.863764
O O5 0.632008 0.712406 0.140198
O O6 0.523026 0.431012 0.269168
O O7 0.933044 0.566672 0.906956
O O8 0.988498 0.748498 0.926495
O O9 0.240979 0.010824 0.677807
O O10 0.742941 0.011727 0.177224
O O11 0.498485 0.250649 0.452080
O O12 0.500000 0.000000 0.500000
O O13 0.775735 0.517610 0.307928
O O14 0.276728 0.506549 0.804196
O O15 0.500000 0.000000 0.000000
#
# Coordination Sequence:
#
# PCOD8128351 Si02
#       7
#     4   4   4   4   4   4   4
#     4  10  26  42  70  97 149 184 245 285 354 423
#     4  10  28  42  73  99 149 189 248 286 370 407
#     4  12  26  47  75 111 143 199 244 302 366 444
#     4  10  25  41  67  96 142 188 241 290 346 422
#     4  12  27  50  79 106 145 190 247 302 375 448
#     4  12  28  45  79 107 150 188 251 302 372 438
#     4  12  28  51  75 110 147 188 238 315 376 440
#
# _framework density 22.673511000000001
#
# number of rings (size 3 to 8) (size 9 to 14) (size 15 to 20)
#    0.857    0.000    0.000    5.143   14.000    0.000 
#    0.000    0.000    0.000    0.000    0.000    0.000 
#    0.000    0.000    0.000    0.000    0.000    0.000 
#
# Total GULP energy -347183.376137 kJ/mol
# GULP energy per Si atom -12399.406291 kJ/mol
# Density = 2.262191 g / cm^3
# Si number density = 22.673511 Si / 1000 Ang^3
#
#
#
# Elastic Constant Matrix: (Units=GPa)
#
#
# Indices 1 2 3 4 5 6 
#
# 1 154.8847 63.7634 79.3339 0.0000 -12.4764 0.0000
# 2 63.7634 172.1121 54.1191 0.0000 -16.8339 0.0000
# 3 79.3339 54.1191 174.8727 0.0000 -25.3372 0.0000
# 4 0.0000 0.0000 0.0000 35.5406 0.0000 -2.1748
# 5 -12.4764 -16.8339 -25.3372 0.0000 51.2508 0.0000
# 6 0.0000 0.0000 0.0000 -2.1748 0.0000 37.3127
#
#
#
# Elastic Compliance Matrix: (Units=1/GPa)
#
#
# Indices 1 2 3 4 5 6 
#
# 1 0.009178 -0.002331 -0.003479 0.000000 -0.000251 0.000000
# 2 -0.002331 0.007100 -0.000952 0.000000 0.001294 0.000000
# 3 -0.003479 -0.000952 0.007996 0.000000 0.002793 0.000000
# 4 0.000000 0.000000 0.000000 0.028238 0.000000 0.001646
# 5 -0.000251 0.001294 0.002793 0.000000 0.021257 0.000000
# 6 0.000000 0.000000 0.000000 0.001646 0.000000 0.026896
#
#
# Mechanical properties :
#
#
# Convention : Reuss Voigt Hill
#
# Bulk Modulus (GPa) = 93.02529 99.58917 96.30723
# Shear Modulus (GPa) = 42.45540 45.13102 43.79321
#
# Velocity S-wave (km/s) = 4.33190 4.46631 4.39962
# Velocity P-wave (km/s) = 8.13251 8.40332 8.26902
#
# Compressibility (1/GPa) = 0.01074976
#
# Stress axis : x y z
#
# Youngs Moduli (GPa) = 108.96191 140.85177 125.06207
#
# Poissons Ratio (x) = 0.32830 0.43504
# Poissons Ratio (y) = 0.25397 0.11910
# Poissons Ratio (z) = 0.37903 0.13414
#
# Static dielectric constant tensor:
#      x y z
#    x 6.102270 0.000000 -0.504190 
#    y 0.000000 4.208730 0.000000 
#    z -0.504190 0.000000 4.339760 
# 
# 
# High freq. dielectric constant tensor:
#      x y z
#    x 1.900300 0.000000 -0.008060 
#    y 0.000000 1.901150 0.000000 
#    z -0.008060 0.000000 1.914280 
# 
# From -- ./inp_files/80957.got.cif
#   From: 2010.03.12/outbox.cif.g09.slc.cpg/sg14_41_cif.got.tgz:80957.got - 2010.03.31 13:35:05.
