data_PCOD8128617
_publ_section_title
;
Structure prediction by ZEFSAII (Michael W. Deem and Ramdas Pophale) SiO2 
 PCOD8128617
Probable space group: P 21/C
;
_chemical_formula_sum "Si O2"
_cell_formula_units_Z 32
_cell_length_a 22.195033
_cell_length_b 11.734397
_cell_length_c 12.397444
_cell_angle_alpha 90.000000
_cell_angle_beta 153.498713
_cell_angle_gamma 90.000000
_cell_volume 1440.773562
_symmetry_space_group_name_H-M "P 21/C"
_symmetry_group_IT_number 14
_symmetry_cell_setting 'monoclinic'
loop_
_space_group_symop_operation_xyz
x,y,z
-x,1/2+y,1/2-z
-x,-y,-z
x,1/2-y,1/2+z
loop_
_atom_site_type_symbol
_atom_site_label
_atom_site_fract_x
_atom_site_fract_y
_atom_site_fract_z
Si Si1 0.659652 0.407850 0.564220
Si Si2 0.788615 0.833461 0.737138
Si Si3 0.855233 0.019206 0.005813
Si Si4 0.274581 0.135504 0.713035
Si Si5 0.959578 0.667188 0.322250
Si Si6 0.967347 0.416629 0.046431
Si Si7 0.425072 0.231664 0.769086
Si Si8 0.615167 0.991788 0.772048
O O1 0.659484 0.519041 0.639544
O O2 0.580602 0.302258 0.493338
O O3 0.589200 0.431843 0.335913
O O4 0.814580 0.373002 0.795668
O O5 0.787741 0.707087 0.787317
O O6 0.928304 0.865397 0.897213
O O7 0.665352 0.844965 0.456079
O O8 0.775684 0.923727 0.811644
O O9 0.753443 0.042493 0.941757
O O10 0.894333 0.124409 0.988441
O O11 0.998313 0.981622 0.287306
O O12 0.155467 0.114415 0.437463
O O13 0.395686 0.202419 0.847048
O O14 0.941901 0.803714 0.300383
O O15 0.000000 0.500000 0.000000
O O16 0.384484 0.362338 0.684650
O O17 0.500000 0.000000 0.500000
#
# Coordination Sequence:
#
# PCOD8128617 Si02
#       8
#     4   4   4   4   4   4   4   4
#     4  12  25  43  68 103 139 181 248 298 349 431
#     4  11  21  43  70  97 136 187 231 281 355 431
#     4  12  23  44  70 102 140 184 236 286 357 436
#     4  11  21  43  71  97 138 188 234 284 355 434
#     4  11  25  39  70 107 138 181 237 294 353 426
#     4  12  24  43  69 103 140 186 233 287 364 429
#     4  11  25  44  68 100 134 190 239 291 355 424
#     4  12  26  44  72 100 141 189 234 293 364 427
#
# _framework density 22.210291000000002
#
# number of rings (size 3 to 8) (size 9 to 14) (size 15 to 20)
#    0.000    0.500    6.250    3.000    1.750    0.000 
#    0.000    0.000    0.000    0.000    0.000    0.000 
#    0.000    0.000    0.000    0.000    0.000    0.000 
#
# Total GULP energy -396575.782697 kJ/mol
# GULP energy per Si atom -12392.993209 kJ/mol
# Density = 2.215974 g / cm^3
# Si number density = 22.210291 Si / 1000 Ang^3
#
#
#
# Elastic Constant Matrix: (Units=GPa)
#
#
# Indices 1 2 3 4 5 6 
#
# 1 128.1470 35.2830 32.7178 0.0000 13.1754 0.0000
# 2 35.2830 58.5501 2.3717 0.0000 5.7617 0.0000
# 3 32.7178 2.3717 86.5133 0.0000 -6.0586 0.0000
# 4 0.0000 0.0000 0.0000 26.5350 0.0000 1.5468
# 5 13.1754 5.7617 -6.0586 0.0000 43.7514 0.0000
# 6 0.0000 0.0000 0.0000 1.5468 0.0000 45.8805
#
#
#
# Elastic Compliance Matrix: (Units=1/GPa)
#
#
# Indices 1 2 3 4 5 6 
#
# 1 0.010846 -0.006069 -0.004149 0.000000 -0.003042 0.000000
# 2 -0.006069 0.020734 0.001680 0.000000 -0.000670 0.000000
# 3 -0.004149 0.001680 0.013283 0.000000 0.002867 0.000000
# 4 0.000000 0.000000 0.000000 0.037760 0.000000 -0.001273
# 5 -0.003042 -0.000670 0.002867 0.000000 0.024258 0.000000
# 6 0.000000 0.000000 0.000000 -0.001273 0.000000 0.021839
#
#
# Mechanical properties :
#
#
# Convention : Reuss Voigt Hill
#
# Bulk Modulus (GPa) = 35.98647 45.99507 40.99077
# Shear Modulus (GPa) = 32.24600 36.75591 34.50096
#
# Velocity S-wave (km/s) = 3.81445 4.07247 3.94557
# Velocity P-wave (km/s) = 5.96974 6.54730 6.26518
#
# Compressibility (1/GPa) = 0.02778822
#
# Stress axis : x y z
#
# Youngs Moduli (GPa) = 92.19663 48.22886 75.28658
#
# Poissons Ratio (x) = 0.29269 0.31233
# Poissons Ratio (y) = 0.55952 -0.12646
# Poissons Ratio (z) = 0.38248 -0.08101
#
# Static dielectric constant tensor:
#      x y z
#    x 4.346280 0.000000 -0.036570 
#    y 0.000000 3.957070 0.000000 
#    z -0.036570 0.000000 3.882000 
# 
# 
# High freq. dielectric constant tensor:
#      x y z
#    x 1.895190 0.000000 -0.006950 
#    y 0.000000 1.855820 0.000000 
#    z -0.006950 0.000000 1.866110 
# 
# From -- ./inp_files/35278.got.cif
#   From: 2010.03.12/outbox.cif.g09.slc.cpg/sg14_18_cif.got.tgz:35278.got - 2010.03.31 13:35:05.
