data_PCOD8128781
_publ_section_title
;
Structure prediction by ZEFSAII (Michael W. Deem and Ramdas Pophale) SiO2 
 PCOD8128781
Probable space group: P 21/C
;
_chemical_formula_sum "Si O2"
_cell_formula_units_Z 28
_cell_length_a 6.593293
_cell_length_b 19.512670
_cell_length_c 11.863098
_cell_angle_alpha 90.000000
_cell_angle_beta 125.615567
_cell_angle_gamma 90.000000
_cell_volume 1240.729363
_symmetry_space_group_name_H-M "P 21/C"
_symmetry_group_IT_number 14
_symmetry_cell_setting 'monoclinic'
loop_
_space_group_symop_operation_xyz
x,y,z
-x,1/2+y,1/2-z
-x,-y,-z
x,1/2-y,1/2+z
loop_
_atom_site_type_symbol
_atom_site_label
_atom_site_fract_x
_atom_site_fract_y
_atom_site_fract_z
Si Si1 0.013212 0.121344 0.918516
Si Si2 0.239937 0.007363 0.857910
Si Si3 0.062198 0.633059 0.349468
Si Si4 0.719283 0.519366 0.876802
Si Si5 0.434392 0.648348 0.881337
Si Si6 0.492842 0.872742 0.649480
Si Si7 0.511217 0.298238 0.627859
O O1 0.050423 0.046033 0.879085
O O2 0.813986 0.156681 0.772914
O O3 0.277850 0.159558 0.004013
O O4 0.901924 0.115774 0.007193
O O5 0.276890 0.045266 0.750731
O O6 0.132212 0.932548 0.796988
O O7 0.500000 0.000000 0.000000
O O8 0.250884 0.694283 0.378464
O O9 0.779696 0.650439 0.227803
O O10 0.608996 0.582711 0.912333
O O11 0.539155 0.453397 0.832864
O O12 0.000000 0.500000 0.000000
O O13 0.578144 0.719244 0.900697
O O14 0.355272 0.644135 0.987507
O O15 0.393973 0.825646 0.719643
#
# Coordination Sequence:
#
# PCOD8128781 Si02
#       7
#     4   4   4   4   4   4   4
#     4  11  25  44  69 108 139 180 245 292 350 423
#     4  12  20  40  73 102 135 178 232 290 351 415
#     4  11  22  46  71 100 144 182 234 287 364 422
#     4  12  25  45  72 107 145 192 237 294 367 426
#     4  12  28  44  73 105 145 184 247 296 351 434
#     4  11  25  49  72 100 144 189 236 289 363 426
#     4  11  27  47  70 102 142 197 230 297 366 421
#
# _framework density 22.567373
#
# number of rings (size 3 to 8) (size 9 to 14) (size 15 to 20)
#    0.000    0.571    2.857    5.143    4.000    0.000 
#    5.143    0.000    0.000    0.000    0.000    0.000 
#    0.000    0.000    0.000    0.000    0.000    0.000 
#
# Total GULP energy -347231.653629 kJ/mol
# GULP energy per Si atom -12401.130487 kJ/mol
# Density = 2.251601 g / cm^3
# Si number density = 22.567373 Si / 1000 Ang^3
#
#
#
# Elastic Constant Matrix: (Units=GPa)
#
#
# Indices 1 2 3 4 5 6 
#
# 1 111.3670 35.2629 44.0613 0.0000 -6.4173 0.0000
# 2 35.2629 134.8750 17.5162 0.0000 -12.4409 0.0000
# 3 44.0613 17.5162 134.2209 0.0000 -15.9921 0.0000
# 4 0.0000 0.0000 0.0000 23.4029 0.0000 -1.6420
# 5 -6.4173 -12.4409 -15.9921 0.0000 45.1800 0.0000
# 6 0.0000 0.0000 0.0000 -1.6420 0.0000 24.3129
#
#
#
# Elastic Compliance Matrix: (Units=1/GPa)
#
#
# Indices 1 2 3 4 5 6 
#
# 1 0.011074 -0.002488 -0.003346 0.000000 -0.000297 0.000000
# 2 -0.002488 0.008245 -0.000032 0.000000 0.001906 0.000000
# 3 -0.003346 -0.000032 0.008869 0.000000 0.002655 0.000000
# 4 0.000000 0.000000 0.000000 0.042933 0.000000 0.002900
# 5 -0.000297 0.001906 0.002655 0.000000 0.023556 0.000000
# 6 0.000000 0.000000 0.000000 0.002900 0.000000 0.041326
#
#
# Mechanical properties :
#
#
# Convention : Reuss Voigt Hill
#
# Bulk Modulus (GPa) = 60.76930 63.79374 62.28152
# Shear Modulus (GPa) = 32.63262 37.48733 35.05998
#
# Velocity S-wave (km/s) = 3.80677 4.08012 3.94581
# Velocity P-wave (km/s) = 6.80503 7.10816 6.95825
#
# Compressibility (1/GPa) = 0.01645568
#
# Stress axis : x y z
#
# Youngs Moduli (GPa) = 90.30316 121.28986 112.74792
#
# Poissons Ratio (x) = 0.30178 0.37724
# Poissons Ratio (y) = 0.22468 0.00363
# Poissons Ratio (z) = 0.30214 0.00390
#
# Static dielectric constant tensor:
#      x y z
#    x 4.024500 0.000000 -0.089380 
#    y 0.000000 3.837690 0.000000 
#    z -0.089380 0.000000 4.138340 
# 
# 
# High freq. dielectric constant tensor:
#      x y z
#    x 1.892860 0.000000 -0.007230 
#    y 0.000000 1.882840 0.000000 
#    z -0.007230 0.000000 1.902490 
# 
# From -- ./inp_files/21695.got.cif
#   From: 2010.03.12/outbox.cif.g09.slc.cpg/sg14_11_cif.got.tgz:21695.got - 2010.03.31 13:35:05.
