data_PCOD8128179
_publ_section_title
;
Structure prediction by ZEFSAII (Michael W. Deem and Ramdas Pophale) SiO2 
 PCOD8128179
Probable space group: P 21/C
;
_chemical_formula_sum "Si O2"
_cell_formula_units_Z 32
_cell_length_a 9.262679
_cell_length_b 14.713653
_cell_length_c 11.430631
_cell_angle_alpha 90.000000
_cell_angle_beta 88.055651
_cell_angle_gamma 90.000000
_cell_volume 1556.959131
_symmetry_space_group_name_H-M "P 21/C"
_symmetry_group_IT_number 14
_symmetry_cell_setting 'monoclinic'
loop_
_space_group_symop_operation_xyz
x,y,z
-x,1/2+y,1/2-z
-x,-y,-z
x,1/2-y,1/2+z
loop_
_atom_site_type_symbol
_atom_site_label
_atom_site_fract_x
_atom_site_fract_y
_atom_site_fract_z
Si Si1 0.502986 0.339577 0.783438
Si Si2 0.412074 0.482606 0.617492
Si Si3 0.085306 0.462992 0.108845
Si Si4 0.174713 0.878689 0.768467
Si Si5 0.894215 0.323698 0.248910
Si Si6 0.598282 0.913580 0.485150
Si Si7 0.432209 0.854178 0.280437
Si Si8 0.867302 0.062612 0.972550
O O1 0.436655 0.380808 0.665173
O O2 0.667442 0.374448 0.795106
O O3 0.393520 0.367930 0.888496
O O4 0.505699 0.231238 0.791276
O O5 0.500000 0.500000 0.500000
O O6 0.471789 0.552812 0.713387
O O7 0.245052 0.498656 0.593076
O O8 0.086647 0.540346 0.209078
O O9 0.011990 0.373124 0.164674
O O10 0.244014 0.435642 0.065124
O O11 0.000000 0.500000 0.000000
O O12 0.084828 0.785248 0.753557
O O13 0.196860 0.895852 0.906393
O O14 0.739180 0.347272 0.197118
O O15 0.908977 0.355585 0.383569
O O16 0.513280 0.847069 0.401019
O O17 0.500000 0.000000 0.500000
O O18 0.000000 0.000000 0.000000
#
# Coordination Sequence:
#
# PCOD8128179 Si02
#       8
#     4   4   4   4   4   4   4   4
#     4  11  24  42  70 101 130 173 223 277 335 396
#     4  11  22  40  66  95 126 170 218 273 325 392
#     4  12  26  44  66  99 136 179 221 274 331 400
#     4  11  23  43  71  97 130 179 222 269 339 399
#     4  10  25  43  66  97 132 174 225 273 330 403
#     4  12  23  44  70  94 136 176 219 280 333 389
#     4  10  24  42  67  97 129 170 226 272 333 391
#     4  11  23  42  66  91 133 174 214 271 329 391
#
# _framework density 20.552883999999999
#
# number of rings (size 3 to 8) (size 9 to 14) (size 15 to 20)
#    0.000    1.000    5.000    0.750    5.250    2.000 
#    4.500    0.000    0.000    0.000    0.000    0.000 
#    0.000    0.000    0.000    0.000    0.000    0.000 
#
# Total GULP energy -396840.126102 kJ/mol
# GULP energy per Si atom -12401.253941 kJ/mol
# Density = 2.050610 g / cm^3
# Si number density = 20.552884 Si / 1000 Ang^3
#
#
#
# Elastic Constant Matrix: (Units=GPa)
#
#
# Indices 1 2 3 4 5 6 
#
# 1 98.0130 59.3879 51.0357 0.0000 -5.2028 0.0000
# 2 59.3879 103.3976 29.2926 0.0000 -1.9253 0.0000
# 3 51.0357 29.2926 120.9484 0.0000 -0.3069 0.0000
# 4 0.0000 0.0000 0.0000 31.0006 0.0000 3.7067
# 5 -5.2028 -1.9253 -0.3069 0.0000 40.0169 0.0000
# 6 0.0000 0.0000 0.0000 3.7067 0.0000 31.7079
#
#
#
# Elastic Compliance Matrix: (Units=1/GPa)
#
#
# Indices 1 2 3 4 5 6 
#
# 1 0.018840 -0.009162 -0.005726 0.000000 0.001965 0.000000
# 2 -0.009162 0.014849 0.000269 0.000000 -0.000475 0.000000
# 3 -0.005726 0.000269 0.010617 0.000000 -0.000650 0.000000
# 4 0.000000 0.000000 0.000000 0.032715 0.000000 -0.003824
# 5 0.001965 -0.000475 -0.000650 0.000000 0.025217 0.000000
# 6 0.000000 0.000000 0.000000 -0.003824 0.000000 0.031985
#
#
# Mechanical properties :
#
#
# Convention : Reuss Voigt Hill
#
# Bulk Modulus (GPa) = 66.36817 66.86571 66.61694
# Shear Modulus (GPa) = 29.67628 32.72126 31.19877
#
# Velocity S-wave (km/s) = 3.80399 3.99438 3.90035
# Velocity P-wave (km/s) = 7.18716 7.34013 7.26405
#
# Compressibility (1/GPa) = 0.01506746
#
# Stress axis : x y z
#
# Youngs Moduli (GPa) = 53.07818 67.34464 94.18560
#
# Poissons Ratio (x) = 0.61704 0.53929
# Poissons Ratio (y) = 0.48632 -0.02531
# Poissons Ratio (z) = 0.30391 -0.01809
#
# Static dielectric constant tensor:
#      x y z
#    x 3.834700 0.000000 0.032270 
#    y 0.000000 3.723330 0.000000 
#    z 0.032270 0.000000 3.952510 
# 
# 
# High freq. dielectric constant tensor:
#      x y z
#    x 1.798150 0.000000 -0.000390 
#    y 0.000000 1.806080 0.000000 
#    z -0.000390 0.000000 1.816650 
# 
# From -- ./inp_files/25258.got.cif
#   From: 2010.03.12/outbox.cif.g09.slc.cpg/sg14_13_cif.got.tgz:25258.got - 2010.03.31 13:35:05.
