data_PCOD8128598
_publ_section_title
;
Structure prediction by ZEFSAII (Michael W. Deem and Ramdas Pophale) SiO2 
 PCOD8128598
Probable space group: P 21/C
;
_chemical_formula_sum "Si O2"
_cell_formula_units_Z 32
_cell_length_a 12.894398
_cell_length_b 8.630994
_cell_length_c 23.225195
_cell_angle_alpha 90.000000
_cell_angle_beta 34.186021
_cell_angle_gamma 90.000000
_cell_volume 1452.332454
_symmetry_space_group_name_H-M "P 21/C"
_symmetry_group_IT_number 14
_symmetry_cell_setting 'monoclinic'
loop_
_space_group_symop_operation_xyz
x,y,z
-x,1/2+y,1/2-z
-x,-y,-z
x,1/2-y,1/2+z
loop_
_atom_site_type_symbol
_atom_site_label
_atom_site_fract_x
_atom_site_fract_y
_atom_site_fract_z
Si Si1 0.643803 0.146058 0.550420
Si Si2 0.129215 0.070372 0.625276
Si Si3 0.160897 0.131692 0.185363
Si Si4 0.929625 0.736345 0.454189
Si Si5 0.241336 0.291335 0.252080
Si Si6 0.848231 0.058355 0.919222
Si Si7 0.286657 0.808139 0.355257
Si Si8 0.676642 0.847573 0.670384
O O1 0.429891 0.111307 0.662805
O O2 0.694838 0.311910 0.499840
O O3 0.757594 0.151010 0.557884
O O4 0.690505 0.003395 0.487078
O O5 0.167010 0.196436 0.656305
O O6 0.018255 0.154984 0.624315
O O7 0.034685 0.924076 0.699336
O O8 0.281187 0.148566 0.188738
O O9 0.225903 0.011407 0.107332
O O10 0.115431 0.715802 0.406019
O O11 0.852240 0.570948 0.467727
O O12 0.770774 0.814588 0.565863
O O13 0.209649 0.240129 0.332153
O O14 0.058204 0.381210 0.315754
O O15 0.463319 0.699787 0.266150
O O16 0.317618 0.974481 0.312013
#
# Coordination Sequence:
#
# PCOD8128598 Si02
#       8
#     4   4   4   4   4   4   4   4
#     4  11  24  41  67  95 136 169 218 270 335 392
#     4  11  21  42  66  95 127 171 220 276 319 398
#     4  11  22  43  67  92 128 169 222 269 331 382
#     4  11  25  40  72  95 130 179 220 265 335 393
#     4  11  24  41  69  94 133 173 213 275 334 378
#     4  11  25  44  66  99 127 174 224 273 326 400
#     4  11  25  42  65 101 137 175 214 275 327 398
#     4  11  25  43  66 101 138 171 223 267 333 395
#
# _framework density 22.033522000000001
#
# number of rings (size 3 to 8) (size 9 to 14) (size 15 to 20)
#    0.000    1.000    3.750    1.875    7.000    2.000 
#    0.000    0.000    0.000    0.000    0.000    0.000 
#    0.000    0.000    0.000    0.000    0.000    0.000 
#
# Total GULP energy -396475.669277 kJ/mol
# GULP energy per Si atom -12389.864665 kJ/mol
# Density = 2.198337 g / cm^3
# Si number density = 22.033522 Si / 1000 Ang^3
#
#
#
# Elastic Constant Matrix: (Units=GPa)
#
#
# Indices 1 2 3 4 5 6 
#
# 1 30.8607 5.5179 13.9920 0.0000 15.6935 0.0000
# 2 5.5179 87.3339 25.4801 0.0000 8.1130 0.0000
# 3 13.9920 25.4801 79.4103 0.0000 14.4054 0.0000
# 4 0.0000 0.0000 0.0000 34.7036 0.0000 8.2545
# 5 15.6935 8.1130 14.4054 0.0000 32.6970 0.0000
# 6 0.0000 0.0000 0.0000 8.2545 0.0000 25.7726
#
#
#
# Elastic Compliance Matrix: (Units=1/GPa)
#
#
# Indices 1 2 3 4 5 6 
#
# 1 0.044171 0.000279 -0.004363 0.000000 -0.019348 0.000000
# 2 0.000279 0.012700 -0.003835 0.000000 -0.001596 0.000000
# 3 -0.004363 -0.003835 0.015259 0.000000 -0.003677 0.000000
# 4 0.000000 0.000000 0.000000 0.031192 0.000000 -0.009990
# 5 -0.019348 -0.001596 -0.003677 0.000000 0.041886 0.000000
# 6 0.000000 0.000000 0.000000 -0.009990 0.000000 0.042001
#
#
# Mechanical properties :
#
#
# Convention : Reuss Voigt Hill
#
# Bulk Modulus (GPa) = 17.76407 31.95386 24.85897
# Shear Modulus (GPa) = 22.54201 28.80896 25.67548
#
# Velocity S-wave (km/s) = 3.20203 3.61987 3.41734
# Velocity P-wave (km/s) = 4.66374 5.65731 5.18438
#
# Compressibility (1/GPa) = 0.05629339
#
# Stress axis : x y z
#
# Youngs Moduli (GPa) = 22.63952 78.74214 65.53509
#
# Poissons Ratio (x) = -0.02200 0.28591
# Poissons Ratio (y) = -0.00633 0.25130
# Poissons Ratio (z) = 0.09877 0.30195
#
# Static dielectric constant tensor:
#      x y z
#    x 4.065260 0.000000 0.389820 
#    y 0.000000 4.068490 0.000000 
#    z 0.389820 0.000000 3.921730 
# 
# 
# High freq. dielectric constant tensor:
#      x y z
#    x 1.865440 0.000000 0.028150 
#    y 0.000000 1.868900 0.000000 
#    z 0.028150 0.000000 1.868340 
# 
# From -- ./inp_files/73734.got.cif
#   From: 2010.03.12/outbox.cif.g09.slc.cpg/sg14_37_cif.got.tgz:73734.got - 2010.03.31 13:35:05.
