data_PCOD8128604
_publ_section_title
;
Structure prediction by ZEFSAII (Michael W. Deem and Ramdas Pophale) SiO2 
 PCOD8128604
Probable space group: P 21/C
;
_chemical_formula_sum "Si O2"
_cell_formula_units_Z 28
_cell_length_a 6.883140
_cell_length_b 7.438040
_cell_length_c 32.842267
_cell_angle_alpha 90.000000
_cell_angle_beta 54.341615
_cell_angle_gamma 90.000000
_cell_volume 1366.172161
_symmetry_space_group_name_H-M "P 21/C"
_symmetry_group_IT_number 14
_symmetry_cell_setting 'monoclinic'
loop_
_space_group_symop_operation_xyz
x,y,z
-x,1/2+y,1/2-z
-x,-y,-z
x,1/2-y,1/2+z
loop_
_atom_site_type_symbol
_atom_site_label
_atom_site_fract_x
_atom_site_fract_y
_atom_site_fract_z
Si Si1 0.028746 0.684585 0.094118
Si Si2 0.270466 0.051850 0.247809
Si Si3 0.960816 0.702067 0.302842
Si Si4 0.767288 0.886242 0.191052
Si Si5 0.706078 0.874006 0.404684
Si Si6 0.767259 0.908581 0.547243
Si Si7 0.538102 0.703528 0.505732
O O1 0.077453 0.518372 0.118836
O O2 0.947485 0.854582 0.131162
O O3 0.820440 0.653348 0.086650
O O4 0.276202 0.711088 0.039983
O O5 0.178512 0.166179 0.221290
O O6 0.291239 0.193382 0.282019
O O7 0.525653 0.973064 0.203721
O O8 0.105803 0.885789 0.280454
O O9 0.776417 0.725637 0.362741
O O10 0.120911 0.526789 0.291035
O O11 0.689068 0.790618 0.451395
O O12 0.451555 0.953863 0.422656
O O13 0.685410 0.738173 0.529511
O O14 0.000000 0.000000 0.500000
O O15 0.500000 0.500000 0.500000
#
# Coordination Sequence:
#
# PCOD8128604 Si02
#       7
#     4   4   4   4   4   4   4
#     4  11  23  42  69  99 134 181 227 280 337 415
#     4  12  26  46  74 100 141 183 231 289 352 415
#     4  12  26  46  73 104 140 179 231 292 348 417
#     4  12  26  45  72 104 137 182 232 286 352 410
#     4  11  23  41  70  99 134 181 225 280 349 402
#     4  11  21  42  68  92 134 185 225 269 338 408
#     4  11  23  41  64  98 141 174 220 283 341 401
#
# _framework density 20.49522
#
# number of rings (size 3 to 8) (size 9 to 14) (size 15 to 20)
#    0.000    0.571    7.143    1.714    0.000    7.429 
#    2.571    0.000    0.000    0.000    0.000    0.000 
#    0.000    0.000    0.000    0.000    0.000    0.000 
#
# Total GULP energy -347224.771762 kJ/mol
# GULP energy per Si atom -12400.884706 kJ/mol
# Density = 2.044857 g / cm^3
# Si number density = 20.495220 Si / 1000 Ang^3
#
#
#
# Elastic Constant Matrix: (Units=GPa)
#
#
# Indices 1 2 3 4 5 6 
#
# 1 111.3234 32.8803 14.7205 0.0000 -2.9062 0.0000
# 2 32.8803 111.4889 21.3106 0.0000 -6.2747 0.0000
# 3 14.7205 21.3106 80.8430 0.0000 -8.7077 0.0000
# 4 0.0000 0.0000 0.0000 45.0094 0.0000 5.5656
# 5 -2.9062 -6.2747 -8.7077 0.0000 25.3805 0.0000
# 6 0.0000 0.0000 0.0000 5.5656 0.0000 31.8225
#
#
#
# Elastic Compliance Matrix: (Units=1/GPa)
#
#
# Indices 1 2 3 4 5 6 
#
# 1 0.009931 -0.002717 -0.001082 0.000000 0.000094 0.000000
# 2 -0.002717 0.010247 -0.002043 0.000000 0.001521 0.000000
# 3 -0.001082 -0.002043 0.013538 0.000000 0.004016 0.000000
# 4 0.000000 0.000000 0.000000 0.022709 0.000000 -0.003972
# 5 0.000094 0.001521 0.004016 0.000000 0.041165 0.000000
# 6 0.000000 0.000000 0.000000 -0.003972 0.000000 0.032119
#
#
# Mechanical properties :
#
#
# Convention : Reuss Voigt Hill
#
# Bulk Modulus (GPa) = 45.38699 49.05313 47.22006
# Shear Modulus (GPa) = 33.61698 36.09208 34.85453
#
# Velocity S-wave (km/s) = 4.05438 4.20098 4.12833
# Velocity P-wave (km/s) = 6.64157 6.89325 6.76858
#
# Compressibility (1/GPa) = 0.02203274
#
# Stress axis : x y z
#
# Youngs Moduli (GPa) = 100.69722 97.59191 73.86816
#
# Poissons Ratio (x) = 0.26512 0.07992
# Poissons Ratio (y) = 0.27356 0.15088
# Poissons Ratio (z) = 0.10895 0.19934
#
# Static dielectric constant tensor:
#      x y z
#    x 3.774490 0.000000 -0.146070 
#    y 0.000000 2.121680 0.000000 
#    z -0.146070 0.000000 2.425100 
# 
# 
# High freq. dielectric constant tensor:
#      x y z
#    x 1.806450 0.000000 0.000180 
#    y 0.000000 1.805940 0.000000 
#    z 0.000180 0.000000 1.808430 
# 
# From -- ./inp_files/78651.got.cif
#   From: 2010.03.12/outbox.cif.g09.slc.cpg/sg14_40_cif.got.tgz:78651.got - 2010.03.31 13:35:05.
