data_PCOD8128987
_publ_section_title
;
Structure prediction by ZEFSAII (Michael W. Deem and Ramdas Pophale) SiO2 
 PCOD8128987
Probable space group: P 21/C
;
_chemical_formula_sum "Si O2"
_cell_formula_units_Z 24
_cell_length_a 9.123742
_cell_length_b 13.547751
_cell_length_c 18.040367
_cell_angle_alpha 90.000000
_cell_angle_beta 149.208091
_cell_angle_gamma 90.000000
_cell_volume 1141.534371
_symmetry_space_group_name_H-M "P 21/C"
_symmetry_group_IT_number 14
_symmetry_cell_setting 'monoclinic'
loop_
_space_group_symop_operation_xyz
x,y,z
-x,1/2+y,1/2-z
-x,-y,-z
x,1/2-y,1/2+z
loop_
_atom_site_type_symbol
_atom_site_label
_atom_site_fract_x
_atom_site_fract_y
_atom_site_fract_z
Si Si1 0.520099 0.157868 0.325445
Si Si2 0.883322 0.160823 0.999975
Si Si3 0.822146 0.384460 0.810974
Si Si4 0.842059 0.159094 0.807780
Si Si5 0.660505 0.522615 0.494550
Si Si6 0.416680 0.475987 0.046911
O O1 0.669006 0.251033 0.430325
O O2 0.752625 0.120143 0.367336
O O3 0.468351 0.071082 0.360237
O O4 0.217069 0.189770 0.157073
O O5 0.831391 0.134486 0.891028
O O6 0.805613 0.071563 0.019913
O O7 0.885805 0.274292 0.809383
O O8 0.544872 0.427326 0.652741
O O9 0.077994 0.459805 0.905693
O O10 0.553819 0.122455 0.642100
O O11 0.096609 0.100844 0.878868
O O12 0.500000 0.500000 0.500000
O O13 0.500000 0.500000 0.000000
#
# Coordination Sequence:
#
# PCOD8128987 Si02
#       6
#     4   4   4   4   4   4
#     4  11  25  45  70 101 135 177 231 279 330 394
#     4  11  25  44  72 100 134 179 227 282 330 393
#     4  11  25  41  71 100 128 182 228 274 337 395
#     4  11  23  46  70  94 137 175 230 277 334 397
#     4  12  24  44  67 100 134 179 222 274 343 404
#     4  12  26  45  66 102 142 177 222 279 339 403
#
# _framework density 21.024335000000001
#
# number of rings (size 3 to 8) (size 9 to 14) (size 15 to 20)
#    0.000    0.667    3.333    4.000    9.333    2.667 
#    0.000    0.000    0.000    0.000    0.000    0.000 
#    0.000    0.000    0.000    0.000    0.000    0.000 
#
# Total GULP energy -297689.135405 kJ/mol
# GULP energy per Si atom -12403.713975 kJ/mol
# Density = 2.097648 g / cm^3
# Si number density = 21.024335 Si / 1000 Ang^3
#
#
#
# Elastic Constant Matrix: (Units=GPa)
#
#
# Indices 1 2 3 4 5 6 
#
# 1 65.0263 15.4996 47.3819 0.0000 15.6522 0.0000
# 2 15.4996 75.3133 69.2036 0.0000 6.6845 0.0000
# 3 47.3819 69.2036 51.8072 0.0000 5.4464 0.0000
# 4 0.0000 0.0000 0.0000 40.1697 0.0000 9.3080
# 5 15.6522 6.6845 5.4464 0.0000 26.5936 0.0000
# 6 0.0000 0.0000 0.0000 9.3080 0.0000 15.2239
#
#
#
# Elastic Compliance Matrix: (Units=1/GPa)
#
#
# Indices 1 2 3 4 5 6 
#
# 1 0.006702 -0.018590 0.019036 0.000000 -0.003170 0.000000
# 2 -0.018590 -0.006769 0.025259 0.000000 0.007470 0.000000
# 3 0.019036 0.025259 -0.030664 0.000000 -0.011273 0.000000
# 4 0.000000 0.000000 0.000000 0.029003 0.000000 -0.017733
# 5 -0.003170 0.007470 -0.011273 0.000000 0.039900 0.000000
# 6 0.000000 0.000000 0.000000 -0.017733 0.000000 0.076528
#
#
# Mechanical properties :
#
#
# Convention : Reuss Voigt Hill
#
# Bulk Modulus (GPa) = 48.35669 50.70191 49.52930
# Shear Modulus (GPa) = 71.24368 20.40154 45.82261
#
# Velocity S-wave (km/s) = 5.82751 3.11847 4.67358
# Velocity P-wave (km/s) = 8.26620 6.09382 7.26170
#
# Compressibility (1/GPa) = 0.02067966
#
# Stress axis : x y z
#
# Youngs Moduli (GPa) = 149.21797 -147.72202 -32.61149
#
# Poissons Ratio (x) = -2.74613 0.62080
# Poissons Ratio (y) = 2.77394 0.82374
# Poissons Ratio (z) = -2.84057 3.73136
#
# Static dielectric constant tensor:
#      x y z
#    x 3.650210 0.000000 0.126560 
#    y 0.000000 4.040290 0.000000 
#    z 0.126560 0.000000 3.950170 
# 
# 
# High freq. dielectric constant tensor:
#      x y z
#    x 1.818560 0.000000 0.009610 
#    y 0.000000 1.832940 0.000000 
#    z 0.009610 0.000000 1.840370 
# 
# From -- ./inp_files/8410.got.cif
#   From: 2010.03.12/outbox.cif.g09.slc.cpg/sg14_5_cif.got.tgz:8410.got - 2010.03.31 13:35:05.
