data_PCOD8128562
_publ_section_title
;
Structure prediction by ZEFSAII (Michael W. Deem and Ramdas Pophale) SiO2 
 PCOD8128562
Probable space group: P 21/C
;
_chemical_formula_sum "Si O2"
_cell_formula_units_Z 20
_cell_length_a 12.009455
_cell_length_b 11.838319
_cell_length_c 9.270429
_cell_angle_alpha 90.000000
_cell_angle_beta 44.920437
_cell_angle_gamma 90.000000
_cell_volume 930.666875
_symmetry_space_group_name_H-M "P 21/C"
_symmetry_group_IT_number 14
_symmetry_cell_setting 'monoclinic'
loop_
_space_group_symop_operation_xyz
x,y,z
-x,1/2+y,1/2-z
-x,-y,-z
x,1/2-y,1/2+z
loop_
_atom_site_type_symbol
_atom_site_label
_atom_site_fract_x
_atom_site_fract_y
_atom_site_fract_z
Si Si1 0.059878 0.181453 0.295435
Si Si2 0.787153 0.168642 0.145407
Si Si3 0.746173 0.815612 0.602200
Si Si4 0.390445 0.740052 0.442003
Si Si5 0.787224 0.046273 0.419065
O O1 0.955999 0.290089 0.434174
O O2 0.163372 0.215618 0.062141
O O3 0.168317 0.145775 0.329878
O O4 0.951990 0.075793 0.347628
O O5 0.673641 0.144989 0.111659
O O6 0.706086 0.267340 0.319106
O O7 0.808267 0.056139 0.224321
O O8 0.574337 0.771495 0.802925
O O9 0.731208 0.921727 0.508883
O O10 0.347047 0.862773 0.410548
#
# Coordination Sequence:
#
# PCOD8128562 Si02
#       5
#     4   4   4   4   4
#     4  11  21  40  61  92 120 152 196 248 290 349
#     4   9  18  41  58  79 125 154 184 241 298 344
#     4  12  22  39  64  89 119 151 204 246 285 352
#     4   9  20  38  57  86 119 155 194 242 286 348
#     4   9  22  40  62  84 121 160 192 232 314 342
#
# _framework density 21.489967
#
# number of rings (size 3 to 8) (size 9 to 14) (size 15 to 20)
#    1.200    0.800    2.000    1.800    0.000    1.600 
#    0.000   13.000    0.000    0.000    0.000    0.000 
#    0.000    0.000    0.000    0.000    0.000    0.000 
#
# Total GULP energy -247843.248600 kJ/mol
# GULP energy per Si atom -12392.162430 kJ/mol
# Density = 2.144106 g / cm^3
# Si number density = 21.489967 Si / 1000 Ang^3
#
#
#
# Elastic Constant Matrix: (Units=GPa)
#
#
# Indices 1 2 3 4 5 6 
#
# 1 104.5323 -8.0912 27.3525 0.0000 -13.5795 0.0000
# 2 -8.0912 28.1647 -17.9176 0.0000 -9.5884 0.0000
# 3 27.3525 -17.9176 59.1386 0.0000 -4.0444 0.0000
# 4 0.0000 0.0000 0.0000 14.8076 0.0000 0.6022
# 5 -13.5795 -9.5884 -4.0444 0.0000 38.4327 0.0000
# 6 0.0000 0.0000 0.0000 0.6022 0.0000 20.6309
#
#
#
# Elastic Compliance Matrix: (Units=1/GPa)
#
#
# Indices 1 2 3 4 5 6 
#
# 1 0.011390 0.001808 -0.004446 0.000000 0.004008 0.000000
# 2 0.001808 0.051122 0.015681 0.000000 0.015043 0.000000
# 3 -0.004446 0.015681 0.024050 0.000000 0.004872 0.000000
# 4 0.000000 0.000000 0.000000 0.067613 0.000000 -0.001973
# 5 0.004008 0.015043 0.004872 0.000000 0.031701 0.000000
# 6 0.000000 0.000000 0.000000 -0.001973 0.000000 0.048529
#
#
# Mechanical properties :
#
#
# Convention : Reuss Voigt Hill
#
# Bulk Modulus (GPa) = 8.87715 21.61366 15.24540
# Shear Modulus (GPa) = 20.33599 27.47371 23.90485
#
# Velocity S-wave (km/s) = 3.07954 3.57941 3.33884
# Velocity P-wave (km/s) = 4.09689 5.21175 4.68758
#
# Compressibility (1/GPa) = 0.11264883
#
# Stress axis : x y z
#
# Youngs Moduli (GPa) = 87.79269 19.56099 41.57962
#
# Poissons Ratio (x) = -0.03537 0.18488
# Poissons Ratio (y) = -0.15873 -0.65203
# Poissons Ratio (z) = 0.39036 -0.30674
#
# Static dielectric constant tensor:
#      x y z
#    x 3.949240 0.000000 0.119970 
#    y 0.000000 3.225780 0.000000 
#    z 0.119970 0.000000 3.780380 
# 
# 
# High freq. dielectric constant tensor:
#      x y z
#    x 1.858750 0.000000 0.007800 
#    y 0.000000 1.791150 0.000000 
#    z 0.007800 0.000000 1.844610 
# 
# From -- ./inp_files/7916.got.cif
#   From: 2010.03.12/outbox.cif.g09.slc.cpg/sg14_4_cif.got.tgz:7916.got - 2010.03.31 13:35:05.
