data_PCOD8128316
_publ_section_title
;
Structure prediction by ZEFSAII (Michael W. Deem and Ramdas Pophale) SiO2 
 PCOD8128316
Probable space group: P 21/C
;
_chemical_formula_sum "Si O2"
_cell_formula_units_Z 28
_cell_length_a 5.037156
_cell_length_b 30.160462
_cell_length_c 9.116403
_cell_angle_alpha 90.000000
_cell_angle_beta 57.047041
_cell_angle_gamma 90.000000
_cell_volume 1162.169989
_symmetry_space_group_name_H-M "P 21/C"
_symmetry_group_IT_number 14
_symmetry_cell_setting 'monoclinic'
loop_
_space_group_symop_operation_xyz
x,y,z
-x,1/2+y,1/2-z
-x,-y,-z
x,1/2-y,1/2+z
loop_
_atom_site_type_symbol
_atom_site_label
_atom_site_fract_x
_atom_site_fract_y
_atom_site_fract_z
Si Si1 0.842057 0.788225 0.851588
Si Si2 0.234606 0.383285 0.630004
Si Si3 0.630529 0.458678 0.051037
Si Si4 0.875758 0.950916 0.066740
Si Si5 0.771099 0.587359 0.054672
Si Si6 0.871906 0.375999 0.302918
Si Si7 0.892075 0.284589 0.427594
O O1 0.979287 0.838931 0.793351
O O2 0.065790 0.755991 0.694217
O O3 0.475179 0.786759 0.913545
O O4 0.880782 0.773057 0.006453
O O5 0.497454 0.369857 0.430050
O O6 0.078380 0.426884 0.604981
O O7 0.370913 0.393323 0.752036
O O8 0.011405 0.455556 0.960818
O O9 0.478667 0.455716 0.259901
O O10 0.513440 0.419345 0.975921
O O11 0.500000 0.500000 0.000000
O O12 0.060804 0.922184 0.131845
O O13 0.000000 0.000000 0.000000
O O14 0.022938 0.620035 0.898778
O O15 0.023190 0.331282 0.323493
#
# Coordination Sequence:
#
# PCOD8128316 Si02
#       7
#     4   4   4   4   4   4   4
#     4  11  25  45  73 107 141 182 232 287 355 429
#     4  11  24  44  69 101 139 182 235 284 345 418
#     4  11  24  44  62  99 133 174 235 291 336 408
#     4  11  23  42  69  94 139 189 230 289 343 404
#     4  11  25  41  68  95 133 180 226 279 352 402
#     4  10  24  46  65 100 142 179 230 289 345 410
#     4  11  24  46  72 104 145 176 231 289 353 423
#
# _framework density 24.092860999999999
#
# number of rings (size 3 to 8) (size 9 to 14) (size 15 to 20)
#    0.000    1.143    2.857    2.143    6.000    1.714 
#    5.143    0.000    0.000    0.000    0.000    0.000 
#    0.000    0.000    0.000    0.000    0.000    0.000 
#
# Total GULP energy -346926.155687 kJ/mol
# GULP energy per Si atom -12390.219846 kJ/mol
# Density = 2.403802 g / cm^3
# Si number density = 24.092861 Si / 1000 Ang^3
#
#
#
# Elastic Constant Matrix: (Units=GPa)
#
#
# Indices 1 2 3 4 5 6 
#
# 1 39.5969 -7.1598 -11.6096 0.0000 15.1332 0.0000
# 2 -7.1598 143.2366 28.0574 0.0000 13.5411 0.0000
# 3 -11.6096 28.0574 100.8346 0.0000 25.0453 0.0000
# 4 0.0000 0.0000 0.0000 37.0504 0.0000 9.6881
# 5 15.1332 13.5411 25.0453 0.0000 38.0237 0.0000
# 6 0.0000 0.0000 0.0000 9.6881 0.0000 24.0867
#
#
#
# Elastic Compliance Matrix: (Units=1/GPa)
#
#
# Indices 1 2 3 4 5 6 
#
# 1 0.036210 0.002067 0.008795 0.000000 -0.020941 0.000000
# 2 0.002067 0.007577 -0.001191 0.000000 -0.002737 0.000000
# 3 0.008795 -0.001191 0.014377 0.000000 -0.012546 0.000000
# 4 0.000000 0.000000 0.000000 0.030163 0.000000 -0.012132
# 5 -0.020941 -0.002737 -0.012546 0.000000 0.043872 0.000000
# 6 0.000000 0.000000 0.000000 -0.012132 0.000000 0.046396
#
#
# Mechanical properties :
#
#
# Convention : Reuss Voigt Hill
#
# Bulk Modulus (GPa) = 12.90207 33.58268 23.24237
# Shear Modulus (GPa) = 27.01417 38.12416 32.56916
#
# Velocity S-wave (km/s) = 3.35214 3.98223 3.68070
# Velocity P-wave (km/s) = 4.51101 5.92565 5.26605
#
# Compressibility (1/GPa) = 0.07750695
#
# Stress axis : x y z
#
# Youngs Moduli (GPa) = 27.61670 131.98389 69.55351
#
# Poissons Ratio (x) = -0.27279 -0.61173
# Poissons Ratio (y) = -0.05708 0.08281
# Poissons Ratio (z) = -0.24289 0.15713
#
# Static dielectric constant tensor:
#      x y z
#    x 4.244320 0.000000 0.121640 
#    y 0.000000 4.613180 0.000000 
#    z 0.121640 0.000000 4.581550 
# 
# 
# High freq. dielectric constant tensor:
#      x y z
#    x 1.941520 0.000000 0.010900 
#    y 0.000000 1.957780 0.000000 
#    z 0.010900 0.000000 1.959910 
# 
# From -- ./inp_files/6904.got.cif
#   From: 2010.03.12/outbox.cif.g09.slc.cpg/sg14_4_cif.got.tgz:6904.got - 2010.03.31 13:35:05.
