data_PCOD8128247
_publ_section_title
;
Structure prediction by ZEFSAII (Michael W. Deem and Ramdas Pophale) SiO2 
 PCOD8128247
Probable space group: P 21/C
;
_chemical_formula_sum "Si O2"
_cell_formula_units_Z 16
_cell_length_a 7.543313
_cell_length_b 12.301053
_cell_length_c 12.183659
_cell_angle_alpha 90.000000
_cell_angle_beta 144.585185
_cell_angle_gamma 90.000000
_cell_volume 655.133095
_symmetry_space_group_name_H-M "P 21/C"
_symmetry_group_IT_number 14
_symmetry_cell_setting 'monoclinic'
loop_
_space_group_symop_operation_xyz
x,y,z
-x,1/2+y,1/2-z
-x,-y,-z
x,1/2-y,1/2+z
loop_
_atom_site_type_symbol
_atom_site_label
_atom_site_fract_x
_atom_site_fract_y
_atom_site_fract_z
Si Si1 0.964380 0.577896 0.642315
Si Si2 0.413278 0.593885 0.054267
Si Si3 0.598413 0.423201 0.320555
Si Si4 0.167925 0.220860 0.737378
O O1 0.118154 0.626110 0.608287
O O2 0.739020 0.479524 0.499835
O O3 0.767950 0.666400 0.610075
O O4 0.261723 0.537307 0.867126
O O5 0.414866 0.512578 0.156775
O O6 0.746590 0.651728 0.208432
O O7 0.189910 0.698475 0.969402
O O8 0.361051 0.332902 0.236932
#
# Coordination Sequence:
#
# PCOD8128247 Si02
#       4
#     4   4   4   4
#     4   9  24  37  68  91 128 169 208 280 310 387
#     4  10  24  44  63 100 134 169 217 270 319 387
#     4  11  21  46  68  96 126 176 222 260 328 376
#     4  10  24  44  63 100 134 169 217 270 319 387
#
# _framework density 24.422519999999999
#
# number of rings (size 3 to 8) (size 9 to 14) (size 15 to 20)
#    1.500    0.500    0.000    2.250    7.000    2.000 
#    0.000    0.000    0.000    0.000    0.000    0.000 
#    0.000    0.000    0.000    0.000    0.000    0.000 
#
# Total GULP energy -198249.846769 kJ/mol
# GULP energy per Si atom -12390.615423 kJ/mol
# Density = 2.436693 g / cm^3
# Si number density = 24.422520 Si / 1000 Ang^3
#
#
#
# Elastic Constant Matrix: (Units=GPa)
#
#
# Indices 1 2 3 4 5 6 
#
# 1 77.1140 12.9624 2.6132 0.0000 -18.6980 0.0000
# 2 12.9624 69.8873 41.7805 0.0000 -11.7835 0.0000
# 3 2.6132 41.7805 123.2677 0.0000 -11.8303 0.0000
# 4 0.0000 0.0000 0.0000 30.4108 0.0000 9.2721
# 5 -18.6980 -11.7835 -11.8303 0.0000 23.0918 0.0000
# 6 0.0000 0.0000 0.0000 9.2721 0.0000 31.8558
#
#
#
# Elastic Compliance Matrix: (Units=1/GPa)
#
#
# Indices 1 2 3 4 5 6 
#
# 1 0.016399 -0.001717 0.001498 0.000000 0.013170 0.000000
# 2 -0.001717 0.019057 -0.005914 0.000000 0.005305 0.000000
# 3 0.001498 -0.005914 0.010424 0.000000 0.003536 0.000000
# 4 0.000000 0.000000 0.000000 0.036085 0.000000 -0.010503
# 5 0.013170 0.005305 0.003536 0.000000 0.058488 0.000000
# 6 0.000000 0.000000 0.000000 -0.010503 0.000000 0.034449
#
#
# Mechanical properties :
#
#
# Convention : Reuss Voigt Hill
#
# Bulk Modulus (GPa) = 29.74766 42.77567 36.26166
# Shear Modulus (GPa) = 25.20514 31.26588 28.23551
#
# Velocity S-wave (km/s) = 3.21603 3.58188 3.40387
# Velocity P-wave (km/s) = 5.09876 5.88722 5.50712
#
# Compressibility (1/GPa) = 0.03361609
#
# Stress axis : x y z
#
# Youngs Moduli (GPa) = 60.97915 52.47439 95.92867
#
# Poissons Ratio (x) = 0.09008 -0.14372
# Poissons Ratio (y) = 0.10468 0.56729
# Poissons Ratio (z) = -0.09136 0.31032
#
# Static dielectric constant tensor:
#      x y z
#    x 4.330120 0.000000 0.032240 
#    y 0.000000 4.016680 0.000000 
#    z 0.032240 0.000000 4.491370 
# 
# 
# High freq. dielectric constant tensor:
#      x y z
#    x 1.972690 0.000000 0.005690 
#    y 0.000000 1.959930 0.000000 
#    z 0.005690 0.000000 1.982900 
# 
# From -- ./inp_files/5071.got.cif
#   From: 2010.03.12/outbox.cif.g09.slc.cpg/sg14_3_cif.got.tgz:5071.got - 2010.03.31 13:35:05.
