data_PCOD8128837
_publ_section_title
;
Structure prediction by ZEFSAII (Michael W. Deem and Ramdas Pophale) SiO2 
 PCOD8128837
Probable space group: P 21/C
;
_chemical_formula_sum "Si O2"
_cell_formula_units_Z 20
_cell_length_a 18.636583
_cell_length_b 9.578638
_cell_length_c 13.919632
_cell_angle_alpha 90.000000
_cell_angle_beta 157.495375
_cell_angle_gamma 90.000000
_cell_volume 951.091035
_symmetry_space_group_name_H-M "P 21/C"
_symmetry_group_IT_number 14
_symmetry_cell_setting 'monoclinic'
loop_
_space_group_symop_operation_xyz
x,y,z
-x,1/2+y,1/2-z
-x,-y,-z
x,1/2-y,1/2+z
loop_
_atom_site_type_symbol
_atom_site_label
_atom_site_fract_x
_atom_site_fract_y
_atom_site_fract_z
Si Si1 0.900581 0.994011 0.277828
Si Si2 0.300484 0.209562 0.464522
Si Si3 0.063625 0.995894 0.277062
Si Si4 0.703560 0.225788 0.528204
Si Si5 0.699014 0.009343 0.694529
O O1 0.831928 0.838439 0.183156
O O2 0.036862 0.018780 0.356523
O O3 0.740704 0.110504 0.086618
O O4 0.000000 0.000000 0.500000
O O5 0.236465 0.096692 0.463941
O O6 0.274488 0.136858 0.328687
O O7 0.504653 0.274611 0.730375
O O8 0.136191 0.839958 0.342304
O O9 0.869837 0.027614 0.980454
O O10 0.699145 0.142154 0.623488
O O11 0.500000 0.000000 0.500000
#
# Coordination Sequence:
#
# PCOD8128837 Si02
#       5
#     4   4   4   4   4
#     4  12  24  39  62  94 124 158 208 269 313 349
#     4  11  23  41  64  94 126 163 208 256 309 373
#     4  11  23  44  64  87 128 175 207 247 312 385
#     4  11  23  41  64  94 126 163 208 256 309 373
#     4  11  23  43  68  91 123 173 213 244 306 390
#
# _framework density 21.028483000000001
#
# number of rings (size 3 to 8) (size 9 to 14) (size 15 to 20)
#    0.000    0.800    0.000   10.800    0.000    3.200 
#    0.000    3.000    0.000    0.000    0.000    0.000 
#    0.000    0.000    0.000    0.000    0.000    0.000 
#
# Total GULP energy -247953.028080 kJ/mol
# GULP energy per Si atom -12397.651404 kJ/mol
# Density = 2.098062 g / cm^3
# Si number density = 21.028483 Si / 1000 Ang^3
#
#
#
# Elastic Constant Matrix: (Units=GPa)
#
#
# Indices 1 2 3 4 5 6 
#
# 1 151.5680 28.8382 40.7824 0.0000 -3.6495 0.0000
# 2 28.8382 98.2156 -0.3942 0.0000 2.8895 0.0000
# 3 40.7824 -0.3942 93.6759 0.0000 -3.3151 0.0000
# 4 0.0000 0.0000 0.0000 40.6497 0.0000 5.7576
# 5 -3.6495 2.8895 -3.3151 0.0000 37.8376 0.0000
# 6 0.0000 0.0000 0.0000 5.7576 0.0000 18.4749
#
#
#
# Elastic Compliance Matrix: (Units=1/GPa)
#
#
# Indices 1 2 3 4 5 6 
#
# 1 0.008000 -0.002382 -0.003470 0.000000 0.000650 0.000000
# 2 -0.002382 0.010914 0.001049 0.000000 -0.000971 0.000000
# 3 -0.003470 0.001049 0.012213 0.000000 0.000655 0.000000
# 4 0.000000 0.000000 0.000000 0.025736 0.000000 -0.008021
# 5 0.000650 -0.000971 0.000655 0.000000 0.026623 0.000000
# 6 0.000000 0.000000 0.000000 -0.008021 0.000000 0.056627
#
#
# Mechanical properties :
#
#
# Convention : Reuss Voigt Hill
#
# Bulk Modulus (GPa) = 46.46710 53.54581 50.00646
# Shear Modulus (GPa) = 31.86854 37.67465 34.77159
#
# Velocity S-wave (km/s) = 3.89716 4.23732 4.07079
# Velocity P-wave (km/s) = 6.51119 7.03268 6.77696
#
# Compressibility (1/GPa) = 0.02152060
#
# Stress axis : x y z
#
# Youngs Moduli (GPa) = 124.99631 91.62626 81.87737
#
# Poissons Ratio (x) = 0.21826 0.28411
# Poissons Ratio (y) = 0.29775 -0.08586
# Poissons Ratio (z) = 0.43374 -0.09608
#
# Static dielectric constant tensor:
#      x y z
#    x 3.911650 0.000000 -0.000620 
#    y 0.000000 3.996720 0.000000 
#    z -0.000620 0.000000 3.604430 
# 
# 
# High freq. dielectric constant tensor:
#      x y z
#    x 1.829930 0.000000 0.007570 
#    y 0.000000 1.844240 0.000000 
#    z 0.007570 0.000000 1.824640 
# 
# From -- ./inp_files/44698.got.cif
#   From: 2010.03.12/outbox.cif.g09.slc.cpg/sg14_23_cif.got.tgz:44698.got - 2010.03.31 13:35:05.
