data_PCOD8128514
_publ_section_title
;
Structure prediction by ZEFSAII (Michael W. Deem and Ramdas Pophale) SiO2 
 PCOD8128514
Probable space group: P 21/C
;
_chemical_formula_sum "Si O2"
_cell_formula_units_Z 16
_cell_length_a 7.416590
_cell_length_b 17.071980
_cell_length_c 5.581798
_cell_angle_alpha 90.000000
_cell_angle_beta 110.995688
_cell_angle_gamma 90.000000
_cell_volume 659.821652
_symmetry_space_group_name_H-M "P 21/C"
_symmetry_group_IT_number 14
_symmetry_cell_setting 'monoclinic'
loop_
_space_group_symop_operation_xyz
x,y,z
-x,1/2+y,1/2-z
-x,-y,-z
x,1/2-y,1/2+z
loop_
_atom_site_type_symbol
_atom_site_label
_atom_site_fract_x
_atom_site_fract_y
_atom_site_fract_z
Si Si1 0.943504 0.415985 0.369892
Si Si2 0.365616 0.538300 0.131872
Si Si3 0.334254 0.706410 0.597625
Si Si4 0.344405 0.114099 0.916259
O O1 0.134416 0.362062 0.416516
O O2 0.000000 0.500000 0.500000
O O3 0.805014 0.370121 0.489812
O O4 0.831077 0.426943 0.066778
O O5 0.490534 0.609894 0.299339
O O6 0.310178 0.472534 0.296940
O O7 0.500000 0.500000 0.000000
O O8 0.289650 0.743797 0.836986
O O9 0.561019 0.678370 0.717155
#
# Coordination Sequence:
#
# PCOD8128514 Si02
#       4
#     4   4   4   4
#     4  12  24  45  80 114 144 194 259 321 382 447
#     4  11  20  42  72 111 146 178 240 314 373 447
#     4  12  29  50  71 106 156 205 257 314 383 473
#     4  11  24  43  72 103 147 196 239 306 386 444
#
# _framework density 24.248978000000001
#
# number of rings (size 3 to 8) (size 9 to 14) (size 15 to 20)
#    0.000    0.500    5.000    3.750    0.000    4.000 
#    0.000    0.000    0.000    0.000    0.000    0.000 
#    0.000    0.000    0.000    0.000    0.000    0.000 
#
# Total GULP energy -198347.142653 kJ/mol
# GULP energy per Si atom -12396.696416 kJ/mol
# Density = 2.419379 g / cm^3
# Si number density = 24.248978 Si / 1000 Ang^3
#
#
#
# Elastic Constant Matrix: (Units=GPa)
#
#
# Indices 1 2 3 4 5 6 
#
# 1 174.1813 38.9908 38.3781 0.0000 16.2409 0.0000
# 2 38.9908 82.2162 31.2746 0.0000 0.0493 0.0000
# 3 38.3781 31.2746 144.8809 0.0000 14.3014 0.0000
# 4 0.0000 0.0000 0.0000 29.2711 0.0000 -4.8389
# 5 16.2409 0.0493 14.3014 0.0000 43.4273 0.0000
# 6 0.0000 0.0000 0.0000 -4.8389 0.0000 45.7796
#
#
#
# Elastic Compliance Matrix: (Units=1/GPa)
#
#
# Indices 1 2 3 4 5 6 
#
# 1 0.006800 -0.002857 -0.000965 0.000000 -0.002222 0.000000
# 2 -0.002857 0.014490 -0.002558 0.000000 0.001894 0.000000
# 3 -0.000965 -0.002558 0.007932 0.000000 -0.002248 0.000000
# 4 0.000000 0.000000 0.000000 0.034771 0.000000 0.003675
# 5 -0.002222 0.001894 -0.002248 0.000000 0.024596 0.000000
# 6 0.000000 0.000000 0.000000 0.003675 0.000000 0.022232
#
#
# Mechanical properties :
#
#
# Convention : Reuss Voigt Hill
#
# Bulk Modulus (GPa) = 60.74556 68.72949 64.73752
# Shear Modulus (GPa) = 38.73886 43.20458 40.97172
#
# Velocity S-wave (km/s) = 4.00127 4.22561 4.11497
# Velocity P-wave (km/s) = 6.81557 7.22582 7.02369
#
# Compressibility (1/GPa) = 0.01646211
#
# Stress axis : x y z
#
# Youngs Moduli (GPa) = 147.04818 69.01449 126.07011
#
# Poissons Ratio (x) = 0.19714 0.12171
# Poissons Ratio (y) = 0.42005 0.32250
# Poissons Ratio (z) = 0.14197 0.17655
#
# Static dielectric constant tensor:
#      x y z
#    x 4.961830 0.000000 -0.205870 
#    y 0.000000 4.702020 0.000000 
#    z -0.205870 0.000000 4.760660 
# 
# 
# High freq. dielectric constant tensor:
#      x y z
#    x 1.981870 0.000000 -0.006570 
#    y 0.000000 1.950170 0.000000 
#    z -0.006570 0.000000 1.957130 
# 
# From -- ./inp_files/1094.got.cif
#   From: 2010.03.12/outbox.cif.g09.slc.cpg/sg14_1_cif.got.tgz:1094.got - 2010.03.31 13:35:05.
