data_PCOD8128550
_publ_section_title
;
Structure prediction by ZEFSAII (Michael W. Deem and Ramdas Pophale) SiO2 
 PCOD8128550
Probable space group: P 21/C
;
_chemical_formula_sum "Si O2"
_cell_formula_units_Z 20
_cell_length_a 23.142384
_cell_length_b 4.878289
_cell_length_c 16.712922
_cell_angle_alpha 90.000000
_cell_angle_beta 29.307203
_cell_angle_gamma 90.000000
_cell_volume 923.578208
_symmetry_space_group_name_H-M "P 21/C"
_symmetry_group_IT_number 14
_symmetry_cell_setting 'monoclinic'
loop_
_space_group_symop_operation_xyz
x,y,z
-x,1/2+y,1/2-z
-x,-y,-z
x,1/2-y,1/2+z
loop_
_atom_site_type_symbol
_atom_site_label
_atom_site_fract_x
_atom_site_fract_y
_atom_site_fract_z
Si Si1 0.267079 0.223832 0.555016
Si Si2 0.075554 0.385553 0.165719
Si Si3 0.284526 0.849960 0.315825
Si Si4 0.589666 0.824535 0.268934
Si Si5 0.317606 0.741213 0.597560
O O1 0.373455 0.208569 0.362483
O O2 0.301269 0.442810 0.580482
O O3 0.143395 0.259615 0.657795
O O4 0.247179 0.939131 0.624179
O O5 0.013063 0.126130 0.197710
O O6 0.162695 0.540199 0.999498
O O7 0.340663 0.607445 0.301091
O O8 0.261988 0.751630 0.252951
O O9 0.376252 0.103030 0.204379
O O10 0.450256 0.858749 0.441181
#
# Coordination Sequence:
#
# PCOD8128550 Si02
#       5
#     4   4   4   4   4
#     4  11  23  38  61  91 120 158 204 245 300 363
#     4  11  23  44  65  82 114 166 216 258 302 361
#     4  11  23  39  62  91 120 160 206 242 297 368
#     4  11  21  39  61  89 127 168 192 227 300 384
#     4  12  22  38  60  95 129 152 190 256 303 354
#
# _framework density 21.654909
#
# number of rings (size 3 to 8) (size 9 to 14) (size 15 to 20)
#    0.000    0.800    0.000   10.800    0.000    0.000 
#    0.000    6.000    0.000    0.000    0.000    0.000 
#    0.000    0.000    0.000    0.000    0.000    0.000 
#
# Total GULP energy -247993.513688 kJ/mol
# GULP energy per Si atom -12399.675684 kJ/mol
# Density = 2.160562 g / cm^3
# Si number density = 21.654909 Si / 1000 Ang^3
#
#
#
# Elastic Constant Matrix: (Units=GPa)
#
#
# Indices 1 2 3 4 5 6 
#
# 1 88.9397 14.9939 52.6679 0.0000 9.6036 0.0000
# 2 14.9939 94.6570 20.2721 0.0000 -2.5985 0.0000
# 3 52.6679 20.2721 60.7182 0.0000 -4.5119 0.0000
# 4 0.0000 0.0000 0.0000 16.3259 0.0000 -0.6281
# 5 9.6036 -2.5985 -4.5119 0.0000 32.8180 0.0000
# 6 0.0000 0.0000 0.0000 -0.6281 0.0000 52.5696
#
#
#
# Elastic Compliance Matrix: (Units=1/GPa)
#
#
# Indices 1 2 3 4 5 6 
#
# 1 0.026612 0.000647 -0.024121 0.000000 -0.011052 0.000000
# 2 0.000647 0.011399 -0.004358 0.000000 0.000114 0.000000
# 3 -0.024121 -0.004358 0.039752 0.000000 0.012179 0.000000
# 4 0.000000 0.000000 0.000000 0.061280 0.000000 0.000732
# 5 -0.011052 0.000114 0.012179 0.000000 0.035389 0.000000
# 6 0.000000 0.000000 0.000000 0.000732 0.000000 0.019031
#
#
# Mechanical properties :
#
#
# Convention : Reuss Voigt Hill
#
# Bulk Modulus (GPa) = 45.25225 46.68696 45.96961
# Shear Modulus (GPa) = 19.49372 30.76810 25.13091
#
# Velocity S-wave (km/s) = 3.00359 3.77349 3.41033
# Velocity P-wave (km/s) = 5.74204 6.37118 6.06478
#
# Compressibility (1/GPa) = 0.02209835
#
# Stress axis : x y z
#
# Youngs Moduli (GPa) = 37.57765 87.73070 25.15577
#
# Poissons Ratio (x) = -0.05676 0.60677
# Poissons Ratio (y) = -0.02431 0.10964
# Poissons Ratio (z) = 0.90640 0.38237
#
# Static dielectric constant tensor:
#      x y z
#    x 3.987880 0.000000 -0.067370 
#    y 0.000000 4.080370 0.000000 
#    z -0.067370 0.000000 3.735620 
# 
# 
# High freq. dielectric constant tensor:
#      x y z
#    x 1.852380 0.000000 -0.004080 
#    y 0.000000 1.873760 0.000000 
#    z -0.004080 0.000000 1.832190 
# 
# From -- ./inp_files/42511.got.cif
#   From: 2010.03.12/outbox.cif.g09.slc.cpg/sg14_22_cif.got.tgz:42511.got - 2010.03.31 13:35:05.
