data_PCOD8128954
_publ_section_title
;
Structure prediction by ZEFSAII (Michael W. Deem and Ramdas Pophale) SiO2 
 PCOD8128954
Probable space group: P 21/C
;
_chemical_formula_sum "Si O2"
_cell_formula_units_Z 24
_cell_length_a 6.665641
_cell_length_b 9.159391
_cell_length_c 21.349071
_cell_angle_alpha 90.000000
_cell_angle_beta 68.839934
_cell_angle_gamma 90.000000
_cell_volume 1215.546445
_symmetry_space_group_name_H-M "P 21/C"
_symmetry_group_IT_number 14
_symmetry_cell_setting 'monoclinic'
loop_
_space_group_symop_operation_xyz
x,y,z
-x,1/2+y,1/2-z
-x,-y,-z
x,1/2-y,1/2+z
loop_
_atom_site_type_symbol
_atom_site_label
_atom_site_fract_x
_atom_site_fract_y
_atom_site_fract_z
Si Si1 0.112308 0.611452 0.441416
Si Si2 0.647098 0.015678 0.390596
Si Si3 0.118661 0.287172 0.653519
Si Si4 0.790798 0.089080 0.507646
Si Si5 0.523899 0.535359 0.319837
Si Si6 0.336469 0.783216 0.731012
O O1 0.199544 0.745021 0.471975
O O2 0.313052 0.531446 0.386760
O O3 0.000000 0.500000 0.500000
O O4 0.939063 0.667691 0.410608
O O5 0.762692 0.089931 0.436383
O O6 0.664068 0.127477 0.332480
O O7 0.757147 0.864683 0.359685
O O8 0.399198 0.990606 0.434177
O O9 0.268458 0.412591 0.665243
O O10 0.906646 0.268685 0.718544
O O11 0.000000 0.000000 0.500000
O O12 0.562345 0.374182 0.290612
O O13 0.487729 0.640426 0.264943
#
# Coordination Sequence:
#
# PCOD8128954 Si02
#       6
#     4   4   4   4   4   4
#     4  11  26  43  66  99 134 169 217 268 323 381
#     4  11  24  43  69  96 129 172 221 262 328 382
#     4  11  23  45  66  96 130 172 216 270 319 384
#     4  11  24  43  68  96 131 175 214 267 320 388
#     4  11  25  45  66  94 135 167 217 271 320 385
#     4  11  26  42  69  97 128 175 214 269 326 384
#
# _framework density 19.744206999999999
#
# number of rings (size 3 to 8) (size 9 to 14) (size 15 to 20)
#    0.000    1.000    3.333    2.000    7.000    3.333 
#    0.000    0.000    0.000    0.000    0.000    0.000 
#    0.000    0.000    0.000    0.000    0.000    0.000 
#
# Total GULP energy -297773.695206 kJ/mol
# GULP energy per Si atom -12407.237300 kJ/mol
# Density = 1.969927 g / cm^3
# Si number density = 19.744207 Si / 1000 Ang^3
#
#
#
# Elastic Constant Matrix: (Units=GPa)
#
#
# Indices 1 2 3 4 5 6 
#
# 1 106.9237 43.2857 41.4701 0.0000 7.0948 0.0000
# 2 43.2857 122.1146 57.3924 0.0000 11.1786 0.0000
# 3 41.4701 57.3924 119.1030 0.0000 13.5363 0.0000
# 4 0.0000 0.0000 0.0000 45.2058 0.0000 1.2777
# 5 7.0948 11.1786 13.5363 0.0000 23.7932 0.0000
# 6 0.0000 0.0000 0.0000 1.2777 0.0000 28.2840
#
#
#
# Elastic Compliance Matrix: (Units=1/GPa)
#
#
# Indices 1 2 3 4 5 6 
#
# 1 0.011538 -0.002815 -0.002588 0.000000 -0.000646 0.000000
# 2 -0.002815 0.011384 -0.004269 0.000000 -0.002080 0.000000
# 3 -0.002588 -0.004269 0.011802 0.000000 -0.003937 0.000000
# 4 0.000000 0.000000 0.000000 0.022149 0.000000 -0.001001
# 5 -0.000646 -0.002080 -0.003937 0.000000 0.045439 0.000000
# 6 0.000000 0.000000 0.000000 -0.001001 0.000000 0.035401
#
#
# Mechanical properties :
#
#
# Convention : Reuss Voigt Hill
#
# Bulk Modulus (GPa) = 65.01610 70.27085 67.64348
# Shear Modulus (GPa) = 30.82953 33.18947 32.00950
#
# Velocity S-wave (km/s) = 3.95580 4.10441 4.03079
# Velocity P-wave (km/s) = 7.33929 7.62427 7.48314
#
# Compressibility (1/GPa) = 0.01538080
#
# Stress axis : x y z
#
# Youngs Moduli (GPa) = 86.66682 87.84633 84.73381
#
# Poissons Ratio (x) = 0.24725 0.21928
# Poissons Ratio (y) = 0.24393 0.36172
# Poissons Ratio (z) = 0.22428 0.37501
#
# Static dielectric constant tensor:
#      x y z
#    x 3.803630 0.000000 0.024070 
#    y 0.000000 4.080740 0.000000 
#    z 0.024070 0.000000 3.821830 
# 
# 
# High freq. dielectric constant tensor:
#      x y z
#    x 1.787670 0.000000 0.000870 
#    y 0.000000 1.779500 0.000000 
#    z 0.000870 0.000000 1.787040 
# 
# From -- ./inp_files/70987.got.cif
#   From: 2010.03.12/outbox.cif.g09.slc.cpg/sg14_36_cif.got.tgz:70987.got - 2010.03.31 13:35:05.
