data_PCOD8128402
_publ_section_title
;
Structure prediction by ZEFSAII (Michael W. Deem and Ramdas Pophale) SiO2 
 PCOD8128402
Probable space group: P 21/C
;
_chemical_formula_sum "Si O2"
_cell_formula_units_Z 24
_cell_length_a 5.478073
_cell_length_b 8.779233
_cell_length_c 23.675339
_cell_angle_alpha 90.000000
_cell_angle_beta 114.074380
_cell_angle_gamma 90.000000
_cell_volume 1039.583326
_symmetry_space_group_name_H-M "P 21/C"
_symmetry_group_IT_number 14
_symmetry_cell_setting 'monoclinic'
loop_
_space_group_symop_operation_xyz
x,y,z
-x,1/2+y,1/2-z
-x,-y,-z
x,1/2-y,1/2+z
loop_
_atom_site_type_symbol
_atom_site_label
_atom_site_fract_x
_atom_site_fract_y
_atom_site_fract_z
Si Si1 0.447007 0.322474 0.930008
Si Si2 0.808738 0.648354 0.761710
Si Si3 0.547470 0.319785 0.066965
Si Si4 0.659332 0.369780 0.357319
Si Si5 0.841508 0.804382 0.874022
Si Si6 0.046420 0.830274 0.691178
O O1 0.498427 0.501550 0.925817
O O2 0.663838 0.214397 0.918589
O O3 0.173441 0.275041 0.874712
O O4 0.440467 0.278560 0.994723
O O5 0.621792 0.572385 0.695598
O O6 0.689544 0.745473 0.803200
O O7 0.966427 0.510955 0.806026
O O8 0.015681 0.759530 0.750234
O O9 0.348997 0.235265 0.091146
O O10 0.858190 0.266427 0.097658
O O11 0.864738 0.511071 0.376232
O O12 0.691350 0.236803 0.313025
#
# Coordination Sequence:
#
# PCOD8128402 Si02
#       6
#     4   4   4   4   4   4
#     4  10  25  46  71 100 135 188 237 290 351 422
#     4  11  24  41  69 100 142 182 236 290 357 423
#     4  11  27  47  73 101 140 187 238 290 347 424
#     4  11  26  41  70 101 143 183 235 293 360 423
#     4  12  27  45  72 105 143 183 234 293 353 420
#     4  11  23  43  69  99 137 182 233 288 352 421
#
# _framework density 23.086172999999999
#
# number of rings (size 3 to 8) (size 9 to 14) (size 15 to 20)
#    0.000    1.000    1.667    3.000   11.667    5.333 
#    0.000    0.000    0.000    0.000    0.000    0.000 
#    0.000    0.000    0.000    0.000    0.000    0.000 
#
# Total GULP energy -297340.870596 kJ/mol
# GULP energy per Si atom -12389.202942 kJ/mol
# Density = 2.303363 g / cm^3
# Si number density = 23.086173 Si / 1000 Ang^3
#
#
#
# Elastic Constant Matrix: (Units=GPa)
#
#
# Indices 1 2 3 4 5 6 
#
# 1 99.4535 45.2149 42.6567 0.0000 -26.9020 0.0000
# 2 45.2149 139.8537 48.9649 0.0000 -26.2189 0.0000
# 3 42.6567 48.9649 130.3574 0.0000 -33.1348 0.0000
# 4 0.0000 0.0000 0.0000 37.4405 0.0000 -11.9401
# 5 -26.9020 -26.2189 -33.1348 0.0000 41.3823 0.0000
# 6 0.0000 0.0000 0.0000 -11.9401 0.0000 39.3155
#
#
#
# Elastic Compliance Matrix: (Units=1/GPa)
#
#
# Indices 1 2 3 4 5 6 
#
# 1 0.013642 -0.002651 -0.002060 0.000000 0.005539 0.000000
# 2 -0.002651 0.009158 -0.001928 0.000000 0.002535 0.000000
# 3 -0.002060 -0.001928 0.010570 0.000000 0.005902 0.000000
# 4 0.000000 0.000000 0.000000 0.029573 0.000000 0.008981
# 5 0.005539 0.002535 0.005902 0.000000 0.034098 0.000000
# 6 0.000000 0.000000 0.000000 0.008981 0.000000 0.028163
#
#
# Mechanical properties :
#
#
# Convention : Reuss Voigt Hill
#
# Bulk Modulus (GPa) = 49.77239 71.48195 60.62717
# Shear Modulus (GPa) = 34.44014 39.14953 36.79484
#
# Velocity S-wave (km/s) = 3.86658 4.12248 3.99658
# Velocity P-wave (km/s) = 6.44517 7.32735 6.90037
#
# Compressibility (1/GPa) = 0.02009146
#
# Stress axis : x y z
#
# Youngs Moduli (GPa) = 73.30221 109.19902 94.60792
#
# Poissons Ratio (x) = 0.28945 0.19493
# Poissons Ratio (y) = 0.19430 0.18241
# Poissons Ratio (z) = 0.15104 0.21054
#
# Static dielectric constant tensor:
#      x y z
#    x 4.030910 0.000000 -0.162940 
#    y 0.000000 4.116280 0.000000 
#    z -0.162940 0.000000 4.237630 
# 
# 
# High freq. dielectric constant tensor:
#      x y z
#    x 1.900050 0.000000 -0.011630 
#    y 0.000000 1.921380 0.000000 
#    z -0.011630 0.000000 1.927440 
# 
# From -- ./inp_files/71092.got.cif
#   From: 2010.03.12/outbox.cif.g09.slc.cpg/sg14_36_cif.got.tgz:71092.got - 2010.03.31 13:35:05.
