data_PCOD8128235
_publ_section_title
;
Structure prediction by ZEFSAII (Michael W. Deem and Ramdas Pophale) SiO2 
 PCOD8128235
Probable space group: P 21/C
;
_chemical_formula_sum "Si O2"
_cell_formula_units_Z 32
_cell_length_a 11.006218
_cell_length_b 13.557661
_cell_length_c 9.409969
_cell_angle_alpha 90.000000
_cell_angle_beta 70.843453
_cell_angle_gamma 90.000000
_cell_volume 1326.388487
_symmetry_space_group_name_H-M "P 21/C"
_symmetry_group_IT_number 14
_symmetry_cell_setting 'monoclinic'
loop_
_space_group_symop_operation_xyz
x,y,z
-x,1/2+y,1/2-z
-x,-y,-z
x,1/2-y,1/2+z
loop_
_atom_site_type_symbol
_atom_site_label
_atom_site_fract_x
_atom_site_fract_y
_atom_site_fract_z
Si Si1 0.125532 0.213599 0.071639
Si Si2 0.539102 0.156661 0.633994
Si Si3 0.871044 0.085534 0.122926
Si Si4 0.689920 0.239596 0.312156
Si Si5 0.893452 0.559993 0.860264
Si Si6 0.834449 0.071214 0.812960
Si Si7 0.672880 0.527394 0.160057
Si Si8 0.707271 0.729298 0.246181
O O1 0.111573 0.322152 0.145568
O O2 0.225673 0.169394 0.148990
O O3 0.997120 0.149467 0.114627
O O4 0.186083 0.218912 0.892343
O O5 0.631010 0.195712 0.476906
O O6 0.579866 0.204400 0.767448
O O7 0.391174 0.186351 0.661486
O O8 0.555569 0.037364 0.639936
O O9 0.746626 0.153086 0.193297
O O10 0.856895 0.988127 0.223232
O O11 0.869818 0.045096 0.962438
O O12 0.806708 0.311913 0.311482
O O13 0.044274 0.537619 0.831257
O O14 0.799651 0.514706 0.013979
O O15 0.709578 0.014656 0.801666
O O16 0.631494 0.642226 0.188414
#
# Coordination Sequence:
#
# PCOD8128235 Si02
#       8
#     4   4   4   4   4   4   4   4
#     4  11  25  43  67 100 141 179 224 271 346 407
#     4  11  23  46  69  95 132 179 239 276 327 403
#     4  12  23  41  68 103 140 173 220 280 342 404
#     4  11  22  40  68  98 131 175 221 282 337 389
#     4  11  22  40  66 101 139 180 219 272 343 414
#     4  11  22  39  64 105 141 171 219 280 337 411
#     4  10  24  43  70  99 133 184 230 271 344 402
#     4  11  25  48  67  96 136 186 222 287 333 393
#
# _framework density 24.125662999999999
#
# number of rings (size 3 to 8) (size 9 to 14) (size 15 to 20)
#    0.000    1.000    3.750    3.000    0.000    2.000 
#    2.250    8.750    0.000    0.000    0.000    0.000 
#    0.000    0.000    0.000    0.000    0.000    0.000 
#
# Total GULP energy -396694.732557 kJ/mol
# GULP energy per Si atom -12396.710392 kJ/mol
# Density = 2.407075 g / cm^3
# Si number density = 24.125663 Si / 1000 Ang^3
#
#
#
# Elastic Constant Matrix: (Units=GPa)
#
#
# Indices 1 2 3 4 5 6 
#
# 1 67.6311 1.9852 35.5122 0.0000 0.5795 0.0000
# 2 1.9852 74.0675 28.3187 0.0000 -8.6944 0.0000
# 3 35.5122 28.3187 103.0944 0.0000 6.4005 0.0000
# 4 0.0000 0.0000 0.0000 34.7362 0.0000 -5.1676
# 5 0.5795 -8.6944 6.4005 0.0000 31.9555 0.0000
# 6 0.0000 0.0000 0.0000 -5.1676 0.0000 29.8601
#
#
#
# Elastic Compliance Matrix: (Units=1/GPa)
#
#
# Indices 1 2 3 4 5 6 
#
# 1 0.018445 0.002439 -0.007133 0.000000 0.001758 0.000000
# 2 0.002439 0.016239 -0.005643 0.000000 0.005504 0.000000
# 3 -0.007133 -0.005643 0.013968 0.000000 -0.004204 0.000000
# 4 0.000000 0.000000 0.000000 0.029549 0.000000 0.005114
# 5 0.001758 0.005504 -0.004204 0.000000 0.033601 0.000000
# 6 0.000000 0.000000 0.000000 0.005114 0.000000 0.034374
#
#
# Mechanical properties :
#
#
# Convention : Reuss Voigt Hill
#
# Bulk Modulus (GPa) = 35.74071 41.82503 38.78287
# Shear Modulus (GPa) = 28.38081 31.24215 29.81148
#
# Velocity S-wave (km/s) = 3.43355 3.60248 3.51903
# Velocity P-wave (km/s) = 5.52862 5.88878 5.71154
#
# Compressibility (1/GPa) = 0.02797930
#
# Stress axis : x y z
#
# Youngs Moduli (GPa) = 54.21619 61.57892 71.59379
#
# Poissons Ratio (x) = -0.15019 0.51065
# Poissons Ratio (y) = -0.13223 0.40398
# Poissons Ratio (z) = 0.38670 0.34747
#
# Static dielectric constant tensor:
#      x y z
#    x 4.165060 0.000000 0.063900 
#    y 0.000000 4.421210 0.000000 
#    z 0.063900 0.000000 4.233260 
# 
# 
# High freq. dielectric constant tensor:
#      x y z
#    x 1.945930 0.000000 0.008690 
#    y 0.000000 1.968380 0.000000 
#    z 0.008690 0.000000 1.959520 
# 
# From -- ./inp_files/13291.got.cif
#   From: 2010.03.12/outbox.cif.g09.slc.cpg/sg14_7_cif.got.tgz:13291.got - 2010.03.31 13:35:05.
