data_PCOD8128281
_publ_section_title
;
Structure prediction by ZEFSAII (Michael W. Deem and Ramdas Pophale) SiO2 
 PCOD8128281
Probable space group: P 21/C
;
_chemical_formula_sum "Si O2"
_cell_formula_units_Z 24
_cell_length_a 10.990261
_cell_length_b 10.587556
_cell_length_c 9.628285
_cell_angle_alpha 90.000000
_cell_angle_beta 111.498712
_cell_angle_gamma 90.000000
_cell_volume 1042.400021
_symmetry_space_group_name_H-M "P 21/C"
_symmetry_group_IT_number 14
_symmetry_cell_setting 'monoclinic'
loop_
_space_group_symop_operation_xyz
x,y,z
-x,1/2+y,1/2-z
-x,-y,-z
x,1/2-y,1/2+z
loop_
_atom_site_type_symbol
_atom_site_label
_atom_site_fract_x
_atom_site_fract_y
_atom_site_fract_z
Si Si1 0.135322 0.107043 0.897590
Si Si2 0.667797 0.963775 0.479528
Si Si3 0.498150 0.807599 0.600313
Si Si4 0.749115 0.157624 0.015299
Si Si5 0.837457 0.124942 0.743059
Si Si6 0.238983 0.230270 0.675461
O O1 0.180793 0.211157 0.804431
O O2 0.984095 0.072881 0.817705
O O3 0.156064 0.163928 0.060118
O O4 0.221786 0.981804 0.915338
O O5 0.563014 0.858744 0.485095
O O6 0.766465 0.902593 0.409583
O O7 0.593302 0.080829 0.375357
O O8 0.748905 0.010565 0.648165
O O9 0.405212 0.687702 0.527980
O O10 0.609372 0.771091 0.755887
O O11 0.784025 0.170296 0.868238
O O12 0.836163 0.257722 0.136675
#
# Coordination Sequence:
#
# PCOD8128281 Si02
#       6
#     4   4   4   4   4   4
#     4  12  28  45  73 103 146 185 240 285 347 423
#     4  10  24  45  71  96 145 185 225 301 348 411
#     4  10  24  44  70 103 138 180 235 285 359 415
#     4  11  27  44  76 102 138 189 232 296 347 417
#     4  11  26  49  71 104 142 187 237 284 358 409
#     4  12  26  43  70 105 139 188 235 291 350 408
#
# _framework density 23.023790000000002
#
# number of rings (size 3 to 8) (size 9 to 14) (size 15 to 20)
#    0.000    1.000    1.667    2.500   16.333    1.333 
#    0.000    0.000    0.000    0.000    0.000    0.000 
#    0.000    0.000    0.000    0.000    0.000    0.000 
#
# Total GULP energy -297708.358049 kJ/mol
# GULP energy per Si atom -12404.514919 kJ/mol
# Density = 2.297139 g / cm^3
# Si number density = 23.023790 Si / 1000 Ang^3
#
#
#
# Elastic Constant Matrix: (Units=GPa)
#
#
# Indices 1 2 3 4 5 6 
#
# 1 117.2759 45.7331 49.0346 0.0000 26.5430 0.0000
# 2 45.7331 90.5004 41.6869 0.0000 11.1425 0.0000
# 3 49.0346 41.6869 123.2786 0.0000 9.9054 0.0000
# 4 0.0000 0.0000 0.0000 43.1421 0.0000 2.4699
# 5 26.5430 11.1425 9.9054 0.0000 36.0654 0.0000
# 6 0.0000 0.0000 0.0000 2.4699 0.0000 34.8872
#
#
#
# Elastic Compliance Matrix: (Units=1/GPa)
#
#
# Indices 1 2 3 4 5 6 
#
# 1 0.013250 -0.004286 -0.003215 0.000000 -0.007544 0.000000
# 2 -0.004286 0.014777 -0.003250 0.000000 -0.000518 0.000000
# 3 -0.003215 -0.003250 0.010449 0.000000 0.000500 0.000000
# 4 0.000000 0.000000 0.000000 0.023274 0.000000 -0.001648
# 5 -0.007544 -0.000518 0.000500 0.000000 0.033303 0.000000
# 6 0.000000 0.000000 0.000000 -0.001648 0.000000 0.028780
#
#
# Mechanical properties :
#
#
# Convention : Reuss Voigt Hill
#
# Bulk Modulus (GPa) = 58.91464 67.10713 63.01089
# Shear Modulus (GPa) = 33.11429 35.79230 34.45330
#
# Velocity S-wave (km/s) = 3.79656 3.94709 3.87256
# Velocity P-wave (km/s) = 6.69796 7.06986 6.88642
#
# Compressibility (1/GPa) = 0.01697371
#
# Stress axis : x y z
#
# Youngs Moduli (GPa) = 75.47215 67.67496 95.70045
#
# Poissons Ratio (x) = 0.29006 0.30765
# Poissons Ratio (y) = 0.32347 0.31106
# Poissons Ratio (z) = 0.24262 0.21996
#
# Static dielectric constant tensor:
#      x y z
#    x 4.038020 0.000000 0.170480 
#    y 0.000000 4.191990 0.000000 
#    z 0.170480 0.000000 4.107940 
# 
# 
# High freq. dielectric constant tensor:
#      x y z
#    x 1.902840 0.000000 0.011000 
#    y 0.000000 1.916480 0.000000 
#    z 0.011000 0.000000 1.914050 
# 
# From -- ./inp_files/12502.got.cif
#   From: 2010.03.12/outbox.cif.g09.slc.cpg/sg14_7_cif.got.tgz:12502.got - 2010.03.31 13:35:05.
