data_PCOD8128456
_publ_section_title
;
Structure prediction by ZEFSAII (Michael W. Deem and Ramdas Pophale) SiO2 
 PCOD8128456
Probable space group: P 21/C
;
_chemical_formula_sum "Si O2"
_cell_formula_units_Z 32
_cell_length_a 13.681176
_cell_length_b 18.884913
_cell_length_c 10.959425
_cell_angle_alpha 90.000000
_cell_angle_beta 147.831284
_cell_angle_gamma 90.000000
_cell_volume 1507.564114
_symmetry_space_group_name_H-M "P 21/C"
_symmetry_group_IT_number 14
_symmetry_cell_setting 'monoclinic'
loop_
_space_group_symop_operation_xyz
x,y,z
-x,1/2+y,1/2-z
-x,-y,-z
x,1/2-y,1/2+z
loop_
_atom_site_type_symbol
_atom_site_label
_atom_site_fract_x
_atom_site_fract_y
_atom_site_fract_z
Si Si1 0.724868 0.132583 0.424625
Si Si2 0.188137 0.291797 0.010654
Si Si3 0.008299 0.654572 0.423092
Si Si4 0.885487 0.197323 0.367877
Si Si5 0.102609 0.365479 0.437612
Si Si6 0.452410 0.446738 0.775390
Si Si7 0.584017 0.217518 0.852947
Si Si8 0.386158 0.597619 0.803418
O O1 0.810112 0.136441 0.378311
O O2 0.892561 0.113844 0.691174
O O3 0.578521 0.069039 0.289463
O O4 0.609693 0.202585 0.335875
O O5 0.118163 0.342959 0.829574
O O6 0.094493 0.315725 0.040284
O O7 0.128576 0.212556 0.909111
O O8 0.407960 0.291981 0.255497
O O9 0.119757 0.727782 0.567224
O O10 0.870973 0.635243 0.388034
O O11 0.164058 0.594577 0.573022
O O12 0.763693 0.195475 0.117365
O O13 0.244851 0.420813 0.529887
O O14 0.458650 0.529874 0.806033
O O15 0.531925 0.401625 0.973716
O O16 0.551639 0.168077 0.701514
#
# Coordination Sequence:
#
# PCOD8128456 Si02
#       8
#     4   4   4   4   4   4   4   4
#     4  12  22  39  63  92 127 162 202 261 306 362
#     4  11  22  35  61  94 120 155 204 253 310 362
#     4  11  19  38  61  91 125 152 203 256 307 360
#     4  11  21  37  60  92 121 157 200 260 301 361
#     4  11  21  36  60  91 126 155 200 253 315 364
#     4  11  25  41  62  94 129 162 206 253 319 374
#     4  12  22  39  66  90 123 163 210 258 303 364
#     4  11  22  43  64  90 126 168 205 255 313 375
#
# _framework density 21.226293999999999
#
# number of rings (size 3 to 8) (size 9 to 14) (size 15 to 20)
#    0.000    0.750    8.750    0.750    0.000    3.500 
#    2.250    0.625    0.000    1.500    0.000    0.000 
#    0.000    0.000    0.000    0.000    0.000    0.000 
#
# Total GULP energy -396799.395635 kJ/mol
# GULP energy per Si atom -12399.981114 kJ/mol
# Density = 2.117798 g / cm^3
# Si number density = 21.226294 Si / 1000 Ang^3
#
#
#
# Elastic Constant Matrix: (Units=GPa)
#
#
# Indices 1 2 3 4 5 6 
#
# 1 89.1400 4.2682 19.7927 0.0000 21.1025 0.0000
# 2 4.2682 34.5228 17.1559 0.0000 2.7899 0.0000
# 3 19.7927 17.1559 54.6320 0.0000 19.2326 0.0000
# 4 0.0000 0.0000 0.0000 20.3260 0.0000 -0.7329
# 5 21.1025 2.7899 19.2326 0.0000 42.2221 0.0000
# 6 0.0000 0.0000 0.0000 -0.7329 0.0000 25.5793
#
#
#
# Elastic Compliance Matrix: (Units=1/GPa)
#
#
# Indices 1 2 3 4 5 6 
#
# 1 0.013103 0.000296 -0.003010 0.000000 -0.005197 0.000000
# 2 0.000296 0.034684 -0.012077 0.000000 0.003061 0.000000
# 3 -0.003010 -0.012077 0.026650 0.000000 -0.009837 0.000000
# 4 0.000000 0.000000 0.000000 0.049249 0.000000 0.001411
# 5 -0.005197 0.003061 -0.009837 0.000000 0.030560 0.000000
# 6 0.000000 0.000000 0.000000 0.001411 0.000000 0.039135
#
#
# Mechanical properties :
#
#
# Convention : Reuss Voigt Hill
#
# Bulk Modulus (GPa) = 22.29405 28.96982 25.63193
# Shear Modulus (GPa) = 21.01599 26.76402 23.89001
#
# Velocity S-wave (km/s) = 3.14999 3.55475 3.35847
# Velocity P-wave (km/s) = 4.87398 5.52504 5.20969
#
# Compressibility (1/GPa) = 0.04485503
#
# Stress axis : x y z
#
# Youngs Moduli (GPa) = 76.31902 28.83197 37.52312
#
# Poissons Ratio (x) = -0.00854 0.11296
# Poissons Ratio (y) = -0.02259 0.45315
# Poissons Ratio (z) = 0.22975 0.34819
#
# Static dielectric constant tensor:
#      x y z
#    x 3.994220 0.000000 0.225080 
#    y 0.000000 3.405040 0.000000 
#    z 0.225080 0.000000 3.688270 
# 
# 
# High freq. dielectric constant tensor:
#      x y z
#    x 1.844930 0.000000 0.021460 
#    y 0.000000 1.785830 0.000000 
#    z 0.021460 0.000000 1.824940 
# 
# From -- ./inp_files/33049.got.cif
#   From: 2010.03.12/outbox.cif.g09.slc.cpg/sg14_17_cif.got.tgz:33049.got - 2010.03.31 13:35:05.
