data_PCOD8128243
_publ_section_title
;
Structure prediction by ZEFSAII (Michael W. Deem and Ramdas Pophale) SiO2 
 PCOD8128243
Probable space group: P 21/C
;
_chemical_formula_sum "Si O2"
_cell_formula_units_Z 28
_cell_length_a 18.889333
_cell_length_b 9.068606
_cell_length_c 9.002420
_cell_angle_alpha 90.000000
_cell_angle_beta 48.646718
_cell_angle_gamma 90.000000
_cell_volume 1157.587799
_symmetry_space_group_name_H-M "P 21/C"
_symmetry_group_IT_number 14
_symmetry_cell_setting 'monoclinic'
loop_
_space_group_symop_operation_xyz
x,y,z
-x,1/2+y,1/2-z
-x,-y,-z
x,1/2-y,1/2+z
loop_
_atom_site_type_symbol
_atom_site_label
_atom_site_fract_x
_atom_site_fract_y
_atom_site_fract_z
Si Si1 0.746331 0.812280 0.673049
Si Si2 0.787150 0.385832 0.242434
Si Si3 0.079744 0.383623 0.545034
Si Si4 0.332927 0.791425 0.827552
Si Si5 0.036989 0.792366 0.061510
Si Si6 0.386378 0.206741 0.400357
Si Si7 0.552214 0.399160 0.099469
O O1 0.815746 0.673334 0.565686
O O2 0.704229 0.847138 0.569059
O O3 0.805454 0.948213 0.659838
O O4 0.653566 0.778499 0.895854
O O5 0.729315 0.393350 0.476757
O O6 0.732798 0.304823 0.186436
O O7 0.885157 0.301181 0.136984
O O8 0.083657 0.559470 0.564175
O O9 0.050999 0.342184 0.417263
O O10 0.001031 0.312845 0.758229
O O11 0.398593 0.890990 0.630332
O O12 0.393342 0.682742 0.844667
O O13 0.448002 0.330468 0.230751
O O14 0.454515 0.069789 0.344837
#
# Coordination Sequence:
#
# PCOD8128243 Si02
#       7
#     4   4   4   4   4   4   4
#     4  12  28  46  70 107 147 184 239 297 357 419
#     4  11  24  44  73 105 141 188 237 290 354 418
#     4  11  26  46  72 107 145 185 236 291 348 421
#     4  10  24  43  74 102 141 180 240 293 351 421
#     4  11  25  46  75 105 144 189 235 288 348 419
#     4  12  29  47  74 103 143 187 237 299 357 425
#     4  11  26  48  72 102 140 185 239 292 359 427
#
# _framework density 24.188229
#
# number of rings (size 3 to 8) (size 9 to 14) (size 15 to 20)
#    0.000    0.857    1.429    3.429   10.000    9.143 
#    0.000    0.000    0.000    0.000    0.000    0.000 
#    0.000    0.000    0.000    0.000    0.000    0.000 
#
# Total GULP energy -347374.872750 kJ/mol
# GULP energy per Si atom -12406.245455 kJ/mol
# Density = 2.413318 g / cm^3
# Si number density = 24.188229 Si / 1000 Ang^3
#
#
#
# Elastic Constant Matrix: (Units=GPa)
#
#
# Indices 1 2 3 4 5 6 
#
# 1 82.8393 27.0550 26.7577 0.0000 -0.1494 0.0000
# 2 27.0550 134.4582 35.5412 0.0000 -12.0229 0.0000
# 3 26.7577 35.5412 93.3474 0.0000 1.8221 0.0000
# 4 0.0000 0.0000 0.0000 39.5121 0.0000 -5.7156
# 5 -0.1494 -12.0229 1.8221 0.0000 39.1216 0.0000
# 6 0.0000 0.0000 0.0000 -5.7156 0.0000 31.1301
#
#
#
# Elastic Compliance Matrix: (Units=1/GPa)
#
#
# Indices 1 2 3 4 5 6 
#
# 1 0.013739 -0.001959 -0.003185 0.000000 -0.000401 0.000000
# 2 -0.001959 0.008842 -0.002860 0.000000 0.002843 0.000000
# 3 -0.003185 -0.002860 0.012744 0.000000 -0.001485 0.000000
# 4 0.000000 0.000000 0.000000 0.025999 0.000000 0.004774
# 5 -0.000401 0.002843 -0.001485 0.000000 0.026503 0.000000
# 6 0.000000 0.000000 0.000000 0.004774 0.000000 0.033000
#
#
# Mechanical properties :
#
#
# Convention : Reuss Voigt Hill
#
# Bulk Modulus (GPa) = 51.76804 54.37252 53.07028
# Shear Modulus (GPa) = 34.89849 36.70549 35.80199
#
# Velocity S-wave (km/s) = 3.80253 3.89973 3.85143
# Velocity P-wave (km/s) = 6.38182 6.54255 6.46268
#
# Compressibility (1/GPa) = 0.01931694
#
# Stress axis : x y z
#
# Youngs Moduli (GPa) = 72.78443 113.10088 78.47054
#
# Poissons Ratio (x) = 0.22152 0.24991
# Poissons Ratio (y) = 0.14255 0.22446
# Poissons Ratio (z) = 0.23180 0.32352
#
# Static dielectric constant tensor:
#      x y z
#    x 4.243830 0.000000 0.095440 
#    y 0.000000 4.315460 0.000000 
#    z 0.095440 0.000000 4.376050 
# 
# 
# High freq. dielectric constant tensor:
#      x y z
#    x 1.972180 0.000000 0.006890 
#    y 0.000000 1.964660 0.000000 
#    z 0.006890 0.000000 1.962430 
# 
# From -- ./inp_files/18698.got.cif
#   From: 2010.03.12/outbox.cif.g09.slc.cpg/sg14_10_cif.got.tgz:18698.got - 2010.03.31 13:35:05.
