data_PCOD8128848
_publ_section_title
;
Structure prediction by ZEFSAII (Michael W. Deem and Ramdas Pophale) SiO2 
 PCOD8128848
Probable space group: P 21/C
;
_chemical_formula_sum "Si O2"
_cell_formula_units_Z 20
_cell_length_a 11.295429
_cell_length_b 9.891623
_cell_length_c 7.535329
_cell_angle_alpha 90.000000
_cell_angle_beta 84.187068
_cell_angle_gamma 90.000000
_cell_volume 837.593978
_symmetry_space_group_name_H-M "P 21/C"
_symmetry_group_IT_number 14
_symmetry_cell_setting 'monoclinic'
loop_
_space_group_symop_operation_xyz
x,y,z
-x,1/2+y,1/2-z
-x,-y,-z
x,1/2-y,1/2+z
loop_
_atom_site_type_symbol
_atom_site_label
_atom_site_fract_x
_atom_site_fract_y
_atom_site_fract_z
Si Si1 0.071322 0.924539 0.204798
Si Si2 0.577964 0.637546 0.652304
Si Si3 0.943548 0.711458 0.411688
Si Si4 0.702686 0.872942 0.489895
Si Si5 0.674605 0.459802 0.321135
O O1 0.205941 0.892422 0.113868
O O2 0.041781 0.830638 0.378941
O O3 0.054477 0.088026 0.235863
O O4 0.969051 0.867623 0.089129
O O5 0.604957 0.794754 0.623669
O O6 0.644805 0.575347 0.814274
O O7 0.624109 0.569872 0.464815
O O8 0.435580 0.638170 0.700733
O O9 0.813144 0.775785 0.432451
O O10 0.730337 0.994305 0.620988
#
# Coordination Sequence:
#
# PCOD8128848 Si02
#       5
#     4   4   4   4   4
#     4  11  24  46  65 104 139 184 233 294 346 416
#     4  11  23  41  69  97 130 183 235 280 349 423
#     4  11  25  42  72  98 140 186 234 284 354 419
#     4  12  22  46  70  96 137 191 225 287 363 423
#     4  11  25  43  66 101 139 178 239 295 345 413
#
# _framework density 23.877918999999999
#
# number of rings (size 3 to 8) (size 9 to 14) (size 15 to 20)
#    0.000    0.800    4.000    3.000    2.800    4.800 
#    0.000    0.000    0.000    0.000    0.000    0.000 
#    0.000    0.000    0.000    0.000    0.000    0.000 
#
# Total GULP energy -247763.255435 kJ/mol
# GULP energy per Si atom -12388.162772 kJ/mol
# Density = 2.382357 g / cm^3
# Si number density = 23.877919 Si / 1000 Ang^3
#
#
#
# Elastic Constant Matrix: (Units=GPa)
#
#
# Indices 1 2 3 4 5 6 
#
# 1 176.7931 48.3873 14.6654 0.0000 -5.5299 0.0000
# 2 48.3873 82.2265 9.7556 0.0000 -25.3221 0.0000
# 3 14.6654 9.7556 89.3679 0.0000 -0.1187 0.0000
# 4 0.0000 0.0000 0.0000 19.1892 0.0000 -2.9716
# 5 -5.5299 -25.3221 -0.1187 0.0000 33.2399 0.0000
# 6 0.0000 0.0000 0.0000 -2.9716 0.0000 40.2481
#
#
#
# Elastic Compliance Matrix: (Units=1/GPa)
#
#
# Indices 1 2 3 4 5 6 
#
# 1 0.006937 -0.004773 -0.000621 0.000000 -0.002485 0.000000
# 2 -0.004773 0.019442 -0.001320 0.000000 0.014012 0.000000
# 3 -0.000621 -0.001320 0.011434 0.000000 -0.001068 0.000000
# 4 0.000000 0.000000 0.000000 0.052715 0.000000 0.003892
# 5 -0.002485 0.014012 -0.001068 0.000000 0.040342 0.000000
# 6 0.000000 0.000000 0.000000 0.003892 0.000000 0.025133
#
#
# Mechanical properties :
#
#
# Convention : Reuss Voigt Hill
#
# Bulk Modulus (GPa) = 41.00985 54.88934 47.94959
# Shear Modulus (GPa) = 28.15943 36.90739 32.53341
#
# Velocity S-wave (km/s) = 3.43783 3.93577 3.69520
# Velocity P-wave (km/s) = 5.74198 6.60992 6.19118
#
# Compressibility (1/GPa) = 0.02438439
#
# Stress axis : x y z
#
# Youngs Moduli (GPa) = 144.16382 51.43407 87.45654
#
# Poissons Ratio (x) = 0.24552 0.05427
# Poissons Ratio (y) = 0.68816 0.11548
# Poissons Ratio (z) = 0.08946 0.06791
#
# Static dielectric constant tensor:
#      x y z
#    x 4.523170 0.000000 0.147630 
#    y 0.000000 4.627170 0.000000 
#    z 0.147630 0.000000 4.317200 
# 
# 
# High freq. dielectric constant tensor:
#      x y z
#    x 1.961930 0.000000 0.011330 
#    y 0.000000 1.921010 0.000000 
#    z 0.011330 0.000000 1.947770 
# 
# From -- ./inp_files/11851.got.cif
#   From: 2010.03.12/outbox.cif.g09.slc.cpg/sg14_6_cif.got.tgz:11851.got - 2010.03.31 13:35:05.
