data_PCOD8128800
_publ_section_title
;
Structure prediction by ZEFSAII (Michael W. Deem and Ramdas Pophale) SiO2 
 PCOD8128800
Probable space group: P 21/C
;
_chemical_formula_sum "Si O2"
_cell_formula_units_Z 32
_cell_length_a 10.460544
_cell_length_b 16.031288
_cell_length_c 15.459091
_cell_angle_alpha 90.000000
_cell_angle_beta 138.070047
_cell_angle_gamma 90.000000
_cell_volume 1732.316068
_symmetry_space_group_name_H-M "P 21/C"
_symmetry_group_IT_number 14
_symmetry_cell_setting 'monoclinic'
loop_
_space_group_symop_operation_xyz
x,y,z
-x,1/2+y,1/2-z
-x,-y,-z
x,1/2-y,1/2+z
loop_
_atom_site_type_symbol
_atom_site_label
_atom_site_fract_x
_atom_site_fract_y
_atom_site_fract_z
Si Si1 0.484804 0.366187 0.702254
Si Si2 0.224801 0.143401 0.682991
Si Si3 0.786652 0.351769 0.990296
Si Si4 0.522406 0.096775 0.501837
Si Si5 0.487892 0.974047 0.091089
Si Si6 0.522033 0.320623 0.188219
Si Si7 0.785437 0.159649 0.975458
Si Si8 0.224116 0.171577 0.222638
O O1 0.662916 0.392080 0.851654
O O2 0.438926 0.441136 0.615635
O O3 0.526079 0.278975 0.673958
O O4 0.300508 0.356440 0.668796
O O5 0.312060 0.065814 0.778469
O O6 0.326839 0.151708 0.640238
O O7 0.252449 0.229350 0.749540
O O8 0.999212 0.126672 0.566165
O O9 0.720799 0.388956 0.049344
O O10 0.736777 0.254325 0.975928
O O11 0.534838 0.137098 0.602146
O O12 0.334683 0.130224 0.357932
O O13 0.500000 0.000000 0.500000
O O14 0.323958 0.904922 0.018679
O O15 0.500000 0.000000 0.000000
O O16 0.707678 0.350916 0.337567
O O17 0.006059 0.142188 0.105380
#
# Coordination Sequence:
#
# PCOD8128800 Si02
#       8
#     4   4   4   4   4   4   4   4
#     4   9  20  37  59  82 115 151 186 237 290 342
#     4   9  20  41  61  80 113 156 190 233 290 340
#     4   9  20  41  61  81 113 154 191 234 290 340
#     4  11  23  36  60  89 119 146 195 240 284 336
#     4  11  23  34  56  87 119 148 193 232 280 340
#     4   9  20  39  61  84 113 151 194 239 286 342
#     4   9  20  41  61  80 113 156 190 233 290 340
#     4   9  20  41  61  81 113 154 191 234 290 340
#
# _framework density 18.472379
#
# number of rings (size 3 to 8) (size 9 to 14) (size 15 to 20)
#    0.000    2.500    0.000    2.250   10.500    2.000 
#    4.500    2.500    0.000    0.000    0.000    0.000 
#    0.000    0.000    0.000    0.000    0.000    0.000 
#
# Total GULP energy -396615.611880 kJ/mol
# GULP energy per Si atom -12394.237871 kJ/mol
# Density = 1.843034 g / cm^3
# Si number density = 18.472379 Si / 1000 Ang^3
#
#
#
# Elastic Constant Matrix: (Units=GPa)
#
#
# Indices 1 2 3 4 5 6 
#
# 1 74.4733 18.1894 35.4377 0.0000 -4.1096 0.0000
# 2 18.1894 71.5702 14.1119 0.0000 -18.1235 0.0000
# 3 35.4377 14.1119 61.8018 0.0000 -6.8572 0.0000
# 4 0.0000 0.0000 0.0000 29.2106 0.0000 -4.7721
# 5 -4.1096 -18.1235 -6.8572 0.0000 38.6259 0.0000
# 6 0.0000 0.0000 0.0000 -4.7721 0.0000 21.6728
#
#
#
# Elastic Compliance Matrix: (Units=1/GPa)
#
#
# Indices 1 2 3 4 5 6 
#
# 1 0.019044 -0.003123 -0.010349 0.000000 -0.001276 0.000000
# 2 -0.003123 0.016877 -0.001246 0.000000 0.007365 0.000000
# 3 -0.010349 -0.001246 0.022659 0.000000 0.002337 0.000000
# 4 0.000000 0.000000 0.000000 0.035512 0.000000 0.007819
# 5 -0.001276 0.007365 0.002337 0.000000 0.029624 0.000000
# 6 0.000000 0.000000 0.000000 0.007819 0.000000 0.047862
#
#
# Mechanical properties :
#
#
# Convention : Reuss Voigt Hill
#
# Bulk Modulus (GPa) = 34.31121 38.14702 36.22912
# Shear Modulus (GPa) = 23.72734 27.24227 25.48481
#
# Velocity S-wave (km/s) = 3.58785 3.84442 3.71835
# Velocity P-wave (km/s) = 5.98149 6.35624 6.17171
#
# Compressibility (1/GPa) = 0.02914499
#
# Stress axis : x y z
#
# Youngs Moduli (GPa) = 52.50917 59.25345 44.13337
#
# Poissons Ratio (x) = 0.18503 0.45672
# Poissons Ratio (y) = 0.16397 0.05498
# Poissons Ratio (z) = 0.54340 0.07382
#
# Static dielectric constant tensor:
#      x y z
#    x 3.601580 0.000000 0.205450 
#    y 0.000000 3.541260 0.000000 
#    z 0.205450 0.000000 3.439700 
# 
# 
# High freq. dielectric constant tensor:
#      x y z
#    x 1.712420 0.000000 0.007610 
#    y 0.000000 1.727640 0.000000 
#    z 0.007610 0.000000 1.709130 
# 
# From -- ./inp_files/45109.got.cif
#   From: 2010.03.12/outbox.cif.g09.slc.cpg/sg14_23_cif.got.tgz:45109.got - 2010.03.31 13:35:05.
