data_PCOD8128685
_publ_section_title
;
Structure prediction by ZEFSAII (Michael W. Deem and Ramdas Pophale) SiO2 
 PCOD8128685
Probable space group: P 21/C
;
_chemical_formula_sum "Si O2"
_cell_formula_units_Z 16
_cell_length_a 14.355068
_cell_length_b 5.125571
_cell_length_c 22.231443
_cell_angle_alpha 90.000000
_cell_angle_beta 24.219335
_cell_angle_gamma 90.000000
_cell_volume 671.032322
_symmetry_space_group_name_H-M "P 21/C"
_symmetry_group_IT_number 14
_symmetry_cell_setting 'monoclinic'
loop_
_space_group_symop_operation_xyz
x,y,z
-x,1/2+y,1/2-z
-x,-y,-z
x,1/2-y,1/2+z
loop_
_atom_site_type_symbol
_atom_site_label
_atom_site_fract_x
_atom_site_fract_y
_atom_site_fract_z
Si Si1 0.337090 0.463312 0.425815
Si Si2 0.129705 0.117707 0.807987
Si Si3 0.198849 0.293645 0.889528
Si Si4 0.396167 0.623967 0.620738
O O1 0.547532 0.601453 0.271123
O O2 0.206280 0.281075 0.455016
O O3 0.407415 0.316279 0.445773
O O4 0.126791 0.655576 0.565766
O O5 0.149036 0.060088 0.869640
O O6 0.233294 0.404691 0.743029
O O7 0.262459 0.897242 0.690591
O O8 0.000000 0.500000 0.000000
O O9 0.500000 0.500000 0.500000
#
# Coordination Sequence:
#
# PCOD8128685 Si02
#       4
#     4   4   4   4
#     4  11  22  39  67  94 135 176 213 276 341 395
#     4  11  24  42  66  97 130 172 223 276 337 405
#     4  11  22  40  66 104 139 176 224 276 344 426
#     4  11  26  45  66  95 130 174 231 280 329 400
#
# _framework density 23.843857
#
# number of rings (size 3 to 8) (size 9 to 14) (size 15 to 20)
#    0.000    1.000    0.000    7.500    0.000    8.000 
#    0.000    0.000    0.000    0.000    0.000    0.000 
#    0.000    0.000    0.000    0.000    0.000    0.000 
#
# Total GULP energy -198257.660576 kJ/mol
# GULP energy per Si atom -12391.103786 kJ/mol
# Density = 2.378959 g / cm^3
# Si number density = 23.843857 Si / 1000 Ang^3
#
#
#
# Elastic Constant Matrix: (Units=GPa)
#
#
# Indices 1 2 3 4 5 6 
#
# 1 113.0741 18.7301 59.8870 0.0000 -16.1349 0.0000
# 2 18.7301 87.4100 32.1845 0.0000 -17.2493 0.0000
# 3 59.8870 32.1845 129.4715 0.0000 -32.5376 0.0000
# 4 0.0000 0.0000 0.0000 26.4239 0.0000 3.4680
# 5 -16.1349 -17.2493 -32.5376 0.0000 50.1780 0.0000
# 6 0.0000 0.0000 0.0000 3.4680 0.0000 37.5962
#
#
#
# Elastic Compliance Matrix: (Units=1/GPa)
#
#
# Indices 1 2 3 4 5 6 
#
# 1 0.011740 -0.000547 -0.005248 0.000000 0.000184 0.000000
# 2 -0.000547 0.012943 -0.002259 0.000000 0.002809 0.000000
# 3 -0.005248 -0.002259 0.012059 0.000000 0.005355 0.000000
# 4 0.000000 0.000000 0.000000 0.038308 0.000000 -0.003534
# 5 0.000184 0.002809 0.005355 0.000000 0.024426 0.000000
# 6 0.000000 0.000000 0.000000 -0.003534 0.000000 0.026924
#
#
# Mechanical properties :
#
#
# Convention : Reuss Voigt Hill
#
# Bulk Modulus (GPa) = 48.46224 61.28432 54.87328
# Shear Modulus (GPa) = 33.47006 37.44989 35.45997
#
# Velocity S-wave (km/s) = 3.75069 3.96742 3.86057
# Velocity P-wave (km/s) = 6.25506 6.83706 6.55253
#
# Compressibility (1/GPa) = 0.02063462
#
# Stress axis : x y z
#
# Youngs Moduli (GPa) = 85.17732 77.25892 82.92858
#
# Poissons Ratio (x) = 0.04226 0.43523
# Poissons Ratio (y) = 0.04659 0.18730
# Poissons Ratio (z) = 0.44703 0.17450
#
# Static dielectric constant tensor:
#      x y z
#    x 4.857710 0.000000 -0.069560 
#    y 0.000000 4.038750 0.000000 
#    z -0.069560 0.000000 4.611110 
# 
# 
# High freq. dielectric constant tensor:
#      x y z
#    x 1.947530 0.000000 -0.014790 
#    y 0.000000 1.925550 0.000000 
#    z -0.014790 0.000000 1.969630 
# 
# From -- ./inp_files/27244.got.cif
#   From: 2010.03.12/outbox.cif.g09.slc.cpg/sg14_14_cif.got.tgz:27244.got - 2010.03.31 13:35:05.
