data_PCOD8128280
_publ_section_title
;
Structure prediction by ZEFSAII (Michael W. Deem and Ramdas Pophale) SiO2 
 PCOD8128280
Probable space group: P 21/C
;
_chemical_formula_sum "Si O2"
_cell_formula_units_Z 32
_cell_length_a 8.847907
_cell_length_b 15.150118
_cell_length_c 22.721613
_cell_angle_alpha 90.000000
_cell_angle_beta 28.009583
_cell_angle_gamma 90.000000
_cell_volume 1430.347623
_symmetry_space_group_name_H-M "P 21/C"
_symmetry_group_IT_number 14
_symmetry_cell_setting 'monoclinic'
loop_
_space_group_symop_operation_xyz
x,y,z
-x,1/2+y,1/2-z
-x,-y,-z
x,1/2-y,1/2+z
loop_
_atom_site_type_symbol
_atom_site_label
_atom_site_fract_x
_atom_site_fract_y
_atom_site_fract_z
Si Si1 0.607557 0.754800 0.934103
Si Si2 0.882150 0.739880 0.209064
Si Si3 0.446620 0.704367 0.756888
Si Si4 0.436011 0.608526 0.205916
Si Si5 0.247531 0.431869 0.558726
Si Si6 0.694274 0.560434 0.593689
Si Si7 0.140051 0.050892 0.335988
Si Si8 0.212792 0.384984 0.031784
O O1 0.745415 0.740519 0.821113
O O2 0.786437 0.841402 0.894332
O O3 0.692037 0.667081 0.941968
O O4 0.230798 0.780158 0.072678
O O5 0.612138 0.785231 0.262575
O O6 0.929847 0.637581 0.177350
O O7 0.340872 0.798194 0.767431
O O8 0.699373 0.651844 0.628316
O O9 0.128439 0.647384 0.876116
O O10 0.733179 0.568721 0.141162
O O11 0.132480 0.539415 0.312477
O O12 0.521492 0.628944 0.109256
O O13 0.500000 0.500000 0.500000
O O14 0.355380 0.410867 0.456059
O O15 0.394077 0.501298 0.710899
O O16 0.000000 0.500000 0.500000
O O17 0.817583 0.990903 0.447764
#
# Coordination Sequence:
#
# PCOD8128280 Si02
#       8
#     4   4   4   4   4   4   4   4
#     4  12  27  48  68 104 145 189 231 298 365 440
#     4  11  28  46  70 103 146 183 247 291 365 423
#     4  10  25  42  75  99 134 194 238 302 341 432
#     4  11  22  44  71 104 140 182 243 292 356 423
#     4  12  26  42  70 104 144 184 227 296 366 426
#     4  11  23  43  69 103 138 178 243 290 356 417
#     4  10  24  44  70 103 136 183 233 303 340 427
#     4  11  24  44  76  99 142 186 240 282 373 428
#
# _framework density 22.372184000000001
#
# number of rings (size 3 to 8) (size 9 to 14) (size 15 to 20)
#    0.000    1.000    2.500    2.625   10.500    0.500 
#    2.250    0.000    0.000    0.000    0.000    0.000 
#    0.000    0.000    0.000    0.000    0.000    0.000 
#
# Total GULP energy -396688.057409 kJ/mol
# GULP energy per Si atom -12396.501794 kJ/mol
# Density = 2.232126 g / cm^3
# Si number density = 22.372184 Si / 1000 Ang^3
#
#
#
# Elastic Constant Matrix: (Units=GPa)
#
#
# Indices 1 2 3 4 5 6 
#
# 1 128.5795 51.2602 51.6766 0.0000 26.6138 0.0000
# 2 51.2602 81.8664 12.9924 0.0000 4.4456 0.0000
# 3 51.6766 12.9924 109.0014 0.0000 18.2120 0.0000
# 4 0.0000 0.0000 0.0000 35.1024 0.0000 -3.2322
# 5 26.6138 4.4456 18.2120 0.0000 42.2116 0.0000
# 6 0.0000 0.0000 0.0000 -3.2322 0.0000 33.5797
#
#
#
# Elastic Compliance Matrix: (Units=1/GPa)
#
#
# Indices 1 2 3 4 5 6 
#
# 1 0.013962 -0.007671 -0.004709 0.000000 -0.005964 0.000000
# 2 -0.007671 0.016686 0.001222 0.000000 0.002552 0.000000
# 3 -0.004709 0.001222 0.011624 0.000000 -0.002175 0.000000
# 4 0.000000 0.000000 0.000000 0.028743 0.000000 0.002767
# 5 -0.005964 0.002552 -0.002175 0.000000 0.028120 0.000000
# 6 0.000000 0.000000 0.000000 0.002767 0.000000 0.030046
#
#
# Mechanical properties :
#
#
# Convention : Reuss Voigt Hill
#
# Bulk Modulus (GPa) = 50.11059 61.25620 55.68339
# Shear Modulus (GPa) = 31.61548 35.74661 33.68105
#
# Velocity S-wave (km/s) = 3.76328 4.00160 3.88427
# Velocity P-wave (km/s) = 6.42886 6.98501 6.71270
#
# Compressibility (1/GPa) = 0.01995586
#
# Stress axis : x y z
#
# Youngs Moduli (GPa) = 71.62090 59.93071 86.02630
#
# Poissons Ratio (x) = 0.45975 0.40507
# Poissons Ratio (y) = 0.54943 -0.10509
# Poissons Ratio (z) = 0.33724 -0.07321
#
# Static dielectric constant tensor:
#      x y z
#    x 4.216480 0.000000 0.029880 
#    y 0.000000 4.034840 0.000000 
#    z 0.029880 0.000000 4.044770 
# 
# 
# High freq. dielectric constant tensor:
#      x y z
#    x 1.888380 0.000000 0.000280 
#    y 0.000000 1.883800 0.000000 
#    z 0.000280 0.000000 1.889580 
# 
# From -- ./inp_files/72475.got.cif
#   From: 2010.03.12/outbox.cif.g09.slc.cpg/sg14_37_cif.got.tgz:72475.got - 2010.03.31 13:35:05.
