data_PCOD8128339
_publ_section_title
;
Structure prediction by ZEFSAII (Michael W. Deem and Ramdas Pophale) SiO2 
 PCOD8128339
Probable space group: P 21/C
;
_chemical_formula_sum "Si O2"
_cell_formula_units_Z 32
_cell_length_a 19.466036
_cell_length_b 15.800738
_cell_length_c 13.511342
_cell_angle_alpha 90.000000
_cell_angle_beta 21.035844
_cell_angle_gamma 90.000000
_cell_volume 1491.728083
_symmetry_space_group_name_H-M "P 21/C"
_symmetry_group_IT_number 14
_symmetry_cell_setting 'monoclinic'
loop_
_space_group_symop_operation_xyz
x,y,z
-x,1/2+y,1/2-z
-x,-y,-z
x,1/2-y,1/2+z
loop_
_atom_site_type_symbol
_atom_site_label
_atom_site_fract_x
_atom_site_fract_y
_atom_site_fract_z
Si Si1 0.088274 0.540745 0.164803
Si Si2 0.631187 0.315648 0.534434
Si Si3 0.574691 0.739357 0.857531
Si Si4 0.672294 0.561009 0.796041
Si Si5 0.248571 0.098365 0.592768
Si Si6 0.718037 0.210070 0.606162
Si Si7 0.947275 0.077467 0.501517
Si Si8 0.920458 0.758620 0.758475
O O1 0.156907 0.460584 0.132846
O O2 0.141328 0.533765 0.977297
O O3 0.857735 0.548248 0.478344
O O4 0.199182 0.624476 0.054404
O O5 0.557019 0.239621 0.564022
O O6 0.697265 0.278627 0.549106
O O7 0.465785 0.384491 0.771417
O O8 0.801309 0.364803 0.255849
O O9 0.573481 0.650700 0.914032
O O10 0.788630 0.760270 0.532647
O O11 0.483882 0.803452 0.062494
O O12 0.752747 0.552060 0.799676
O O13 0.500000 0.500000 0.000000
O O14 0.125312 0.186058 0.761463
O O15 0.862991 0.247422 0.493750
O O16 0.111680 0.146669 0.246364
O O17 0.000000 0.000000 0.500000
#
# Coordination Sequence:
#
# PCOD8128339 Si02
#       8
#     4   4   4   4   4   4   4   4
#     4  11  26  49  68 107 144 187 240 305 369 428
#     4  11  25  43  70 103 135 187 238 287 364 429
#     4  11  22  47  67 101 138 183 241 292 352 433
#     4  12  27  44  70 101 144 188 245 300 367 435
#     4  11  27  45  69 108 140 186 242 296 365 439
#     4  11  23  46  74  97 142 190 236 298 359 433
#     4  11  25  45  72 102 142 185 238 296 363 425
#     4  10  24  47  72 101 143 186 241 293 365 435
#
# _framework density 21.451630999999999
#
# number of rings (size 3 to 8) (size 9 to 14) (size 15 to 20)
#    0.000    1.000    6.250    0.375    8.750    0.500 
#    4.500    0.000    0.000    0.000    0.000    0.000 
#    0.000    0.000    0.000    0.000    0.000    0.000 
#
# Total GULP energy -396533.517230 kJ/mol
# GULP energy per Si atom -12391.672413 kJ/mol
# Density = 2.140281 g / cm^3
# Si number density = 21.451631 Si / 1000 Ang^3
#
#
#
# Elastic Constant Matrix: (Units=GPa)
#
#
# Indices 1 2 3 4 5 6 
#
# 1 121.6761 57.2175 24.0274 0.0000 9.4101 0.0000
# 2 57.2175 105.8846 39.6676 0.0000 -8.4905 0.0000
# 3 24.0274 39.6676 111.1822 0.0000 10.6302 0.0000
# 4 0.0000 0.0000 0.0000 34.0454 0.0000 -6.1082
# 5 9.4101 -8.4905 10.6302 0.0000 28.6265 0.0000
# 6 0.0000 0.0000 0.0000 -6.1082 0.0000 42.8790
#
#
#
# Elastic Compliance Matrix: (Units=1/GPa)
#
#
# Indices 1 2 3 4 5 6 
#
# 1 0.011971 -0.007189 0.000579 0.000000 -0.006282 0.000000
# 2 -0.007189 0.015910 -0.004976 0.000000 0.008930 0.000000
# 3 0.000579 -0.004976 0.011202 0.000000 -0.005826 0.000000
# 4 0.000000 0.000000 0.000000 0.030143 0.000000 0.004294
# 5 -0.006282 0.008930 -0.005826 0.000000 0.041810 0.000000
# 6 0.000000 0.000000 0.000000 0.004294 0.000000 0.023933
#
#
# Mechanical properties :
#
#
# Convention : Reuss Voigt Hill
#
# Bulk Modulus (GPa) = 62.86113 64.50754 63.68434
# Shear Modulus (GPa) = 30.59145 35.63221 33.11183
#
# Velocity S-wave (km/s) = 3.78043 4.08002 3.93308
# Velocity P-wave (km/s) = 6.95865 7.23407 7.09770
#
# Compressibility (1/GPa) = 0.01590808
#
# Stress axis : x y z
#
# Youngs Moduli (GPa) = 83.53630 62.85552 89.27245
#
# Poissons Ratio (x) = 0.45189 -0.05166
# Poissons Ratio (y) = 0.60057 0.44425
# Poissons Ratio (z) = -0.04834 0.31279
#
# Static dielectric constant tensor:
#      x y z
#    x 5.379420 0.000000 0.452100 
#    y 0.000000 3.645470 0.000000 
#    z 0.452100 0.000000 4.182930 
# 
# 
# High freq. dielectric constant tensor:
#      x y z
#    x 1.846190 0.000000 0.013000 
#    y 0.000000 1.831040 0.000000 
#    z 0.013000 0.000000 1.850800 
# 
# From -- ./inp_files/50666.got.cif
#   From: 2010.03.12/outbox.cif.g09.slc.cpg/sg14_26_cif.got.tgz:50666.got - 2010.03.31 13:35:05.
