data_PCOD8128947
_publ_section_title
;
Structure prediction by ZEFSAII (Michael W. Deem and Ramdas Pophale) SiO2 
 PCOD8128947
Probable space group: P 21/C
;
_chemical_formula_sum "Si O2"
_cell_formula_units_Z 24
_cell_length_a 9.164434
_cell_length_b 17.907903
_cell_length_c 13.745155
_cell_angle_alpha 90.000000
_cell_angle_beta 150.873647
_cell_angle_gamma 90.000000
_cell_volume 1097.980376
_symmetry_space_group_name_H-M "P 21/C"
_symmetry_group_IT_number 14
_symmetry_cell_setting 'monoclinic'
loop_
_space_group_symop_operation_xyz
x,y,z
-x,1/2+y,1/2-z
-x,-y,-z
x,1/2-y,1/2+z
loop_
_atom_site_type_symbol
_atom_site_label
_atom_site_fract_x
_atom_site_fract_y
_atom_site_fract_z
Si Si1 0.073684 0.827121 0.000472
Si Si2 0.775918 0.089560 0.726255
Si Si3 0.146138 0.919537 0.589416
Si Si4 0.394234 0.078490 0.981000
Si Si5 0.676789 0.684492 0.743082
Si Si6 0.420526 0.069314 0.335102
O O1 0.187027 0.839962 0.178275
O O2 0.342840 0.807309 0.086791
O O3 0.820499 0.765949 0.831678
O O4 0.919291 0.904437 0.879998
O O5 0.556245 0.110070 0.509433
O O6 0.606391 0.020112 0.678181
O O7 0.098442 0.064583 0.872685
O O8 0.330313 0.896916 0.791757
O O9 0.360064 0.906404 0.622858
O O10 0.868286 0.863946 0.429249
O O11 0.000000 0.000000 0.500000
O O12 0.328550 0.143763 0.864970
O O13 0.500000 0.000000 0.000000
#
# Coordination Sequence:
#
# PCOD8128947 Si02
#       6
#     4   4   4   4   4   4
#     4  12  27  47  70  99 146 188 234 295 357 428
#     4  11  24  43  77 105 141 185 240 289 362 420
#     4  12  23  43  73 105 145 180 238 295 355 422
#     4  12  24  44  75 107 139 184 242 301 356 423
#     4  12  28  47  69 104 143 189 240 291 365 428
#     4  11  23  44  73 108 139 184 237 295 349 429
#
# _framework density 21.858314
#
# number of rings (size 3 to 8) (size 9 to 14) (size 15 to 20)
#    0.000    0.333    5.000    3.500    0.000    5.333 
#    0.000    0.000    0.000    0.000    0.000    0.000 
#    0.000    0.000    0.000    0.000    0.000    0.000 
#
# Total GULP energy -297548.654272 kJ/mol
# GULP energy per Si atom -12397.860595 kJ/mol
# Density = 2.180856 g / cm^3
# Si number density = 21.858314 Si / 1000 Ang^3
#
#
#
# Elastic Constant Matrix: (Units=GPa)
#
#
# Indices 1 2 3 4 5 6 
#
# 1 86.2717 36.6312 40.6307 0.0000 -2.4445 0.0000
# 2 36.6312 77.8062 26.6693 0.0000 -11.3522 0.0000
# 3 40.6307 26.6693 134.6734 0.0000 -14.9096 0.0000
# 4 0.0000 0.0000 0.0000 52.1458 0.0000 -1.3053
# 5 -2.4445 -11.3522 -14.9096 0.0000 57.4442 0.0000
# 6 0.0000 0.0000 0.0000 -1.3053 0.0000 27.6862
#
#
#
# Elastic Compliance Matrix: (Units=1/GPa)
#
#
# Indices 1 2 3 4 5 6 
#
# 1 0.016071 -0.006517 -0.003732 0.000000 -0.001573 0.000000
# 2 -0.006517 0.016675 -0.001032 0.000000 0.002750 0.000000
# 3 -0.003732 -0.001032 0.008973 0.000000 0.001966 0.000000
# 4 0.000000 0.000000 0.000000 0.019200 0.000000 0.000905
# 5 -0.001573 0.002750 0.001966 0.000000 0.018395 0.000000
# 6 0.000000 0.000000 0.000000 0.000905 0.000000 0.036162
#
#
# Mechanical properties :
#
#
# Convention : Reuss Voigt Hill
#
# Bulk Modulus (GPa) = 52.19484 56.29042 54.24263
# Shear Modulus (GPa) = 34.62017 40.44324 37.53171
#
# Velocity S-wave (km/s) = 3.98407 4.30611 4.14822
# Velocity P-wave (km/s) = 6.71523 7.10857 6.91470
#
# Compressibility (1/GPa) = 0.01915898
#
# Stress axis : x y z
#
# Youngs Moduli (GPa) = 62.22202 59.96869 111.44036
#
# Poissons Ratio (x) = 0.39079 0.41593
# Poissons Ratio (y) = 0.40548 0.11497
# Poissons Ratio (z) = 0.23223 0.06187
#
# Static dielectric constant tensor:
#      x y z
#    x 3.974850 0.000000 -0.178150 
#    y 0.000000 3.728220 0.000000 
#    z -0.178150 0.000000 4.316020 
# 
# 
# High freq. dielectric constant tensor:
#      x y z
#    x 1.860340 0.000000 0.000680 
#    y 0.000000 1.846400 0.000000 
#    z 0.000680 0.000000 1.890330 
# 
# From -- ./inp_files/41858.got.cif
#   From: 2010.03.12/outbox.cif.g09.slc.cpg/sg14_21_cif.got.tgz:41858.got - 2010.03.31 13:35:05.
