data_PCOD8128556
_publ_section_title
;
Structure prediction by ZEFSAII (Michael W. Deem and Ramdas Pophale) SiO2 
 PCOD8128556
Probable space group: P 21/C
;
_chemical_formula_sum "Si O2"
_cell_formula_units_Z 24
_cell_length_a 13.335988
_cell_length_b 9.389036
_cell_length_c 14.067220
_cell_angle_alpha 90.000000
_cell_angle_beta 37.386796
_cell_angle_gamma 90.000000
_cell_volume 1069.500657
_symmetry_space_group_name_H-M "P 21/C"
_symmetry_group_IT_number 14
_symmetry_cell_setting 'monoclinic'
loop_
_space_group_symop_operation_xyz
x,y,z
-x,1/2+y,1/2-z
-x,-y,-z
x,1/2-y,1/2+z
loop_
_atom_site_type_symbol
_atom_site_label
_atom_site_fract_x
_atom_site_fract_y
_atom_site_fract_z
Si Si1 0.051503 0.160464 0.960481
Si Si2 0.079738 0.318804 0.227487
Si Si3 0.197441 0.485073 0.622722
Si Si4 0.379307 0.152654 0.829743
Si Si5 0.832619 0.079482 0.646342
Si Si6 0.648394 0.957727 0.606053
O O1 0.129133 0.192724 0.799824
O O2 0.199870 0.185816 0.921328
O O3 0.888651 0.254622 0.108516
O O4 0.000000 0.000000 0.000000
O O5 0.082263 0.154798 0.193181
O O6 0.896228 0.380165 0.352622
O O7 0.204483 0.424033 0.077750
O O8 0.361307 0.446336 0.438729
O O9 0.244078 0.524776 0.696067
O O10 0.510726 0.066216 0.665261
O O11 0.447824 0.309999 0.800269
O O12 0.709091 0.042133 0.654386
O O13 0.000000 0.000000 0.500000
#
# Coordination Sequence:
#
# PCOD8128556 Si02
#       6
#     4   4   4   4   4   4
#     4  12  24  41  67  99 129 164 223 272 314 389
#     4  11  21  39  66  96 125 172 217 267 321 382
#     4  11  22  39  68  95 126 169 223 264 318 390
#     4  11  25  43  61  99 135 167 215 270 325 383
#     4  12  21  44  69  92 125 175 214 263 324 386
#     4  11  25  42  65  95 135 171 212 270 327 383
#
# _framework density 22.440379
#
# number of rings (size 3 to 8) (size 9 to 14) (size 15 to 20)
#    0.000    0.667    6.667    1.000    2.333    2.667 
#    0.000    0.000    0.000    0.000    0.000    0.000 
#    0.000    0.000    0.000    0.000    0.000    0.000 
#
# Total GULP energy -297404.521357 kJ/mol
# GULP energy per Si atom -12391.855057 kJ/mol
# Density = 2.238930 g / cm^3
# Si number density = 22.440379 Si / 1000 Ang^3
#
#
#
# Elastic Constant Matrix: (Units=GPa)
#
#
# Indices 1 2 3 4 5 6 
#
# 1 64.1172 14.5613 35.9727 0.0000 18.6955 0.0000
# 2 14.5613 118.3418 27.1915 0.0000 -12.4879 0.0000
# 3 35.9727 27.1915 59.4379 0.0000 11.5742 0.0000
# 4 0.0000 0.0000 0.0000 40.3228 0.0000 -8.3883
# 5 18.6955 -12.4879 11.5742 0.0000 35.1794 0.0000
# 6 0.0000 0.0000 0.0000 -8.3883 0.0000 32.9207
#
#
#
# Elastic Compliance Matrix: (Units=1/GPa)
#
#
# Indices 1 2 3 4 5 6 
#
# 1 0.026321 -0.001208 -0.013431 0.000000 -0.009998 0.000000
# 2 -0.001208 0.010440 -0.005227 0.000000 0.006067 0.000000
# 3 -0.013431 -0.005227 0.028116 0.000000 -0.003968 0.000000
# 4 0.000000 0.000000 0.000000 0.026188 0.000000 0.006673
# 5 -0.009998 0.006067 -0.003968 0.000000 0.037198 0.000000
# 6 0.000000 0.000000 0.000000 0.006673 0.000000 0.032076
#
#
# Mechanical properties :
#
#
# Convention : Reuss Voigt Hill
#
# Bulk Modulus (GPa) = 39.76499 44.14976 41.95737
# Shear Modulus (GPa) = 23.98634 32.62934 28.30784
#
# Velocity S-wave (km/s) = 3.27294 3.81733 3.55557
# Velocity P-wave (km/s) = 5.66053 6.25670 5.96607
#
# Compressibility (1/GPa) = 0.02514775
#
# Stress axis : x y z
#
# Youngs Moduli (GPa) = 37.99239 95.78683 35.56644
#
# Poissons Ratio (x) = 0.11568 0.47768
# Poissons Ratio (y) = 0.04588 0.18589
# Poissons Ratio (z) = 0.51026 0.50063
#
# Static dielectric constant tensor:
#      x y z
#    x 3.051340 0.000000 1.152380 
#    y 0.000000 4.291920 0.000000 
#    z 1.152380 0.000000 2.695930 
# 
# 
# High freq. dielectric constant tensor:
#      x y z
#    x 1.863080 0.000000 0.014540 
#    y 0.000000 1.909550 0.000000 
#    z 0.014540 0.000000 1.873630 
# 
# From -- ./inp_files/46367.got.cif
#   From: 2010.03.12/outbox.cif.g09.slc.cpg/sg14_24_cif.got.tgz:46367.got - 2010.03.31 13:35:05.
