data_PCOD8128997
_publ_section_title
;
Structure prediction by ZEFSAII (Michael W. Deem and Ramdas Pophale) SiO2 
 PCOD8128997
Probable space group: P 21/C
;
_chemical_formula_sum "Si O2"
_cell_formula_units_Z 32
_cell_length_a 7.754168
_cell_length_b 25.801159
_cell_length_c 11.595132
_cell_angle_alpha 90.000000
_cell_angle_beta 34.825068
_cell_angle_gamma 90.000000
_cell_volume 1324.773340
_symmetry_space_group_name_H-M "P 21/C"
_symmetry_group_IT_number 14
_symmetry_cell_setting 'monoclinic'
loop_
_space_group_symop_operation_xyz
x,y,z
-x,1/2+y,1/2-z
-x,-y,-z
x,1/2-y,1/2+z
loop_
_atom_site_type_symbol
_atom_site_label
_atom_site_fract_x
_atom_site_fract_y
_atom_site_fract_z
Si Si1 0.924109 0.332141 0.202330
Si Si2 0.932135 0.089119 0.358360
Si Si3 0.995180 0.803670 0.585359
Si Si4 0.830897 0.425612 0.544966
Si Si5 0.570693 0.246826 0.502187
Si Si6 0.419925 0.572428 0.569398
Si Si7 0.535760 0.969797 0.240301
Si Si8 0.429732 0.647229 0.136915
O O1 0.018297 0.295235 0.043395
O O2 0.814821 0.292689 0.359750
O O3 0.646613 0.371828 0.333661
O O4 0.216868 0.365865 0.077455
O O5 0.039321 0.134424 0.385249
O O6 0.727625 0.045252 0.527534
O O7 0.766391 0.113790 0.341223
O O8 0.235703 0.061801 0.152118
O O9 0.329282 0.787869 0.444260
O O10 0.753908 0.771474 0.792676
O O11 0.797811 0.430941 0.423745
O O12 0.638678 0.471651 0.710355
O O13 0.691458 0.370482 0.668875
O O14 0.179710 0.430952 0.393517
O O15 0.584061 0.209631 0.380664
O O16 0.388386 0.531641 0.691978
#
# Coordination Sequence:
#
# PCOD8128997 Si02
#       8
#     4   4   4   4   4   4   4   4
#     4  12  25  43  70  99 139 186 234 295 360 432
#     4  11  23  46  74 101 148 184 243 297 361 432
#     4  11  24  43  65 100 135 185 231 298 356 435
#     4  11  26  47  78 106 152 191 247 299 371 434
#     4  11  25  44  67  97 138 183 237 290 368 424
#     4  12  24  46  74 108 144 190 245 296 359 436
#     4  11  25  50  72 111 146 198 238 307 364 432
#     4  11  25  47  69 106 139 193 236 302 364 435
#
# _framework density 24.155076999999999
#
# number of rings (size 3 to 8) (size 9 to 14) (size 15 to 20)
#    0.000    0.750    5.000    1.875    1.750    1.000 
#    6.750    0.000    0.000    0.000    0.000    0.000 
#    0.000    0.000    0.000    0.000    0.000    0.000 
#
# Total GULP energy -396511.566585 kJ/mol
# GULP energy per Si atom -12390.986456 kJ/mol
# Density = 2.410010 g / cm^3
# Si number density = 24.155077 Si / 1000 Ang^3
#
#
#
# Elastic Constant Matrix: (Units=GPa)
#
#
# Indices 1 2 3 4 5 6 
#
# 1 110.1267 -0.4381 18.3360 0.0000 1.9417 0.0000
# 2 -0.4381 60.2823 14.8191 0.0000 1.8377 0.0000
# 3 18.3360 14.8191 74.2773 0.0000 -4.1171 0.0000
# 4 0.0000 0.0000 0.0000 39.9211 0.0000 -1.5662
# 5 1.9417 1.8377 -4.1171 0.0000 25.0907 0.0000
# 6 0.0000 0.0000 0.0000 -1.5662 0.0000 27.2049
#
#
#
# Elastic Compliance Matrix: (Units=1/GPa)
#
#
# Indices 1 2 3 4 5 6 
#
# 1 0.009532 0.000737 -0.002567 0.000000 -0.001213 0.000000
# 2 0.000737 0.017588 -0.003800 0.000000 -0.001969 0.000000
# 3 -0.002567 -0.003800 0.015018 0.000000 0.002941 0.000000
# 4 0.000000 0.000000 0.000000 0.025106 0.000000 0.001445
# 5 -0.001213 -0.001969 0.002941 0.000000 0.040576 0.000000
# 6 0.000000 0.000000 0.000000 0.001445 0.000000 0.036841
#
#
# Mechanical properties :
#
#
# Convention : Reuss Voigt Hill
#
# Bulk Modulus (GPa) = 32.38548 34.45778 33.42163
# Shear Modulus (GPa) = 30.08150 32.57465 31.32808
#
# Velocity S-wave (km/s) = 3.53278 3.67626 3.60523
# Velocity P-wave (km/s) = 5.48426 5.68472 5.58539
#
# Compressibility (1/GPa) = 0.03087804
#
# Stress axis : x y z
#
# Youngs Moduli (GPa) = 104.90699 56.85633 66.58640
#
# Poissons Ratio (x) = -0.04193 0.17096
# Poissons Ratio (y) = -0.07736 0.25304
# Poissons Ratio (z) = 0.26935 0.21606
#
# Static dielectric constant tensor:
#      x y z
#    x 4.403570 0.000000 -0.038870 
#    y 0.000000 4.340650 0.000000 
#    z -0.038870 0.000000 4.404430 
# 
# 
# High freq. dielectric constant tensor:
#      x y z
#    x 1.965120 0.000000 -0.006490 
#    y 0.000000 1.953790 0.000000 
#    z -0.006490 0.000000 1.954640 
# 
# From -- ./inp_files/27179.got.cif
#   From: 2010.03.12/outbox.cif.g09.slc.cpg/sg14_14_cif.got.tgz:27179.got - 2010.03.31 13:35:05.
