data_PCOD8128730
_publ_section_title
;
Structure prediction by ZEFSAII (Michael W. Deem and Ramdas Pophale) SiO2 
 PCOD8128730
Probable space group: P 21/C
;
_chemical_formula_sum "Si O2"
_cell_formula_units_Z 28
_cell_length_a 8.865902
_cell_length_b 14.197904
_cell_length_c 10.551059
_cell_angle_alpha 90.000000
_cell_angle_beta 108.137486
_cell_angle_gamma 90.000000
_cell_volume 1262.145865
_symmetry_space_group_name_H-M "P 21/C"
_symmetry_group_IT_number 14
_symmetry_cell_setting 'monoclinic'
loop_
_space_group_symop_operation_xyz
x,y,z
-x,1/2+y,1/2-z
-x,-y,-z
x,1/2-y,1/2+z
loop_
_atom_site_type_symbol
_atom_site_label
_atom_site_fract_x
_atom_site_fract_y
_atom_site_fract_z
Si Si1 0.975919 0.898960 0.841184
Si Si2 0.392262 0.755989 0.200061
Si Si3 0.867985 0.101739 0.367793
Si Si4 0.140780 0.599249 0.649039
Si Si5 0.793025 0.905264 0.434516
Si Si6 0.134197 0.200814 0.787445
Si Si7 0.411203 0.262705 0.004412
O O1 0.883342 0.806403 0.771598
O O2 0.109274 0.928259 0.772607
O O3 0.854690 0.987366 0.821846
O O4 0.066861 0.879090 0.993721
O O5 0.237412 0.692882 0.147129
O O6 0.321854 0.861803 0.200705
O O7 0.494404 0.723985 0.348759
O O8 0.487668 0.743325 0.096141
O O9 0.039272 0.130329 0.467094
O O10 0.787832 0.018113 0.427096
O O11 0.034659 0.653658 0.726118
O O12 0.770896 0.860135 0.290711
O O13 0.646588 0.870105 0.482974
O O14 0.249828 0.201734 0.941229
#
# Coordination Sequence:
#
# PCOD8128730 Si02
#       7
#     4   4   4   4   4   4   4
#     4  11  22  42  71 103 128 172 237 288 339 396
#     4  12  26  44  66 102 142 178 222 286 351 423
#     4  11  23  43  74 100 129 177 242 287 336 400
#     4  11  25  42  73  99 133 177 237 287 341 409
#     4  11  24  44  70  99 129 181 236 286 337 408
#     4  12  22  45  69  95 134 184 227 282 333 423
#     4  12  26  44  65  97 144 183 220 272 362 411
#
# _framework density 22.184439999999999
#
# number of rings (size 3 to 8) (size 9 to 14) (size 15 to 20)
#    0.000    0.571    5.714    2.571    2.000    0.571 
#    2.571    0.714    0.000    0.000    0.000    0.000 
#    0.000    0.000    0.000    0.000    0.000    0.000 
#
# Total GULP energy -347201.848390 kJ/mol
# GULP energy per Si atom -12400.066014 kJ/mol
# Density = 2.213395 g / cm^3
# Si number density = 22.184440 Si / 1000 Ang^3
#
#
#
# Elastic Constant Matrix: (Units=GPa)
#
#
# Indices 1 2 3 4 5 6 
#
# 1 76.3029 31.1683 24.1909 0.0000 -14.9632 0.0000
# 2 31.1683 85.4097 30.0515 0.0000 10.7329 0.0000
# 3 24.1909 30.0515 98.1527 0.0000 -9.8869 0.0000
# 4 0.0000 0.0000 0.0000 29.3043 0.0000 -0.4483
# 5 -14.9632 10.7329 -9.8869 0.0000 37.0028 0.0000
# 6 0.0000 0.0000 0.0000 -0.4483 0.0000 22.9597
#
#
#
# Elastic Compliance Matrix: (Units=1/GPa)
#
#
# Indices 1 2 3 4 5 6 
#
# 1 0.018350 -0.007384 -0.001335 0.000000 0.009206 0.000000
# 2 -0.007384 0.017065 -0.004321 0.000000 -0.009090 0.000000
# 3 -0.001335 -0.004321 0.012241 0.000000 0.003984 0.000000
# 4 0.000000 0.000000 0.000000 0.034135 0.000000 0.000667
# 5 0.009206 -0.009090 0.003984 0.000000 0.034449 0.000000
# 6 0.000000 0.000000 0.000000 0.000667 0.000000 0.043568
#
#
# Mechanical properties :
#
#
# Convention : Reuss Voigt Hill
#
# Bulk Modulus (GPa) = 46.34210 47.85408 47.09809
# Shear Modulus (GPa) = 25.89609 29.48365 27.68987
#
# Velocity S-wave (km/s) = 3.42030 3.64953 3.53677
# Velocity P-wave (km/s) = 6.04423 6.27508 6.16074
#
# Compressibility (1/GPa) = 0.02157865
#
# Stress axis : x y z
#
# Youngs Moduli (GPa) = 54.49552 58.59825 81.68999
#
# Poissons Ratio (x) = 0.43267 0.10903
# Poissons Ratio (y) = 0.40238 0.35296
# Poissons Ratio (z) = 0.07273 0.25319
#
# Static dielectric constant tensor:
#      x y z
#    x 4.044980 0.000000 -0.100340 
#    y 0.000000 3.951020 0.000000 
#    z -0.100340 0.000000 4.262390 
# 
# 
# High freq. dielectric constant tensor:
#      x y z
#    x 1.863050 0.000000 -0.011860 
#    y 0.000000 1.868420 0.000000 
#    z -0.011860 0.000000 1.888290 
# 
# From -- ./inp_files/25296.got.cif
#   From: 2010.03.12/outbox.cif.g09.slc.cpg/sg14_13_cif.got.tgz:25296.got - 2010.03.31 13:35:05.
