data_PCOD8128151
_publ_section_title
;
Structure prediction by ZEFSAII (Michael W. Deem and Ramdas Pophale) SiO2 
 PCOD8128151
Probable space group: P 21/C
;
_chemical_formula_sum "Si O2"
_cell_formula_units_Z 28
_cell_length_a 5.482292
_cell_length_b 10.743497
_cell_length_c 22.273265
_cell_angle_alpha 90.000000
_cell_angle_beta 110.558344
_cell_angle_gamma 90.000000
_cell_volume 1228.326261
_symmetry_space_group_name_H-M "P 21/C"
_symmetry_group_IT_number 14
_symmetry_cell_setting 'monoclinic'
loop_
_space_group_symop_operation_xyz
x,y,z
-x,1/2+y,1/2-z
-x,-y,-z
x,1/2-y,1/2+z
loop_
_atom_site_type_symbol
_atom_site_label
_atom_site_fract_x
_atom_site_fract_y
_atom_site_fract_z
Si Si1 0.194001 0.406163 0.126738
Si Si2 0.861568 0.244011 0.669667
Si Si3 0.386879 0.669744 0.739097
Si Si4 0.242551 0.312544 0.424189
Si Si5 0.091286 0.475028 0.640915
Si Si6 0.335082 0.317781 0.567393
Si Si7 0.675258 0.187399 0.377559
O O1 0.378001 0.360360 0.196838
O O2 0.200756 0.316069 0.069484
O O3 0.268161 0.541493 0.110364
O O4 0.912831 0.382569 0.134270
O O5 0.855876 0.207646 0.739186
O O6 0.609619 0.314316 0.623993
O O7 0.080137 0.349436 0.679504
O O8 0.320327 0.552863 0.691707
O O9 0.441286 0.784856 0.698670
O O10 0.368876 0.337097 0.499709
O O11 0.456677 0.232202 0.406358
O O12 0.178279 0.444498 0.386222
O O13 0.958126 0.250500 0.409250
O O14 0.173871 0.434312 0.580627
#
# Coordination Sequence:
#
# PCOD8128151 Si02
#       7
#     4   4   4   4   4   4   4
#     4  10  25  43  68  99 140 184 236 285 359 425
#     4  10  24  41  69  97 136 185 231 289 353 429
#     4  10  25  40  66  99 137 174 231 286 356 419
#     4  11  27  46  71 102 141 181 240 290 349 421
#     4  10  24  42  70 103 135 183 234 291 361 417
#     4  10  24  46  67 102 133 187 232 292 351 419
#     4  11  28  44  70 104 138 186 231 292 354 422
#
# _framework density 22.795245000000001
#
# number of rings (size 3 to 8) (size 9 to 14) (size 15 to 20)
#    0.000    1.714    0.000    0.429   24.000    1.714 
#    0.000    0.000    0.000    0.000    0.000    0.000 
#    0.000    0.000    0.000    0.000    0.000    0.000 
#
# Total GULP energy -346912.276728 kJ/mol
# GULP energy per Si atom -12389.724169 kJ/mol
# Density = 2.274336 g / cm^3
# Si number density = 22.795245 Si / 1000 Ang^3
#
#
#
# Elastic Constant Matrix: (Units=GPa)
#
#
# Indices 1 2 3 4 5 6 
#
# 1 101.9648 42.9236 20.1899 0.0000 -19.6812 0.0000
# 2 42.9236 131.4478 27.0056 0.0000 -15.1792 0.0000
# 3 20.1899 27.0056 88.6632 0.0000 -22.2308 0.0000
# 4 0.0000 0.0000 0.0000 19.8045 0.0000 -3.6266
# 5 -19.6812 -15.1792 -22.2308 0.0000 31.8953 0.0000
# 6 0.0000 0.0000 0.0000 -3.6266 0.0000 35.5842
#
#
#
# Elastic Compliance Matrix: (Units=1/GPa)
#
#
# Indices 1 2 3 4 5 6 
#
# 1 0.012392 -0.003301 -0.000355 0.000000 0.005828 0.000000
# 2 -0.003301 0.009175 -0.001768 0.000000 0.001098 0.000000
# 3 -0.000355 -0.001768 0.014095 0.000000 0.008764 0.000000
# 4 0.000000 0.000000 0.000000 0.051454 0.000000 0.005244
# 5 0.005828 0.001098 0.008764 0.000000 0.041580 0.000000
# 6 0.000000 0.000000 0.000000 0.005244 0.000000 0.028637
#
#
# Mechanical properties :
#
#
# Convention : Reuss Voigt Hill
#
# Bulk Modulus (GPa) = 40.29739 55.81268 48.05503
# Shear Modulus (GPa) = 28.33630 32.92059 30.62844
#
# Velocity S-wave (km/s) = 3.52956 3.80437 3.66954
# Velocity P-wave (km/s) = 5.85890 6.62081 6.25147
#
# Compressibility (1/GPa) = 0.02481550
#
# Stress axis : x y z
#
# Youngs Moduli (GPa) = 80.69715 108.98797 70.94533
#
# Poissons Ratio (x) = 0.35972 0.02520
# Poissons Ratio (y) = 0.26634 0.12542
# Poissons Ratio (z) = 0.02867 0.19267
#
# Static dielectric constant tensor:
#      x y z
#    x 4.351750 0.000000 -0.252180 
#    y 0.000000 4.343830 0.000000 
#    z -0.252180 0.000000 4.108370 
# 
# 
# High freq. dielectric constant tensor:
#      x y z
#    x 1.903460 0.000000 -0.008840 
#    y 0.000000 1.905490 0.000000 
#    z -0.008840 0.000000 1.892590 
# 
# From -- ./inp_files/63540.got.cif
#   From: 2010.03.12/outbox.cif.g09.slc.cpg/sg14_32_cif.got.tgz:63540.got - 2010.03.31 13:35:05.
