data_PCOD8128003
_publ_section_title
;
Structure prediction by ZEFSAII (Michael W. Deem and Ramdas Pophale) SiO2 
 PCOD8128003
Probable space group: P 21/C
;
_chemical_formula_sum "Si O2"
_cell_formula_units_Z 24
_cell_length_a 11.060478
_cell_length_b 8.516457
_cell_length_c 10.519725
_cell_angle_alpha 90.000000
_cell_angle_beta 117.851138
_cell_angle_gamma 90.000000
_cell_volume 876.133419
_symmetry_space_group_name_H-M "P 21/C"
_symmetry_group_IT_number 14
_symmetry_cell_setting 'monoclinic'
loop_
_space_group_symop_operation_xyz
x,y,z
-x,1/2+y,1/2-z
-x,-y,-z
x,1/2-y,1/2+z
loop_
_atom_site_type_symbol
_atom_site_label
_atom_site_fract_x
_atom_site_fract_y
_atom_site_fract_z
Si Si1 0.768667 0.183111 0.438244
Si Si2 0.027005 0.765333 0.141118
Si Si3 0.732662 0.487343 0.166146
Si Si4 0.840354 0.469478 0.626299
Si Si5 0.478067 0.776484 0.329131
Si Si6 0.645832 0.681601 0.654905
O O1 0.928168 0.176417 0.466808
O O2 0.748256 0.036648 0.522058
O O3 0.747629 0.353478 0.496723
O O4 0.650180 0.167574 0.274388
O O5 0.153473 0.886257 0.208845
O O6 0.031668 0.634157 0.255554
O O7 0.892655 0.875006 0.074228
O O8 0.581059 0.436533 0.138839
O O9 0.747449 0.669461 0.204086
O O10 0.745554 0.530656 0.695273
O O11 0.556492 0.684129 0.480304
O O12 0.565853 0.822011 0.248181
#
# Coordination Sequence:
#
# PCOD8128003 Si02
#       6
#     4   4   4   4   4   4
#     4  10  23  44  71 104 140 194 233 305 354 429
#     4  10  23  46  72 100 144 183 248 300 361 423
#     4  10  23  45  68 102 146 188 239 295 362 419
#     4  11  25  46  70 107 140 192 243 301 360 429
#     4  11  25  43  70 106 150 186 241 290 356 431
#     4  12  27  42  73 107 147 194 237 296 360 430
#
# _framework density 27.393089
#
# number of rings (size 3 to 8) (size 9 to 14) (size 15 to 20)
#    0.000    1.333    1.667    2.000    7.000    3.333 
#    6.000    4.167    0.000    0.000    0.000    0.000 
#    0.000    0.000    0.000    0.000    0.000    0.000 
#
# Total GULP energy -297367.381652 kJ/mol
# GULP energy per Si atom -12390.307569 kJ/mol
# Density = 2.733074 g / cm^3
# Si number density = 27.393089 Si / 1000 Ang^3
#
#
#
# Elastic Constant Matrix: (Units=GPa)
#
#
# Indices 1 2 3 4 5 6 
#
# 1 104.8352 21.2825 14.8945 0.0000 -35.9198 0.0000
# 2 21.2825 79.1302 -4.0049 0.0000 -8.3249 0.0000
# 3 14.8945 -4.0049 79.6051 0.0000 -21.4508 0.0000
# 4 0.0000 0.0000 0.0000 21.0980 0.0000 -6.8427
# 5 -35.9198 -8.3249 -21.4508 0.0000 48.4405 0.0000
# 6 0.0000 0.0000 0.0000 -6.8427 0.0000 10.3789
#
#
#
# Elastic Compliance Matrix: (Units=1/GPa)
#
#
# Indices 1 2 3 4 5 6 
#
# 1 0.013288 -0.002593 -0.000093 0.000000 0.009366 0.000000
# 2 -0.002593 0.013517 0.001446 0.000000 0.001040 0.000000
# 3 -0.000093 0.001446 0.014421 0.000000 0.006566 0.000000
# 4 0.000000 0.000000 0.000000 0.060289 0.000000 0.039748
# 5 0.009366 0.001040 0.006566 0.000000 0.030676 0.000000
# 6 0.000000 0.000000 0.000000 0.039748 0.000000 0.122555
#
#
# Mechanical properties :
#
#
# Convention : Reuss Voigt Hill
#
# Bulk Modulus (GPa) = 25.80916 36.43497 31.12207
# Shear Modulus (GPa) = 18.50881 31.41004 24.95943
#
# Velocity S-wave (km/s) = 2.60219 3.38988 3.02181
# Velocity P-wave (km/s) = 4.29776 5.35270 4.85398
#
# Compressibility (1/GPa) = 0.03874594
#
# Stress axis : x y z
#
# Youngs Moduli (GPa) = 75.25833 73.97853 69.34158
#
# Poissons Ratio (x) = 0.19183 0.00643
# Poissons Ratio (y) = 0.19515 -0.10024
# Poissons Ratio (z) = 0.00698 -0.10694
#
# Static dielectric constant tensor:
#      x y z
#    x 5.194410 0.000000 -0.388400 
#    y 0.000000 4.915020 0.000000 
#    z -0.388400 0.000000 4.820120 
# 
# 
# High freq. dielectric constant tensor:
#      x y z
#    x 2.111830 0.000000 -0.025660 
#    y 0.000000 2.106260 0.000000 
#    z -0.025660 0.000000 2.086570 
# 
# From -- ./inp_files/28183.got.cif
#   From: 2010.03.12/outbox.cif.g09.slc.cpg/sg14_15_cif.got.tgz:28183.got - 2010.03.31 13:35:05.
