data_PCOD8128250
_publ_section_title
;
Structure prediction by ZEFSAII (Michael W. Deem and Ramdas Pophale) SiO2 
 PCOD8128250
Probable space group: P 21/C
;
_chemical_formula_sum "Si O2"
_cell_formula_units_Z 24
_cell_length_a 8.562046
_cell_length_b 22.175977
_cell_length_c 10.668271
_cell_angle_alpha 90.000000
_cell_angle_beta 30.470043
_cell_angle_gamma 90.000000
_cell_volume 1027.158617
_symmetry_space_group_name_H-M "P 21/C"
_symmetry_group_IT_number 14
_symmetry_cell_setting 'monoclinic'
loop_
_space_group_symop_operation_xyz
x,y,z
-x,1/2+y,1/2-z
-x,-y,-z
x,1/2-y,1/2+z
loop_
_atom_site_type_symbol
_atom_site_label
_atom_site_fract_x
_atom_site_fract_y
_atom_site_fract_z
Si Si1 0.151667 0.813906 0.553446
Si Si2 0.326350 0.022154 0.893371
Si Si3 0.614219 0.905096 0.635195
Si Si4 0.484541 0.302935 0.624586
Si Si5 0.303367 0.575069 0.100262
Si Si6 0.717564 0.391844 0.268268
O O1 0.345672 0.759360 0.474219
O O2 0.126803 0.864701 0.678116
O O3 0.314938 0.843899 0.322004
O O4 0.819907 0.788650 0.744707
O O5 0.517714 0.041633 0.635782
O O6 0.463703 0.056529 0.919978
O O7 0.380709 0.950482 0.869612
O O8 0.957354 0.033983 0.149237
O O9 0.563809 0.908468 0.521242
O O10 0.954371 0.925103 0.444963
O O11 0.577219 0.834686 0.698920
O O12 0.678336 0.353802 0.420544
#
# Coordination Sequence:
#
# PCOD8128250 Si02
#       6
#     4   4   4   4   4   4
#     4  10  25  44  64  97 134 181 232 290 338 419
#     4  11  24  47  72 100 149 180 232 287 343 418
#     4  11  26  41  69 107 132 187 232 284 351 414
#     4  11  25  43  68  95 136 181 233 283 350 409
#     4  11  25  45  71 103 141 186 230 286 347 407
#     4  10  24  44  65 101 134 183 232 283 358 401
#
# _framework density 23.365428999999999
#
# number of rings (size 3 to 8) (size 9 to 14) (size 15 to 20)
#    0.000    1.333    1.667    1.500    9.333    3.333 
#    0.000    0.000    0.000    0.000    0.000    0.000 
#    0.000    0.000    0.000    0.000    0.000    0.000 
#
# Total GULP energy -297567.635541 kJ/mol
# GULP energy per Si atom -12398.651481 kJ/mol
# Density = 2.331225 g / cm^3
# Si number density = 23.365429 Si / 1000 Ang^3
#
#
#
# Elastic Constant Matrix: (Units=GPa)
#
#
# Indices 1 2 3 4 5 6 
#
# 1 100.6877 39.3710 18.5479 0.0000 -8.8806 0.0000
# 2 39.3710 100.8545 21.9850 0.0000 -16.0258 0.0000
# 3 18.5479 21.9850 85.4817 0.0000 -5.3013 0.0000
# 4 0.0000 0.0000 0.0000 30.9596 0.0000 -15.9738
# 5 -8.8806 -16.0258 -5.3013 0.0000 23.1870 0.0000
# 6 0.0000 0.0000 0.0000 -15.9738 0.0000 30.6147
#
#
#
# Elastic Compliance Matrix: (Units=1/GPa)
#
#
# Indices 1 2 3 4 5 6 
#
# 1 0.011932 -0.004123 -0.001443 0.000000 0.001391 0.000000
# 2 -0.004123 0.013080 -0.002036 0.000000 0.006996 0.000000
# 3 -0.001443 -0.002036 0.012592 0.000000 0.000920 0.000000
# 4 0.000000 0.000000 0.000000 0.044199 0.000000 0.023062
# 5 0.001391 0.006996 0.000920 0.000000 0.048706 0.000000
# 6 0.000000 0.000000 0.000000 0.023062 0.000000 0.044697
#
#
# Mechanical properties :
#
#
# Convention : Reuss Voigt Hill
#
# Bulk Modulus (GPa) = 44.63747 49.64796 47.14271
# Shear Modulus (GPa) = 25.26849 30.76026 28.01438
#
# Velocity S-wave (km/s) = 3.29211 3.63228 3.46637
# Velocity P-wave (km/s) = 5.79622 6.23585 6.02005
#
# Compressibility (1/GPa) = 0.02240271
#
# Stress axis : x y z
#
# Youngs Moduli (GPa) = 83.80753 76.45253 79.41557
#
# Poissons Ratio (x) = 0.31518 0.11456
# Poissons Ratio (y) = 0.34550 0.16166
# Poissons Ratio (z) = 0.12089 0.15563
#
# Static dielectric constant tensor:
#      x y z
#    x 4.348880 0.000000 -0.043330 
#    y 0.000000 4.166690 0.000000 
#    z -0.043330 0.000000 4.084090 
# 
# 
# High freq. dielectric constant tensor:
#      x y z
#    x 1.940860 0.000000 -0.008060 
#    y 0.000000 1.925560 0.000000 
#    z -0.008060 0.000000 1.915680 
# 
# From -- ./inp_files/22024.got.cif
#   From: 2010.03.12/outbox.cif.g09.slc.cpg/sg14_12_cif.got.tgz:22024.got - 2010.03.31 13:35:05.
