data_PCOD8128751
_publ_section_title
;
Structure prediction by ZEFSAII (Michael W. Deem and Ramdas Pophale) SiO2 
 PCOD8128751
Probable space group: P 21/C
;
_chemical_formula_sum "Si O2"
_cell_formula_units_Z 32
_cell_length_a 16.260258
_cell_length_b 14.393155
_cell_length_c 22.068874
_cell_angle_alpha 90.000000
_cell_angle_beta 17.027299
_cell_angle_gamma 90.000000
_cell_volume 1512.429667
_symmetry_space_group_name_H-M "P 21/C"
_symmetry_group_IT_number 14
_symmetry_cell_setting 'monoclinic'
loop_
_space_group_symop_operation_xyz
x,y,z
-x,1/2+y,1/2-z
-x,-y,-z
x,1/2-y,1/2+z
loop_
_atom_site_type_symbol
_atom_site_label
_atom_site_fract_x
_atom_site_fract_y
_atom_site_fract_z
Si Si1 0.770517 0.763762 0.740724
Si Si2 0.278287 0.130970 0.885071
Si Si3 0.281306 0.858588 0.016431
Si Si4 0.752042 0.735595 0.389995
Si Si5 0.362468 0.795240 0.828568
Si Si6 0.513132 0.419942 0.096939
Si Si7 0.328264 0.622187 0.230650
Si Si8 0.857006 0.935211 0.890850
O O1 0.762425 0.802470 0.814645
O O2 0.667724 0.657564 0.809703
O O3 0.098860 0.767293 0.491013
O O4 0.582955 0.828440 0.829838
O O5 0.373724 0.229936 0.843611
O O6 0.508746 0.093434 0.673886
O O7 0.209658 0.064264 0.990236
O O8 0.999673 0.145794 0.041790
O O9 0.038645 0.787746 0.209814
O O10 0.223369 0.963765 0.078716
O O11 0.282835 0.856050 0.942807
O O12 0.496349 0.807622 0.569884
O O13 0.682105 0.647846 0.482387
O O14 0.441748 0.866476 0.719373
O O15 0.377398 0.517596 0.174200
O O16 0.823464 0.414346 0.851600
#
# Coordination Sequence:
#
# PCOD8128751 Si02
#       8
#     4   4   4   4   4   4   4   4
#     4  11  23  42  70  91 136 182 218 277 339 395
#     4  12  25  43  70  98 139 174 221 283 335 399
#     4  11  23  44  68  97 133 180 220 277 340 396
#     4  11  24  41  64  99 133 176 225 273 334 401
#     4  11  22  44  67  96 135 178 222 274 342 397
#     4  12  23  42  67 104 132 171 226 279 342 389
#     4  12  24  39  68  99 134 174 219 284 338 397
#     4  12  25  43  70  99 138 178 225 278 332 403
#
# _framework density 21.158007000000001
#
# number of rings (size 3 to 8) (size 9 to 14) (size 15 to 20)
#    0.000    0.500    6.250    2.625    3.500    1.500 
#    0.000    0.625    0.000    0.000    0.000    0.000 
#    0.000    0.000    0.000    0.000    0.000    0.000 
#
# Total GULP energy -396824.732763 kJ/mol
# GULP energy per Si atom -12400.772899 kJ/mol
# Density = 2.110985 g / cm^3
# Si number density = 21.158007 Si / 1000 Ang^3
#
#
#
# Elastic Constant Matrix: (Units=GPa)
#
#
# Indices 1 2 3 4 5 6 
#
# 1 81.9315 26.7007 13.6874 0.0000 3.1698 0.0000
# 2 26.7007 114.4634 15.6668 0.0000 -13.4525 0.0000
# 3 13.6874 15.6668 61.5007 0.0000 5.3020 0.0000
# 4 0.0000 0.0000 0.0000 18.3494 0.0000 4.1072
# 5 3.1698 -13.4525 5.3020 0.0000 34.3355 0.0000
# 6 0.0000 0.0000 0.0000 4.1072 0.0000 23.6053
#
#
#
# Elastic Compliance Matrix: (Units=1/GPa)
#
#
# Indices 1 2 3 4 5 6 
#
# 1 0.013663 -0.003164 -0.002046 0.000000 -0.002185 0.000000
# 2 -0.003164 0.010348 -0.002338 0.000000 0.004707 0.000000
# 3 -0.002046 -0.002338 0.017608 0.000000 -0.003446 0.000000
# 4 0.000000 0.000000 0.000000 0.056706 0.000000 -0.009867
# 5 -0.002185 0.004707 -0.003446 0.000000 0.031702 0.000000
# 6 0.000000 0.000000 0.000000 -0.009867 0.000000 0.044080
#
#
# Mechanical properties :
#
#
# Convention : Reuss Voigt Hill
#
# Bulk Modulus (GPa) = 37.70367 41.11173 39.40770
# Shear Modulus (GPa) = 25.24695 28.71409 26.98052
#
# Velocity S-wave (km/s) = 3.45810 3.68792 3.57486
# Velocity P-wave (km/s) = 5.81407 6.13248 5.97539
#
# Compressibility (1/GPa) = 0.02652262
#
# Stress axis : x y z
#
# Youngs Moduli (GPa) = 73.19158 96.64064 56.79237
#
# Poissons Ratio (x) = 0.30575 0.11622
# Poissons Ratio (y) = 0.23156 0.13276
# Poissons Ratio (z) = 0.14978 0.22591
#
# Static dielectric constant tensor:
#      x y z
#    x 3.852780 0.000000 0.138640 
#    y 0.000000 3.741080 0.000000 
#    z 0.138640 0.000000 3.898570 
# 
# 
# High freq. dielectric constant tensor:
#      x y z
#    x 1.831600 0.000000 0.011840 
#    y 0.000000 1.820160 0.000000 
#    z 0.011840 0.000000 1.830510 
# 
# From -- ./inp_files/68635.got.cif
#   From: 2010.03.12/outbox.cif.g09.slc.cpg/sg14_35_cif.got.tgz:68635.got - 2010.03.31 13:35:05.
