data_PCOD8128145
_publ_section_title
;
Structure prediction by ZEFSAII (Michael W. Deem and Ramdas Pophale) SiO2 
 PCOD8128145
Probable space group: P 21/C
;
_chemical_formula_sum "Si O2"
_cell_formula_units_Z 32
_cell_length_a 8.559203
_cell_length_b 11.701041
_cell_length_c 28.380514
_cell_angle_alpha 90.000000
_cell_angle_beta 149.003170
_cell_angle_gamma 90.000000
_cell_volume 1463.785458
_symmetry_space_group_name_H-M "P 21/C"
_symmetry_group_IT_number 14
_symmetry_cell_setting 'monoclinic'
loop_
_space_group_symop_operation_xyz
x,y,z
-x,1/2+y,1/2-z
-x,-y,-z
x,1/2-y,1/2+z
loop_
_atom_site_type_symbol
_atom_site_label
_atom_site_fract_x
_atom_site_fract_y
_atom_site_fract_z
Si Si1 0.746143 0.254650 0.871106
Si Si2 0.833296 0.604146 0.281457
Si Si3 0.126582 0.856225 0.002681
Si Si4 0.817263 0.278037 0.074031
Si Si5 0.335831 0.502883 0.667030
Si Si6 0.145173 0.283091 0.883851
Si Si7 0.009590 0.482273 0.177872
Si Si8 0.159775 0.091397 0.814849
O O1 0.498915 0.351761 0.821587
O O2 0.940546 0.217616 0.967500
O O3 0.589190 0.137637 0.813908
O O4 0.942197 0.298615 0.877989
O O5 0.816103 0.526112 0.323158
O O6 0.024502 0.715632 0.341741
O O7 0.025786 0.531864 0.294169
O O8 0.472490 0.904426 0.091368
O O9 0.053629 0.765232 0.942521
O O10 0.888914 0.962036 0.933633
O O11 0.889260 0.411792 0.101367
O O12 0.467626 0.243203 0.986582
O O13 0.669678 0.450908 0.747731
O O14 0.028228 0.190480 0.814995
O O15 0.200387 0.404804 0.871704
O O16 0.025940 0.398366 0.227441
#
# Coordination Sequence:
#
# PCOD8128145 Si02
#       8
#     4   4   4   4   4   4   4   4
#     4  12  22  43  65  98 132 172 220 273 327 380
#     4  11  23  40  67  98 131 171 215 277 324 396
#     4  10  24  41  67  98 131 172 220 274 323 398
#     4  10  24  43  63  94 132 172 214 271 336 384
#     4  11  22  40  65  95 132 170 219 271 325 384
#     4  11  26  43  66  94 131 176 220 270 329 396
#     4  12  24  43  67  94 135 173 217 270 328 396
#     4  11  25  41  68  98 129 171 224 265 329 392
#
# _framework density 21.861128999999998
#
# number of rings (size 3 to 8) (size 9 to 14) (size 15 to 20)
#    0.000    1.000    5.000    0.750    7.000    1.500 
#    0.000    0.625    0.000    0.000    0.000    0.000 
#    0.000    0.000    0.000    0.000    0.000    0.000 
#
# Total GULP energy -396518.823333 kJ/mol
# GULP energy per Si atom -12391.213229 kJ/mol
# Density = 2.181137 g / cm^3
# Si number density = 21.861129 Si / 1000 Ang^3
#
#
#
# Elastic Constant Matrix: (Units=GPa)
#
#
# Indices 1 2 3 4 5 6 
#
# 1 84.8967 26.4009 30.4312 0.0000 -4.1085 0.0000
# 2 26.4009 98.5049 20.9192 0.0000 -6.1503 0.0000
# 3 30.4312 20.9192 62.7753 0.0000 -9.4982 0.0000
# 4 0.0000 0.0000 0.0000 32.4018 0.0000 -3.4781
# 5 -4.1085 -6.1503 -9.4982 0.0000 24.3229 0.0000
# 6 0.0000 0.0000 0.0000 -3.4781 0.0000 26.5229
#
#
#
# Elastic Compliance Matrix: (Units=1/GPa)
#
#
# Indices 1 2 3 4 5 6 
#
# 1 0.014879 -0.002665 -0.006426 0.000000 -0.000670 0.000000
# 2 -0.002665 0.011449 -0.002289 0.000000 0.001551 0.000000
# 3 -0.006426 -0.002289 0.020784 0.000000 0.006452 0.000000
# 4 0.000000 0.000000 0.000000 0.031303 0.000000 0.004105
# 5 -0.000670 0.001551 0.006452 0.000000 0.043912 0.000000
# 6 0.000000 0.000000 0.000000 0.004105 0.000000 0.038242
#
#
# Mechanical properties :
#
#
# Convention : Reuss Voigt Hill
#
# Bulk Modulus (GPa) = 41.06393 44.63106 42.84749
# Shear Modulus (GPa) = 26.11720 27.87791 26.99755
#
# Velocity S-wave (km/s) = 3.46017 3.57491 3.51801
# Velocity P-wave (km/s) = 5.89818 6.12372 6.01201
#
# Compressibility (1/GPa) = 0.02435227
#
# Stress axis : x y z
#
# Youngs Moduli (GPa) = 67.21012 87.34467 48.11438
#
# Poissons Ratio (x) = 0.23276 0.30918
# Poissons Ratio (y) = 0.17911 0.11012
# Poissons Ratio (z) = 0.43189 0.19991
#
# Static dielectric constant tensor:
#      x y z
#    x 3.957570 0.000000 -0.085750 
#    y 0.000000 3.918380 0.000000 
#    z -0.085750 0.000000 3.875160 
# 
# 
# High freq. dielectric constant tensor:
#      x y z
#    x 1.855550 0.000000 -0.010250 
#    y 0.000000 1.863020 0.000000 
#    z -0.010250 0.000000 1.854120 
# 
# From -- ./inp_files/79652.got.cif
#   From: 2010.03.12/outbox.cif.g09.slc.cpg/sg14_40_cif.got.tgz:79652.got - 2010.03.31 13:35:05.
