data_PCOD8128915
_publ_section_title
;
Structure prediction by ZEFSAII (Michael W. Deem and Ramdas Pophale) SiO2 
 PCOD8128915
Probable space group: P 21/C
;
_chemical_formula_sum "Si O2"
_cell_formula_units_Z 32
_cell_length_a 6.895473
_cell_length_b 18.234941
_cell_length_c 12.259326
_cell_angle_alpha 90.000000
_cell_angle_beta 87.206860
_cell_angle_gamma 90.000000
_cell_volume 1539.638495
_symmetry_space_group_name_H-M "P 21/C"
_symmetry_group_IT_number 14
_symmetry_cell_setting 'monoclinic'
loop_
_space_group_symop_operation_xyz
x,y,z
-x,1/2+y,1/2-z
-x,-y,-z
x,1/2-y,1/2+z
loop_
_atom_site_type_symbol
_atom_site_label
_atom_site_fract_x
_atom_site_fract_y
_atom_site_fract_z
Si Si1 0.480902 0.470606 0.877609
Si Si2 0.718635 0.731427 0.748189
Si Si3 0.645009 0.565460 0.485278
Si Si4 0.899734 0.182480 0.234103
Si Si5 0.417241 0.702582 0.418003
Si Si6 0.443461 0.800137 0.607858
Si Si7 0.883425 0.964121 0.758398
Si Si8 0.771235 0.564334 0.723610
O O1 0.530112 0.385931 0.879844
O O2 0.263764 0.477869 0.837043
O O3 0.619866 0.510302 0.786608
O O4 0.500000 0.500000 0.000000
O O5 0.555617 0.776294 0.816184
O O6 0.643207 0.754357 0.629575
O O7 0.724684 0.644999 0.770819
O O8 0.925502 0.760860 0.778317
O O9 0.500000 0.500000 0.500000
O O10 0.516029 0.638273 0.483905
O O11 0.780490 0.554485 0.376010
O O12 0.766976 0.566478 0.592859
O O13 0.792402 0.174566 0.119866
O O14 0.747402 0.220987 0.318810
O O15 0.974707 0.103667 0.273560
O O16 0.388988 0.776604 0.487556
O O17 0.010141 0.038279 0.757426
#
# Coordination Sequence:
#
# PCOD8128915 Si02
#       8
#     4   4   4   4   4   4   4   4
#     4  12  26  47  72  97 143 192 237 285 350 419
#     4  11  24  44  67 100 139 179 227 287 346 415
#     4  12  23  43  73 102 141 181 227 292 361 414
#     4  11  23  43  72  98 135 182 229 280 351 421
#     4  11  24  43  70 100 139 181 230 287 355 422
#     4  11  23  45  68  95 139 183 225 284 347 419
#     4  12  24  46  71 103 141 183 234 290 355 417
#     4  12  26  44  72 109 137 180 243 291 350 426
#
# _framework density 20.784099999999999
#
# number of rings (size 3 to 8) (size 9 to 14) (size 15 to 20)
#    0.000    0.500    6.250    2.625    0.000    6.500 
#    2.250    0.000    0.000    0.000    0.000    0.000 
#    0.000    0.000    0.000    0.000    0.000    0.000 
#
# Total GULP energy -396684.038796 kJ/mol
# GULP energy per Si atom -12396.376212 kJ/mol
# Density = 2.073679 g / cm^3
# Si number density = 20.784100 Si / 1000 Ang^3
#
#
#
# Elastic Constant Matrix: (Units=GPa)
#
#
# Indices 1 2 3 4 5 6 
#
# 1 144.8655 54.6584 51.9348 0.0000 25.4044 0.0000
# 2 54.6584 132.5653 17.6605 0.0000 17.4373 0.0000
# 3 51.9348 17.6605 97.3698 0.0000 28.0815 0.0000
# 4 0.0000 0.0000 0.0000 34.5703 0.0000 0.5023
# 5 25.4044 17.4373 28.0815 0.0000 30.7053 0.0000
# 6 0.0000 0.0000 0.0000 0.5023 0.0000 38.4532
#
#
#
# Elastic Compliance Matrix: (Units=1/GPa)
#
#
# Indices 1 2 3 4 5 6 
#
# 1 0.010040 -0.003238 -0.003942 0.000000 -0.002863 0.000000
# 2 -0.003238 0.009199 0.001076 0.000000 -0.003530 0.000000
# 3 -0.003942 0.001076 0.015502 0.000000 -0.011527 0.000000
# 4 0.000000 0.000000 0.000000 0.028932 0.000000 -0.000378
# 5 -0.002863 -0.003530 -0.011527 0.000000 0.047483 0.000000
# 6 0.000000 0.000000 0.000000 -0.000378 0.000000 0.026011
#
#
# Mechanical properties :
#
#
# Convention : Reuss Voigt Hill
#
# Bulk Modulus (GPa) = 44.37747 69.25647 56.81697
# Shear Modulus (GPa) = 31.87047 37.44888 34.65968
#
# Velocity S-wave (km/s) = 3.92012 4.24937 4.08806
# Velocity P-wave (km/s) = 6.47208 7.58092 7.04834
#
# Compressibility (1/GPa) = 0.02253396
#
# Stress axis : x y z
#
# Youngs Moduli (GPa) = 99.60243 108.70316 64.50804
#
# Poissons Ratio (x) = 0.35197 0.25431
# Poissons Ratio (y) = 0.32250 -0.06944
# Poissons Ratio (z) = 0.39266 -0.11702
#
# Static dielectric constant tensor:
#      x y z
#    x 3.840680 0.000000 0.218960 
#    y 0.000000 3.831810 0.000000 
#    z 0.218960 0.000000 3.668460 
# 
# 
# High freq. dielectric constant tensor:
#      x y z
#    x 1.823940 0.000000 0.010800 
#    y 0.000000 1.825180 0.000000 
#    z 0.010800 0.000000 1.812110 
# 
# From -- ./inp_files/21794.got.cif
#   From: 2010.03.12/outbox.cif.g09.slc.cpg/sg14_11_cif.got.tgz:21794.got - 2010.03.31 13:35:05.
