data_PCOD8128857
_publ_section_title
;
Structure prediction by ZEFSAII (Michael W. Deem and Ramdas Pophale) SiO2 
 PCOD8128857
Probable space group: P 21/C
;
_chemical_formula_sum "Si O2"
_cell_formula_units_Z 32
_cell_length_a 11.632072
_cell_length_b 13.024645
_cell_length_c 10.329896
_cell_angle_alpha 90.000000
_cell_angle_beta 110.810555
_cell_angle_gamma 90.000000
_cell_volume 1462.915221
_symmetry_space_group_name_H-M "P 21/C"
_symmetry_group_IT_number 14
_symmetry_cell_setting 'monoclinic'
loop_
_space_group_symop_operation_xyz
x,y,z
-x,1/2+y,1/2-z
-x,-y,-z
x,1/2-y,1/2+z
loop_
_atom_site_type_symbol
_atom_site_label
_atom_site_fract_x
_atom_site_fract_y
_atom_site_fract_z
Si Si1 0.358357 0.693611 0.837049
Si Si2 0.262618 0.964410 0.497610
Si Si3 0.419906 0.170908 0.137669
Si Si4 0.512235 0.530461 0.768652
Si Si5 0.306287 0.053823 0.867711
Si Si6 0.896073 0.854539 0.649931
Si Si7 0.820390 0.130627 0.275049
Si Si8 0.797775 0.718637 0.840615
O O1 0.473978 0.770917 0.901534
O O2 0.398943 0.605699 0.751622
O O3 0.240245 0.756459 0.739866
O O4 0.318254 0.635115 0.950020
O O5 0.186926 0.922649 0.588688
O O6 0.374691 0.040180 0.584417
O O7 0.170458 0.034037 0.375641
O O8 0.344927 0.252787 0.191965
O O9 0.473740 0.089066 0.260522
O O10 0.320752 0.111981 0.008340
O O11 0.557851 0.551608 0.641343
O O12 0.206410 0.110655 0.735881
O O13 0.254710 0.937911 0.860684
O O14 0.859524 0.800287 0.769354
O O15 0.866441 0.791469 0.506162
O O16 0.041276 0.864854 0.716909
#
# Coordination Sequence:
#
# PCOD8128857 Si02
#       8
#     4   4   4   4   4   4   4   4
#     4  12  25  39  70 106 134 180 236 286 353 428
#     4  11  24  45  68 101 139 188 231 288 360 416
#     4  12  24  42  68 103 147 169 225 296 348 428
#     4  11  23  42  64 101 141 177 218 288 357 417
#     4  11  23  42  65  99 135 182 221 274 364 412
#     4  12  26  50  73  98 142 188 245 289 336 422
#     4  11  27  45  68  99 134 191 236 289 353 409
#     4  12  25  45  75 103 129 191 235 281 352 416
#
# _framework density 21.874131999999999
#
# number of rings (size 3 to 8) (size 9 to 14) (size 15 to 20)
#    0.000    0.500    7.500    1.875    5.250    0.000 
#    0.000    0.625    0.000    0.000    0.000    0.000 
#    0.000    0.000    0.000    0.000    0.000    0.000 
#
# Total GULP energy -396737.039202 kJ/mol
# GULP energy per Si atom -12398.032475 kJ/mol
# Density = 2.182435 g / cm^3
# Si number density = 21.874132 Si / 1000 Ang^3
#
#
#
# Elastic Constant Matrix: (Units=GPa)
#
#
# Indices 1 2 3 4 5 6 
#
# 1 134.0994 52.5119 30.3562 0.0000 7.0665 0.0000
# 2 52.5119 121.0872 23.0274 0.0000 4.0987 0.0000
# 3 30.3562 23.0274 63.2333 0.0000 -2.3453 0.0000
# 4 0.0000 0.0000 0.0000 33.4295 0.0000 -8.4072
# 5 7.0665 4.0987 -2.3453 0.0000 19.1839 0.0000
# 6 0.0000 0.0000 0.0000 -8.4072 0.0000 34.8158
#
#
#
# Elastic Compliance Matrix: (Units=1/GPa)
#
#
# Indices 1 2 3 4 5 6 
#
# 1 0.009792 -0.003457 -0.003564 0.000000 -0.003304 0.000000
# 2 -0.003457 0.010196 -0.002097 0.000000 -0.001161 0.000000
# 3 -0.003564 -0.002097 0.018438 0.000000 0.004015 0.000000
# 4 0.000000 0.000000 0.000000 0.031848 0.000000 0.007690
# 5 -0.003304 -0.001161 0.004015 0.000000 0.054083 0.000000
# 6 0.000000 0.000000 0.000000 0.007690 0.000000 0.030580
#
#
# Mechanical properties :
#
#
# Convention : Reuss Voigt Hill
#
# Bulk Modulus (GPa) = 49.52929 58.91233 54.22081
# Shear Modulus (GPa) = 27.79303 31.65412 29.72357
#
# Velocity S-wave (km/s) = 3.56840 3.80821 3.69025
# Velocity P-wave (km/s) = 6.29841 6.80643 6.55734
#
# Compressibility (1/GPa) = 0.02019007
#
# Stress axis : x y z
#
# Youngs Moduli (GPa) = 102.12665 98.08160 54.23572
#
# Poissons Ratio (x) = 0.33904 0.19332
# Poissons Ratio (y) = 0.35302 0.11371
# Poissons Ratio (z) = 0.36402 0.20563
#
# Static dielectric constant tensor:
#      x y z
#    x 3.895250 0.000000 -0.073130 
#    y 0.000000 4.214330 0.000000 
#    z -0.073130 0.000000 3.633900 
# 
# 
# High freq. dielectric constant tensor:
#      x y z
#    x 1.854910 0.000000 -0.005370 
#    y 0.000000 1.879910 0.000000 
#    z -0.005370 0.000000 1.835180 
# 
# From -- ./inp_files/29146.got.cif
#   From: 2010.03.12/outbox.cif.g09.slc.cpg/sg14_15_cif.got.tgz:29146.got - 2010.03.31 13:35:05.
