data_PCOD8128892
_publ_section_title
;
Structure prediction by ZEFSAII (Michael W. Deem and Ramdas Pophale) SiO2 
 PCOD8128892
Probable space group: P 21/C
;
_chemical_formula_sum "Si O2"
_cell_formula_units_Z 28
_cell_length_a 6.668906
_cell_length_b 28.816478
_cell_length_c 8.897871
_cell_angle_alpha 90.000000
_cell_angle_beta 129.414071
_cell_angle_gamma 90.000000
_cell_volume 1321.063678
_symmetry_space_group_name_H-M "P 21/C"
_symmetry_group_IT_number 14
_symmetry_cell_setting 'monoclinic'
loop_
_space_group_symop_operation_xyz
x,y,z
-x,1/2+y,1/2-z
-x,-y,-z
x,1/2-y,1/2+z
loop_
_atom_site_type_symbol
_atom_site_label
_atom_site_fract_x
_atom_site_fract_y
_atom_site_fract_z
Si Si1 0.113741 0.493370 0.892198
Si Si2 0.418150 0.651205 0.002458
Si Si3 0.622317 0.441337 0.176953
Si Si4 0.048030 0.299871 0.729039
Si Si5 0.055140 0.299734 0.379816
Si Si6 0.354060 0.549083 0.465094
Si Si7 0.421844 0.855394 0.855803
O O1 0.122597 0.540195 0.792886
O O2 0.942890 0.454749 0.728416
O O3 0.405447 0.479701 0.058290
O O4 0.000000 0.500000 0.000000
O O5 0.660084 0.685027 0.094200
O O6 0.371739 0.641898 0.155111
O O7 0.489518 0.604793 0.949049
O O8 0.156603 0.669181 0.802723
O O9 0.676016 0.435779 0.377614
O O10 0.995666 0.295956 0.527381
O O11 0.022743 0.250512 0.793963
O O12 0.838206 0.335848 0.692469
O O13 0.338126 0.321987 0.486909
O O14 0.500000 0.500000 0.500000
O O15 0.486963 0.592278 0.442107
#
# Coordination Sequence:
#
# PCOD8128892 Si02
#       7
#     4   4   4   4   4   4   4
#     4  11  23  43  64  91 127 172 223 272 330 390
#     4  11  25  43  69  98 136 177 225 278 338 399
#     4  11  25  41  66  94 129 176 222 278 328 393
#     4  11  24  46  69 102 136 173 222 275 345 408
#     4  11  25  43  72 101 134 176 220 279 340 410
#     4  12  25  42  66  95 134 180 223 276 334 391
#     4  11  26  44  67 100 139 176 227 278 335 407
#
# _framework density 21.195042000000001
#
# number of rings (size 3 to 8) (size 9 to 14) (size 15 to 20)
#    0.000    0.857    1.429    4.714    4.000    9.143 
#    0.000    0.000    0.000    0.000    0.000    0.000 
#    0.000    0.000    0.000    0.000    0.000    0.000 
#
# Total GULP energy -347157.660980 kJ/mol
# GULP energy per Si atom -12398.487892 kJ/mol
# Density = 2.114680 g / cm^3
# Si number density = 21.195042 Si / 1000 Ang^3
#
#
#
# Elastic Constant Matrix: (Units=GPa)
#
#
# Indices 1 2 3 4 5 6 
#
# 1 101.4892 23.7045 49.1799 0.0000 -16.0352 0.0000
# 2 23.7045 90.9395 20.7230 0.0000 -9.7877 0.0000
# 3 49.1799 20.7230 136.3956 0.0000 -10.6749 0.0000
# 4 0.0000 0.0000 0.0000 42.5919 0.0000 -3.0653
# 5 -16.0352 -9.7877 -10.6749 0.0000 30.8443 0.0000
# 6 0.0000 0.0000 0.0000 -3.0653 0.0000 38.3773
#
#
#
# Elastic Compliance Matrix: (Units=1/GPa)
#
#
# Indices 1 2 3 4 5 6 
#
# 1 0.013011 -0.001964 -0.004021 0.000000 0.004749 0.000000
# 2 -0.001964 0.011983 -0.000920 0.000000 0.002463 0.000000
# 3 -0.004021 -0.000920 0.008978 0.000000 0.000725 0.000000
# 4 0.000000 0.000000 0.000000 0.023614 0.000000 0.001886
# 5 0.004749 0.002463 0.000725 0.000000 0.035922 0.000000
# 6 0.000000 0.000000 0.000000 0.001886 0.000000 0.026208
#
#
# Mechanical properties :
#
#
# Convention : Reuss Voigt Hill
#
# Bulk Modulus (GPa) = 49.59800 57.33766 53.46783
# Shear Modulus (GPa) = 35.65143 38.04384 36.84764
#
# Velocity S-wave (km/s) = 4.10575 4.24127 4.17406
# Velocity P-wave (km/s) = 6.77700 7.14812 6.96503
#
# Compressibility (1/GPa) = 0.02016210
#
# Stress axis : x y z
#
# Youngs Moduli (GPa) = 76.85821 83.45197 111.38325
#
# Poissons Ratio (x) = 0.16390 0.44790
# Poissons Ratio (y) = 0.15095 0.10244
# Poissons Ratio (z) = 0.30907 0.07675
#
# Static dielectric constant tensor:
#      x y z
#    x 3.265410 0.000000 0.680000 
#    y 0.000000 3.882170 0.000000 
#    z 0.680000 0.000000 2.545030 
# 
# 
# High freq. dielectric constant tensor:
#      x y z
#    x 1.843000 0.000000 -0.006070 
#    y 0.000000 1.839200 0.000000 
#    z -0.006070 0.000000 1.851830 
# 
# From -- ./inp_files/7019.got.cif
#   From: 2010.03.12/outbox.cif.g09.slc.cpg/sg14_4_cif.got.tgz:7019.got - 2010.03.31 13:35:05.
