data_PCOD8128479
_publ_section_title
;
Structure prediction by ZEFSAII (Michael W. Deem and Ramdas Pophale) SiO2 
 PCOD8128479
Probable space group: P 21/C
;
_chemical_formula_sum "Si O2"
_cell_formula_units_Z 24
_cell_length_a 17.306137
_cell_length_b 9.541782
_cell_length_c 13.203746
_cell_angle_alpha 90.000000
_cell_angle_beta 32.554884
_cell_angle_gamma 90.000000
_cell_volume 1173.263699
_symmetry_space_group_name_H-M "P 21/C"
_symmetry_group_IT_number 14
_symmetry_cell_setting 'monoclinic'
loop_
_space_group_symop_operation_xyz
x,y,z
-x,1/2+y,1/2-z
-x,-y,-z
x,1/2-y,1/2+z
loop_
_atom_site_type_symbol
_atom_site_label
_atom_site_fract_x
_atom_site_fract_y
_atom_site_fract_z
Si Si1 0.770244 0.858564 0.970870
Si Si2 0.933026 0.335418 0.765755
Si Si3 0.845179 0.890918 0.258574
Si Si4 0.655048 0.967166 0.286308
Si Si5 0.159317 0.731862 0.426114
Si Si6 0.876407 0.425773 0.201361
O O1 0.768453 0.699772 0.931603
O O2 0.909099 0.893942 0.886183
O O3 0.772381 0.963170 0.871895
O O4 0.640913 0.883311 0.194140
O O5 0.851287 0.446021 0.784224
O O6 0.945746 0.179644 0.706392
O O7 0.850777 0.325991 0.962869
O O8 0.750691 0.880671 0.261395
O O9 0.003833 0.829792 0.062773
O O10 0.500000 0.000000 0.500000
O O11 0.725843 0.113930 0.179967
O O12 0.217509 0.833035 0.272688
O O13 0.000000 0.500000 0.000000
#
# Coordination Sequence:
#
# PCOD8128479 Si02
#       6
#     4   4   4   4   4   4
#     4  11  23  38  63  96 125 162 208 260 318 383
#     4  11  20  36  66  96 128 153 213 264 325 367
#     4  11  22  40  68  93 124 162 213 270 314 373
#     4  12  25  45  62  90 133 177 212 255 320 389
#     4  11  22  38  66  96 123 164 209 265 320 378
#     4  12  21  34  61 100 128 155 204 272 321 366
#
# _framework density 20.455759
#
# number of rings (size 3 to 8) (size 9 to 14) (size 15 to 20)
#    0.000    0.667    8.333    2.500    0.000    0.000 
#    6.000    0.000    0.000    2.000    0.000    0.000 
#    0.000    0.000    0.000    0.000    0.000    0.000 
#
# Total GULP energy -297583.005746 kJ/mol
# GULP energy per Si atom -12399.291906 kJ/mol
# Density = 2.040920 g / cm^3
# Si number density = 20.455759 Si / 1000 Ang^3
#
#
#
# Elastic Constant Matrix: (Units=GPa)
#
#
# Indices 1 2 3 4 5 6 
#
# 1 74.1569 23.7726 29.1567 0.0000 24.4475 0.0000
# 2 23.7726 97.7921 28.1319 0.0000 11.1309 0.0000
# 3 29.1567 28.1319 106.4170 0.0000 23.9001 0.0000
# 4 0.0000 0.0000 0.0000 26.0024 0.0000 19.0054
# 5 24.4475 11.1309 23.9001 0.0000 26.0068 0.0000
# 6 0.0000 0.0000 0.0000 19.0054 0.0000 37.2450
#
#
#
# Elastic Compliance Matrix: (Units=1/GPa)
#
#
# Indices 1 2 3 4 5 6 
#
# 1 0.020383 -0.002716 -0.001039 0.000000 -0.017044 0.000000
# 2 -0.002716 0.011569 -0.002237 0.000000 -0.000342 0.000000
# 3 -0.001039 -0.002237 0.012397 0.000000 -0.009459 0.000000
# 4 0.000000 0.000000 0.000000 0.061333 0.000000 -0.031297
# 5 -0.017044 -0.000342 -0.009459 0.000000 0.063313 0.000000
# 6 0.000000 0.000000 0.000000 -0.031297 0.000000 0.042820
#
#
# Mechanical properties :
#
#
# Convention : Reuss Voigt Hill
#
# Bulk Modulus (GPa) = 30.89793 48.94317 39.92055
# Shear Modulus (GPa) = 21.31406 31.00449 26.15927
#
# Velocity S-wave (km/s) = 3.23144 3.89740 3.57994
# Velocity P-wave (km/s) = 5.39078 6.65066 6.05359
#
# Compressibility (1/GPa) = 0.03236463
#
# Stress axis : x y z
#
# Youngs Moduli (GPa) = 49.06076 86.44114 80.66185
#
# Poissons Ratio (x) = 0.23479 0.08379
# Poissons Ratio (y) = 0.13326 0.18046
# Poissons Ratio (z) = 0.05096 0.19339
#
# Static dielectric constant tensor:
#      x y z
#    x 3.790270 0.000000 0.437300 
#    y 0.000000 3.946450 0.000000 
#    z 0.437300 0.000000 3.682120 
# 
# 
# High freq. dielectric constant tensor:
#      x y z
#    x 1.797880 0.000000 0.052590 
#    y 0.000000 1.813930 0.000000 
#    z 0.052590 0.000000 1.758210 
# 
# From -- ./inp_files/38931.got.cif
#   From: 2010.03.12/outbox.cif.g09.slc.cpg/sg14_20_cif.got.tgz:38931.got - 2010.03.31 13:35:05.
