data_PCOD8128001
_publ_section_title
;
Structure prediction by ZEFSAII (Michael W. Deem and Ramdas Pophale) SiO2 
 PCOD8128001
Probable space group: P 21/C
;
_chemical_formula_sum "Si O2"
_cell_formula_units_Z 32
_cell_length_a 11.243551
_cell_length_b 13.782222
_cell_length_c 11.928930
_cell_angle_alpha 90.000000
_cell_angle_beta 51.477718
_cell_angle_gamma 90.000000
_cell_volume 1446.219447
_symmetry_space_group_name_H-M "P 21/C"
_symmetry_group_IT_number 14
_symmetry_cell_setting 'monoclinic'
loop_
_space_group_symop_operation_xyz
x,y,z
-x,1/2+y,1/2-z
-x,-y,-z
x,1/2-y,1/2+z
loop_
_atom_site_type_symbol
_atom_site_label
_atom_site_fract_x
_atom_site_fract_y
_atom_site_fract_z
Si Si1 0.043125 0.415562 0.558921
Si Si2 0.085592 0.537917 0.125002
Si Si3 0.877015 0.089437 0.631763
Si Si4 0.605104 0.411933 0.971463
Si Si5 0.623635 0.568659 0.302260
Si Si6 0.226887 0.790619 0.814534
Si Si7 0.489417 0.757662 0.298583
Si Si8 0.620155 0.591800 0.564332
O O1 0.224615 0.406544 0.453803
O O2 0.000000 0.500000 0.500000
O O3 0.992546 0.425124 0.717039
O O4 0.947944 0.324643 0.564972
O O5 0.266809 0.534812 0.030175
O O6 0.013626 0.432451 0.138630
O O7 0.054881 0.606998 0.033773
O O8 0.785036 0.182074 0.730669
O O9 0.769827 0.994213 0.684411
O O10 0.680299 0.361579 0.820433
O O11 0.500000 0.500000 0.000000
O O12 0.512030 0.331894 0.096377
O O13 0.609602 0.670598 0.244697
O O14 0.643280 0.600944 0.419078
O O15 0.471629 0.507896 0.362019
O O16 0.318717 0.785063 0.878445
O O17 0.529026 0.814552 0.161066
#
# Coordination Sequence:
#
# PCOD8128001 Si02
#       8
#     4   4   4   4   4   4   4   4
#     4  11  25  45  66 101 141 182 227 290 354 414
#     4  10  23  44  70  95 139 175 236 284 349 413
#     4  11  22  47  74 101 133 190 234 292 349 413
#     4  11  26  46  69 103 142 181 231 298 356 416
#     4  11  24  44  73  96 146 179 230 299 336 422
#     4  11  25  44  71 100 136 181 237 282 354 425
#     4  12  25  43  69 103 135 187 233 282 356 415
#     4  11  24  45  69 104 136 180 240 277 350 426
#
# _framework density 22.126656000000001
#
# number of rings (size 3 to 8) (size 9 to 14) (size 15 to 20)
#    0.000    1.000    3.750    1.500    8.750    3.000 
#    2.250    0.000    0.000    0.000    0.000    0.000 
#    0.000    0.000    0.000    0.000    0.000    0.000 
#
# Total GULP energy -396548.166759 kJ/mol
# GULP energy per Si atom -12392.130211 kJ/mol
# Density = 2.207629 g / cm^3
# Si number density = 22.126656 Si / 1000 Ang^3
#
#
#
# Elastic Constant Matrix: (Units=GPa)
#
#
# Indices 1 2 3 4 5 6 
#
# 1 122.9807 66.4379 12.8688 0.0000 -12.6622 0.0000
# 2 66.4379 146.8562 27.9413 0.0000 -2.3560 0.0000
# 3 12.8688 27.9413 61.3287 0.0000 3.0482 0.0000
# 4 0.0000 0.0000 0.0000 34.0023 0.0000 -5.8717
# 5 -12.6622 -2.3560 3.0482 0.0000 31.0471 0.0000
# 6 0.0000 0.0000 0.0000 -5.8717 0.0000 46.1267
#
#
#
# Elastic Compliance Matrix: (Units=1/GPa)
#
#
# Indices 1 2 3 4 5 6 
#
# 1 0.011294 -0.004982 -0.000312 0.000000 0.004259 0.000000
# 2 -0.004982 0.009678 -0.003316 0.000000 -0.000972 0.000000
# 3 -0.000312 -0.003316 0.017988 0.000000 -0.002145 0.000000
# 4 0.000000 0.000000 0.000000 0.030071 0.000000 0.003828
# 5 0.004259 -0.000972 -0.002145 0.000000 0.034083 0.000000
# 6 0.000000 0.000000 0.000000 0.003828 0.000000 0.022167
#
#
# Mechanical properties :
#
#
# Convention : Reuss Voigt Hill
#
# Bulk Modulus (GPa) = 45.99442 60.62907 53.31175
# Shear Modulus (GPa) = 33.38977 37.16306 35.27642
#
# Velocity S-wave (km/s) = 3.88884 4.10269 3.99719
# Velocity P-wave (km/s) = 6.40282 7.06422 6.74163
#
# Compressibility (1/GPa) = 0.02174177
#
# Stress axis : x y z
#
# Youngs Moduli (GPa) = 88.54514 103.32317 55.59162
#
# Poissons Ratio (x) = 0.51472 0.01733
# Poissons Ratio (y) = 0.44110 0.18433
# Poissons Ratio (z) = 0.02761 0.34260
#
# Static dielectric constant tensor:
#      x y z
#    x 4.503450 0.000000 -0.163540 
#    y 0.000000 4.140180 0.000000 
#    z -0.163540 0.000000 3.966060 
# 
# 
# High freq. dielectric constant tensor:
#      x y z
#    x 1.891770 0.000000 -0.001380 
#    y 0.000000 1.862330 0.000000 
#    z -0.001380 0.000000 1.860810 
# 
# From -- ./inp_files/30001.got.cif
#   From: 2010.03.12/outbox.cif.g09.slc.cpg/sg14_16_cif.got.tgz:30001.got - 2010.03.31 13:35:05.
