data_PCOD8128758
_publ_section_title
;
Structure prediction by ZEFSAII (Michael W. Deem and Ramdas Pophale) SiO2 
 PCOD8128758
Probable space group: P 21/C
;
_chemical_formula_sum "Si O2"
_cell_formula_units_Z 32
_cell_length_a 11.344930
_cell_length_b 8.652417
_cell_length_c 28.225291
_cell_angle_alpha 90.000000
_cell_angle_beta 148.559026
_cell_angle_gamma 90.000000
_cell_volume 1445.212941
_symmetry_space_group_name_H-M "P 21/C"
_symmetry_group_IT_number 14
_symmetry_cell_setting 'monoclinic'
loop_
_space_group_symop_operation_xyz
x,y,z
-x,1/2+y,1/2-z
-x,-y,-z
x,1/2-y,1/2+z
loop_
_atom_site_type_symbol
_atom_site_label
_atom_site_fract_x
_atom_site_fract_y
_atom_site_fract_z
Si Si1 0.604843 0.195211 0.174733
Si Si2 0.774903 0.860783 0.220772
Si Si3 0.899064 0.788396 0.504074
Si Si4 0.666898 0.785123 0.776384
Si Si5 0.251400 0.858687 0.184958
Si Si6 0.508034 0.689291 0.057273
Si Si7 0.919458 0.362002 0.032204
Si Si8 0.301236 0.855642 0.388133
O O1 0.741332 0.301461 0.258422
O O2 0.680626 0.234641 0.147798
O O3 0.663994 0.017080 0.202115
O O4 0.340359 0.219754 0.093821
O O5 0.686813 0.727502 0.226314
O O6 0.694850 0.811905 0.140284
O O7 0.043775 0.877417 0.315635
O O8 0.064181 0.798902 0.515523
O O9 0.003162 0.674388 0.578960
O O10 0.868186 0.956167 0.516444
O O11 0.422998 0.737775 0.711486
O O12 0.848075 0.669367 0.861158
O O13 0.705589 0.960607 0.804560
O O14 0.601242 0.517314 0.096450
O O15 0.449512 0.714635 0.982052
O O16 0.285601 0.722539 0.012068
#
# Coordination Sequence:
#
# PCOD8128758 Si02
#       8
#     4   4   4   4   4   4   4   4
#     4  12  26  45  69 105 138 179 237 282 346 408
#     4  12  26  44  73 100 140 182 234 291 339 410
#     4  11  25  42  72 103 138 183 221 285 348 413
#     4  12  25  45  71 104 139 182 228 276 349 413
#     4  12  27  44  70 103 145 178 226 284 340 422
#     4  11  24  44  71  98 138 186 230 284 348 412
#     4  11  22  44  72  97 142 179 225 277 354 410
#     4  11  25  46  70  98 136 190 233 287 345 403
#
# _framework density 22.142064000000001
#
# number of rings (size 3 to 8) (size 9 to 14) (size 15 to 20)
#    0.000    0.500    3.750    4.500    3.500    2.000 
#    0.000    0.000    0.000    0.000    0.000    0.000 
#    0.000    0.000    0.000    0.000    0.000    0.000 
#
# Total GULP energy -397039.342858 kJ/mol
# GULP energy per Si atom -12407.479464 kJ/mol
# Density = 2.209167 g / cm^3
# Si number density = 22.142064 Si / 1000 Ang^3
#
#
#
# Elastic Constant Matrix: (Units=GPa)
#
#
# Indices 1 2 3 4 5 6 
#
# 1 87.6994 24.3377 10.5398 0.0000 -9.2193 0.0000
# 2 24.3377 80.3053 25.6616 0.0000 -0.0122 0.0000
# 3 10.5398 25.6616 87.4766 0.0000 -14.1965 0.0000
# 4 0.0000 0.0000 0.0000 36.7577 0.0000 -2.6968
# 5 -9.2193 -0.0122 -14.1965 0.0000 29.5096 0.0000
# 6 0.0000 0.0000 0.0000 -2.6968 0.0000 28.7165
#
#
#
# Elastic Compliance Matrix: (Units=1/GPa)
#
#
# Indices 1 2 3 4 5 6 
#
# 1 0.012919 -0.004010 0.000298 0.000000 0.004178 0.000000
# 2 -0.004010 0.015106 -0.004502 0.000000 -0.003412 0.000000
# 3 0.000298 -0.004502 0.013809 0.000000 0.006735 0.000000
# 4 0.000000 0.000000 0.000000 0.027394 0.000000 0.002573
# 5 0.004178 -0.003412 0.006735 0.000000 0.038431 0.000000
# 6 0.000000 0.000000 0.000000 0.002573 0.000000 0.035065
#
#
# Mechanical properties :
#
#
# Convention : Reuss Voigt Hill
#
# Bulk Modulus (GPa) = 39.36095 41.83995 40.60045
# Shear Modulus (GPa) = 29.82935 31.99291 30.91113
#
# Velocity S-wave (km/s) = 3.67438 3.80530 3.74041
# Velocity P-wave (km/s) = 5.98469 6.18419 6.08526
#
# Compressibility (1/GPa) = 0.02540589
#
# Stress axis : x y z
#
# Youngs Moduli (GPa) = 77.40705 66.19989 72.41446
#
# Poissons Ratio (x) = 0.26544 -0.02156
# Poissons Ratio (y) = 0.31038 0.32601
# Poissons Ratio (z) = -0.02304 0.29803
#
# Static dielectric constant tensor:
#      x y z
#    x 3.990460 0.000000 -0.075650 
#    y 0.000000 3.770110 0.000000 
#    z -0.075650 0.000000 4.177800 
# 
# 
# High freq. dielectric constant tensor:
#      x y z
#    x 1.877700 0.000000 -0.006170 
#    y 0.000000 1.862830 0.000000 
#    z -0.006170 0.000000 1.887830 
# 
# From -- ./inp_files/80010.got.cif
#   From: 2010.03.12/outbox.cif.g09.slc.cpg/sg14_41_cif.got.tgz:80010.got - 2010.03.31 13:35:05.
