data_PCOD8128279
_publ_section_title
;
Structure prediction by ZEFSAII (Michael W. Deem and Ramdas Pophale) SiO2 
 PCOD8128279
Probable space group: P 21/C
;
_chemical_formula_sum "Si O2"
_cell_formula_units_Z 24
_cell_length_a 7.685843
_cell_length_b 8.818171
_cell_length_c 17.239142
_cell_angle_alpha 90.000000
_cell_angle_beta 120.846369
_cell_angle_gamma 90.000000
_cell_volume 1003.110667
_symmetry_space_group_name_H-M "P 21/C"
_symmetry_group_IT_number 14
_symmetry_cell_setting 'monoclinic'
loop_
_space_group_symop_operation_xyz
x,y,z
-x,1/2+y,1/2-z
-x,-y,-z
x,1/2-y,1/2+z
loop_
_atom_site_type_symbol
_atom_site_label
_atom_site_fract_x
_atom_site_fract_y
_atom_site_fract_z
Si Si1 0.036696 0.046128 0.714818
Si Si2 0.891442 0.360391 0.632874
Si Si3 0.387326 0.395373 0.837245
Si Si4 0.202223 0.447866 0.088504
Si Si5 0.268293 0.106295 0.138745
Si Si6 0.440055 0.615808 0.551998
O O1 0.014296 0.228718 0.707624
O O2 0.158046 0.996459 0.666281
O O3 0.807815 0.983056 0.673946
O O4 0.180994 0.982453 0.818226
O O5 0.728934 0.289862 0.536356
O O6 0.047496 0.452720 0.614373
O O7 0.600058 0.477514 0.905414
O O8 0.398299 0.375644 0.747001
O O9 0.389598 0.231288 0.879586
O O10 0.244138 0.268055 0.090604
O O11 0.000000 0.500000 0.000000
O O12 0.357545 0.975916 0.106046
O O13 0.500000 0.500000 0.500000
#
# Coordination Sequence:
#
# PCOD8128279 Si02
#       6
#     4   4   4   4   4   4
#     4  10  25  44  71 105 141 190 241 293 360 433
#     4  10  24  44  70 101 142 186 237 296 360 419
#     4  11  25  46  71 102 141 190 235 291 360 428
#     4  11  25  42  72  98 140 185 241 293 356 427
#     4  10  24  46  67 100 139 185 238 288 357 431
#     4  12  28  42  71 106 144 180 237 300 355 424
#
# _framework density 23.925574999999998
#
# number of rings (size 3 to 8) (size 9 to 14) (size 15 to 20)
#    0.000    1.333    0.000    3.500   14.000    4.000 
#    0.000    0.000    0.000    0.000    0.000    0.000 
#    0.000    0.000    0.000    0.000    0.000    0.000 
#
# Total GULP energy -297330.031878 kJ/mol
# GULP energy per Si atom -12388.751328 kJ/mol
# Density = 2.387112 g / cm^3
# Si number density = 23.925575 Si / 1000 Ang^3
#
#
#
# Elastic Constant Matrix: (Units=GPa)
#
#
# Indices 1 2 3 4 5 6 
#
# 1 86.5474 9.5004 -13.9003 0.0000 -18.0440 0.0000
# 2 9.5004 72.4261 8.8270 0.0000 -15.7943 0.0000
# 3 -13.9003 8.8270 88.4055 0.0000 -8.9844 0.0000
# 4 0.0000 0.0000 0.0000 39.9964 0.0000 2.8538
# 5 -18.0440 -15.7943 -8.9844 0.0000 37.7373 0.0000
# 6 0.0000 0.0000 0.0000 2.8538 0.0000 22.7351
#
#
#
# Elastic Compliance Matrix: (Units=1/GPa)
#
#
# Indices 1 2 3 4 5 6 
#
# 1 0.013524 -0.000623 0.002889 0.000000 0.006894 0.000000
# 2 -0.000623 0.015292 -0.001030 0.000000 0.005857 0.000000
# 3 0.002889 -0.001030 0.012262 0.000000 0.003870 0.000000
# 4 0.000000 0.000000 0.000000 0.025228 0.000000 -0.003167
# 5 0.006894 0.005857 0.003870 0.000000 0.033168 0.000000
# 6 0.000000 0.000000 0.000000 -0.003167 0.000000 0.044382
#
#
# Mechanical properties :
#
#
# Convention : Reuss Voigt Hill
#
# Bulk Modulus (GPa) = 22.96141 28.47036 25.71588
# Shear Modulus (GPa) = 32.07196 36.29053 34.18125
#
# Velocity S-wave (km/s) = 3.66524 3.89885 3.78385
# Velocity P-wave (km/s) = 5.24689 5.67392 5.46458
#
# Compressibility (1/GPa) = 0.04355133
#
# Stress axis : x y z
#
# Youngs Moduli (GPa) = 73.94255 65.39522 81.55367
#
# Poissons Ratio (x) = 0.04073 -0.23562
# Poissons Ratio (y) = 0.04605 0.08396
# Poissons Ratio (z) = -0.21363 0.06732
#
# Static dielectric constant tensor:
#      x y z
#    x 0.731670 0.000000 -8.112730 
#    y 0.000000 1.924990 0.000000 
#    z -8.112730 0.000000 -13.065620 
# 
# 
# High freq. dielectric constant tensor:
#      x y z
#    x 1.959490 0.000000 0.008510 
#    y 0.000000 1.943480 0.000000 
#    z 0.008510 0.000000 1.965180 
# 
# From -- ./inp_files/54691.got.cif
#   From: 2010.03.12/outbox.cif.g09.slc.cpg/sg14_28_cif.got.tgz:54691.got - 2010.03.31 13:35:05.
