data_PCOD8128458
_publ_section_title
;
Structure prediction by ZEFSAII (Michael W. Deem and Ramdas Pophale) SiO2 
 PCOD8128458
Probable space group: P 21/C
;
_chemical_formula_sum "Si O2"
_cell_formula_units_Z 32
_cell_length_a 16.415419
_cell_length_b 15.085035
_cell_length_c 22.880230
_cell_angle_alpha 90.000000
_cell_angle_beta 16.608518
_cell_angle_gamma 90.000000
_cell_volume 1619.450802
_symmetry_space_group_name_H-M "P 21/C"
_symmetry_group_IT_number 14
_symmetry_cell_setting 'monoclinic'
loop_
_space_group_symop_operation_xyz
x,y,z
-x,1/2+y,1/2-z
-x,-y,-z
x,1/2-y,1/2+z
loop_
_atom_site_type_symbol
_atom_site_label
_atom_site_fract_x
_atom_site_fract_y
_atom_site_fract_z
Si Si1 0.815569 0.176311 0.397472
Si Si2 0.836123 0.103375 0.264517
Si Si3 0.173125 0.276270 0.320920
Si Si4 0.816220 0.897405 0.756345
Si Si5 0.788897 0.099756 0.767683
Si Si6 0.817160 0.586159 0.778149
Si Si7 0.769491 0.234838 0.206563
Si Si8 0.142806 0.164819 0.632496
O O1 0.971891 0.136040 0.231960
O O2 0.473898 0.183147 0.634406
O O3 0.918388 0.121839 0.383347
O O4 0.931148 0.275609 0.316535
O O5 0.514894 0.091472 0.507091
O O6 0.881677 0.176051 0.183489
O O7 0.954590 0.007377 0.162166
O O8 0.189154 0.172523 0.292974
O O9 0.047769 0.332491 0.351793
O O10 0.955449 0.288326 0.523063
O O11 0.843308 0.997394 0.712572
O O12 0.524226 0.885333 0.991860
O O13 0.811057 0.161944 0.695350
O O14 0.021958 0.130201 0.654710
O O15 0.836333 0.584532 0.835710
O O16 0.444503 0.212492 0.414469
#
# Coordination Sequence:
#
# PCOD8128458 Si02
#       8
#     4   4   4   4   4   4   4   4
#     4  11  19  38  64  84 111 156 199 242 287 347
#     4   9  18  35  59  84 110 147 195 241 285 341
#     4  11  23  38  60  88 124 155 189 243 302 353
#     4  11  22  39  63  89 116 156 204 246 288 347
#     4  11  22  39  63  89 116 156 204 246 288 347
#     4   9  18  35  59  84 110 147 195 241 285 341
#     4  11  23  38  60  88 124 155 189 243 302 353
#     4  11  19  38  64  84 111 156 199 242 287 347
#
# _framework density 19.759784
#
# number of rings (size 3 to 8) (size 9 to 14) (size 15 to 20)
#    0.000    1.500    5.000    1.500    0.000    3.000 
#    0.000    0.000    0.000    0.000    0.000    0.000 
#    0.000    0.000    0.000    0.000    0.000    0.000 
#
# Total GULP energy -396558.263893 kJ/mol
# GULP energy per Si atom -12392.445747 kJ/mol
# Density = 1.971481 g / cm^3
# Si number density = 19.759784 Si / 1000 Ang^3
#
#
#
# Elastic Constant Matrix: (Units=GPa)
#
#
# Indices 1 2 3 4 5 6 
#
# 1 84.9015 35.2380 37.9061 0.0000 -6.3771 0.0000
# 2 35.2380 128.0394 27.2149 0.0000 5.8560 0.0000
# 3 37.9061 27.2149 64.9713 0.0000 6.6098 0.0000
# 4 0.0000 0.0000 0.0000 15.8197 0.0000 -3.0980
# 5 -6.3771 5.8560 6.6098 0.0000 27.3199 0.0000
# 6 0.0000 0.0000 0.0000 -3.0980 0.0000 24.8104
#
#
#
# Elastic Compliance Matrix: (Units=1/GPa)
#
#
# Indices 1 2 3 4 5 6 
#
# 1 0.018107 -0.003199 -0.009969 0.000000 0.007325 0.000000
# 2 -0.003199 0.009165 -0.001739 0.000000 -0.002291 0.000000
# 3 -0.009969 -0.001739 0.022694 0.000000 -0.007445 0.000000
# 4 0.000000 0.000000 0.000000 0.064797 0.000000 0.008091
# 5 0.007325 -0.002291 -0.007445 0.000000 0.040605 0.000000
# 6 0.000000 0.000000 0.000000 0.008091 0.000000 0.041316
#
#
# Mechanical properties :
#
#
# Convention : Reuss Voigt Hill
#
# Bulk Modulus (GPa) = 49.62785 53.18115 51.40450
# Shear Modulus (GPa) = 21.43923 25.42688 23.43305
#
# Velocity S-wave (km/s) = 3.29750 3.59109 3.44742
# Velocity P-wave (km/s) = 6.29826 6.64581 6.47437
#
# Compressibility (1/GPa) = 0.02014998
#
# Stress axis : x y z
#
# Youngs Moduli (GPa) = 55.22582 109.10992 44.06484
#
# Poissons Ratio (x) = 0.34908 0.43930
# Poissons Ratio (y) = 0.17669 0.07665
# Poissons Ratio (z) = 0.55057 0.18979
#
# Static dielectric constant tensor:
#      x y z
#    x 3.635100 0.000000 -0.219440 
#    y 0.000000 3.963960 0.000000 
#    z -0.219440 0.000000 3.242980 
# 
# 
# High freq. dielectric constant tensor:
#      x y z
#    x 1.771200 0.000000 -0.015400 
#    y 0.000000 1.785940 0.000000 
#    z -0.015400 0.000000 1.731380 
# 
# From -- ./inp_files/68632.got.cif
#   From: 2010.03.12/outbox.cif.g09.slc.cpg/sg14_35_cif.got.tgz:68632.got - 2010.03.31 13:35:05.
