data_PCOD8128195
_publ_section_title
;
Structure prediction by ZEFSAII (Michael W. Deem and Ramdas Pophale) SiO2 
 PCOD8128195
Probable space group: P 21/C
;
_chemical_formula_sum "Si O2"
_cell_formula_units_Z 20
_cell_length_a 18.435016
_cell_length_b 5.222943
_cell_length_c 8.884666
_cell_angle_alpha 90.000000
_cell_angle_beta 89.998837
_cell_angle_gamma 90.000000
_cell_volume 855.460401
_symmetry_space_group_name_H-M "P 21/C"
_symmetry_group_IT_number 14
_symmetry_cell_setting 'monoclinic'
loop_
_space_group_symop_operation_xyz
x,y,z
-x,1/2+y,1/2-z
-x,-y,-z
x,1/2-y,1/2+z
loop_
_atom_site_type_symbol
_atom_site_label
_atom_site_fract_x
_atom_site_fract_y
_atom_site_fract_z
Si Si1 0.249998 0.749993 0.917304
Si Si2 0.312683 0.061801 0.655805
Si Si3 0.975652 0.925356 0.832907
Si Si4 0.475652 0.074639 0.667095
Si Si5 0.812684 0.938199 0.844190
O O1 0.211729 0.535895 0.818092
O O2 0.288261 0.964090 0.818079
O O3 0.314948 0.652247 0.025286
O O4 0.185053 0.847733 0.025303
O O5 0.392816 0.178394 0.668046
O O6 0.250002 0.250012 0.597974
O O7 0.979540 0.182411 0.730322
O O8 0.892816 0.821595 0.831963
O O9 0.000000 0.000000 0.000000
O O10 0.520459 0.317584 0.730321
O O11 0.500000 0.000000 0.500000
#
# Coordination Sequence:
#
# PCOD8128195 Si02
#       5
#     4   4   4   4   4
#     4  10  24  42  70 104 138 182 250 296 350 422
#     4  11  25  43  74 101 144 187 246 293 363 431
#     4  12  29  49  76 109 154 195 245 306 378 441
#     4  12  29  49  76 109 154 195 245 306 378 441
#     4  11  25  43  74 101 144 187 246 293 363 431
#
# _framework density 23.379223
#
# number of rings (size 3 to 8) (size 9 to 14) (size 15 to 20)
#    0.000    0.800    0.000    4.800   22.400    0.000 
#    0.000    0.000    0.000    0.000    0.000    0.000 
#    0.000    0.000    0.000    0.000    0.000    0.000 
#
# Total GULP energy -247937.939314 kJ/mol
# GULP energy per Si atom -12396.896966 kJ/mol
# Density = 2.332601 g / cm^3
# Si number density = 23.379223 Si / 1000 Ang^3
#
#
#
# Elastic Constant Matrix: (Units=GPa)
#
#
# Indices 1 2 3 4 5 6 
#
# 1 161.3437 25.8392 30.2229 0.0000 0.0041 0.0000
# 2 25.8392 99.0764 32.9928 0.0000 0.0004 0.0000
# 3 30.2229 32.9928 145.4556 0.0000 0.0052 0.0000
# 4 0.0000 0.0000 0.0000 10.3653 0.0000 0.0045
# 5 0.0041 0.0004 0.0052 0.0000 15.2849 0.0000
# 6 0.0000 0.0000 0.0000 0.0045 0.0000 37.6332
#
#
#
# Elastic Compliance Matrix: (Units=1/GPa)
#
#
# Indices 1 2 3 4 5 6 
#
# 1 0.006617 -0.001371 -0.001064 0.000000 -0.000001 0.000000
# 2 -0.001371 0.011202 -0.002256 0.000000 0.000001 0.000000
# 3 -0.001064 -0.002256 0.007608 0.000000 -0.000002 0.000000
# 4 0.000000 0.000000 0.000000 0.096476 0.000000 -0.000012
# 5 -0.000001 0.000001 -0.000002 0.000000 0.065424 0.000000
# 6 0.000000 0.000000 0.000000 -0.000012 0.000000 0.026572
#
#
# Mechanical properties :
#
#
# Convention : Reuss Voigt Hill
#
# Bulk Modulus (GPa) = 62.32730 64.88726 63.60728
# Shear Modulus (GPa) = 21.86946 33.77807 27.82376
#
# Velocity S-wave (km/s) = 3.06179 3.80516 3.45353
# Velocity P-wave (km/s) = 6.26231 6.86441 6.57026
#
# Compressibility (1/GPa) = 0.01604433
#
# Stress axis : x y z
#
# Youngs Moduli (GPa) = 151.12929 89.26874 131.44602
#
# Poissons Ratio (x) = 0.12243 0.13983
# Poissons Ratio (y) = 0.20726 0.29654
# Poissons Ratio (z) = 0.16077 0.20139
#
# Static dielectric constant tensor:
#      x y z
#    x 4.172690 0.000000 0.000100 
#    y 0.000000 4.606560 0.000000 
#    z 0.000100 0.000000 4.343630 
# 
# 
# High freq. dielectric constant tensor:
#      x y z
#    x 1.921150 0.000000 0.000000 
#    y 0.000000 1.920400 0.000000 
#    z 0.000000 0.000000 1.954400 
# 
# From -- ./inp_files/5440.got.cif
#   From: 2010.03.12/outbox.cif.g09.slc.cpg/sg14_3_cif.got.tgz:5440.got - 2010.03.31 13:35:05.
