data_PCOD8128649
_publ_section_title
;
Structure prediction by ZEFSAII (Michael W. Deem and Ramdas Pophale) SiO2 
 PCOD8128649
Probable space group: P 21/C
;
_chemical_formula_sum "Si O2"
_cell_formula_units_Z 32
_cell_length_a 19.882244
_cell_length_b 8.885895
_cell_length_c 22.613978
_cell_angle_alpha 90.000000
_cell_angle_beta 20.697866
_cell_angle_gamma 90.000000
_cell_volume 1412.079810
_symmetry_space_group_name_H-M "P 21/C"
_symmetry_group_IT_number 14
_symmetry_cell_setting 'monoclinic'
loop_
_space_group_symop_operation_xyz
x,y,z
-x,1/2+y,1/2-z
-x,-y,-z
x,1/2-y,1/2+z
loop_
_atom_site_type_symbol
_atom_site_label
_atom_site_fract_x
_atom_site_fract_y
_atom_site_fract_z
Si Si1 0.620663 0.872524 0.800902
Si Si2 0.765751 0.192292 0.815825
Si Si3 0.116234 0.794086 0.088236
Si Si4 0.430294 0.416105 0.879474
Si Si5 0.830486 0.855933 0.745161
Si Si6 0.077119 0.912966 0.724493
Si Si7 0.558684 0.292334 0.369733
Si Si8 0.555888 0.780582 0.235260
O O1 0.781157 0.826527 0.716822
O O2 0.658720 0.787946 0.708252
O O3 0.626760 0.051014 0.785142
O O4 0.414087 0.826336 0.993627
O O5 0.901493 0.315373 0.733483
O O6 0.700260 0.253563 0.806049
O O7 0.873005 0.032837 0.720574
O O8 0.013621 0.694365 0.223307
O O9 0.015961 0.742308 0.109447
O O10 0.338783 0.769908 0.904998
O O11 0.088039 0.969380 0.125533
O O12 0.570721 0.334930 0.810009
O O13 0.341316 0.290735 0.907291
O O14 0.557863 0.538008 0.738071
O O15 0.269071 0.499330 0.049344
O O16 0.654404 0.805565 0.930294
#
# Coordination Sequence:
#
# PCOD8128649 Si02
#       8
#     4   4   4   4   4   4   4   4
#     4   9  17  35  56  86 115 152 189 233 278 349
#     4   9  17  34  56  91 114 144 189 241 278 348
#     4  11  22  35  56  88 117 148 184 248 290 343
#     4  11  22  38  55  83 111 160 195 232 281 346
#     4   9  18  33  60  88 118 146 183 237 299 334
#     4  11  22  35  57  84 118 148 192 240 296 337
#     4   9  18  32  60  87 113 145 192 237 284 333
#     4  11  24  38  58  82 119 153 200 236 281 348
#
# _framework density 22.661608999999999
#
# number of rings (size 3 to 8) (size 9 to 14) (size 15 to 20)
#    0.000    2.000    3.750    3.000    1.750    2.500 
#    0.000    0.000    0.000   16.500    0.000    0.000 
#    0.000    0.000    0.000    0.000    0.000    0.000 
#
# Total GULP energy -396791.817359 kJ/mol
# GULP energy per Si atom -12399.744292 kJ/mol
# Density = 2.261003 g / cm^3
# Si number density = 22.661609 Si / 1000 Ang^3
#
#
#
# Elastic Constant Matrix: (Units=GPa)
#
#
# Indices 1 2 3 4 5 6 
#
# 1 130.6313 46.0902 5.4203 0.0000 -2.4204 0.0000
# 2 46.0902 102.7574 1.5322 0.0000 -1.4695 0.0000
# 3 5.4203 1.5322 15.7885 0.0000 -2.0819 0.0000
# 4 0.0000 0.0000 0.0000 17.2042 0.0000 -0.2523
# 5 -2.4204 -1.4695 -2.0819 0.0000 25.2699 0.0000
# 6 0.0000 0.0000 0.0000 -0.2523 0.0000 58.6702
#
#
#
# Elastic Compliance Matrix: (Units=1/GPa)
#
#
# Indices 1 2 3 4 5 6 
#
# 1 0.009218 -0.004088 -0.002712 0.000000 0.000422 0.000000
# 2 -0.004088 0.011565 0.000322 0.000000 0.000307 0.000000
# 3 -0.002712 0.000322 0.064911 0.000000 0.005107 0.000000
# 4 0.000000 0.000000 0.000000 0.058129 0.000000 0.000250
# 5 0.000422 0.000307 0.005107 0.000000 0.040052 0.000000
# 6 0.000000 0.000000 0.000000 0.000250 0.000000 0.017046
#
#
# Mechanical properties :
#
#
# Convention : Reuss Voigt Hill
#
# Bulk Modulus (GPa) = 13.74829 39.47361 26.61095
# Shear Modulus (GPa) = 20.99761 33.30449 27.15105
#
# Velocity S-wave (km/s) = 3.04727 3.83775 3.46512
# Velocity P-wave (km/s) = 4.29663 6.09051 5.27045
#
# Compressibility (1/GPa) = 0.07273629
#
# Stress axis : x y z
#
# Youngs Moduli (GPa) = 108.48508 86.46860 15.40578
#
# Poissons Ratio (x) = 0.35349 0.04178
# Poissons Ratio (y) = 0.44349 -0.00496
# Poissons Ratio (z) = 0.29424 -0.02782
#
# Static dielectric constant tensor:
#      x y z
#    x 4.355050 0.000000 0.112100 
#    y 0.000000 4.407100 0.000000 
#    z 0.112100 0.000000 3.527950 
# 
# 
# High freq. dielectric constant tensor:
#      x y z
#    x 1.905990 0.000000 0.000780 
#    y 0.000000 1.899310 0.000000 
#    z 0.000780 0.000000 1.852170 
# 
# From -- ./inp_files/69138.got.cif
#   From: 2010.03.12/outbox.cif.g09.slc.cpg/sg14_35_cif.got.tgz:69138.got - 2010.03.31 13:35:05.
