data_PCOD8128902
_publ_section_title
;
Structure prediction by ZEFSAII (Michael W. Deem and Ramdas Pophale) SiO2 
 PCOD8128902
Probable space group: P 21/C
;
_chemical_formula_sum "Si O2"
_cell_formula_units_Z 24
_cell_length_a 11.698786
_cell_length_b 9.759209
_cell_length_c 13.979445
_cell_angle_alpha 90.000000
_cell_angle_beta 135.898131
_cell_angle_gamma 90.000000
_cell_volume 1110.746072
_symmetry_space_group_name_H-M "P 21/C"
_symmetry_group_IT_number 14
_symmetry_cell_setting 'monoclinic'
loop_
_space_group_symop_operation_xyz
x,y,z
-x,1/2+y,1/2-z
-x,-y,-z
x,1/2-y,1/2+z
loop_
_atom_site_type_symbol
_atom_site_label
_atom_site_fract_x
_atom_site_fract_y
_atom_site_fract_z
Si Si1 0.137597 0.385786 0.317890
Si Si2 0.761775 0.382606 0.114069
Si Si3 0.689921 0.536524 0.767199
Si Si4 0.316268 0.722766 0.735574
Si Si5 0.679238 0.384659 0.464682
Si Si6 0.686271 0.848757 0.469675
O O1 0.227799 0.380607 0.269913
O O2 0.184143 0.522528 0.403238
O O3 0.179838 0.252807 0.405791
O O4 0.944607 0.386396 0.181663
O O5 0.765623 0.367516 0.230571
O O6 0.658552 0.256274 0.009861
O O7 0.667104 0.519465 0.026226
O O8 0.748749 0.378741 0.801224
O O9 0.493851 0.538089 0.637939
O O10 0.745316 0.607190 0.899322
O O11 0.259815 0.647652 0.605292
O O12 0.512976 0.727564 0.861132
#
# Coordination Sequence:
#
# PCOD8128902 Si02
#       6
#     4   4   4   4   4   4
#     4  12  25  42  67  96 133 173 209 262 329 386
#     4  12  25  41  65  99 132 168 212 266 320 382
#     4  11  23  44  72  91 128 176 212 266 324 376
#     4  11  23  43  71  94 127 172 217 269 315 374
#     4  11  23  43  69  95 126 170 223 257 316 388
#     4  11  25  42  66 103 124 165 227 265 311 381
#
# _framework density 21.607098000000001
#
# number of rings (size 3 to 8) (size 9 to 14) (size 15 to 20)
#    0.000    0.667    5.000    3.000    0.000    4.000 
#    0.000    0.000    0.000    0.000    0.000    0.000 
#    0.000    0.000    0.000    0.000    0.000    0.000 
#
# Total GULP energy -297807.549603 kJ/mol
# GULP energy per Si atom -12408.647900 kJ/mol
# Density = 2.155792 g / cm^3
# Si number density = 21.607098 Si / 1000 Ang^3
#
#
#
# Elastic Constant Matrix: (Units=GPa)
#
#
# Indices 1 2 3 4 5 6 
#
# 1 78.0761 15.5559 48.6522 0.0000 -35.1766 0.0000
# 2 15.5559 107.1526 27.7897 0.0000 -19.7594 0.0000
# 3 48.6522 27.7897 67.9037 0.0000 -31.8213 0.0000
# 4 0.0000 0.0000 0.0000 34.1164 0.0000 -8.0226
# 5 -35.1766 -19.7594 -31.8213 0.0000 43.1670 0.0000
# 6 0.0000 0.0000 0.0000 -8.0226 0.0000 22.7670
#
#
#
# Elastic Compliance Matrix: (Units=1/GPa)
#
#
# Indices 1 2 3 4 5 6 
#
# 1 0.026861 0.002084 -0.014352 0.000000 0.012263 0.000000
# 2 0.002084 0.010780 -0.004273 0.000000 0.003483 0.000000
# 3 -0.014352 -0.004273 0.031107 0.000000 0.009280 0.000000
# 4 0.000000 0.000000 0.000000 0.031960 0.000000 0.011262
# 5 0.012263 0.003483 0.009280 0.000000 0.041595 0.000000
# 6 0.000000 0.000000 0.000000 0.011262 0.000000 0.047892
#
#
# Mechanical properties :
#
#
# Convention : Reuss Voigt Hill
#
# Bulk Modulus (GPa) = 28.03662 48.56979 38.30320
# Shear Modulus (GPa) = 21.26173 30.75237 26.00705
#
# Velocity S-wave (km/s) = 3.14031 3.77670 3.47311
# Velocity P-wave (km/s) = 5.11395 6.44557 5.81798
#
# Compressibility (1/GPa) = 0.03566764
#
# Stress axis : x y z
#
# Youngs Moduli (GPa) = 37.22877 92.76122 32.14711
#
# Poissons Ratio (x) = -0.19330 0.46136
# Poissons Ratio (y) = -0.07758 0.13735
# Poissons Ratio (z) = 0.53429 0.39634
#
# Static dielectric constant tensor:
#      x y z
#    x 3.722410 0.000000 -0.267940 
#    y 0.000000 3.980530 0.000000 
#    z -0.267940 0.000000 3.958850 
# 
# 
# High freq. dielectric constant tensor:
#      x y z
#    x 1.839130 0.000000 -0.016600 
#    y 0.000000 1.858520 0.000000 
#    z -0.016600 0.000000 1.856460 
# 
# From -- ./inp_files/28770.got.cif
#   From: 2010.03.12/outbox.cif.g09.slc.cpg/sg14_15_cif.got.tgz:28770.got - 2010.03.31 13:35:05.
