data_PCOD8128702
_publ_section_title
;
Structure prediction by ZEFSAII (Michael W. Deem and Ramdas Pophale) SiO2 
 PCOD8128702
Probable space group: P 21/C
;
_chemical_formula_sum "Si O2"
_cell_formula_units_Z 24
_cell_length_a 14.210749
_cell_length_b 14.500021
_cell_length_c 11.755936
_cell_angle_alpha 90.000000
_cell_angle_beta 29.157831
_cell_angle_gamma 90.000000
_cell_volume 1180.226349
_symmetry_space_group_name_H-M "P 21/C"
_symmetry_group_IT_number 14
_symmetry_cell_setting 'monoclinic'
loop_
_space_group_symop_operation_xyz
x,y,z
-x,1/2+y,1/2-z
-x,-y,-z
x,1/2-y,1/2+z
loop_
_atom_site_type_symbol
_atom_site_label
_atom_site_fract_x
_atom_site_fract_y
_atom_site_fract_z
Si Si1 0.701346 0.454429 0.762900
Si Si2 0.787575 0.652176 0.979205
Si Si3 0.045109 0.899109 0.402715
Si Si4 0.070090 0.693559 0.107672
Si Si5 0.342976 0.836483 0.908381
Si Si6 0.935828 0.464250 0.720277
O O1 0.671570 0.375823 0.702691
O O2 0.790499 0.413173 0.785723
O O3 0.852974 0.530381 0.558574
O O4 0.500000 0.500000 0.000000
O O5 0.846620 0.564224 0.842029
O O6 0.854971 0.638135 0.038395
O O7 0.884750 0.741362 0.819631
O O8 0.559685 0.668825 0.223749
O O9 0.102052 0.825597 0.440260
O O10 0.220386 0.899536 0.125864
O O11 0.000000 0.000000 0.500000
O O12 0.035638 0.592885 0.195734
O O13 0.252669 0.735359 0.983757
#
# Coordination Sequence:
#
# PCOD8128702 Si02
#       6
#     4   4   4   4   4   4
#     4  11  22  40  71  93 128 170 225 272 332 392
#     4  11  24  45  65 100 135 171 229 274 336 407
#     4  11  23  46  71  95 137 181 222 283 344 401
#     4  11  25  45  66  95 138 178 222 275 340 398
#     4  11  25  43  64 104 134 172 232 278 332 412
#     4  11  23  43  68  95 130 177 218 275 335 393
#
# _framework density 20.335083999999998
#
# number of rings (size 3 to 8) (size 9 to 14) (size 15 to 20)
#    0.000    1.000    6.667    0.000    4.667    3.333 
#    3.000    0.000    0.000    0.000    0.000    0.000 
#    0.000    0.000    0.000    0.000    0.000    0.000 
#
# Total GULP energy -297544.326813 kJ/mol
# GULP energy per Si atom -12397.680284 kJ/mol
# Density = 2.028880 g / cm^3
# Si number density = 20.335084 Si / 1000 Ang^3
#
#
#
# Elastic Constant Matrix: (Units=GPa)
#
#
# Indices 1 2 3 4 5 6 
#
# 1 128.3353 32.9626 59.8943 0.0000 -5.7571 0.0000
# 2 32.9626 72.4913 33.5531 0.0000 -2.1590 0.0000
# 3 59.8943 33.5531 119.0244 0.0000 -25.3365 0.0000
# 4 0.0000 0.0000 0.0000 25.3151 0.0000 12.9109
# 5 -5.7571 -2.1590 -25.3365 0.0000 48.5044 0.0000
# 6 0.0000 0.0000 0.0000 12.9109 0.0000 38.7535
#
#
#
# Elastic Compliance Matrix: (Units=1/GPa)
#
#
# Indices 1 2 3 4 5 6 
#
# 1 0.010715 -0.002620 -0.004959 0.000000 -0.001435 0.000000
# 2 -0.002620 0.016652 -0.003695 0.000000 -0.001500 0.000000
# 3 -0.004959 -0.003695 0.013252 0.000000 0.006169 0.000000
# 4 0.000000 0.000000 0.000000 0.047588 0.000000 -0.015854
# 5 -0.001435 -0.001500 0.006169 0.000000 0.023602 0.000000
# 6 0.000000 0.000000 0.000000 -0.015854 0.000000 0.031086
#
#
# Mechanical properties :
#
#
# Convention : Reuss Voigt Hill
#
# Bulk Modulus (GPa) = 55.33722 63.63011 59.48367
# Shear Modulus (GPa) = 29.16045 35.41067 32.28556
#
# Velocity S-wave (km/s) = 3.79092 4.17749 3.98889
# Velocity P-wave (km/s) = 6.81419 7.39102 7.10846
#
# Compressibility (1/GPa) = 0.01807102
#
# Stress axis : x y z
#
# Youngs Moduli (GPa) = 93.32831 60.05423 75.46127
#
# Poissons Ratio (x) = 0.15732 0.37420
# Poissons Ratio (y) = 0.24449 0.27884
# Poissons Ratio (z) = 0.46280 0.22191
#
# Static dielectric constant tensor:
#      x y z
#    x 4.036840 0.000000 0.065390 
#    y 0.000000 3.374360 0.000000 
#    z 0.065390 0.000000 2.400510 
# 
# 
# High freq. dielectric constant tensor:
#      x y z
#    x 1.817070 0.000000 0.007380 
#    y 0.000000 1.785370 0.000000 
#    z 0.007380 0.000000 1.791660 
# 
# From -- ./inp_files/32701.got.cif
#   From: 2010.03.12/outbox.cif.g09.slc.cpg/sg14_17_cif.got.tgz:32701.got - 2010.03.31 13:35:05.
