data_PCOD8128434
_publ_section_title
;
Structure prediction by ZEFSAII (Michael W. Deem and Ramdas Pophale) SiO2 
 PCOD8128434
Probable space group: P 21/C
;
_chemical_formula_sum "Si O2"
_cell_formula_units_Z 16
_cell_length_a 18.575756
_cell_length_b 4.802732
_cell_length_c 9.384561
_cell_angle_alpha 90.000000
_cell_angle_beta 139.375722
_cell_angle_gamma 90.000000
_cell_volume 545.122067
_symmetry_space_group_name_H-M "P 21/C"
_symmetry_group_IT_number 14
_symmetry_cell_setting 'monoclinic'
loop_
_space_group_symop_operation_xyz
x,y,z
-x,1/2+y,1/2-z
-x,-y,-z
x,1/2-y,1/2+z
loop_
_atom_site_type_symbol
_atom_site_label
_atom_site_fract_x
_atom_site_fract_y
_atom_site_fract_z
Si Si1 0.931861 0.440825 0.607725
Si Si2 0.270934 0.907507 0.666675
Si Si3 0.231439 0.329738 0.835606
Si Si4 0.429838 0.687486 0.180420
O O1 0.891787 0.569768 0.396031
O O2 0.983621 0.682498 0.784898
O O3 0.820002 0.324067 0.511618
O O4 0.263700 0.030276 0.816651
O O5 0.237688 0.178894 0.516488
O O6 0.392046 0.808651 0.790838
O O7 0.325860 0.566294 0.927101
O O8 0.461801 0.995180 0.176327
#
# Coordination Sequence:
#
# PCOD8128434 Si02
#       4
#     4   4   4   4
#     4  12  26  48  74 112 148 200 242 308 378 428
#     4  10  26  48  77 109 155 189 253 306 359 455
#     4  10  26  48  77 109 155 189 253 306 359 455
#     4  10  26  46  76 111 144 201 238 304 376 430
#
# _framework density 29.351224999999999
#
# number of rings (size 3 to 8) (size 9 to 14) (size 15 to 20)
#    1.500    0.000    2.500    0.000    7.000    6.000 
#    0.000    0.000    0.000    0.000    0.000    0.000 
#    0.000    0.000    0.000    0.000    0.000    0.000 
#
# Total GULP energy -198249.670419 kJ/mol
# GULP energy per Si atom -12390.604401 kJ/mol
# Density = 2.928442 g / cm^3
# Si number density = 29.351225 Si / 1000 Ang^3
#
#
#
# Elastic Constant Matrix: (Units=GPa)
#
#
# Indices 1 2 3 4 5 6 
#
# 1 37.2387 14.0714 -0.2253 0.0000 3.1227 0.0000
# 2 14.0714 122.1061 2.1828 0.0000 14.1536 0.0000
# 3 -0.2253 2.1828 110.9084 0.0000 25.3360 0.0000
# 4 0.0000 0.0000 0.0000 36.7745 0.0000 7.7631
# 5 3.1227 14.1536 25.3360 0.0000 36.9065 0.0000
# 6 0.0000 0.0000 0.0000 7.7631 0.0000 30.2714
#
#
#
# Elastic Compliance Matrix: (Units=1/GPa)
#
#
# Indices 1 2 3 4 5 6 
#
# 1 0.028146 -0.003076 0.000465 0.000000 -0.001521 0.000000
# 2 -0.003076 0.008951 0.000643 0.000000 -0.003614 0.000000
# 3 0.000465 0.000643 0.010757 0.000000 -0.007671 0.000000
# 4 0.000000 0.000000 0.000000 0.028749 0.000000 -0.007373
# 5 -0.001521 -0.003614 -0.007671 0.000000 0.033876 0.000000
# 6 0.000000 0.000000 0.000000 -0.007373 0.000000 0.034925
#
#
# Mechanical properties :
#
#
# Convention : Reuss Voigt Hill
#
# Bulk Modulus (GPa) = 22.76834 33.59012 28.17923
# Shear Modulus (GPa) = 30.49162 37.73877 34.11519
#
# Velocity S-wave (km/s) = 3.22662 3.58965 3.41296
# Velocity P-wave (km/s) = 4.65355 5.35255 5.01524
#
# Compressibility (1/GPa) = 0.04392064
#
# Stress axis : x y z
#
# Youngs Moduli (GPa) = 35.52866 111.71372 92.96260
#
# Poissons Ratio (x) = 0.34358 -0.04325
# Poissons Ratio (y) = 0.10927 -0.05979
# Poissons Ratio (z) = -0.01653 -0.07186
#
# Static dielectric constant tensor:
#      x y z
#    x 4.985320 0.000000 0.187870 
#    y 0.000000 5.204460 0.000000 
#    z 0.187870 0.000000 5.441610 
# 
# 
# High freq. dielectric constant tensor:
#      x y z
#    x 2.171660 0.000000 0.019920 
#    y 0.000000 2.212740 0.000000 
#    z 0.019920 0.000000 2.204990 
# 
# From -- ./inp_files/14773.got.cif
#   From: 2010.03.12/outbox.cif.g09.slc.cpg/sg14_8_cif.got.tgz:14773.got - 2010.03.31 13:35:05.
