data_PCOD8128818
_publ_section_title
;
Structure prediction by ZEFSAII (Michael W. Deem and Ramdas Pophale) SiO2 
 PCOD8128818
Probable space group: P 21/C
;
_chemical_formula_sum "Si O2"
_cell_formula_units_Z 20
_cell_length_a 18.832532
_cell_length_b 5.170531
_cell_length_c 8.958052
_cell_angle_alpha 90.000000
_cell_angle_beta 91.663029
_cell_angle_gamma 90.000000
_cell_volume 871.915652
_symmetry_space_group_name_H-M "P 21/C"
_symmetry_group_IT_number 14
_symmetry_cell_setting 'monoclinic'
loop_
_space_group_symop_operation_xyz
x,y,z
-x,1/2+y,1/2-z
-x,-y,-z
x,1/2-y,1/2+z
loop_
_atom_site_type_symbol
_atom_site_label
_atom_site_fract_x
_atom_site_fract_y
_atom_site_fract_z
Si Si1 0.740434 0.941570 0.369925
Si Si2 0.526145 0.035254 0.669317
Si Si3 0.966788 0.282383 0.598219
Si Si4 0.309938 0.951214 0.300556
Si Si5 0.099853 0.035093 0.660544
O O1 0.694535 0.703173 0.305475
O O2 0.727402 0.204328 0.277208
O O3 0.724406 0.988717 0.541953
O O4 0.822145 0.849151 0.358349
O O5 0.482779 0.267256 0.742790
O O6 0.607988 0.118018 0.672621
O O7 0.500000 0.000000 0.500000
O O8 0.898915 0.338529 0.700836
O O9 0.930788 0.060283 0.498420
O O10 0.000000 0.500000 0.500000
O O11 0.035654 0.224584 0.708454
#
# Coordination Sequence:
#
# PCOD8128818 Si02
#       5
#     4   4   4   4   4
#     4  12  28  45  74  98 150 183 233 282 358 413
#     4  12  25  45  76 105 141 183 230 285 342 405
#     4  11  23  40  63  92 125 161 233 274 329 393
#     4  12  26  48  69 109 139 185 231 284 340 430
#     4  11  25  41  66  92 127 178 218 287 335 397
#
# _framework density 22.937998
#
# number of rings (size 3 to 8) (size 9 to 14) (size 15 to 20)
#    0.000    0.400    2.000    6.600    5.600    0.000 
#    0.000    0.000    0.000    0.000    0.000    0.000 
#    0.000    0.000    0.000    0.000    0.000    0.000 
#
# Total GULP energy -247848.208480 kJ/mol
# GULP energy per Si atom -12392.410424 kJ/mol
# Density = 2.288579 g / cm^3
# Si number density = 22.937998 Si / 1000 Ang^3
#
#
#
# Elastic Constant Matrix: (Units=GPa)
#
#
# Indices 1 2 3 4 5 6 
#
# 1 114.5831 -1.8033 8.6271 0.0000 1.9710 0.0000
# 2 -1.8033 94.7288 24.7389 0.0000 6.1793 0.0000
# 3 8.6271 24.7389 113.6660 0.0000 -2.2820 0.0000
# 4 0.0000 0.0000 0.0000 37.7597 0.0000 -0.2635
# 5 1.9710 6.1793 -2.2820 0.0000 33.9623 0.0000
# 6 0.0000 0.0000 0.0000 -0.2635 0.0000 35.4251
#
#
#
# Elastic Compliance Matrix: (Units=1/GPa)
#
#
# Indices 1 2 3 4 5 6 
#
# 1 0.008803 0.000410 -0.000770 0.000000 -0.000637 0.000000
# 2 0.000410 0.011379 -0.002553 0.000000 -0.002266 0.000000
# 3 -0.000770 -0.002553 0.009435 0.000000 0.001143 0.000000
# 4 0.000000 0.000000 0.000000 0.026485 0.000000 0.000197
# 5 -0.000637 -0.002266 0.001143 0.000000 0.029970 0.000000
# 6 0.000000 0.000000 0.000000 0.000197 0.000000 0.028230
#
#
# Mechanical properties :
#
#
# Convention : Reuss Voigt Hill
#
# Bulk Modulus (GPa) = 42.03421 42.90035 42.46728
# Shear Modulus (GPa) = 39.04491 40.85711 39.95101
#
# Velocity S-wave (km/s) = 4.13024 4.22500 4.17789
# Velocity P-wave (km/s) = 6.41172 6.52259 6.46739
#
# Compressibility (1/GPa) = 0.02379014
#
# Stress axis : x y z
#
# Youngs Moduli (GPa) = 113.60150 87.88248 105.99061
#
# Poissons Ratio (x) = -0.03606 0.08163
# Poissons Ratio (y) = -0.04661 0.27061
# Poissons Ratio (z) = 0.08750 0.22438
#
# Static dielectric constant tensor:
#      x y z
#    x 4.514640 0.000000 -0.034470 
#    y 0.000000 6.662770 0.000000 
#    z -0.034470 0.000000 4.000470 
# 
# 
# High freq. dielectric constant tensor:
#      x y z
#    x 1.916620 0.000000 -0.004670 
#    y 0.000000 1.906970 0.000000 
#    z -0.004670 0.000000 1.931480 
# 
# From -- ./inp_files/17256.got.cif
#   From: 2010.03.12/outbox.cif.g09.slc.cpg/sg14_9_cif.got.tgz:17256.got - 2010.03.31 13:35:05.
