data_PCOD8128551
_publ_section_title
;
Structure prediction by ZEFSAII (Michael W. Deem and Ramdas Pophale) SiO2 
 PCOD8128551
Probable space group: P 21/C
;
_chemical_formula_sum "Si O2"
_cell_formula_units_Z 20
_cell_length_a 8.388910
_cell_length_b 23.134285
_cell_length_c 9.260286
_cell_angle_alpha 90.000000
_cell_angle_beta 31.901360
_cell_angle_gamma 90.000000
_cell_volume 949.722863
_symmetry_space_group_name_H-M "P 21/C"
_symmetry_group_IT_number 14
_symmetry_cell_setting 'monoclinic'
loop_
_space_group_symop_operation_xyz
x,y,z
-x,1/2+y,1/2-z
-x,-y,-z
x,1/2-y,1/2+z
loop_
_atom_site_type_symbol
_atom_site_label
_atom_site_fract_x
_atom_site_fract_y
_atom_site_fract_z
Si Si1 0.234094 0.541454 0.746012
Si Si2 0.456248 0.296275 0.504988
Si Si3 0.547841 0.839505 0.490702
Si Si4 0.801985 0.146998 0.515380
Si Si5 0.799858 0.131489 0.965089
O O1 0.500000 0.500000 0.500000
O O2 0.290407 0.590802 0.821154
O O3 0.159360 0.570761 0.649413
O O4 0.000000 0.500000 0.000000
O O5 0.418032 0.228868 0.551408
O O6 0.586437 0.302723 0.243074
O O7 0.715250 0.318680 0.415043
O O8 0.151170 0.334063 0.760628
O O9 0.297683 0.863806 0.572525
O O10 0.884911 0.859489 0.196034
O O11 0.461290 0.865531 0.713392
#
# Coordination Sequence:
#
# PCOD8128551 Si02
#       5
#     4   4   4   4   4
#     4  11  23  45  66  82 114 166 213 257 304 361
#     4  11  21  39  61  89 128 170 193 227 300 384
#     4  12  22  38  60  95 131 153 190 257 304 354
#     4  11  24  39  62  93 121 160 209 245 298 369
#     4  11  24  39  62  93 122 161 208 244 298 368
#
# _framework density 21.058776000000002
#
# number of rings (size 3 to 8) (size 9 to 14) (size 15 to 20)
#    0.000    0.800    0.000   10.800    0.000    0.000 
#    0.000    6.000    0.000    0.000    0.000    0.000 
#    0.000    0.000    0.000    0.000    0.000    0.000 
#
# Total GULP energy -247830.984443 kJ/mol
# GULP energy per Si atom -12391.549222 kJ/mol
# Density = 2.101084 g / cm^3
# Si number density = 21.058776 Si / 1000 Ang^3
#
#
#
# Elastic Constant Matrix: (Units=GPa)
#
#
# Indices 1 2 3 4 5 6 
#
# 1 105.5500 32.6249 26.0807 0.0000 -0.6670 0.0000
# 2 32.6249 79.1030 23.2412 0.0000 0.4624 0.0000
# 3 26.0807 23.2412 121.2246 0.0000 -4.6054 0.0000
# 4 0.0000 0.0000 0.0000 39.7522 0.0000 -5.1706
# 5 -0.6670 0.4624 -4.6054 0.0000 39.9663 0.0000
# 6 0.0000 0.0000 0.0000 -5.1706 0.0000 13.8987
#
#
#
# Elastic Compliance Matrix: (Units=1/GPa)
#
#
# Indices 1 2 3 4 5 6 
#
# 1 0.011146 -0.004126 -0.001605 0.000000 0.000049 0.000000
# 2 -0.004126 0.014932 -0.001993 0.000000 -0.000471 0.000000
# 3 -0.001605 -0.001993 0.009016 0.000000 0.001035 0.000000
# 4 0.000000 0.000000 0.000000 0.026435 0.000000 0.009834
# 5 0.000049 -0.000471 0.001035 0.000000 0.025147 0.000000
# 6 0.000000 0.000000 0.000000 0.009834 0.000000 0.075608
#
#
# Mechanical properties :
#
#
# Convention : Reuss Voigt Hill
#
# Bulk Modulus (GPa) = 50.90096 52.19679 51.54888
# Shear Modulus (GPa) = 27.13261 33.65218 30.39239
#
# Velocity S-wave (km/s) = 3.59336 4.00185 3.80309
# Velocity P-wave (km/s) = 6.43736 6.79655 6.61939
#
# Compressibility (1/GPa) = 0.01964599
#
# Stress axis : x y z
#
# Youngs Moduli (GPa) = 89.71509 66.97163 110.91494
#
# Poissons Ratio (x) = 0.27631 0.17804
# Poissons Ratio (y) = 0.37015 0.22105
# Poissons Ratio (z) = 0.14401 0.13347
#
# Static dielectric constant tensor:
#      x y z
#    x 3.870180 0.000000 0.243950 
#    y 0.000000 3.623410 0.000000 
#    z 0.243950 0.000000 4.119990 
# 
# 
# High freq. dielectric constant tensor:
#      x y z
#    x 1.821940 0.000000 0.004920 
#    y 0.000000 1.819060 0.000000 
#    z 0.004920 0.000000 1.850320 
# 
# From -- ./inp_files/5687.got.cif
#   From: 2010.03.12/outbox.cif.g09.slc.cpg/sg14_3_cif.got.tgz:5687.got - 2010.03.31 13:35:05.
