data_PCOD8128526
_publ_section_title
;
Structure prediction by ZEFSAII (Michael W. Deem and Ramdas Pophale) SiO2 
 PCOD8128526
Probable space group: P 21/C
;
_chemical_formula_sum "Si O2"
_cell_formula_units_Z 20
_cell_length_a 9.499769
_cell_length_b 6.903890
_cell_length_c 26.708489
_cell_angle_alpha 90.000000
_cell_angle_beta 143.635324
_cell_angle_gamma 90.000000
_cell_volume 1038.614037
_symmetry_space_group_name_H-M "P 21/C"
_symmetry_group_IT_number 14
_symmetry_cell_setting 'monoclinic'
loop_
_space_group_symop_operation_xyz
x,y,z
-x,1/2+y,1/2-z
-x,-y,-z
x,1/2-y,1/2+z
loop_
_atom_site_type_symbol
_atom_site_label
_atom_site_fract_x
_atom_site_fract_y
_atom_site_fract_z
Si Si1 0.039610 0.280624 0.425020
Si Si2 0.642219 0.022375 0.351288
Si Si3 0.544329 0.951312 0.434005
Si Si4 0.795453 0.829342 0.834882
Si Si5 0.137674 0.549724 0.889063
O O1 0.978422 0.504611 0.404011
O O2 0.307423 0.252571 0.523885
O O3 0.857591 0.173559 0.410386
O O4 0.031097 0.167955 0.368237
O O5 0.533916 0.036780 0.375561
O O6 0.735086 0.806411 0.365077
O O7 0.442168 0.075614 0.253866
O O8 0.273518 0.927121 0.375313
O O9 0.681257 0.095022 0.512297
O O10 0.923319 0.703050 0.828367
#
# Coordination Sequence:
#
# PCOD8128526 Si02
#       5
#     4   4   4   4   4
#     4   9  19  36  60  79 108 147 180 228 268 325
#     4  11  21  37  55  84 113 145 179 232 270 327
#     4   9  19  41  57  80 115 140 185 230 271 315
#     4  11  21  36  57  79 115 145 183 223 280 320
#     4   8  20  40  56  79 112 143 180 231 268 329
#
# _framework density 19.256433000000001
#
# number of rings (size 3 to 8) (size 9 to 14) (size 15 to 20)
#    1.200    1.200    2.000    0.600    0.000    1.600 
#    3.600    0.000    0.000    0.000    0.000    0.000 
#    0.000    0.000    0.000    0.000    0.000    0.000 
#
# Total GULP energy -247790.905141 kJ/mol
# GULP energy per Si atom -12389.545257 kJ/mol
# Density = 1.921260 g / cm^3
# Si number density = 19.256433 Si / 1000 Ang^3
#
#
#
# Elastic Constant Matrix: (Units=GPa)
#
#
# Indices 1 2 3 4 5 6 
#
# 1 159.3142 30.9632 14.6965 0.0000 4.3774 0.0000
# 2 30.9632 89.6404 4.4687 0.0000 9.2394 0.0000
# 3 14.6965 4.4687 16.2052 0.0000 1.9147 0.0000
# 4 0.0000 0.0000 0.0000 24.2193 0.0000 8.5311
# 5 4.3774 9.2394 1.9147 0.0000 24.1534 0.0000
# 6 0.0000 0.0000 0.0000 8.5311 0.0000 12.3416
#
#
#
# Elastic Compliance Matrix: (Units=1/GPa)
#
#
# Indices 1 2 3 4 5 6 
#
# 1 0.007257 -0.002209 -0.005973 0.000000 0.000003 0.000000
# 2 -0.002209 0.012405 -0.000912 0.000000 -0.004272 0.000000
# 3 -0.005973 -0.000912 0.067843 0.000000 -0.003947 0.000000
# 4 0.000000 0.000000 0.000000 0.054578 0.000000 -0.037727
# 5 0.000003 -0.004272 -0.003947 0.000000 0.043349 0.000000
# 6 0.000000 0.000000 0.000000 -0.037727 0.000000 0.107106
#
#
# Mechanical properties :
#
#
# Convention : Reuss Voigt Hill
#
# Bulk Modulus (GPa) = 14.42661 40.60184 27.51423
# Shear Modulus (GPa) = 14.97761 26.47830 20.72795
#
# Velocity S-wave (km/s) = 2.79193 3.71217 3.28444
# Velocity P-wave (km/s) = 4.23099 6.28524 5.35749
#
# Compressibility (1/GPa) = 0.06931636
#
# Stress axis : x y z
#
# Youngs Moduli (GPa) = 137.79463 80.61483 14.73993
#
# Poissons Ratio (x) = 0.17811 0.08804
# Poissons Ratio (y) = 0.30444 0.01345
# Poissons Ratio (z) = 0.82300 0.07354
#
# Static dielectric constant tensor:
#      x y z
#    x 3.534520 0.000000 0.286900 
#    y 0.000000 3.277500 0.000000 
#    z 0.286900 0.000000 3.157130 
# 
# 
# High freq. dielectric constant tensor:
#      x y z
#    x 1.756490 0.000000 0.023910 
#    y 0.000000 1.725420 0.000000 
#    z 0.023910 0.000000 1.717600 
# 
# From -- ./inp_files/79062.got.cif
#   From: 2010.03.12/outbox.cif.g09.slc.cpg/sg14_40_cif.got.tgz:79062.got - 2010.03.31 13:35:05.
