data_PCOD8128400
_publ_section_title
;
Structure prediction by ZEFSAII (Michael W. Deem and Ramdas Pophale) SiO2 
 PCOD8128400
Probable space group: P 21/C
;
_chemical_formula_sum "Si O2"
_cell_formula_units_Z 28
_cell_length_a 12.075002
_cell_length_b 7.555915
_cell_length_c 13.959065
_cell_angle_alpha 90.000000
_cell_angle_beta 79.028054
_cell_angle_gamma 90.000000
_cell_volume 1250.312178
_symmetry_space_group_name_H-M "P 21/C"
_symmetry_group_IT_number 14
_symmetry_cell_setting 'monoclinic'
loop_
_space_group_symop_operation_xyz
x,y,z
-x,1/2+y,1/2-z
-x,-y,-z
x,1/2-y,1/2+z
loop_
_atom_site_type_symbol
_atom_site_label
_atom_site_fract_x
_atom_site_fract_y
_atom_site_fract_z
Si Si1 0.731435 0.492564 0.368232
Si Si2 0.459207 0.942948 0.402308
Si Si3 0.903402 0.702083 0.815936
Si Si4 0.691882 0.367901 0.582407
Si Si5 0.937486 0.173957 0.045745
Si Si6 0.530539 0.614474 0.287282
Si Si7 0.094431 0.693582 0.152204
O O1 0.792651 0.680437 0.344687
O O2 0.692480 0.478371 0.483995
O O3 0.622204 0.481369 0.318247
O O4 0.814853 0.334842 0.323795
O O5 0.340759 0.838616 0.434737
O O6 0.546125 0.808976 0.332332
O O7 0.500000 0.000000 0.500000
O O8 0.449725 0.111106 0.331528
O O9 0.866956 0.497990 0.817232
O O10 0.988801 0.724666 0.889930
O O11 0.969813 0.755106 0.709100
O O12 0.815380 0.377326 0.611105
O O13 0.596750 0.453898 0.666916
O O14 0.911328 0.303380 0.961585
O O15 0.000000 0.000000 0.000000
#
# Coordination Sequence:
#
# PCOD8128400 Si02
#       7
#     4   4   4   4   4   4   4
#     4  11  23  46  71 105 144 195 248 305 376 438
#     4  10  25  47  74 110 144 194 254 300 385 453
#     4  12  23  44  69 106 143 192 242 298 367 439
#     4   9  23  42  74  98 146 195 238 315 363 441
#     4  11  21  45  69 104 142 189 241 296 366 434
#     4  10  25  46  70 107 146 194 242 310 375 440
#     4  11  24  42  68 103 144 191 238 302 361 436
#
# _framework density 22.394409
#
# number of rings (size 3 to 8) (size 9 to 14) (size 15 to 20)
#    0.857    0.571    4.286    0.857    4.000    2.286 
#    7.714    1.429    0.000    0.000    0.000    0.000 
#    0.000    0.000    0.000    0.000    0.000    0.000 
#
# Total GULP energy -347072.531447 kJ/mol
# GULP energy per Si atom -12395.447552 kJ/mol
# Density = 2.234344 g / cm^3
# Si number density = 22.394409 Si / 1000 Ang^3
#
#
#
# Elastic Constant Matrix: (Units=GPa)
#
#
# Indices 1 2 3 4 5 6 
#
# 1 118.0460 39.7057 29.3288 0.0000 -15.6652 0.0000
# 2 39.7057 108.5975 28.5084 0.0000 -3.0041 0.0000
# 3 29.3288 28.5084 103.7397 0.0000 -3.6984 0.0000
# 4 0.0000 0.0000 0.0000 39.0966 0.0000 -10.6895
# 5 -15.6652 -3.0041 -3.6984 0.0000 27.6849 0.0000
# 6 0.0000 0.0000 0.0000 -10.6895 0.0000 28.0689
#
#
#
# Elastic Compliance Matrix: (Units=1/GPa)
#
#
# Indices 1 2 3 4 5 6 
#
# 1 0.010788 -0.003280 -0.001953 0.000000 0.005487 0.000000
# 2 -0.003280 0.010936 -0.002112 0.000000 -0.000951 0.000000
# 3 -0.001953 -0.002112 0.010776 0.000000 0.000105 0.000000
# 4 0.000000 0.000000 0.000000 0.028550 0.000000 0.010873
# 5 0.005487 -0.000951 0.000105 0.000000 0.039137 0.000000
# 6 0.000000 0.000000 0.000000 0.010873 0.000000 0.039767
#
#
# Mechanical properties :
#
#
# Convention : Reuss Voigt Hill
#
# Bulk Modulus (GPa) = 56.14828 58.38544 57.26686
# Shear Modulus (GPa) = 31.13724 34.49277 32.81500
#
# Velocity S-wave (km/s) = 3.73286 3.92885 3.83210
# Velocity P-wave (km/s) = 6.61104 6.83441 6.72365
#
# Compressibility (1/GPa) = 0.01780998
#
# Stress axis : x y z
#
# Youngs Moduli (GPa) = 92.69656 91.44474 92.80102
#
# Poissons Ratio (x) = 0.29992 0.18124
# Poissons Ratio (y) = 0.30403 0.19598
# Poissons Ratio (z) = 0.18103 0.19312
#
# Static dielectric constant tensor:
#      x y z
#    x 4.007580 0.000000 -0.137390 
#    y 0.000000 3.913500 0.000000 
#    z -0.137390 0.000000 4.325000 
# 
# 
# High freq. dielectric constant tensor:
#      x y z
#    x 1.879120 0.000000 -0.007480 
#    y 0.000000 1.870790 0.000000 
#    z -0.007480 0.000000 1.886660 
# 
# From -- ./inp_files/43097.got.cif
#   From: 2010.03.12/outbox.cif.g09.slc.cpg/sg14_22_cif.got.tgz:43097.got - 2010.03.31 13:35:05.
