data_PCOD8128282
_publ_section_title
;
Structure prediction by ZEFSAII (Michael W. Deem and Ramdas Pophale) SiO2 
 PCOD8128282
Probable space group: P 21/C
;
_chemical_formula_sum "Si O2"
_cell_formula_units_Z 24
_cell_length_a 11.457319
_cell_length_b 10.833781
_cell_length_c 9.818350
_cell_angle_alpha 90.000000
_cell_angle_beta 65.232942
_cell_angle_gamma 90.000000
_cell_volume 1106.614253
_symmetry_space_group_name_H-M "P 21/C"
_symmetry_group_IT_number 14
_symmetry_cell_setting 'monoclinic'
loop_
_space_group_symop_operation_xyz
x,y,z
-x,1/2+y,1/2-z
-x,-y,-z
x,1/2-y,1/2+z
loop_
_atom_site_type_symbol
_atom_site_label
_atom_site_fract_x
_atom_site_fract_y
_atom_site_fract_z
Si Si1 0.168167 0.491793 0.655746
Si Si2 0.767161 0.423567 0.087221
Si Si3 0.713825 0.357032 0.631257
Si Si4 0.422274 0.363457 0.844025
Si Si5 0.120862 0.500647 0.245247
Si Si6 0.285592 0.265485 0.168778
O O1 0.161065 0.559415 0.804550
O O2 0.272453 0.558835 0.509513
O O3 0.205453 0.349344 0.651189
O O4 0.030417 0.503132 0.649942
O O5 0.733591 0.282732 0.075879
O O6 0.635254 0.500944 0.153266
O O7 0.860433 0.473464 0.923926
O O8 0.574051 0.377504 0.762230
O O9 0.816412 0.390807 0.697023
O O10 0.366993 0.267658 0.761668
O O11 0.387554 0.314262 0.009806
O O12 0.183122 0.370532 0.258365
#
# Coordination Sequence:
#
# PCOD8128282 Si02
#       6
#     4   4   4   4   4   4
#     4  11  25  45  68 100 131 177 220 268 330 390
#     4  10  25  43  67 100 134 174 213 278 326 383
#     4  12  26  40  71 100 132 171 223 267 327 393
#     4  10  25  43  67  98 135 173 218 270 333 386
#     4  11  25  45  68 100 131 177 220 268 330 390
#     4  10  24  44  70  94 136 174 216 276 326 386
#
# _framework density 21.687774000000001
#
# number of rings (size 3 to 8) (size 9 to 14) (size 15 to 20)
#    0.000    1.333    0.000    3.000   14.000    2.667 
#    0.000    0.000    0.000    0.000    0.000    0.000 
#    0.000    0.000    0.000    0.000    0.000    0.000 
#
# Total GULP energy -297812.017062 kJ/mol
# GULP energy per Si atom -12408.834044 kJ/mol
# Density = 2.163841 g / cm^3
# Si number density = 21.687774 Si / 1000 Ang^3
#
#
#
# Elastic Constant Matrix: (Units=GPa)
#
#
# Indices 1 2 3 4 5 6 
#
# 1 57.6239 9.3149 -0.5799 0.0000 -12.1203 0.0000
# 2 9.3149 111.7275 7.0688 0.0000 -8.7858 0.0000
# 3 -0.5799 7.0688 48.0875 0.0000 -2.9523 0.0000
# 4 0.0000 0.0000 0.0000 30.3369 0.0000 1.9013
# 5 -12.1203 -8.7858 -2.9523 0.0000 41.4086 0.0000
# 6 0.0000 0.0000 0.0000 1.9013 0.0000 17.5539
#
#
#
# Elastic Compliance Matrix: (Units=1/GPa)
#
#
# Indices 1 2 3 4 5 6 
#
# 1 0.018660 -0.001188 0.000723 0.000000 0.005261 0.000000
# 2 -0.001188 0.009250 -0.001281 0.000000 0.001524 0.000000
# 3 0.000723 -0.001281 0.021081 0.000000 0.001443 0.000000
# 4 0.000000 0.000000 0.000000 0.033188 0.000000 -0.003595
# 5 0.005261 0.001524 0.001443 0.000000 0.026116 0.000000
# 6 0.000000 0.000000 0.000000 -0.003595 0.000000 0.057357
#
#
# Mechanical properties :
#
#
# Convention : Reuss Voigt Hill
#
# Bulk Modulus (GPa) = 21.97816 27.67184 24.82500
# Shear Modulus (GPa) = 27.12828 31.30223 29.21526
#
# Velocity S-wave (km/s) = 3.54058 3.80322 3.67425
# Velocity P-wave (km/s) = 5.18365 5.66329 5.42877
#
# Compressibility (1/GPa) = 0.04549972
#
# Stress axis : x y z
#
# Youngs Moduli (GPa) = 53.59119 108.10575 47.43615
#
# Poissons Ratio (x) = 0.12840 -0.03428
# Poissons Ratio (y) = 0.06365 0.06074
# Poissons Ratio (z) = -0.03873 0.13843
#
# Static dielectric constant tensor:
#      x y z
#    x 3.755830 0.000000 0.079740 
#    y 0.000000 4.004270 0.000000 
#    z 0.079740 0.000000 3.988090 
# 
# 
# High freq. dielectric constant tensor:
#      x y z
#    x 1.850850 0.000000 0.006690 
#    y 0.000000 1.863700 0.000000 
#    z 0.006690 0.000000 1.865290 
# 
# From -- ./inp_files/28535.got.cif
#   From: 2010.03.12/outbox.cif.g09.slc.cpg/sg14_15_cif.got.tgz:28535.got - 2010.03.31 13:35:05.
