data_PCOD8128943
_publ_section_title
;
Structure prediction by ZEFSAII (Michael W. Deem and Ramdas Pophale) SiO2 
 PCOD8128943
Probable space group: P 21/C
;
_chemical_formula_sum "Si O2"
_cell_formula_units_Z 28
_cell_length_a 11.118802
_cell_length_b 9.650585
_cell_length_c 14.418516
_cell_angle_alpha 90.000000
_cell_angle_beta 123.789245
_cell_angle_gamma 90.000000
_cell_volume 1285.818501
_symmetry_space_group_name_H-M "P 21/C"
_symmetry_group_IT_number 14
_symmetry_cell_setting 'monoclinic'
loop_
_space_group_symop_operation_xyz
x,y,z
-x,1/2+y,1/2-z
-x,-y,-z
x,1/2-y,1/2+z
loop_
_atom_site_type_symbol
_atom_site_label
_atom_site_fract_x
_atom_site_fract_y
_atom_site_fract_z
Si Si1 0.077033 0.154550 0.392483
Si Si2 0.594679 0.965134 0.130692
Si Si3 0.238164 0.767860 0.760070
Si Si4 0.856503 0.907227 0.950577
Si Si5 0.162012 0.643324 0.925287
Si Si6 0.335674 0.646699 0.618715
Si Si7 0.849175 0.755624 0.269705
O O1 0.133632 0.285314 0.471866
O O2 0.103960 0.161475 0.294969
O O3 0.904583 0.150395 0.335710
O O4 0.167193 0.017530 0.458118
O O5 0.503612 0.879181 0.168448
O O6 0.737321 0.869685 0.181708
O O7 0.638072 0.117956 0.180155
O O8 0.500000 0.000000 0.000000
O O9 0.206593 0.678416 0.838792
O O10 0.299946 0.659246 0.712061
O O11 0.792911 0.845395 0.827091
O O12 0.741787 0.007755 0.950167
O O13 0.000000 0.000000 0.000000
O O14 0.995347 0.679000 0.874771
O O15 0.274810 0.719667 0.039812
#
# Coordination Sequence:
#
# PCOD8128943 Si02
#       7
#     4   4   4   4   4   4   4
#     4  11  24  41  74 107 141 175 241 306 356 417
#     4  12  26  48  69 102 147 196 237 290 369 438
#     4  11  24  43  70 104 142 185 240 294 357 431
#     4  12  24  44  71 110 144 182 243 299 355 429
#     4  11  23  44  72 105 138 180 239 301 350 416
#     4  12  26  45  72 101 148 190 233 295 365 431
#     4  11  25  42  71 102 140 186 237 294 354 427
#
# _framework density 21.776012000000001
#
# number of rings (size 3 to 8) (size 9 to 14) (size 15 to 20)
#    0.000    0.571    5.714    1.714    6.000    1.143 
#    0.000    0.714    0.000    0.000    0.000    0.000 
#    0.000    0.000    0.000    0.000    0.000    0.000 
#
# Total GULP energy -347047.301758 kJ/mol
# GULP energy per Si atom -12394.546491 kJ/mol
# Density = 2.172645 g / cm^3
# Si number density = 21.776012 Si / 1000 Ang^3
#
#
#
# Elastic Constant Matrix: (Units=GPa)
#
#
# Indices 1 2 3 4 5 6 
#
# 1 89.5771 25.3139 9.4249 0.0000 3.6380 0.0000
# 2 25.3139 143.0266 29.7789 0.0000 5.6644 0.0000
# 3 9.4249 29.7789 64.8999 0.0000 -0.8540 0.0000
# 4 0.0000 0.0000 0.0000 44.0319 0.0000 8.1380
# 5 3.6380 5.6644 -0.8540 0.0000 34.0598 0.0000
# 6 0.0000 0.0000 0.0000 8.1380 0.0000 38.2454
#
#
#
# Elastic Compliance Matrix: (Units=1/GPa)
#
#
# Indices 1 2 3 4 5 6 
#
# 1 0.011824 -0.001873 -0.000871 0.000000 -0.000973 0.000000
# 2 -0.001873 0.008092 -0.003457 0.000000 -0.001232 0.000000
# 3 -0.000871 -0.003457 0.017135 0.000000 0.001098 0.000000
# 4 0.000000 0.000000 0.000000 0.023641 0.000000 -0.005030
# 5 -0.000973 -0.001232 0.001098 0.000000 0.029697 0.000000
# 6 0.000000 0.000000 0.000000 -0.005030 0.000000 0.027217
#
#
# Mechanical properties :
#
#
# Convention : Reuss Voigt Hill
#
# Bulk Modulus (GPa) = 40.56772 47.39323 43.98048
# Shear Modulus (GPa) = 36.17334 38.79981 37.48658
#
# Velocity S-wave (km/s) = 4.08015 4.22568 4.15355
# Velocity P-wave (km/s) = 6.39272 6.75424 6.57596
#
# Compressibility (1/GPa) = 0.02465014
#
# Stress axis : x y z
#
# Youngs Moduli (GPa) = 84.57404 123.58238 58.35853
#
# Poissons Ratio (x) = 0.23146 0.05080
# Poissons Ratio (y) = 0.15840 0.20175
# Poissons Ratio (z) = 0.07363 0.42723
#
# Static dielectric constant tensor:
#      x y z
#    x 4.203120 0.000000 0.114510 
#    y 0.000000 4.094600 0.000000 
#    z 0.114510 0.000000 3.983300 
# 
# 
# High freq. dielectric constant tensor:
#      x y z
#    x 1.856280 0.000000 -0.011690 
#    y 0.000000 1.868260 0.000000 
#    z -0.011690 0.000000 1.848710 
# 
# From -- ./inp_files/43816.got.cif
#   From: 2010.03.12/outbox.cif.g09.slc.cpg/sg14_22_cif.got.tgz:43816.got - 2010.03.31 13:35:05.
