data_PCOD8128222
_publ_section_title
;
Structure prediction by ZEFSAII (Michael W. Deem and Ramdas Pophale) SiO2 
 PCOD8128222
Probable space group: P 21/C
;
_chemical_formula_sum "Si O2"
_cell_formula_units_Z 28
_cell_length_a 14.460363
_cell_length_b 11.703859
_cell_length_c 8.758274
_cell_angle_alpha 90.000000
_cell_angle_beta 128.122357
_cell_angle_gamma 90.000000
_cell_volume 1166.091819
_symmetry_space_group_name_H-M "P 21/C"
_symmetry_group_IT_number 14
_symmetry_cell_setting 'monoclinic'
loop_
_space_group_symop_operation_xyz
x,y,z
-x,1/2+y,1/2-z
-x,-y,-z
x,1/2-y,1/2+z
loop_
_atom_site_type_symbol
_atom_site_label
_atom_site_fract_x
_atom_site_fract_y
_atom_site_fract_z
Si Si1 0.909791 0.516638 0.217139
Si Si2 0.035557 0.623008 0.102991
Si Si3 0.443610 0.812125 0.707894
Si Si4 0.696545 0.582516 0.449266
Si Si5 0.086955 0.344420 0.493269
Si Si6 0.405976 0.905311 0.355791
Si Si7 0.737092 0.447312 0.788718
O O1 0.868701 0.565046 0.336362
O O2 0.011103 0.604747 0.258581
O O3 0.969221 0.391137 0.289706
O O4 0.795903 0.509684 0.993693
O O5 0.171216 0.644192 0.194615
O O6 0.948791 0.725000 0.963367
O O7 0.000000 0.500000 0.000000
O O8 0.576930 0.847502 0.814406
O O9 0.372402 0.833157 0.474976
O O10 0.449546 0.680464 0.766257
O O11 0.380737 0.883860 0.778065
O O12 0.805367 0.665829 0.517005
O O13 0.699081 0.474860 0.333715
O O14 0.706679 0.543307 0.634323
O O15 0.500000 0.000000 0.500000
#
# Coordination Sequence:
#
# PCOD8128222 Si02
#       7
#     4   4   4   4   4   4   4
#     4  10  24  43  68 104 141 194 244 302 371 434
#     4  10  24  44  66 102 143 185 241 296 363 441
#     4  11  24  46  74 105 147 201 238 311 373 436
#     4  11  24  46  75 109 147 191 245 309 373 455
#     4  11  24  45  72 104 146 190 245 306 373 441
#     4  10  24  48  69 107 149 189 256 294 368 449
#     4  11  23  44  73 106 149 188 251 301 370 448
#
# _framework density 24.011831000000001
#
# number of rings (size 3 to 8) (size 9 to 14) (size 15 to 20)
#    0.000    1.429    1.429    2.143    4.000    5.714 
#   25.714    0.000    0.000    0.000    0.000    0.000 
#    0.000    0.000    0.000    0.000    0.000    0.000 
#
# Total GULP energy -346957.682579 kJ/mol
# GULP energy per Si atom -12391.345806 kJ/mol
# Density = 2.395718 g / cm^3
# Si number density = 24.011831 Si / 1000 Ang^3
#
#
#
# Elastic Constant Matrix: (Units=GPa)
#
#
# Indices 1 2 3 4 5 6 
#
# 1 109.4585 40.9881 -6.1480 0.0000 -3.1845 0.0000
# 2 40.9881 116.2772 21.4307 0.0000 1.1811 0.0000
# 3 -6.1480 21.4307 84.6958 0.0000 -6.7120 0.0000
# 4 0.0000 0.0000 0.0000 36.6416 0.0000 -9.0265
# 5 -3.1845 1.1811 -6.7120 0.0000 25.3047 0.0000
# 6 0.0000 0.0000 0.0000 -9.0265 0.0000 37.6790
#
#
#
# Elastic Compliance Matrix: (Units=1/GPa)
#
#
# Indices 1 2 3 4 5 6 
#
# 1 0.010898 -0.004237 0.002030 0.000000 0.002108 0.000000
# 2 -0.004237 0.010696 -0.003162 0.000000 -0.001871 0.000000
# 3 0.002030 -0.003162 0.013061 0.000000 0.003867 0.000000
# 4 0.000000 0.000000 0.000000 0.029003 0.000000 0.006948
# 5 0.002108 -0.001871 0.003867 0.000000 0.040897 0.000000
# 6 0.000000 0.000000 0.000000 0.006948 0.000000 0.028204
#
#
# Mechanical properties :
#
#
# Convention : Reuss Voigt Hill
#
# Bulk Modulus (GPa) = 41.81257 46.99700 44.40478
# Shear Modulus (GPa) = 33.01008 36.86911 34.93960
#
# Velocity S-wave (km/s) = 3.71177 3.92274 3.81871
# Velocity P-wave (km/s) = 5.98505 6.33499 6.16250
#
# Compressibility (1/GPa) = 0.02391626
#
# Stress axis : x y z
#
# Youngs Moduli (GPa) = 91.76093 93.49680 76.56409
#
# Poissons Ratio (x) = 0.39616 -0.15544
# Poissons Ratio (y) = 0.38880 0.24211
# Poissons Ratio (z) = -0.18630 0.29565
#
# Static dielectric constant tensor:
#      x y z
#    x 4.654150 0.000000 -0.372790 
#    y 0.000000 4.251870 0.000000 
#    z -0.372790 0.000000 4.518540 
# 
# 
# High freq. dielectric constant tensor:
#      x y z
#    x 1.955540 0.000000 -0.018370 
#    y 0.000000 1.940970 0.000000 
#    z -0.018370 0.000000 1.954640 
# 
# From -- ./inp_files/15629.got.cif
#   From: 2010.03.12/outbox.cif.g09.slc.cpg/sg14_8_cif.got.tgz:15629.got - 2010.03.31 13:35:05.
