data_PCOD8128816
_publ_section_title
;
Structure prediction by ZEFSAII (Michael W. Deem and Ramdas Pophale) SiO2 
 PCOD8128816
Probable space group: P 21/C
;
_chemical_formula_sum "Si O2"
_cell_formula_units_Z 20
_cell_length_a 18.911526
_cell_length_b 5.163946
_cell_length_c 8.967900
_cell_angle_alpha 90.000000
_cell_angle_beta 97.017761
_cell_angle_gamma 90.000000
_cell_volume 869.226948
_symmetry_space_group_name_H-M "P 21/C"
_symmetry_group_IT_number 14
_symmetry_cell_setting 'monoclinic'
loop_
_space_group_symop_operation_xyz
x,y,z
-x,1/2+y,1/2-z
-x,-y,-z
x,1/2-y,1/2+z
loop_
_atom_site_type_symbol
_atom_site_label
_atom_site_fract_x
_atom_site_fract_y
_atom_site_fract_z
Si Si1 0.189721 0.451924 0.201821
Si Si2 0.760061 0.442876 0.452504
Si Si3 0.025897 0.033327 0.674549
Si Si4 0.533465 0.717434 0.108871
Si Si5 0.600101 0.035547 0.871356
O O1 0.228256 0.207910 0.135286
O O2 0.223639 0.510484 0.370585
O O3 0.107554 0.378054 0.200183
O O4 0.193206 0.706946 0.098713
O O5 0.678284 0.347576 0.415178
O O6 0.981418 0.262403 0.740462
O O7 0.000000 0.000000 0.500000
O O8 0.601482 0.660918 0.233121
O O9 0.464430 0.775463 0.197044
O O10 0.500000 0.500000 0.000000
O O11 0.569597 0.939597 0.020536
#
# Coordination Sequence:
#
# PCOD8128816 Si02
#       5
#     4   4   4   4   4
#     4  12  26  47  68 107 137 183 224 280 331 420
#     4  12  27  44  72  96 146 177 230 274 353 402
#     4  12  24  44  74 103 140 180 227 277 334 394
#     4  11  23  40  61  88 121 155 225 267 324 383
#     4  11  25  40  65  90 122 173 211 283 326 393
#
# _framework density 23.008951
#
# number of rings (size 3 to 8) (size 9 to 14) (size 15 to 20)
#    0.000    0.400    2.000    6.600    5.600    0.000 
#    0.000    0.000    0.000    0.000    0.000    0.000 
#    0.000    0.000    0.000    0.000    0.000    0.000 
#
# Total GULP energy -247857.212149 kJ/mol
# GULP energy per Si atom -12392.860607 kJ/mol
# Density = 2.295658 g / cm^3
# Si number density = 23.008951 Si / 1000 Ang^3
#
#
#
# Elastic Constant Matrix: (Units=GPa)
#
#
# Indices 1 2 3 4 5 6 
#
# 1 109.7058 -2.4416 11.8233 0.0000 10.2985 0.0000
# 2 -2.4416 97.9479 23.2955 0.0000 -14.2199 0.0000
# 3 11.8233 23.2955 121.3169 0.0000 2.6236 0.0000
# 4 0.0000 0.0000 0.0000 37.1762 0.0000 -4.2631
# 5 10.2985 -14.2199 2.6236 0.0000 35.9066 0.0000
# 6 0.0000 0.0000 0.0000 -4.2631 0.0000 33.3645
#
#
#
# Elastic Compliance Matrix: (Units=1/GPa)
#
#
# Indices 1 2 3 4 5 6 
#
# 1 0.009457 0.000064 -0.000877 0.000000 -0.002623 0.000000
# 2 0.000064 0.011438 -0.002304 0.000000 0.004680 0.000000
# 3 -0.000877 -0.002304 0.008799 0.000000 -0.001304 0.000000
# 4 0.000000 0.000000 0.000000 0.027299 0.000000 0.003488
# 5 -0.002623 0.004680 -0.001304 0.000000 0.030551 0.000000
# 6 0.000000 0.000000 0.000000 0.003488 0.000000 0.030418
#
#
# Mechanical properties :
#
#
# Convention : Reuss Voigt Hill
#
# Bulk Modulus (GPa) = 42.62585 43.81389 43.21987
# Shear Modulus (GPa) = 37.87376 41.04234 39.45805
#
# Velocity S-wave (km/s) = 4.06155 4.22803 4.14563
# Velocity P-wave (km/s) = 6.36874 6.55122 6.46063
#
# Compressibility (1/GPa) = 0.02345994
#
# Stress axis : x y z
#
# Youngs Moduli (GPa) = 105.73621 87.42436 113.64998
#
# Poissons Ratio (x) = -0.00555 0.09969
# Poissons Ratio (y) = -0.00672 0.26183
# Poissons Ratio (z) = 0.09275 0.20141
#
# Static dielectric constant tensor:
#      x y z
#    x 3.650280 0.000000 0.097370 
#    y 0.000000 6.380240 0.000000 
#    z 0.097370 0.000000 4.046140 
# 
# 
# High freq. dielectric constant tensor:
#      x y z
#    x 1.916060 0.000000 0.002570 
#    y 0.000000 1.909970 0.000000 
#    z 0.002570 0.000000 1.936720 
# 
# From -- ./inp_files/17224.got.cif
#   From: 2010.03.12/outbox.cif.g09.slc.cpg/sg14_9_cif.got.tgz:17224.got - 2010.03.31 13:35:05.
