data_PCOD8128056
_publ_section_title
;
Structure prediction by ZEFSAII (Michael W. Deem and Ramdas Pophale) SiO2 
 PCOD8128056
Probable space group: P 21/C
;
_chemical_formula_sum "Si O2"
_cell_formula_units_Z 28
_cell_length_a 9.659953
_cell_length_b 11.595861
_cell_length_c 14.131339
_cell_angle_alpha 90.000000
_cell_angle_beta 123.206041
_cell_angle_gamma 90.000000
_cell_volume 1324.446779
_symmetry_space_group_name_H-M "P 21/C"
_symmetry_group_IT_number 14
_symmetry_cell_setting 'monoclinic'
loop_
_space_group_symop_operation_xyz
x,y,z
-x,1/2+y,1/2-z
-x,-y,-z
x,1/2-y,1/2+z
loop_
_atom_site_type_symbol
_atom_site_label
_atom_site_fract_x
_atom_site_fract_y
_atom_site_fract_z
Si Si1 0.397597 0.774289 0.116854
Si Si2 0.097174 0.148406 0.467596
Si Si3 0.141006 0.608075 0.954165
Si Si4 0.018112 0.354014 0.299547
Si Si5 0.828669 0.470288 0.386733
Si Si6 0.386276 0.109048 0.948908
Si Si7 0.364062 0.196167 0.142360
O O1 0.264245 0.874405 0.085571
O O2 0.557814 0.817301 0.120063
O O3 0.467978 0.728524 0.241968
O O4 0.317389 0.671416 0.025490
O O5 0.049737 0.231748 0.362801
O O6 0.232154 0.200157 0.590517
O O7 0.936935 0.128805 0.471754
O O8 0.161884 0.029003 0.446251
O O9 0.036965 0.663944 0.829201
O O10 0.192212 0.423905 0.366251
O O11 0.873118 0.424338 0.298768
O O12 0.715099 0.583184 0.338387
O O13 0.000000 0.500000 0.500000
O O14 0.418684 0.180062 0.055425
O O15 0.500000 0.000000 0.000000
#
# Coordination Sequence:
#
# PCOD8128056 Si02
#       7
#     4   4   4   4   4   4   4
#     4  12  26  41  68 104 136 180 226 288 355 406
#     4  10  23  46  66  99 139 181 227 289 346 412
#     4  11  25  42  70 100 140 181 230 282 349 422
#     4  11  24  44  70 102 133 184 231 284 341 417
#     4  12  22  46  71  98 134 184 235 277 341 416
#     4  11  23  43  69  99 130 178 228 281 338 410
#     4  11  25  43  69  98 142 172 227 290 345 407
#
# _framework density 21.140903000000002
#
# number of rings (size 3 to 8) (size 9 to 14) (size 15 to 20)
#    0.000    0.857    5.714    0.857    4.000    8.000 
#    0.000    3.571    0.000    0.000    0.000    0.000 
#    0.000    0.000    0.000    0.000    0.000    0.000 
#
# Total GULP energy -347244.963673 kJ/mol
# GULP energy per Si atom -12401.605845 kJ/mol
# Density = 2.109279 g / cm^3
# Si number density = 21.140903 Si / 1000 Ang^3
#
#
#
# Elastic Constant Matrix: (Units=GPa)
#
#
# Indices 1 2 3 4 5 6 
#
# 1 100.1026 31.3068 20.1182 0.0000 -4.6775 0.0000
# 2 31.3068 118.3906 43.1067 0.0000 12.5247 0.0000
# 3 20.1182 43.1067 136.1277 0.0000 7.0688 0.0000
# 4 0.0000 0.0000 0.0000 22.2602 0.0000 2.5598
# 5 -4.6775 12.5247 7.0688 0.0000 28.3070 0.0000
# 6 0.0000 0.0000 0.0000 2.5598 0.0000 37.2868
#
#
#
# Elastic Compliance Matrix: (Units=1/GPa)
#
#
# Indices 1 2 3 4 5 6 
#
# 1 0.011272 -0.003020 -0.000887 0.000000 0.003420 0.000000
# 2 -0.003020 0.010714 -0.002710 0.000000 -0.004563 0.000000
# 3 -0.000887 -0.002710 0.008389 0.000000 -0.001043 0.000000
# 4 0.000000 0.000000 0.000000 0.045281 0.000000 -0.003109
# 5 0.003420 -0.004563 -0.001043 0.000000 0.038171 0.000000
# 6 0.000000 0.000000 0.000000 -0.003109 0.000000 0.027033
#
#
# Mechanical properties :
#
#
# Convention : Reuss Voigt Hill
#
# Bulk Modulus (GPa) = 58.33301 60.40937 59.37119
# Shear Modulus (GPa) = 31.28751 34.91010 33.09881
#
# Velocity S-wave (km/s) = 3.85119 4.06803 3.96110
# Velocity P-wave (km/s) = 6.88679 7.12053 7.00463
#
# Compressibility (1/GPa) = 0.01714295
#
# Stress axis : x y z
#
# Youngs Moduli (GPa) = 88.71331 93.33210 119.19837
#
# Poissons Ratio (x) = 0.28182 0.10577
# Poissons Ratio (y) = 0.26787 0.32299
# Poissons Ratio (z) = 0.07872 0.25290
#
# Static dielectric constant tensor:
#      x y z
#    x 3.820680 0.000000 -0.117250 
#    y 0.000000 4.277150 0.000000 
#    z -0.117250 0.000000 3.633810 
# 
# 
# High freq. dielectric constant tensor:
#      x y z
#    x 1.836570 0.000000 -0.003360 
#    y 0.000000 1.831220 0.000000 
#    z -0.003360 0.000000 1.825600 
# 
# From -- ./inp_files/40396.got.cif
#   From: 2010.03.12/outbox.cif.g09.slc.cpg/sg14_21_cif.got.tgz:40396.got - 2010.03.31 13:35:05.
