data_PCOD8128239
_publ_section_title
;
Structure prediction by ZEFSAII (Michael W. Deem and Ramdas Pophale) SiO2 
 PCOD8128239
Probable space group: P 21/C
;
_chemical_formula_sum "Si O2"
_cell_formula_units_Z 24
_cell_length_a 5.391730
_cell_length_b 18.340980
_cell_length_c 10.221230
_cell_angle_alpha 90.000000
_cell_angle_beta 62.022209
_cell_angle_gamma 90.000000
_cell_volume 892.643872
_symmetry_space_group_name_H-M "P 21/C"
_symmetry_group_IT_number 14
_symmetry_cell_setting 'monoclinic'
loop_
_space_group_symop_operation_xyz
x,y,z
-x,1/2+y,1/2-z
-x,-y,-z
x,1/2-y,1/2+z
loop_
_atom_site_type_symbol
_atom_site_label
_atom_site_fract_x
_atom_site_fract_y
_atom_site_fract_z
Si Si1 0.610858 0.749784 0.441413
Si Si2 0.110642 0.101009 0.110549
Si Si3 0.995568 0.377412 0.162429
Si Si4 0.223237 0.439421 0.856945
Si Si5 0.583281 0.195331 0.256971
Si Si6 0.398936 0.067822 0.789485
O O1 0.654075 0.663267 0.434143
O O2 0.905502 0.793972 0.392241
O O3 0.474708 0.761882 0.331024
O O4 0.375346 0.771256 0.607661
O O5 0.074434 0.050525 0.250394
O O6 0.828227 0.143216 0.146815
O O7 0.210369 0.050800 0.964635
O O8 0.199464 0.395776 0.232149
O O9 0.662942 0.381075 0.269278
O O10 0.030405 0.440365 0.037552
O O11 0.309301 0.354925 0.839302
O O12 0.493245 0.491798 0.797935
#
# Coordination Sequence:
#
# PCOD8128239 Si02
#       6
#     4   4   4   4   4   4
#     4  10  24  44  67 101 139 181 242 291 356 422
#     4  11  26  43  73 101 143 191 231 299 357 422
#     4  11  27  45  76 105 142 192 238 299 348 419
#     4  10  25  47  69 106 144 190 236 296 349 428
#     4  10  24  43  71  99 141 185 237 294 360 415
#     4  12  27  46  74 109 144 189 242 286 358 423
#
# _framework density 26.886420000000001
#
# number of rings (size 3 to 8) (size 9 to 14) (size 15 to 20)
#    0.000    1.333    0.000    2.500   16.333    3.333 
#    0.000    0.000    0.000    0.000    0.000    0.000 
#    0.000    0.000    0.000    0.000    0.000    0.000 
#
# Total GULP energy -297398.971420 kJ/mol
# GULP energy per Si atom -12391.623809 kJ/mol
# Density = 2.682523 g / cm^3
# Si number density = 26.886420 Si / 1000 Ang^3
#
#
#
# Elastic Constant Matrix: (Units=GPa)
#
#
# Indices 1 2 3 4 5 6 
#
# 1 121.2585 9.3373 47.9642 0.0000 5.3361 0.0000
# 2 9.3373 38.6319 -5.6208 0.0000 4.4666 0.0000
# 3 47.9642 -5.6208 157.0410 0.0000 5.1577 0.0000
# 4 0.0000 0.0000 0.0000 32.9884 0.0000 7.1938
# 5 5.3361 4.4666 5.1577 0.0000 29.1110 0.0000
# 6 0.0000 0.0000 0.0000 7.1938 0.0000 41.9311
#
#
#
# Elastic Compliance Matrix: (Units=1/GPa)
#
#
# Indices 1 2 3 4 5 6 
#
# 1 0.009688 -0.002686 -0.003028 0.000000 -0.000827 0.000000
# 2 -0.002686 0.027282 0.001930 0.000000 -0.004035 0.000000
# 3 -0.003028 0.001930 0.007396 0.000000 -0.001051 0.000000
# 4 0.000000 0.000000 0.000000 0.031492 0.000000 -0.005403
# 5 -0.000827 -0.004035 -0.001051 0.000000 0.035308 0.000000
# 6 0.000000 0.000000 0.000000 -0.005403 0.000000 0.024776
#
#
# Mechanical properties :
#
#
# Convention : Reuss Voigt Hill
#
# Bulk Modulus (GPa) = 27.17665 46.69922 36.93793
# Shear Modulus (GPa) = 32.09721 38.48948 35.29335
#
# Velocity S-wave (km/s) = 3.45890 3.78770 3.62703
# Velocity P-wave (km/s) = 5.10704 6.04447 5.59542
#
# Compressibility (1/GPa) = 0.03679630
#
# Stress axis : x y z
#
# Youngs Moduli (GPa) = 103.22263 36.65423 135.20554
#
# Poissons Ratio (x) = 0.09847 0.40939
# Poissons Ratio (y) = 0.27730 -0.26088
# Poissons Ratio (z) = 0.31255 -0.07073
#
# Static dielectric constant tensor:
#      x y z
#    x 4.451640 0.000000 0.155100 
#    y 0.000000 5.013800 0.000000 
#    z 0.155100 0.000000 5.428220 
# 
# 
# High freq. dielectric constant tensor:
#      x y z
#    x 2.065710 0.000000 0.001690 
#    y 0.000000 2.095110 0.000000 
#    z 0.001690 0.000000 2.092940 
# 
# From -- ./inp_files/6220.got.cif
#   From: 2010.03.12/outbox.cif.g09.slc.cpg/sg14_4_cif.got.tgz:6220.got - 2010.03.31 13:35:05.
