data_PCOD8128457
_publ_section_title
;
Structure prediction by ZEFSAII (Michael W. Deem and Ramdas Pophale) SiO2 
 PCOD8128457
Probable space group: P 21/C
;
_chemical_formula_sum "Si O2"
_cell_formula_units_Z 24
_cell_length_a 15.595767
_cell_length_b 6.451003
_cell_length_c 21.121255
_cell_angle_alpha 90.000000
_cell_angle_beta 146.012533
_cell_angle_gamma 90.000000
_cell_volume 1187.885221
_symmetry_space_group_name_H-M "P 21/C"
_symmetry_group_IT_number 14
_symmetry_cell_setting 'monoclinic'
loop_
_space_group_symop_operation_xyz
x,y,z
-x,1/2+y,1/2-z
-x,-y,-z
x,1/2-y,1/2+z
loop_
_atom_site_type_symbol
_atom_site_label
_atom_site_fract_x
_atom_site_fract_y
_atom_site_fract_z
Si Si1 0.558375 0.045722 0.936859
Si Si2 0.688919 0.765691 0.792992
Si Si3 0.600053 0.196611 0.582583
Si Si4 0.130684 0.564519 0.672734
Si Si5 0.153425 0.620983 0.078428
Si Si6 0.212948 0.982126 0.032857
O O1 0.460761 0.227554 0.841822
O O2 0.701932 0.989251 0.980947
O O3 0.471769 0.831104 0.902887
O O4 0.626838 0.146552 0.041710
O O5 0.713023 0.546398 0.841201
O O6 0.828443 0.836819 0.831509
O O7 0.676929 0.928106 0.843863
O O8 0.768103 0.108748 0.703316
O O9 0.500000 0.000000 0.500000
O O10 0.188572 0.721612 0.655641
O O11 0.950263 0.600019 0.573860
O O12 0.165704 0.743954 0.019410
O O13 0.000000 0.500000 0.000000
#
# Coordination Sequence:
#
# PCOD8128457 Si02
#       6
#     4   4   4   4   4   4
#     4  11  26  43  62  95 125 166 218 262 321 376
#     4  11  21  38  65  91 128 165 202 253 322 388
#     4  11  24  46  66  80 124 181 218 256 315 389
#     4  11  21  41  64  91 124 168 216 251 307 387
#     4  11  19  38  63  92 128 167 195 250 328 380
#     4  11  25  38  62 104 129 153 216 272 316 375
#
# _framework density 20.203972
#
# number of rings (size 3 to 8) (size 9 to 14) (size 15 to 20)
#    0.000    1.000    6.667    1.000    2.333    1.333 
#    3.000    0.000    0.000    0.000    0.000    0.000 
#    0.000    0.000    0.000    0.000    0.000    0.000 
#
# Total GULP energy -297369.630041 kJ/mol
# GULP energy per Si atom -12390.401252 kJ/mol
# Density = 2.015799 g / cm^3
# Si number density = 20.203972 Si / 1000 Ang^3
#
#
#
# Elastic Constant Matrix: (Units=GPa)
#
#
# Indices 1 2 3 4 5 6 
#
# 1 128.8134 35.3406 36.0517 0.0000 -2.7597 0.0000
# 2 35.3406 95.4132 28.9875 0.0000 -5.3292 0.0000
# 3 36.0517 28.9875 99.4158 0.0000 -7.8004 0.0000
# 4 0.0000 0.0000 0.0000 35.5353 0.0000 -2.1134
# 5 -2.7597 -5.3292 -7.8004 0.0000 19.2236 0.0000
# 6 0.0000 0.0000 0.0000 -2.1134 0.0000 20.8129
#
#
#
# Elastic Compliance Matrix: (Units=1/GPa)
#
#
# Indices 1 2 3 4 5 6 
#
# 1 0.009208 -0.002645 -0.002604 0.000000 -0.000468 0.000000
# 2 -0.002645 0.012326 -0.002475 0.000000 0.002033 0.000000
# 3 -0.002604 -0.002475 0.012025 0.000000 0.003819 0.000000
# 4 0.000000 0.000000 0.000000 0.028312 0.000000 0.002875
# 5 -0.000468 0.002033 0.003819 0.000000 0.054065 0.000000
# 6 0.000000 0.000000 0.000000 0.002875 0.000000 0.048339
#
#
# Mechanical properties :
#
#
# Convention : Reuss Voigt Hill
#
# Bulk Modulus (GPa) = 55.22313 58.26690 56.74502
# Shear Modulus (GPa) = 26.91622 29.99852 28.45737
#
# Velocity S-wave (km/s) = 3.65392 3.85747 3.75708
# Velocity P-wave (km/s) = 6.72263 6.98155 6.85331
#
# Compressibility (1/GPa) = 0.01810836
#
# Stress axis : x y z
#
# Youngs Moduli (GPa) = 108.60288 81.12850 83.16270
#
# Poissons Ratio (x) = 0.21462 0.21660
# Poissons Ratio (y) = 0.28730 0.20584
# Poissons Ratio (z) = 0.28286 0.20081
#
# Static dielectric constant tensor:
#      x y z
#    x 3.442290 0.000000 -0.009120 
#    y 0.000000 4.241030 0.000000 
#    z -0.009120 0.000000 4.143370 
# 
# 
# High freq. dielectric constant tensor:
#      x y z
#    x 1.759840 0.000000 -0.003600 
#    y 0.000000 1.802910 0.000000 
#    z -0.003600 0.000000 1.790040 
# 
# From -- ./inp_files/67912.got.cif
#   From: 2010.03.12/outbox.cif.g09.slc.cpg/sg14_34_cif.got.tgz:67912.got - 2010.03.31 13:35:05.
