data_PCOD8128229
_publ_section_title
;
Structure prediction by ZEFSAII (Michael W. Deem and Ramdas Pophale) SiO2 
 PCOD8128229
Probable space group: P 21/C
;
_chemical_formula_sum "Si O2"
_cell_formula_units_Z 24
_cell_length_a 11.483093
_cell_length_b 11.640860
_cell_length_c 23.608005
_cell_angle_alpha 90.000000
_cell_angle_beta 20.471789
_cell_angle_gamma 90.000000
_cell_volume 1103.713039
_symmetry_space_group_name_H-M "P 21/C"
_symmetry_group_IT_number 14
_symmetry_cell_setting 'monoclinic'
loop_
_space_group_symop_operation_xyz
x,y,z
-x,1/2+y,1/2-z
-x,-y,-z
x,1/2-y,1/2+z
loop_
_atom_site_type_symbol
_atom_site_label
_atom_site_fract_x
_atom_site_fract_y
_atom_site_fract_z
Si Si1 0.198033 0.506575 0.681131
Si Si2 0.482880 0.888861 0.673312
Si Si3 0.188268 0.643367 0.795365
Si Si4 0.533149 0.318954 0.589145
Si Si5 0.810858 0.911407 0.260948
Si Si6 0.372031 0.960859 0.844649
O O1 0.500000 0.500000 0.500000
O O2 0.236459 0.611452 0.707608
O O3 0.209216 0.388206 0.712483
O O4 0.855116 0.526423 0.802288
O O5 0.256907 0.777036 0.770474
O O6 0.561707 0.912040 0.703126
O O7 0.814413 0.881844 0.485415
O O8 0.257118 0.993360 0.754844
O O9 0.443702 0.573786 0.717573
O O10 0.481739 0.182549 0.607346
O O11 0.610111 0.357113 0.618355
O O12 0.850358 0.345536 0.406629
O O13 0.000000 0.000000 0.000000
#
# Coordination Sequence:
#
# PCOD8128229 Si02
#       6
#     4   4   4   4   4   4
#     4   9  23  46  71  96 138 183 235 286 358 412
#     4  12  27  43  72 104 143 187 238 289 360 419
#     4  11  27  45  70 105 142 187 239 294 352 428
#     4  10  24  43  69 100 138 182 234 292 348 418
#     4  11  25  43  72 102 136 183 235 289 357 417
#     4  11  23  47  71  98 143 189 233 292 356 415
#
# _framework density 21.744783999999999
#
# number of rings (size 3 to 8) (size 9 to 14) (size 15 to 20)
#    0.000    1.333    1.667    1.500   14.000    3.333 
#    0.000    0.000    0.000    0.000    0.000    0.000 
#    0.000    0.000    0.000    0.000    0.000    0.000 
#
# Total GULP energy -297615.131978 kJ/mol
# GULP energy per Si atom -12400.630499 kJ/mol
# Density = 2.169529 g / cm^3
# Si number density = 21.744784 Si / 1000 Ang^3
#
#
#
# Elastic Constant Matrix: (Units=GPa)
#
#
# Indices 1 2 3 4 5 6 
#
# 1 138.4346 30.1243 34.1112 0.0000 14.2728 0.0000
# 2 30.1243 92.2511 28.8230 0.0000 0.3116 0.0000
# 3 34.1112 28.8230 90.5261 0.0000 5.0058 0.0000
# 4 0.0000 0.0000 0.0000 36.2971 0.0000 -6.1774
# 5 14.2728 0.3116 5.0058 0.0000 33.3122 0.0000
# 6 0.0000 0.0000 0.0000 -6.1774 0.0000 31.5183
#
#
#
# Elastic Compliance Matrix: (Units=1/GPa)
#
#
# Indices 1 2 3 4 5 6 
#
# 1 0.008603 -0.002046 -0.002407 0.000000 -0.003305 0.000000
# 2 -0.002046 0.012531 -0.003288 0.000000 0.001253 0.000000
# 3 -0.002407 -0.003288 0.013050 0.000000 -0.000899 0.000000
# 4 0.000000 0.000000 0.000000 0.028501 0.000000 0.005586
# 5 -0.003305 0.001253 -0.000899 0.000000 0.031558 0.000000
# 6 0.000000 0.000000 0.000000 0.005586 0.000000 0.032822
#
#
# Mechanical properties :
#
#
# Convention : Reuss Voigt Hill
#
# Bulk Modulus (GPa) = 53.47264 56.36985 54.92125
# Shear Modulus (GPa) = 33.60595 35.43575 34.52085
#
# Velocity S-wave (km/s) = 3.93551 4.04124 3.98873
# Velocity P-wave (km/s) = 6.73019 6.91051 6.82094
#
# Compressibility (1/GPa) = 0.01870115
#
# Stress axis : x y z
#
# Youngs Moduli (GPa) = 116.24138 79.80080 76.62617
#
# Poissons Ratio (x) = 0.16326 0.18448
# Poissons Ratio (y) = 0.23781 0.25197
# Poissons Ratio (z) = 0.27985 0.26241
#
# Static dielectric constant tensor:
#      x y z
#    x 4.324200 0.000000 0.023840 
#    y 0.000000 4.121590 0.000000 
#    z 0.023840 0.000000 3.768870 
# 
# 
# High freq. dielectric constant tensor:
#      x y z
#    x 1.872330 0.000000 0.005040 
#    y 0.000000 1.858400 0.000000 
#    z 0.005040 0.000000 1.848570 
# 
# From -- ./inp_files/73269.got.cif
#   From: 2010.03.12/outbox.cif.g09.slc.cpg/sg14_37_cif.got.tgz:73269.got - 2010.03.31 13:35:05.
