data_PCOD8128634
_publ_section_title
;
Structure prediction by ZEFSAII (Michael W. Deem and Ramdas Pophale) SiO2 
 PCOD8128634
Probable space group: P 21/C
;
_chemical_formula_sum "Si O2"
_cell_formula_units_Z 32
_cell_length_a 6.642231
_cell_length_b 27.052075
_cell_length_c 9.478790
_cell_angle_alpha 90.000000
_cell_angle_beta 67.864050
_cell_angle_gamma 90.000000
_cell_volume 1577.667775
_symmetry_space_group_name_H-M "P 21/C"
_symmetry_group_IT_number 14
_symmetry_cell_setting 'monoclinic'
loop_
_space_group_symop_operation_xyz
x,y,z
-x,1/2+y,1/2-z
-x,-y,-z
x,1/2-y,1/2+z
loop_
_atom_site_type_symbol
_atom_site_label
_atom_site_fract_x
_atom_site_fract_y
_atom_site_fract_z
Si Si1 0.604771 0.492641 0.821894
Si Si2 0.340586 0.249499 0.151898
Si Si3 0.018134 0.331791 0.148272
Si Si4 0.037243 0.914134 0.841016
Si Si5 0.635709 0.233463 0.835326
Si Si6 0.696589 0.990255 0.845431
Si Si7 0.959047 0.571350 0.683236
Si Si8 0.951440 0.317153 0.842809
O O1 0.759092 0.444937 0.771850
O O2 0.392184 0.482994 0.786624
O O3 0.733691 0.541012 0.732563
O O4 0.500000 0.500000 0.000000
O O5 0.230312 0.298053 0.113825
O O6 0.532576 0.263076 0.208226
O O7 0.166347 0.215580 0.274231
O O8 0.448524 0.218678 0.995455
O O9 0.074831 0.384572 0.198262
O O10 0.816548 0.308968 0.287177
O O11 0.949860 0.337467 0.002712
O O12 0.044130 0.860446 0.772001
O O13 0.813583 0.939939 0.857742
O O14 0.038504 0.909360 0.010150
O O15 0.739378 0.285194 0.860328
O O16 0.858844 0.036028 0.801741
O O17 0.500000 0.000000 0.000000
#
# Coordination Sequence:
#
# PCOD8128634 Si02
#       8
#     4   4   4   4   4   4   4   4
#     4  11  25  43  65  95 127 169 213 261 314 372
#     4  11  24  45  66  89 129 172 208 257 318 378
#     4  11  26  42  64  98 130 161 213 267 314 376
#     4  11  25  42  65  95 128 166 214 260 313 379
#     4  11  24  45  66  89 129 172 208 257 318 378
#     4  11  21  45  67  86 129 171 211 256 311 375
#     4  11  25  42  65  95 128 166 214 260 313 379
#     4  11  26  42  64  98 130 161 213 267 314 376
#
# _framework density 20.283104999999999
#
# number of rings (size 3 to 8) (size 9 to 14) (size 15 to 20)
#    0.000    1.000    5.000    0.750    7.000    5.000 
#    0.000    0.000    0.000    0.000    0.000    0.000 
#    0.000    0.000    0.000    0.000    0.000    0.000 
#
# Total GULP energy -396902.745124 kJ/mol
# GULP energy per Si atom -12403.210785 kJ/mol
# Density = 2.023694 g / cm^3
# Si number density = 20.283105 Si / 1000 Ang^3
#
#
#
# Elastic Constant Matrix: (Units=GPa)
#
#
# Indices 1 2 3 4 5 6 
#
# 1 98.9851 10.7669 12.0387 0.0000 8.6154 0.0000
# 2 10.7669 68.0042 -5.9932 0.0000 0.6733 0.0000
# 3 12.0387 -5.9932 86.5678 0.0000 -1.1385 0.0000
# 4 0.0000 0.0000 0.0000 33.0715 0.0000 7.3485
# 5 8.6154 0.6733 -1.1385 0.0000 37.3334 0.0000
# 6 0.0000 0.0000 0.0000 7.3485 0.0000 15.2339
#
#
#
# Elastic Compliance Matrix: (Units=1/GPa)
#
#
# Indices 1 2 3 4 5 6 
#
# 1 0.010718 -0.001818 -0.001649 0.000000 -0.002491 0.000000
# 2 -0.001818 0.015106 0.001301 0.000000 0.000187 0.000000
# 3 -0.001649 0.001301 0.011880 0.000000 0.000719 0.000000
# 4 0.000000 0.000000 0.000000 0.033868 0.000000 -0.016337
# 5 -0.002491 0.000187 0.000719 0.000000 0.027379 0.000000
# 6 0.000000 0.000000 0.000000 -0.016337 0.000000 0.073524
#
#
# Mechanical properties :
#
#
# Convention : Reuss Voigt Hill
#
# Bulk Modulus (GPa) = 29.96486 31.90910 30.93698
# Shear Modulus (GPa) = 26.60575 32.91076 29.75826
#
# Velocity S-wave (km/s) = 3.62570 4.03248 3.83449
# Velocity P-wave (km/s) = 5.68621 6.11942 5.90678
#
# Compressibility (1/GPa) = 0.03337242
#
# Stress axis : x y z
#
# Youngs Moduli (GPa) = 93.30463 66.20079 84.17157
#
# Poissons Ratio (x) = 0.12032 0.13880
# Poissons Ratio (y) = 0.16959 -0.10951
# Poissons Ratio (z) = 0.15386 -0.08613
#
# Static dielectric constant tensor:
#      x y z
#    x 3.851690 0.000000 -0.144980 
#    y 0.000000 3.562130 0.000000 
#    z -0.144980 0.000000 3.781140 
# 
# 
# High freq. dielectric constant tensor:
#      x y z
#    x 1.809640 0.000000 0.001390 
#    y 0.000000 1.781230 0.000000 
#    z 0.001390 0.000000 1.807650 
# 
# From -- ./inp_files/6960.got.cif
#   From: 2010.03.12/outbox.cif.g09.slc.cpg/sg14_4_cif.got.tgz:6960.got - 2010.03.31 13:35:05.
