data_PCOD8128472
_publ_section_title
;
Structure prediction by ZEFSAII (Michael W. Deem and Ramdas Pophale) SiO2 
 PCOD8128472
Probable space group: P 21/C
;
_chemical_formula_sum "Si O2"
_cell_formula_units_Z 32
_cell_length_a 18.097442
_cell_length_b 15.706658
_cell_length_c 16.639212
_cell_angle_alpha 90.000000
_cell_angle_beta 156.840689
_cell_angle_gamma 90.000000
_cell_volume 1860.139966
_symmetry_space_group_name_H-M "P 21/C"
_symmetry_group_IT_number 14
_symmetry_cell_setting 'monoclinic'
loop_
_space_group_symop_operation_xyz
x,y,z
-x,1/2+y,1/2-z
-x,-y,-z
x,1/2-y,1/2+z
loop_
_atom_site_type_symbol
_atom_site_label
_atom_site_fract_x
_atom_site_fract_y
_atom_site_fract_z
Si Si1 0.499994 0.971790 0.908014
Si Si2 0.214781 0.668038 0.139087
Si Si3 0.500015 0.261679 0.454088
Si Si4 0.784824 0.658001 0.122671
Si Si5 0.214799 0.168037 0.790501
Si Si6 0.215175 0.658001 0.553028
Si Si7 0.500006 0.638086 0.699685
Si Si8 0.499993 0.591571 0.961221
O O1 0.314436 0.915973 0.703794
O O2 0.499994 0.051505 0.849911
O O3 0.685553 0.915975 0.074904
O O4 0.500000 0.000000 0.000000
O O5 0.314916 0.696728 0.321386
O O6 0.234168 0.742210 0.092416
O O7 0.999988 0.646813 0.944435
O O8 0.314954 0.303273 0.308495
O O9 0.500003 0.280954 0.359675
O O10 0.500007 0.160266 0.466794
O O11 0.765831 0.757791 0.124072
O O12 0.000000 0.628528 0.332662
O O13 0.687441 0.641984 0.940159
O O14 0.685283 0.602446 0.092117
O O15 0.312574 0.641986 0.565299
O O16 0.314703 0.602440 0.721541
O O17 0.500000 0.500000 0.000000
#
# Coordination Sequence:
#
# PCOD8128472 Si02
#       8
#     4   4   4   4   4   4   4   4
#     4  11  20  33  51  84 109 137 177 214 259 313
#     4   9  18  36  56  73 101 141 178 211 256 312
#     4   9  18  34  53  78 104 136 178 212 259 318
#     4   9  20  38  56  75 106 144 176 216 270 316
#     4   9  18  36  56  73 101 141 178 211 256 312
#     4   9  20  38  56  75 106 144 176 216 270 316
#     4  11  20  34  52  78 112 142 171 220 264 320
#     4   9  18  36  60  83 101 138 179 230 266 302
#
# _framework density 17.203005999999998
#
# number of rings (size 3 to 8) (size 9 to 14) (size 15 to 20)
#    0.000    2.500    2.500    2.250    0.000    3.000 
#    9.000    0.000    0.000    0.000    0.000    0.000 
#    0.000    0.000    0.000    0.000    0.000    0.000 
#
# Total GULP energy -396813.165705 kJ/mol
# GULP energy per Si atom -12400.411428 kJ/mol
# Density = 1.716385 g / cm^3
# Si number density = 17.203006 Si / 1000 Ang^3
#
#
#
# Elastic Constant Matrix: (Units=GPa)
#
#
# Indices 1 2 3 4 5 6 
#
# 1 109.8994 66.6570 80.6373 0.0000 -3.5304 0.0000
# 2 66.6570 118.9519 61.5658 0.0000 -3.4227 0.0000
# 3 80.6373 61.5658 142.2084 0.0000 25.1695 0.0000
# 4 0.0000 0.0000 0.0000 21.8425 0.0000 -3.2237
# 5 -3.5304 -3.4227 25.1695 0.0000 31.2498 0.0000
# 6 0.0000 0.0000 0.0000 -3.2237 0.0000 26.6497
#
#
#
# Elastic Compliance Matrix: (Units=1/GPa)
#
#
# Indices 1 2 3 4 5 6 
#
# 1 0.021502 -0.005648 -0.011742 0.000000 0.011268 0.000000
# 2 -0.005648 0.013297 -0.003148 0.000000 0.003354 0.000000
# 3 -0.011742 -0.003148 0.017900 0.000000 -0.016089 0.000000
# 4 0.000000 0.000000 0.000000 0.046615 0.000000 0.005639
# 5 0.011268 0.003354 -0.016089 0.000000 0.046599 0.000000
# 6 0.000000 0.000000 0.000000 0.005639 0.000000 0.038206
#
#
# Mechanical properties :
#
#
# Convention : Reuss Voigt Hill
#
# Bulk Modulus (GPa) = 86.02125 87.64220 86.83172
# Shear Modulus (GPa) = 21.82756 26.76169 24.29463
#
# Velocity S-wave (km/s) = 3.56592 3.94844 3.76204
# Velocity P-wave (km/s) = 8.18942 8.47605 8.33396
#
# Compressibility (1/GPa) = 0.01162503
#
# Stress axis : x y z
#
# Youngs Moduli (GPa) = 46.50740 75.20308 55.86543
#
# Poissons Ratio (x) = 0.42473 0.65595
# Poissons Ratio (y) = 0.26266 0.17586
# Poissons Ratio (z) = 0.54607 0.23673
#
# Static dielectric constant tensor:
#      x y z
#    x 3.236610 0.000000 0.143270 
#    y 0.000000 3.326490 0.000000 
#    z 0.143270 0.000000 3.450230 
# 
# 
# High freq. dielectric constant tensor:
#      x y z
#    x 1.653870 0.000000 0.009480 
#    y 0.000000 1.663000 0.000000 
#    z 0.009480 0.000000 1.668010 
# 
# From -- ./inp_files/61468.got.cif
#   From: 2010.03.12/outbox.cif.g09.slc.cpg/sg14_31_cif.got.tgz:61468.got - 2010.03.31 13:35:05.
