data_PCOD8128896
_publ_section_title
;
Structure prediction by ZEFSAII (Michael W. Deem and Ramdas Pophale) SiO2 
 PCOD8128896
Probable space group: P 21/C
;
_chemical_formula_sum "Si O2"
_cell_formula_units_Z 20
_cell_length_a 6.748262
_cell_length_b 25.906500
_cell_length_c 5.194148
_cell_angle_alpha 90.000000
_cell_angle_beta 72.864168
_cell_angle_gamma 90.000000
_cell_volume 867.751159
_symmetry_space_group_name_H-M "P 21/C"
_symmetry_group_IT_number 14
_symmetry_cell_setting 'monoclinic'
loop_
_space_group_symop_operation_xyz
x,y,z
-x,1/2+y,1/2-z
-x,-y,-z
x,1/2-y,1/2+z
loop_
_atom_site_type_symbol
_atom_site_label
_atom_site_fract_x
_atom_site_fract_y
_atom_site_fract_z
Si Si1 0.077180 0.036449 0.190078
Si Si2 0.350160 0.970955 0.368454
Si Si3 0.233298 0.354122 0.694475
Si Si4 0.849788 0.284184 0.903444
Si Si5 0.514667 0.638836 0.877831
O O1 0.118935 0.096372 0.110354
O O2 0.891832 0.037506 0.465899
O O3 0.307688 0.011859 0.156276
O O4 0.000000 0.000000 0.000000
O O5 0.447852 0.915512 0.274127
O O6 0.500000 0.000000 0.500000
O O7 0.374104 0.332366 0.404929
O O8 0.077316 0.308470 0.823316
O O9 0.347755 0.369261 0.917485
O O10 0.816060 0.250389 0.664841
O O11 0.683875 0.329686 0.958184
#
# Coordination Sequence:
#
# PCOD8128896 Si02
#       5
#     4   4   4   4   4
#     4  11  25  40  70 104 152 195 239 291 363 430
#     4  11  23  43  67 106 146 193 238 289 356 443
#     4  12  27  47  73 110 145 191 241 303 359 441
#     4  12  28  51  77 104 143 189 245 313 369 426
#     4  12  27  46  77 107 148 190 247 293 371 439
#
# _framework density 23.048081
#
# number of rings (size 3 to 8) (size 9 to 14) (size 15 to 20)
#    0.000    0.400    4.000    3.600    5.600    8.000 
#    0.000    0.000    0.000    0.000    0.000    0.000 
#    0.000    0.000    0.000    0.000    0.000    0.000 
#
# Total GULP energy -247818.911464 kJ/mol
# GULP energy per Si atom -12390.945573 kJ/mol
# Density = 2.299562 g / cm^3
# Si number density = 23.048081 Si / 1000 Ang^3
#
#
#
# Elastic Constant Matrix: (Units=GPa)
#
#
# Indices 1 2 3 4 5 6 
#
# 1 106.6591 26.8775 21.7718 0.0000 7.7488 0.0000
# 2 26.8775 105.1441 24.9296 0.0000 2.7721 0.0000
# 3 21.7718 24.9296 109.3177 0.0000 13.9930 0.0000
# 4 0.0000 0.0000 0.0000 38.3116 0.0000 -1.7994
# 5 7.7488 2.7721 13.9930 0.0000 44.2250 0.0000
# 6 0.0000 0.0000 0.0000 -1.7994 0.0000 33.6028
#
#
#
# Elastic Compliance Matrix: (Units=1/GPa)
#
#
# Indices 1 2 3 4 5 6 
#
# 1 0.010321 -0.002279 -0.001378 0.000000 -0.001229 0.000000
# 2 -0.002279 0.010558 -0.002001 0.000000 0.000371 0.000000
# 3 -0.001378 -0.002001 0.010247 0.000000 -0.002875 0.000000
# 4 0.000000 0.000000 0.000000 0.026168 0.000000 0.001401
# 5 -0.001229 0.000371 -0.002875 0.000000 0.023714 0.000000
# 6 0.000000 0.000000 0.000000 0.001401 0.000000 0.029834
#
#
# Mechanical properties :
#
#
# Convention : Reuss Voigt Hill
#
# Bulk Modulus (GPa) = 50.48488 52.03095 51.25791
# Shear Modulus (GPa) = 38.83171 39.73070 39.28120
#
# Velocity S-wave (km/s) = 4.10910 4.15639 4.13281
# Velocity P-wave (km/s) = 6.66818 6.75708 6.71278
#
# Compressibility (1/GPa) = 0.01980791
#
# Stress axis : x y z
#
# Youngs Moduli (GPa) = 96.89330 94.71445 97.59356
#
# Poissons Ratio (x) = 0.21585 0.13452
# Poissons Ratio (y) = 0.22082 0.19531
# Poissons Ratio (z) = 0.13356 0.18955
#
# Static dielectric constant tensor:
#      x y z
#    x 4.316360 0.000000 -0.241780 
#    y 0.000000 4.453920 0.000000 
#    z -0.241780 0.000000 4.167300 
# 
# 
# High freq. dielectric constant tensor:
#      x y z
#    x 1.933690 0.000000 -0.011530 
#    y 0.000000 1.918270 0.000000 
#    z -0.011530 0.000000 1.912780 
# 
# From -- ./inp_files/548.got.cif
#   From: 2010.03.12/outbox.cif.g09.slc.cpg/sg14_1_cif.got.tgz:548.got - 2010.03.31 13:35:05.
