data_PCOD8128290
_publ_section_title
;
Structure prediction by ZEFSAII (Michael W. Deem and Ramdas Pophale) SiO2 
 PCOD8128290
Probable space group: P 21/C
;
_chemical_formula_sum "Si O2"
_cell_formula_units_Z 20
_cell_length_a 15.433661
_cell_length_b 9.893863
_cell_length_c 10.678177
_cell_angle_alpha 90.000000
_cell_angle_beta 32.472284
_cell_angle_gamma 90.000000
_cell_volume 875.424198
_symmetry_space_group_name_H-M "P 21/C"
_symmetry_group_IT_number 14
_symmetry_cell_setting 'monoclinic'
loop_
_space_group_symop_operation_xyz
x,y,z
-x,1/2+y,1/2-z
-x,-y,-z
x,1/2-y,1/2+z
loop_
_atom_site_type_symbol
_atom_site_label
_atom_site_fract_x
_atom_site_fract_y
_atom_site_fract_z
Si Si1 0.700030 0.527424 0.514136
Si Si2 0.614353 0.491010 0.980902
Si Si3 0.187225 0.180746 0.607748
Si Si4 0.689419 0.480159 0.251017
Si Si5 0.189532 0.813537 0.917857
O O1 0.761080 0.669391 0.492735
O O2 0.766880 0.501664 0.293901
O O3 0.763960 0.408646 0.523591
O O4 0.502509 0.534814 0.757230
O O5 0.716600 0.626615 0.886442
O O6 0.736671 0.368024 0.803981
O O7 0.500000 0.500000 0.000000
O O8 0.226381 0.086559 0.442485
O O9 0.000425 0.185190 0.868582
O O10 0.500000 0.500000 0.500000
O O11 0.736466 0.332642 0.143027
#
# Coordination Sequence:
#
# PCOD8128290 Si02
#       5
#     4   4   4   4   4
#     4  11  27  48  73 107 144 189 253 296 361 444
#     4  10  24  44  74 100 141 189 245 294 358 434
#     4  12  26  46  74 108 148 190 242 306 372 425
#     4  12  27  46  79 104 146 198 248 299 367 442
#     4  11  27  47  71 109 148 190 240 308 370 431
#
# _framework density 22.846067999999999
#
# number of rings (size 3 to 8) (size 9 to 14) (size 15 to 20)
#    0.000    0.800    2.000    3.000   14.000    3.200 
#    0.000    0.000    0.000    0.000    0.000    0.000 
#    0.000    0.000    0.000    0.000    0.000    0.000 
#
# Total GULP energy -248011.768171 kJ/mol
# GULP energy per Si atom -12400.588409 kJ/mol
# Density = 2.279407 g / cm^3
# Si number density = 22.846068 Si / 1000 Ang^3
#
#
#
# Elastic Constant Matrix: (Units=GPa)
#
#
# Indices 1 2 3 4 5 6 
#
# 1 100.2854 67.8817 49.7711 0.0000 -0.6594 0.0000
# 2 67.8817 203.4354 68.8333 0.0000 -0.9940 0.0000
# 3 49.7711 68.8333 138.0635 0.0000 -34.9058 0.0000
# 4 0.0000 0.0000 0.0000 36.4154 0.0000 10.2840
# 5 -0.6594 -0.9940 -34.9058 0.0000 46.4549 0.0000
# 6 0.0000 0.0000 0.0000 10.2840 0.0000 36.0277
#
#
#
# Elastic Compliance Matrix: (Units=1/GPa)
#
#
# Indices 1 2 3 4 5 6 
#
# 1 0.014345 -0.003354 -0.004279 0.000000 -0.003083 0.000000
# 2 -0.003354 0.006958 -0.002759 0.000000 -0.001971 0.000000
# 3 -0.004279 -0.002759 0.012506 0.000000 0.009277 0.000000
# 4 0.000000 0.000000 0.000000 0.029869 0.000000 -0.008526
# 5 -0.003083 -0.001971 0.009277 0.000000 0.028411 0.000000
# 6 0.000000 0.000000 0.000000 -0.008526 0.000000 0.030190
#
#
# Mechanical properties :
#
#
# Convention : Reuss Voigt Hill
#
# Bulk Modulus (GPa) = 76.76082 90.52851 83.64466
# Shear Modulus (GPa) = 33.92027 40.79949 37.35988
#
# Velocity S-wave (km/s) = 3.85740 4.23051 4.04826
# Velocity P-wave (km/s) = 7.31515 7.97335 7.65133
#
# Compressibility (1/GPa) = 0.01302748
#
# Stress axis : x y z
#
# Youngs Moduli (GPa) = 69.71095 143.71005 79.95958
#
# Poissons Ratio (x) = 0.48200 0.34211
# Poissons Ratio (y) = 0.23381 0.22058
# Poissons Ratio (z) = 0.29826 0.39644
#
# Static dielectric constant tensor:
#      x y z
#    x 4.200590 0.000000 0.190710 
#    y 0.000000 4.313880 0.000000 
#    z 0.190710 0.000000 4.837740 
# 
# 
# High freq. dielectric constant tensor:
#      x y z
#    x 1.903200 0.000000 0.002530 
#    y 0.000000 1.906740 0.000000 
#    z 0.002530 0.000000 1.922000 
# 
# From -- ./inp_files/33655.got.cif
#   From: 2010.03.12/outbox.cif.g09.slc.cpg/sg14_17_cif.got.tgz:33655.got - 2010.03.31 13:35:05.
