data_PCOD8128681
_publ_section_title
;
Structure prediction by ZEFSAII (Michael W. Deem and Ramdas Pophale) SiO2 
 PCOD8128681
Probable space group: P 21/C
;
_chemical_formula_sum "Si O2"
_cell_formula_units_Z 32
_cell_length_a 12.006159
_cell_length_b 8.999230
_cell_length_c 18.087914
_cell_angle_alpha 90.000000
_cell_angle_beta 127.485197
_cell_angle_gamma 90.000000
_cell_volume 1550.781659
_symmetry_space_group_name_H-M "P 21/C"
_symmetry_group_IT_number 14
_symmetry_cell_setting 'monoclinic'
loop_
_space_group_symop_operation_xyz
x,y,z
-x,1/2+y,1/2-z
-x,-y,-z
x,1/2-y,1/2+z
loop_
_atom_site_type_symbol
_atom_site_label
_atom_site_fract_x
_atom_site_fract_y
_atom_site_fract_z
Si Si1 0.847244 0.289998 0.708167
Si Si2 0.366269 0.450085 0.991421
Si Si3 0.861716 0.934775 0.717174
Si Si4 0.605122 0.311322 0.889473
Si Si5 0.701352 0.778265 0.777603
Si Si6 0.373829 0.323002 0.592466
Si Si7 0.635604 0.060973 0.011215
Si Si8 0.324450 0.575557 0.236676
O O1 0.731317 0.339258 0.601710
O O2 0.799613 0.347842 0.768139
O O3 0.989798 0.370627 0.745247
O O4 0.864383 0.113087 0.720340
O O5 0.249054 0.383980 0.889925
O O6 0.500000 0.500000 0.000000
O O7 0.315490 0.593303 0.015872
O O8 0.408760 0.336965 0.073087
O O9 0.823472 0.858092 0.780058
O O10 0.442371 0.352563 0.809663
O O11 0.688231 0.340489 0.847236
O O12 0.600969 0.146251 0.920491
O O13 0.720282 0.816453 0.871958
O O14 0.705122 0.600213 0.774819
O O15 0.290746 0.414747 0.494569
O O16 0.524071 0.397909 0.667310
O O17 0.500000 0.000000 0.000000
#
# Coordination Sequence:
#
# PCOD8128681 Si02
#       8
#     4   4   4   4   4   4   4   4
#     4  12  27  46  67  96 130 178 220 273 334 393
#     4  12  22  41  68 102 128 172 226 270 323 393
#     4  12  28  45  69  93 133 176 223 273 334 395
#     4  11  22  39  66 100 135 168 216 276 330 385
#     4  11  23  41  64 100 137 173 215 271 333 390
#     4  11  24  37  68 103 135 170 217 276 331 382
#     4  12  23  42  69 102 132 171 224 275 321 389
#     4  11  23  41  64  98 141 170 215 271 336 387
#
# _framework density 20.634754000000001
#
# number of rings (size 3 to 8) (size 9 to 14) (size 15 to 20)
#    0.000    0.500    6.250    2.250    5.250    0.000 
#    0.000    2.500    0.000    0.000    0.000    0.000 
#    0.000    0.000    0.000    0.000    0.000    0.000 
#
# Total GULP energy -396548.964998 kJ/mol
# GULP energy per Si atom -12392.155156 kJ/mol
# Density = 2.058779 g / cm^3
# Si number density = 20.634754 Si / 1000 Ang^3
#
#
#
# Elastic Constant Matrix: (Units=GPa)
#
#
# Indices 1 2 3 4 5 6 
#
# 1 166.2106 76.3943 66.4327 0.0000 -30.3196 0.0000
# 2 76.3943 142.0056 49.1750 0.0000 -16.8465 0.0000
# 3 66.4327 49.1750 88.0225 0.0000 -26.2435 0.0000
# 4 0.0000 0.0000 0.0000 43.0824 0.0000 -10.4583
# 5 -30.3196 -16.8465 -26.2435 0.0000 35.8921 0.0000
# 6 0.0000 0.0000 0.0000 -10.4583 0.0000 38.7883
#
#
#
# Elastic Compliance Matrix: (Units=1/GPa)
#
#
# Indices 1 2 3 4 5 6 
#
# 1 0.010081 -0.003390 -0.004667 0.000000 0.003512 0.000000
# 2 -0.003390 0.009884 -0.003112 0.000000 -0.000500 0.000000
# 3 -0.004667 -0.003112 0.019195 0.000000 0.008632 0.000000
# 4 0.000000 0.000000 0.000000 0.024837 0.000000 0.006697
# 5 0.003512 -0.000500 0.008632 0.000000 0.036904 0.000000
# 6 0.000000 0.000000 0.000000 0.006697 0.000000 0.027587
#
#
# Mechanical properties :
#
#
# Convention : Reuss Voigt Hill
#
# Bulk Modulus (GPa) = 59.45000 86.69362 73.07181
# Shear Modulus (GPa) = 31.96214 37.16835 34.56525
#
# Velocity S-wave (km/s) = 3.93994 4.24872 4.09724
# Velocity P-wave (km/s) = 7.04064 8.13470 7.60737
#
# Compressibility (1/GPa) = 0.01682086
#
# Stress axis : x y z
#
# Youngs Moduli (GPa) = 99.19900 101.17058 52.09563
#
# Poissons Ratio (x) = 0.34300 0.24314
# Poissons Ratio (y) = 0.33632 0.16214
# Poissons Ratio (z) = 0.46297 0.31488
#
# Static dielectric constant tensor:
#      x y z
#    x 3.720090 0.000000 -0.041310 
#    y 0.000000 3.911830 0.000000 
#    z -0.041310 0.000000 6.454690 
# 
# 
# High freq. dielectric constant tensor:
#      x y z
#    x 1.793200 0.000000 -0.036560 
#    y 0.000000 1.833060 0.000000 
#    z -0.036560 0.000000 1.800690 
# 
# From -- ./inp_files/57288.got.cif
#   From: 2010.03.12/outbox.cif.g09.slc.cpg/sg14_29_cif.got.tgz:57288.got - 2010.03.31 13:35:05.
