data_PCOD8128221
_publ_section_title
;
Structure prediction by ZEFSAII (Michael W. Deem and Ramdas Pophale) SiO2 
 PCOD8128221
Probable space group: P 21/C
;
_chemical_formula_sum "Si O2"
_cell_formula_units_Z 20
_cell_length_a 8.069062
_cell_length_b 4.798202
_cell_length_c 23.151631
_cell_angle_alpha 90.000000
_cell_angle_beta 127.969153
_cell_angle_gamma 90.000000
_cell_volume 706.639470
_symmetry_space_group_name_H-M "P 21/C"
_symmetry_group_IT_number 14
_symmetry_cell_setting 'monoclinic'
loop_
_space_group_symop_operation_xyz
x,y,z
-x,1/2+y,1/2-z
-x,-y,-z
x,1/2-y,1/2+z
loop_
_atom_site_type_symbol
_atom_site_label
_atom_site_fract_x
_atom_site_fract_y
_atom_site_fract_z
Si Si1 0.488917 0.379433 0.707748
Si Si2 0.806296 0.916117 0.040091
Si Si3 0.966243 0.982783 0.705000
Si Si4 0.919326 0.579241 0.892744
Si Si5 0.623497 0.391229 0.613184
O O1 0.408425 0.654553 0.725100
O O2 0.297860 0.216405 0.633555
O O3 0.636759 0.472309 0.684969
O O4 0.004873 0.718242 0.066158
O O5 0.735525 0.885803 0.092913
O O6 0.615027 0.848465 0.957270
O O7 0.883793 0.228990 0.047732
O O8 0.738641 0.091254 0.634317
O O9 0.042479 0.158974 0.777890
O O10 0.125526 0.036761 0.685802
#
# Coordination Sequence:
#
# PCOD8128221 Si02
#       5
#     4   4   4   4   4
#     4  12  26  43  67 100 139 179 222 280 348 410
#     4  10  24  43  67  94 127 176 228 279 330 396
#     4  11  21  36  60  87 122 167 214 268 327 393
#     4  11  23  41  63  95 131 169 223 278 338 398
#     4  10  24  43  67  95 131 174 227 278 333 402
#
# _framework density 28.302976000000001
#
# number of rings (size 3 to 8) (size 9 to 14) (size 15 to 20)
#    0.000    1.200    0.000    6.000    0.000   15.200 
#    0.000    0.000    0.000    0.000    0.000    0.000 
#    0.000    0.000    0.000    0.000    0.000    0.000 
#
# Total GULP energy -247896.500629 kJ/mol
# GULP energy per Si atom -12394.825031 kJ/mol
# Density = 2.823856 g / cm^3
# Si number density = 28.302976 Si / 1000 Ang^3
#
#
#
# Elastic Constant Matrix: (Units=GPa)
#
#
# Indices 1 2 3 4 5 6 
#
# 1 86.1059 28.6013 -11.4376 0.0000 -23.8604 0.0000
# 2 28.6013 96.7184 10.9307 0.0000 -13.7580 0.0000
# 3 -11.4376 10.9307 79.0205 0.0000 -5.2744 0.0000
# 4 0.0000 0.0000 0.0000 21.6887 0.0000 2.0707
# 5 -23.8604 -13.7580 -5.2744 0.0000 37.3179 0.0000
# 6 0.0000 0.0000 0.0000 2.0707 0.0000 35.5832
#
#
#
# Elastic Compliance Matrix: (Units=1/GPa)
#
#
# Indices 1 2 3 4 5 6 
#
# 1 0.015887 -0.003770 0.003439 0.000000 0.009254 0.000000
# 2 -0.003770 0.011931 -0.002083 0.000000 0.001693 0.000000
# 3 0.003439 -0.002083 0.013665 0.000000 0.003362 0.000000
# 4 0.000000 0.000000 0.000000 0.046365 0.000000 -0.002698
# 5 0.009254 0.001693 0.003362 0.000000 0.033813 0.000000
# 6 0.000000 0.000000 0.000000 -0.002698 0.000000 0.028260
#
#
# Mechanical properties :
#
#
# Convention : Reuss Voigt Hill
#
# Bulk Modulus (GPa) = 27.28246 35.33707 31.30977
# Shear Modulus (GPa) = 29.94590 34.50132 32.22361
#
# Velocity S-wave (km/s) = 3.25629 3.49521 3.37786
# Velocity P-wave (km/s) = 4.87835 5.36666 5.12832
#
# Compressibility (1/GPa) = 0.03665359
#
# Stress axis : x y z
#
# Youngs Moduli (GPa) = 62.94426 83.81853 73.17837
#
# Poissons Ratio (x) = 0.31603 -0.25164
# Poissons Ratio (y) = 0.23732 0.15243
# Poissons Ratio (z) = -0.21645 0.17460
#
# Static dielectric constant tensor:
#      x y z
#    x 5.048860 0.000000 -0.033240 
#    y 0.000000 4.855790 0.000000 
#    z -0.033240 0.000000 5.165870 
# 
# 
# High freq. dielectric constant tensor:
#      x y z
#    x 2.141760 0.000000 0.014820 
#    y 0.000000 2.140340 0.000000 
#    z 0.014820 0.000000 2.177930 
# 
# From -- ./inp_files/71690.got.cif
#   From: 2010.03.12/outbox.cif.g09.slc.cpg/sg14_36_cif.got.tgz:71690.got - 2010.03.31 13:35:05.
