data_PCOD8128480
_publ_section_title
;
Structure prediction by ZEFSAII (Michael W. Deem and Ramdas Pophale) SiO2 
 PCOD8128480
Probable space group: P 21/C
;
_chemical_formula_sum "Si O2"
_cell_formula_units_Z 32
_cell_length_a 24.046435
_cell_length_b 9.176308
_cell_length_c 18.408744
_cell_angle_alpha 90.000000
_cell_angle_beta 156.748912
_cell_angle_gamma 90.000000
_cell_volume 1603.531198
_symmetry_space_group_name_H-M "P 21/C"
_symmetry_group_IT_number 14
_symmetry_cell_setting 'monoclinic'
loop_
_space_group_symop_operation_xyz
x,y,z
-x,1/2+y,1/2-z
-x,-y,-z
x,1/2-y,1/2+z
loop_
_atom_site_type_symbol
_atom_site_label
_atom_site_fract_x
_atom_site_fract_y
_atom_site_fract_z
Si Si1 0.144317 0.420175 0.812613
Si Si2 0.256792 0.337657 0.535456
Si Si3 0.645577 0.379192 0.874043
Si Si4 0.323007 0.442414 0.888924
Si Si5 0.411957 0.756010 0.335143
Si Si6 0.173298 0.513537 0.569121
Si Si7 0.392331 0.568288 0.603130
Si Si8 0.552090 0.244626 0.958514
O O1 0.230772 0.380081 0.843869
O O2 0.982517 0.436023 0.597007
O O3 0.161154 0.290932 0.890339
O O4 0.198193 0.570121 0.915736
O O5 0.167581 0.413281 0.491385
O O6 0.278904 0.453484 0.496410
O O7 0.401276 0.272723 0.740718
O O8 0.617744 0.382398 0.753330
O O9 0.545278 0.493329 0.795748
O O10 0.612336 0.214053 0.855337
O O11 0.236419 0.419486 0.710854
O O12 0.470560 0.359766 0.059410
O O13 0.351605 0.613264 0.935009
O O14 0.267952 0.845366 0.167967
O O15 0.461989 0.699646 0.474068
O O16 0.370096 0.613158 0.491795
#
# Coordination Sequence:
#
# PCOD8128480 Si02
#       8
#     4   4   4   4   4   4   4   4
#     4  12  26  40  64  95 131 167 211 252 320 386
#     4  12  22  41  62  94 127 168 209 259 315 375
#     4  12  22  37  62  95 128 163 205 264 317 372
#     4  11  20  42  66  93 121 166 220 261 304 371
#     4  11  22  39  65  92 126 162 213 264 311 365
#     4  11  24  40  66  91 128 170 208 259 312 381
#     4  12  21  37  64  95 123 161 215 262 313 366
#     4  11  20  37  62  94 122 160 208 265 312 360
#
# _framework density 19.955957000000001
#
# number of rings (size 3 to 8) (size 9 to 14) (size 15 to 20)
#    0.000    0.500    7.500    2.625    1.750    0.500 
#    0.000    0.000    0.000    3.000    0.000    0.000 
#    0.000    0.000    0.000    0.000    0.000    0.000 
#
# Total GULP energy -396829.168965 kJ/mol
# GULP energy per Si atom -12400.911530 kJ/mol
# Density = 1.991054 g / cm^3
# Si number density = 19.955957 Si / 1000 Ang^3
#
#
#
# Elastic Constant Matrix: (Units=GPa)
#
#
# Indices 1 2 3 4 5 6 
#
# 1 94.0277 20.3556 29.3586 0.0000 -1.0144 0.0000
# 2 20.3556 61.6388 25.0170 0.0000 -2.5306 0.0000
# 3 29.3586 25.0170 93.5989 0.0000 11.6177 0.0000
# 4 0.0000 0.0000 0.0000 17.4147 0.0000 -10.5304
# 5 -1.0144 -2.5306 11.6177 0.0000 22.1171 0.0000
# 6 0.0000 0.0000 0.0000 -10.5304 0.0000 33.2707
#
#
#
# Elastic Compliance Matrix: (Units=1/GPa)
#
#
# Indices 1 2 3 4 5 6 
#
# 1 0.012284 -0.002585 -0.003418 0.000000 0.002063 0.000000
# 2 -0.002585 0.019265 -0.004918 0.000000 0.004669 0.000000
# 3 -0.003418 -0.004918 0.014078 0.000000 -0.008114 0.000000
# 4 0.000000 0.000000 0.000000 0.071014 0.000000 0.022476
# 5 0.002063 0.004669 -0.008114 0.000000 0.050105 0.000000
# 6 0.000000 0.000000 0.000000 0.022476 0.000000 0.037170
#
#
# Mechanical properties :
#
#
# Convention : Reuss Voigt Hill
#
# Bulk Modulus (GPa) = 42.04342 44.30305 43.17324
# Shear Modulus (GPa) = 21.39620 26.19610 23.79615
#
# Velocity S-wave (km/s) = 3.27795 3.62705 3.45691
# Velocity P-wave (km/s) = 5.95319 6.30787 6.13309
#
# Compressibility (1/GPa) = 0.02378493
#
# Stress axis : x y z
#
# Youngs Moduli (GPa) = 81.40467 51.90818 71.03418
#
# Poissons Ratio (x) = 0.13416 0.24282
# Poissons Ratio (y) = 0.21040 0.34934
# Poissons Ratio (z) = 0.27828 0.25528
#
# Static dielectric constant tensor:
#      x y z
#    x 4.112580 0.000000 -0.240880 
#    y 0.000000 3.581670 0.000000 
#    z -0.240880 0.000000 3.416830 
# 
# 
# High freq. dielectric constant tensor:
#      x y z
#    x 1.800340 0.000000 -0.014590 
#    y 0.000000 1.766590 0.000000 
#    z -0.014590 0.000000 1.754160 
# 
# From -- ./inp_files/70536.got.cif
#   From: 2010.03.12/outbox.cif.g09.slc.cpg/sg14_36_cif.got.tgz:70536.got - 2010.03.31 13:35:05.
