data_PCOD8128606
_publ_section_title
;
Structure prediction by ZEFSAII (Michael W. Deem and Ramdas Pophale) SiO2 
 PCOD8128606
Probable space group: P 21/C
;
_chemical_formula_sum "Si O2"
_cell_formula_units_Z 24
_cell_length_a 12.416829
_cell_length_b 9.411722
_cell_length_c 18.065113
_cell_angle_alpha 90.000000
_cell_angle_beta 30.368166
_cell_angle_gamma 90.000000
_cell_volume 1067.304708
_symmetry_space_group_name_H-M "P 21/C"
_symmetry_group_IT_number 14
_symmetry_cell_setting 'monoclinic'
loop_
_space_group_symop_operation_xyz
x,y,z
-x,1/2+y,1/2-z
-x,-y,-z
x,1/2-y,1/2+z
loop_
_atom_site_type_symbol
_atom_site_label
_atom_site_fract_x
_atom_site_fract_y
_atom_site_fract_z
Si Si1 0.188355 0.102922 0.732841
Si Si2 0.244495 0.242750 0.852684
Si Si3 0.757999 0.457863 0.431795
Si Si4 0.198785 0.686550 0.311980
Si Si5 0.426371 0.534273 0.303659
Si Si6 0.487583 0.205080 0.985292
O O1 0.170085 0.217383 0.811677
O O2 0.390820 0.140405 0.560883
O O3 0.995766 0.104278 0.787517
O O4 0.200721 0.945683 0.756212
O O5 0.344431 0.400350 0.807403
O O6 0.422832 0.120202 0.765521
O O7 0.040133 0.237012 0.028418
O O8 0.722877 0.487515 0.538342
O O9 0.713614 0.602347 0.412514
O O10 0.600216 0.338901 0.494553
O O11 0.316230 0.651836 0.318042
O O12 0.342647 0.802983 0.183276
#
# Coordination Sequence:
#
# PCOD8128606 Si02
#       6
#     4   4   4   4   4   4
#     4  11  22  43  68  95 130 181 219 270 342 404
#     4  11  22  42  72  99 133 183 227 276 338 399
#     4  11  23  43  66  94 137 178 215 286 333 397
#     4  11  23  41  67 100 129 176 226 273 331 407
#     4  11  21  42  69  96 134 179 225 277 332 401
#     4  11  26  42  66 100 135 170 227 279 340 396
#
# _framework density 22.486550000000001
#
# number of rings (size 3 to 8) (size 9 to 14) (size 15 to 20)
#    0.000    1.000    5.000    2.500    2.333    0.000 
#    0.000    6.667    0.000    0.000    0.000    0.000 
#    0.000    0.000    0.000    0.000    0.000    0.000 
#
# Total GULP energy -297419.538439 kJ/mol
# GULP energy per Si atom -12392.480768 kJ/mol
# Density = 2.243537 g / cm^3
# Si number density = 22.486550 Si / 1000 Ang^3
#
#
#
# Elastic Constant Matrix: (Units=GPa)
#
#
# Indices 1 2 3 4 5 6 
#
# 1 116.5271 20.6114 16.0371 0.0000 -13.6795 0.0000
# 2 20.6114 54.7195 29.9870 0.0000 -17.8550 0.0000
# 3 16.0371 29.9870 97.8064 0.0000 -10.0167 0.0000
# 4 0.0000 0.0000 0.0000 34.8551 0.0000 -4.4957
# 5 -13.6795 -17.8550 -10.0167 0.0000 30.1149 0.0000
# 6 0.0000 0.0000 0.0000 -4.4957 0.0000 18.5442
#
#
#
# Elastic Compliance Matrix: (Units=1/GPa)
#
#
# Indices 1 2 3 4 5 6 
#
# 1 0.009389 -0.002366 -0.000539 0.000000 0.002683 0.000000
# 2 -0.002366 0.026903 -0.006561 0.000000 0.012694 0.000000
# 3 -0.000539 -0.006561 0.012320 0.000000 -0.000037 0.000000
# 4 0.000000 0.000000 0.000000 0.029616 0.000000 0.007180
# 5 0.002683 0.012694 -0.000037 0.000000 0.041939 0.000000
# 6 0.000000 0.000000 0.000000 0.007180 0.000000 0.055666
#
#
# Mechanical properties :
#
#
# Convention : Reuss Voigt Hill
#
# Bulk Modulus (GPa) = 33.69051 44.70270 39.19660
# Shear Modulus (GPa) = 24.43082 30.19735 27.31408
#
# Velocity S-wave (km/s) = 3.29973 3.66855 3.48901
# Velocity P-wave (km/s) = 5.43440 6.15363 5.80516
#
# Compressibility (1/GPa) = 0.02968195
#
# Stress axis : x y z
#
# Youngs Moduli (GPa) = 106.50372 37.16995 81.16618
#
# Poissons Ratio (x) = 0.08793 0.04379
# Poissons Ratio (y) = 0.25194 0.53249
# Poissons Ratio (z) = 0.05746 0.24386
#
# Static dielectric constant tensor:
#      x y z
#    x 4.228220 0.000000 -0.119450 
#    y 0.000000 3.847020 0.000000 
#    z -0.119450 0.000000 4.060640 
# 
# 
# High freq. dielectric constant tensor:
#      x y z
#    x 1.902610 0.000000 -0.000630 
#    y 0.000000 1.868190 0.000000 
#    z -0.000630 0.000000 1.873160 
# 
# From -- ./inp_files/57656.got.cif
#   From: 2010.03.12/outbox.cif.g09.slc.cpg/sg14_29_cif.got.tgz:57656.got - 2010.03.31 13:35:05.
