data_PCOD8128753
_publ_section_title
;
Structure prediction by ZEFSAII (Michael W. Deem and Ramdas Pophale) SiO2 
 PCOD8128753
Probable space group: P 21/C
;
_chemical_formula_sum "Si O2"
_cell_formula_units_Z 28
_cell_length_a 13.047442
_cell_length_b 9.316111
_cell_length_c 19.456128
_cell_angle_alpha 90.000000
_cell_angle_beta 146.642377
_cell_angle_gamma 90.000000
_cell_volume 1300.382262
_symmetry_space_group_name_H-M "P 21/C"
_symmetry_group_IT_number 14
_symmetry_cell_setting 'monoclinic'
loop_
_space_group_symop_operation_xyz
x,y,z
-x,1/2+y,1/2-z
-x,-y,-z
x,1/2-y,1/2+z
loop_
_atom_site_type_symbol
_atom_site_label
_atom_site_fract_x
_atom_site_fract_y
_atom_site_fract_z
Si Si1 0.894429 0.464058 0.130067
Si Si2 0.647929 0.673428 0.263907
Si Si3 0.792293 0.477835 0.587756
Si Si4 0.433139 0.786266 0.506379
Si Si5 0.412682 0.638309 0.724487
Si Si6 0.369512 0.219683 0.525706
Si Si7 0.057735 0.783317 0.945774
O O1 0.940030 0.373924 0.087112
O O2 0.085917 0.492188 0.276736
O O3 0.758128 0.376167 0.104693
O O4 0.800249 0.611986 0.053411
O O5 0.550933 0.654639 0.136150
O O6 0.601110 0.533934 0.283447
O O7 0.572037 0.814618 0.259862
O O8 0.867543 0.688606 0.378728
O O9 0.616599 0.380828 0.511942
O O10 0.710290 0.621960 0.509958
O O11 0.915738 0.401884 0.598661
O O12 0.556181 0.811031 0.508642
O O13 0.460515 0.697188 0.826790
O O14 0.218736 0.708768 0.592773
#
# Coordination Sequence:
#
# PCOD8128753 Si02
#       7
#     4   4   4   4   4   4   4
#     4  11  22  44  69 103 137 177 237 291 337 408
#     4  12  25  49  73  96 140 190 227 289 355 412
#     4  11  23  42  70 101 142 180 237 288 341 416
#     4  11  23  45  68  99 144 181 229 292 351 399
#     4  12  25  46  69 105 142 180 237 284 348 431
#     4  12  24  40  72 105 136 184 232 288 348 414
#     4  11  25  48  71  98 144 188 222 291 360 405
#
# _framework density 21.532131
#
# number of rings (size 3 to 8) (size 9 to 14) (size 15 to 20)
#    0.000    0.571    4.286    5.571    2.000    0.000 
#    2.571    1.429    0.000    0.000    0.000    0.000 
#    0.000    0.000    0.000    0.000    0.000    0.000 
#
# Total GULP energy -347405.085451 kJ/mol
# GULP energy per Si atom -12407.324480 kJ/mol
# Density = 2.148312 g / cm^3
# Si number density = 21.532131 Si / 1000 Ang^3
#
#
#
# Elastic Constant Matrix: (Units=GPa)
#
#
# Indices 1 2 3 4 5 6 
#
# 1 109.0480 23.8507 41.8914 0.0000 -4.5370 0.0000
# 2 23.8507 105.6347 59.7945 0.0000 -8.1860 0.0000
# 3 41.8914 59.7945 137.7798 0.0000 -4.2433 0.0000
# 4 0.0000 0.0000 0.0000 36.5017 0.0000 -3.1121
# 5 -4.5370 -8.1860 -4.2433 0.0000 32.4942 0.0000
# 6 0.0000 0.0000 0.0000 -3.1121 0.0000 24.5224
#
#
#
# Elastic Compliance Matrix: (Units=1/GPa)
#
#
# Indices 1 2 3 4 5 6 
#
# 1 0.010453 -0.000671 -0.002859 0.000000 0.000917 0.000000
# 2 -0.000671 0.012791 -0.005272 0.000000 0.002440 0.000000
# 3 -0.002859 -0.005272 0.010404 0.000000 -0.000369 0.000000
# 4 0.000000 0.000000 0.000000 0.027696 0.000000 0.003515
# 5 0.000917 0.002440 -0.000369 0.000000 0.031469 0.000000
# 6 0.000000 0.000000 0.000000 0.003515 0.000000 0.041225
#
#
# Mechanical properties :
#
#
# Convention : Reuss Voigt Hill
#
# Bulk Modulus (GPa) = 62.32523 67.05951 64.69237
# Shear Modulus (GPa) = 31.84889 33.83204 32.84047
#
# Velocity S-wave (km/s) = 3.85012 3.96818 3.90960
# Velocity P-wave (km/s) = 6.98374 7.22543 7.10561
#
# Compressibility (1/GPa) = 0.01604487
#
# Stress axis : x y z
#
# Youngs Moduli (GPa) = 95.66230 78.17700 96.11764
#
# Poissons Ratio (x) = 0.05244 0.27479
# Poissons Ratio (y) = 0.06417 0.50675
# Poissons Ratio (z) = 0.27349 0.41217
#
# Static dielectric constant tensor:
#      x y z
#    x 3.778190 0.000000 -0.013400 
#    y 0.000000 4.121500 0.000000 
#    z -0.013400 0.000000 4.034330 
# 
# 
# High freq. dielectric constant tensor:
#      x y z
#    x 1.833070 0.000000 -0.002490 
#    y 0.000000 1.859640 0.000000 
#    z -0.002490 0.000000 1.858960 
# 
# From -- ./inp_files/68377.got.cif
#   From: 2010.03.12/outbox.cif.g09.slc.cpg/sg14_35_cif.got.tgz:68377.got - 2010.03.31 13:35:05.
