data_PCOD8128354
_publ_section_title
;
Structure prediction by ZEFSAII (Michael W. Deem and Ramdas Pophale) SiO2 
 PCOD8128354
Probable space group: P 21/C
;
_chemical_formula_sum "Si O2"
_cell_formula_units_Z 16
_cell_length_a 7.782990
_cell_length_b 17.475845
_cell_length_c 9.488120
_cell_angle_alpha 90.000000
_cell_angle_beta 32.568147
_cell_angle_gamma 90.000000
_cell_volume 694.690085
_symmetry_space_group_name_H-M "P 21/C"
_symmetry_group_IT_number 14
_symmetry_cell_setting 'monoclinic'
loop_
_space_group_symop_operation_xyz
x,y,z
-x,1/2+y,1/2-z
-x,-y,-z
x,1/2-y,1/2+z
loop_
_atom_site_type_symbol
_atom_site_label
_atom_site_fract_x
_atom_site_fract_y
_atom_site_fract_z
Si Si1 0.256366 0.157959 0.036445
Si Si2 0.872252 0.483354 0.740808
Si Si3 0.342617 0.209636 0.269630
Si Si4 0.843365 0.382827 0.285626
O O1 0.186965 0.213035 0.219721
O O2 0.947001 0.105158 0.225146
O O3 0.339241 0.206142 0.838999
O O4 0.568278 0.105761 0.856146
O O5 0.000000 0.500000 0.500000
O O6 0.059841 0.535148 0.722772
O O7 0.500000 0.500000 0.000000
O O8 0.153796 0.153711 0.502895
O O9 0.700433 0.174145 0.005998
#
# Coordination Sequence:
#
# PCOD8128354 Si02
#       4
#     4   4   4   4
#     4  10  27  47  77 104 149 193 243 301 369 433
#     4  12  28  45  76 108 149 192 248 300 364 432
#     4  10  25  41  80 102 147 184 250 294 372 425
#     4  10  25  46  71 108 142 192 239 304 358 433
#
# _framework density 23.031853999999999
#
# number of rings (size 3 to 8) (size 9 to 14) (size 15 to 20)
#    1.500    0.000    0.000    2.250   10.500    3.000 
#    0.000    0.000    0.000    0.000    0.000    0.000 
#    0.000    0.000    0.000    0.000    0.000    0.000 
#
# Total GULP energy -198287.787152 kJ/mol
# GULP energy per Si atom -12392.986697 kJ/mol
# Density = 2.297943 g / cm^3
# Si number density = 23.031854 Si / 1000 Ang^3
#
#
#
# Elastic Constant Matrix: (Units=GPa)
#
#
# Indices 1 2 3 4 5 6 
#
# 1 115.5895 66.5237 45.7383 0.0000 10.0787 0.0000
# 2 66.5237 112.8168 40.6467 0.0000 8.6577 0.0000
# 3 45.7383 40.6467 150.6086 0.0000 11.8413 0.0000
# 4 0.0000 0.0000 0.0000 35.6945 0.0000 4.2502
# 5 10.0787 8.6577 11.8413 0.0000 31.1594 0.0000
# 6 0.0000 0.0000 0.0000 4.2502 0.0000 49.8045
#
#
#
# Elastic Compliance Matrix: (Units=1/GPa)
#
#
# Indices 1 2 3 4 5 6 
#
# 1 0.013803 -0.007254 -0.002104 0.000000 -0.001649 0.000000
# 2 -0.007254 0.013727 -0.001429 0.000000 -0.000925 0.000000
# 3 -0.002104 -0.001429 0.007813 0.000000 -0.001891 0.000000
# 4 0.000000 0.000000 0.000000 0.028303 0.000000 -0.002415
# 5 -0.001649 -0.000925 -0.001891 0.000000 0.033602 0.000000
# 6 0.000000 0.000000 0.000000 -0.002415 0.000000 0.020285
#
#
# Mechanical properties :
#
#
# Convention : Reuss Voigt Hill
#
# Bulk Modulus (GPa) = 72.63161 76.09249 74.36205
# Shear Modulus (GPa) = 34.79534 38.40543 36.60039
#
# Velocity S-wave (km/s) = 3.89105 4.08792 3.99070
# Velocity P-wave (km/s) = 7.19658 7.44252 7.32059
#
# Compressibility (1/GPa) = 0.01376811
#
# Stress axis : x y z
#
# Youngs Moduli (GPa) = 72.44977 72.84770 127.98919
#
# Poissons Ratio (x) = 0.52845 0.26932
# Poissons Ratio (y) = 0.52556 0.18290
# Poissons Ratio (z) = 0.15245 0.10410
#
# Static dielectric constant tensor:
#      x y z
#    x 4.110960 0.000000 0.073450 
#    y 0.000000 3.300170 0.000000 
#    z 0.073450 0.000000 4.215010 
# 
# 
# High freq. dielectric constant tensor:
#      x y z
#    x 1.905260 0.000000 0.002840 
#    y 0.000000 1.896020 0.000000 
#    z 0.002840 0.000000 1.923570 
# 
# From -- ./inp_files/9308.got.cif
#   From: 2010.03.12/outbox.cif.g09.slc.cpg/sg14_5_cif.got.tgz:9308.got - 2010.03.31 13:35:05.
