data_PCOD8128720
_publ_section_title
;
Structure prediction by ZEFSAII (Michael W. Deem and Ramdas Pophale) SiO2 
 PCOD8128720
Probable space group: P 21/C
;
_chemical_formula_sum "Si O2"
_cell_formula_units_Z 28
_cell_length_a 7.866533
_cell_length_b 24.240726
_cell_length_c 8.292989
_cell_angle_alpha 90.000000
_cell_angle_beta 51.508048
_cell_angle_gamma 90.000000
_cell_volume 1237.750093
_symmetry_space_group_name_H-M "P 21/C"
_symmetry_group_IT_number 14
_symmetry_cell_setting 'monoclinic'
loop_
_space_group_symop_operation_xyz
x,y,z
-x,1/2+y,1/2-z
-x,-y,-z
x,1/2-y,1/2+z
loop_
_atom_site_type_symbol
_atom_site_label
_atom_site_fract_x
_atom_site_fract_y
_atom_site_fract_z
Si Si1 0.135923 0.049470 0.489593
Si Si2 0.564175 0.995765 0.278435
Si Si3 0.542934 0.388284 0.329990
Si Si4 0.667134 0.181793 0.186169
Si Si5 0.233713 0.155450 0.269608
Si Si6 0.209424 0.701909 0.021110
Si Si7 0.156956 0.925565 0.068631
O O1 0.087927 0.104210 0.416144
O O2 0.081078 0.060371 0.713877
O O3 0.383294 0.034650 0.303581
O O4 0.000000 0.000000 0.500000
O O5 0.560150 0.931624 0.233746
O O6 0.500000 0.000000 0.500000
O O7 0.786893 0.024872 0.089156
O O8 0.347864 0.357016 0.533259
O O9 0.686917 0.424224 0.367525
O O10 0.683230 0.341272 0.162975
O O11 0.412221 0.169925 0.301340
O O12 0.706012 0.187851 0.351521
O O13 0.722176 0.236280 0.055838
O O14 0.826889 0.133176 0.030204
O O15 0.053260 0.202144 0.341613
#
# Coordination Sequence:
#
# PCOD8128720 Si02
#       7
#     4   4   4   4   4   4   4
#     4  12  22  40  71  98 136 186 228 282 356 417
#     4  12  24  39  66 101 142 180 228 288 347 423
#     4  11  22  42  68 101 135 182 233 283 350 420
#     4  11  26  47  71 102 141 180 240 294 350 428
#     4  11  25  46  73 102 139 188 232 290 363 409
#     4  12  26  48  71 103 139 183 239 294 351 423
#     4  11  22  42  67  97 139 180 230 290 344 416
#
# _framework density 22.621690999999998
#
# number of rings (size 3 to 8) (size 9 to 14) (size 15 to 20)
#    0.000    0.571    5.714    3.857    0.000    4.000 
#    0.000    0.000    0.000    0.000    0.000    0.000 
#    0.000    0.000    0.000    0.000    0.000    0.000 
#
# Total GULP energy -347151.535448 kJ/mol
# GULP energy per Si atom -12398.269123 kJ/mol
# Density = 2.257020 g / cm^3
# Si number density = 22.621691 Si / 1000 Ang^3
#
#
#
# Elastic Constant Matrix: (Units=GPa)
#
#
# Indices 1 2 3 4 5 6 
#
# 1 60.4416 -3.5207 18.1444 0.0000 -2.3237 0.0000
# 2 -3.5207 69.9261 19.7176 0.0000 -18.1756 0.0000
# 3 18.1444 19.7176 138.1181 0.0000 -3.1339 0.0000
# 4 0.0000 0.0000 0.0000 50.2943 0.0000 3.3730
# 5 -2.3237 -18.1756 -3.1339 0.0000 36.6349 0.0000
# 6 0.0000 0.0000 0.0000 3.3730 0.0000 20.9101
#
#
#
# Elastic Compliance Matrix: (Units=1/GPa)
#
#
# Indices 1 2 3 4 5 6 
#
# 1 0.017510 0.002106 -0.002557 0.000000 0.001937 0.000000
# 2 0.002106 0.017343 -0.002559 0.000000 0.008519 0.000000
# 3 -0.002557 -0.002559 0.007924 0.000000 -0.000754 0.000000
# 4 0.000000 0.000000 0.000000 0.020100 0.000000 -0.003242
# 5 0.001937 0.008519 -0.000754 0.000000 0.031581 0.000000
# 6 0.000000 0.000000 0.000000 -0.003242 0.000000 0.048347
#
#
# Mechanical properties :
#
#
# Convention : Reuss Voigt Hill
#
# Bulk Modulus (GPa) = 27.20609 37.46312 32.33460
# Shear Modulus (GPa) = 31.04094 37.17749 34.10921
#
# Velocity S-wave (km/s) = 3.70831 4.05834 3.88727
# Velocity P-wave (km/s) = 5.51254 6.20941 5.87132
#
# Compressibility (1/GPa) = 0.03675648
#
# Stress axis : x y z
#
# Youngs Moduli (GPa) = 57.11148 57.66092 126.19378
#
# Poissons Ratio (x) = -0.12143 0.32267
# Poissons Ratio (y) = -0.12028 0.32295
# Poissons Ratio (z) = 0.14603 0.14757
#
# Static dielectric constant tensor:
#      x y z
#    x 7.376310 0.000000 -2.397130 
#    y 0.000000 4.287520 0.000000 
#    z -2.397130 0.000000 6.017990 
# 
# 
# High freq. dielectric constant tensor:
#      x y z
#    x 1.879360 0.000000 -0.001470 
#    y 0.000000 1.900270 0.000000 
#    z -0.001470 0.000000 1.913970 
# 
# From -- ./inp_files/10356.got.cif
#   From: 2010.03.12/outbox.cif.g09.slc.cpg/sg14_6_cif.got.tgz:10356.got - 2010.03.31 13:35:05.
