data_PCOD8128682
_publ_section_title
;
Structure prediction by ZEFSAII (Michael W. Deem and Ramdas Pophale) SiO2 
 PCOD8128682
Probable space group: P 21/C
;
_chemical_formula_sum "Si O2"
_cell_formula_units_Z 32
_cell_length_a 18.733327
_cell_length_b 12.102452
_cell_length_c 11.570643
_cell_angle_alpha 90.000000
_cell_angle_beta 34.289373
_cell_angle_gamma 90.000000
_cell_volume 1477.888486
_symmetry_space_group_name_H-M "P 21/C"
_symmetry_group_IT_number 14
_symmetry_cell_setting 'monoclinic'
loop_
_space_group_symop_operation_xyz
x,y,z
-x,1/2+y,1/2-z
-x,-y,-z
x,1/2-y,1/2+z
loop_
_atom_site_type_symbol
_atom_site_label
_atom_site_fract_x
_atom_site_fract_y
_atom_site_fract_z
Si Si1 0.658157 0.227495 0.778754
Si Si2 0.818754 0.415491 0.445233
Si Si3 0.283102 0.119989 0.506543
Si Si4 0.481133 0.944231 0.179383
Si Si5 0.226970 0.380778 0.339874
Si Si6 0.557117 0.683405 0.784975
Si Si7 0.101080 0.347303 0.049448
Si Si8 0.746521 0.470785 0.283701
O O1 0.722067 0.332677 0.635455
O O2 0.566154 0.171804 0.807993
O O3 0.764358 0.142684 0.687071
O O4 0.574515 0.263094 0.000245
O O5 0.839329 0.522426 0.498336
O O6 0.763490 0.452366 0.396665
O O7 0.950689 0.353638 0.251705
O O8 0.247660 0.079366 0.681376
O O9 0.360006 0.234657 0.405964
O O10 0.154108 0.132953 0.606864
O O11 0.366797 0.030112 0.328355
O O12 0.526574 0.924158 0.249981
O O13 0.601955 0.991063 0.947188
O O14 0.364330 0.352847 0.207928
O O15 0.136730 0.274370 0.457928
O O16 0.153872 0.437425 0.888939
#
# Coordination Sequence:
#
# PCOD8128682 Si02
#       8
#     4   4   4   4   4   4   4   4
#     4  12  25  41  69 110 140 183 231 294 355 416
#     4  12  29  47  72 106 141 192 242 294 346 421
#     4  11  23  43  68 102 138 184 226 294 356 418
#     4  12  22  40  70 103 141 176 231 289 358 427
#     4  11  26  44  71 103 141 185 238 287 360 419
#     4  11  22  39  67 101 143 176 223 284 362 425
#     4  11  27  47  72  97 141 198 239 290 345 425
#     4  12  24  48  72 104 143 190 235 292 363 420
#
# _framework density 21.652512999999999
#
# number of rings (size 3 to 8) (size 9 to 14) (size 15 to 20)
#    0.000    0.500    3.750    5.250    5.250    2.500 
#    0.000    0.000    0.000    0.000    0.000    0.000 
#    0.000    0.000    0.000    0.000    0.000    0.000 
#
# Total GULP energy -397063.367531 kJ/mol
# GULP energy per Si atom -12408.230235 kJ/mol
# Density = 2.160323 g / cm^3
# Si number density = 21.652513 Si / 1000 Ang^3
#
#
#
# Elastic Constant Matrix: (Units=GPa)
#
#
# Indices 1 2 3 4 5 6 
#
# 1 63.7112 22.5231 33.5484 0.0000 12.5410 0.0000
# 2 22.5231 97.6401 28.1397 0.0000 5.2862 0.0000
# 3 33.5484 28.1397 80.8222 0.0000 2.1167 0.0000
# 4 0.0000 0.0000 0.0000 29.2860 0.0000 6.1684
# 5 12.5410 5.2862 2.1167 0.0000 41.5465 0.0000
# 6 0.0000 0.0000 0.0000 6.1684 0.0000 34.1115
#
#
#
# Elastic Compliance Matrix: (Units=1/GPa)
#
#
# Indices 1 2 3 4 5 6 
#
# 1 0.021997 -0.002409 -0.008137 0.000000 -0.005919 0.000000
# 2 -0.002409 0.011713 -0.003062 0.000000 -0.000607 0.000000
# 3 -0.008137 -0.003062 0.016765 0.000000 0.001992 0.000000
# 4 0.000000 0.000000 0.000000 0.035498 0.000000 -0.006419
# 5 -0.005919 -0.000607 0.001992 0.000000 0.025832 0.000000
# 6 0.000000 0.000000 0.000000 -0.006419 0.000000 0.030476
#
#
# Mechanical properties :
#
#
# Convention : Reuss Voigt Hill
#
# Bulk Modulus (GPa) = 42.99549 45.62176 44.30863
# Shear Modulus (GPa) = 28.20879 31.51962 29.86420
#
# Velocity S-wave (km/s) = 3.61334 3.81951 3.71785
# Velocity P-wave (km/s) = 6.10807 6.36924 6.24002
#
# Compressibility (1/GPa) = 0.02325825
#
# Stress axis : x y z
#
# Youngs Moduli (GPa) = 45.46034 85.37719 59.64981
#
# Poissons Ratio (x) = 0.20564 0.48538
# Poissons Ratio (y) = 0.10950 0.18267
# Poissons Ratio (z) = 0.36992 0.26145
#
# Static dielectric constant tensor:
#      x y z
#    x 3.828160 0.000000 0.050680 
#    y 0.000000 3.991620 0.000000 
#    z 0.050680 0.000000 3.684510 
# 
# 
# High freq. dielectric constant tensor:
#      x y z
#    x 1.859260 0.000000 0.011830 
#    y 0.000000 1.859240 0.000000 
#    z 0.011830 0.000000 1.842940 
# 
# From -- ./inp_files/35264.got.cif
#   From: 2010.03.12/outbox.cif.g09.slc.cpg/sg14_18_cif.got.tgz:35264.got - 2010.03.31 13:35:05.
