data_PCOD8128489
_publ_section_title
;
Structure prediction by ZEFSAII (Michael W. Deem and Ramdas Pophale) SiO2 
 PCOD8128489
Probable space group: P 21/C
;
_chemical_formula_sum "Si O2"
_cell_formula_units_Z 24
_cell_length_a 18.323789
_cell_length_b 6.322075
_cell_length_c 22.395527
_cell_angle_alpha 90.000000
_cell_angle_beta 154.277034
_cell_angle_gamma 90.000000
_cell_volume 1126.020211
_symmetry_space_group_name_H-M "P 21/C"
_symmetry_group_IT_number 14
_symmetry_cell_setting 'monoclinic'
loop_
_space_group_symop_operation_xyz
x,y,z
-x,1/2+y,1/2-z
-x,-y,-z
x,1/2-y,1/2+z
loop_
_atom_site_type_symbol
_atom_site_label
_atom_site_fract_x
_atom_site_fract_y
_atom_site_fract_z
Si Si1 0.348351 0.956698 0.695956
Si Si2 0.711157 0.455874 0.022184
Si Si3 0.894155 0.796657 0.560165
Si Si4 0.690232 0.100878 0.912517
Si Si5 0.264366 0.823747 0.851159
Si Si6 0.488759 0.173994 0.070874
O O1 0.270093 0.730447 0.618662
O O2 0.388392 0.966964 0.796125
O O3 0.217751 0.138059 0.579927
O O4 0.519017 0.966080 0.781708
O O5 0.858164 0.569780 0.093653
O O6 0.773927 0.367173 0.131604
O O7 0.650641 0.256401 0.939041
O O8 0.565107 0.625982 0.928758
O O9 0.850618 0.551456 0.541671
O O10 0.087258 0.848761 0.686434
O O11 0.406625 0.750842 0.909364
O O12 0.326884 0.037607 0.930430
#
# Coordination Sequence:
#
# PCOD8128489 Si02
#       6
#     4   4   4   4   4   4
#     4  11  20  38  67  92 126 171 215 269 321 385
#     4  11  22  38  67  93 127 169 214 270 315 387
#     4  11  25  38  66 100 129 163 224 272 323 377
#     4  11  20  38  65  98 122 165 221 268 320 376
#     4  11  26  43  64  98 133 174 212 270 327 395
#     4  11  24  45  67  92 134 176 218 256 337 395
#
# _framework density 21.314005000000002
#
# number of rings (size 3 to 8) (size 9 to 14) (size 15 to 20)
#    0.000    1.000    5.000    1.500    4.667    2.000 
#    0.000    0.833    0.000    0.000    0.000    0.000 
#    0.000    0.000    0.000    0.000    0.000    0.000 
#
# Total GULP energy -297503.921424 kJ/mol
# GULP energy per Si atom -12395.996726 kJ/mol
# Density = 2.126549 g / cm^3
# Si number density = 21.314005 Si / 1000 Ang^3
#
#
#
# Elastic Constant Matrix: (Units=GPa)
#
#
# Indices 1 2 3 4 5 6 
#
# 1 42.0638 26.8178 31.9414 0.0000 2.9502 0.0000
# 2 26.8178 101.4247 42.6106 0.0000 5.8690 0.0000
# 3 31.9414 42.6106 124.9973 0.0000 5.5409 0.0000
# 4 0.0000 0.0000 0.0000 29.0160 0.0000 -9.1654
# 5 2.9502 5.8690 5.5409 0.0000 31.8150 0.0000
# 6 0.0000 0.0000 0.0000 -9.1654 0.0000 26.6257
#
#
#
# Elastic Compliance Matrix: (Units=1/GPa)
#
#
# Indices 1 2 3 4 5 6 
#
# 1 0.032299 -0.005883 -0.006211 0.000000 -0.000828 0.000000
# 2 -0.005883 0.012646 -0.002750 0.000000 -0.001308 0.000000
# 3 -0.006211 -0.002750 0.010558 0.000000 -0.000756 0.000000
# 4 0.000000 0.000000 0.000000 0.038668 0.000000 0.013311
# 5 -0.000828 -0.001308 -0.000756 0.000000 0.031881 0.000000
# 6 0.000000 0.000000 0.000000 0.013311 0.000000 0.042140
#
#
# Mechanical properties :
#
#
# Convention : Reuss Voigt Hill
#
# Bulk Modulus (GPa) = 38.73671 52.35837 45.54754
# Shear Modulus (GPa) = 24.21488 28.63242 26.42365
#
# Velocity S-wave (km/s) = 3.37427 3.66917 3.52480
# Velocity P-wave (km/s) = 5.77881 6.52449 6.16294
#
# Compressibility (1/GPa) = 0.02581531
#
# Stress axis : x y z
#
# Youngs Moduli (GPa) = 30.96109 79.07736 94.71273
#
# Poissons Ratio (x) = 0.46518 0.58830
# Poissons Ratio (y) = 0.18213 0.26043
# Poissons Ratio (z) = 0.19231 0.21743
#
# Static dielectric constant tensor:
#      x y z
#    x 3.591950 0.000000 -0.199080 
#    y 0.000000 3.960060 0.000000 
#    z -0.199080 0.000000 3.697410 
# 
# 
# High freq. dielectric constant tensor:
#      x y z
#    x 1.812470 0.000000 -0.017350 
#    y 0.000000 1.841850 0.000000 
#    z -0.017350 0.000000 1.828320 
# 
# From -- ./inp_files/78086.got.cif
#   From: 2010.03.12/outbox.cif.g09.slc.cpg/sg14_40_cif.got.tgz:78086.got - 2010.03.31 13:35:05.
