data_PCOD8128994
_publ_section_title
;
Structure prediction by ZEFSAII (Michael W. Deem and Ramdas Pophale) SiO2 
 PCOD8128994
Probable space group: P 21/C
;
_chemical_formula_sum "Si O2"
_cell_formula_units_Z 32
_cell_length_a 11.088228
_cell_length_b 11.394862
_cell_length_c 12.020620
_cell_angle_alpha 90.000000
_cell_angle_beta 77.594308
_cell_angle_gamma 90.000000
_cell_volume 1483.328901
_symmetry_space_group_name_H-M "P 21/C"
_symmetry_group_IT_number 14
_symmetry_cell_setting 'monoclinic'
loop_
_space_group_symop_operation_xyz
x,y,z
-x,1/2+y,1/2-z
-x,-y,-z
x,1/2-y,1/2+z
loop_
_atom_site_type_symbol
_atom_site_label
_atom_site_fract_x
_atom_site_fract_y
_atom_site_fract_z
Si Si1 0.664107 0.076849 0.162345
Si Si2 0.744529 0.927263 0.945775
Si Si3 0.079974 0.880797 0.161063
Si Si4 0.755068 0.167755 0.673317
Si Si5 0.842353 0.523314 0.811083
Si Si6 0.781578 0.831251 0.522889
Si Si7 0.946817 0.155938 0.454183
Si Si8 0.383279 0.060462 0.260841
O O1 0.701496 0.211596 0.137201
O O2 0.528819 0.076010 0.241260
O O3 0.757178 0.013590 0.226663
O O4 0.665999 0.010116 0.044060
O O5 0.663898 0.903101 0.852060
O O6 0.872584 0.992164 0.888722
O O7 0.780404 0.806368 0.997080
O O8 0.180206 0.818326 0.220471
O O9 0.064912 0.795938 0.058566
O O10 0.947753 0.889244 0.246136
O O11 0.856015 0.114065 0.569512
O O12 0.644816 0.074700 0.705568
O O13 0.910222 0.410116 0.848556
O O14 0.757108 0.593482 0.916100
O O15 0.677977 0.854439 0.635802
O O16 0.913866 0.875775 0.541144
#
# Coordination Sequence:
#
# PCOD8128994 Si02
#       8
#     4   4   4   4   4   4   4   4
#     4  12  27  47  73 103 141 188 243 283 346 428
#     4  11  27  46  72 105 138 188 237 295 353 412
#     4  11  24  42  71 102 142 175 236 291 360 413
#     4  11  23  46  71  98 137 185 231 295 347 410
#     4  12  26  42  69 107 139 187 231 289 353 427
#     4  12  27  44  72 105 146 183 229 299 357 418
#     4  12  22  44  69 101 139 179 233 292 358 421
#     4  11  28  50  70 101 141 194 235 290 351 411
#
# _framework density 21.573098000000002
#
# number of rings (size 3 to 8) (size 9 to 14) (size 15 to 20)
#    0.000    0.500    5.000    3.000    8.750    1.500 
#    2.250    0.000    0.000    0.000    0.000    0.000 
#    0.000    0.000    0.000    0.000    0.000    0.000 
#
# Total GULP energy -397031.868758 kJ/mol
# GULP energy per Si atom -12407.245899 kJ/mol
# Density = 2.152400 g / cm^3
# Si number density = 21.573098 Si / 1000 Ang^3
#
#
#
# Elastic Constant Matrix: (Units=GPa)
#
#
# Indices 1 2 3 4 5 6 
#
# 1 72.5869 29.3920 24.9924 0.0000 -21.9372 0.0000
# 2 29.3920 98.8895 41.1712 0.0000 2.3348 0.0000
# 3 24.9924 41.1712 111.3467 0.0000 -13.6909 0.0000
# 4 0.0000 0.0000 0.0000 45.9334 0.0000 -0.5091
# 5 -21.9372 2.3348 -13.6909 0.0000 34.3297 0.0000
# 6 0.0000 0.0000 0.0000 -0.5091 0.0000 23.4040
#
#
#
# Elastic Compliance Matrix: (Units=1/GPa)
#
#
# Indices 1 2 3 4 5 6 
#
# 1 0.020492 -0.006105 -0.000716 0.000000 0.013224 0.000000
# 2 -0.006105 0.014015 -0.004636 0.000000 -0.006703 0.000000
# 3 -0.000716 -0.004636 0.011397 0.000000 0.004403 0.000000
# 4 0.000000 0.000000 0.000000 0.021776 0.000000 0.000474
# 5 0.013224 -0.006703 0.004403 0.000000 0.039791 0.000000
# 6 0.000000 0.000000 0.000000 0.000474 0.000000 0.042738
#
#
# Mechanical properties :
#
#
# Convention : Reuss Voigt Hill
#
# Bulk Modulus (GPa) = 43.49688 52.65935 48.07811
# Shear Modulus (GPa) = 27.65686 33.21793 30.43740
#
# Velocity S-wave (km/s) = 3.58440 3.92827 3.76026
# Velocity P-wave (km/s) = 6.11039 6.71102 6.41773
#
# Compressibility (1/GPa) = 0.02299016
#
# Stress axis : x y z
#
# Youngs Moduli (GPa) = 48.80041 71.35133 87.73961
#
# Poissons Ratio (x) = 0.43557 0.06284
# Poissons Ratio (y) = 0.29790 0.40678
# Poissons Ratio (z) = 0.03495 0.33080
#
# Static dielectric constant tensor:
#      x y z
#    x 3.661660 0.000000 0.013760 
#    y 0.000000 3.872850 0.000000 
#    z 0.013760 0.000000 4.002820 
# 
# 
# High freq. dielectric constant tensor:
#      x y z
#    x 1.832330 0.000000 0.000240 
#    y 0.000000 1.860480 0.000000 
#    z 0.000240 0.000000 1.860340 
# 
# From -- ./inp_files/29347.got.cif
#   From: 2010.03.12/outbox.cif.g09.slc.cpg/sg14_15_cif.got.tgz:29347.got - 2010.03.31 13:35:05.
