data_PCOD8128821
_publ_section_title
;
Structure prediction by ZEFSAII (Michael W. Deem and Ramdas Pophale) SiO2 
 PCOD8128821
Probable space group: P 21/C
;
_chemical_formula_sum "Si O2"
_cell_formula_units_Z 32
_cell_length_a 29.619305
_cell_length_b 5.212607
_cell_length_c 8.999736
_cell_angle_alpha 90.000000
_cell_angle_beta 77.224027
_cell_angle_gamma 90.000000
_cell_volume 1355.102327
_symmetry_space_group_name_H-M "P 21/C"
_symmetry_group_IT_number 14
_symmetry_cell_setting 'monoclinic'
loop_
_space_group_symop_operation_xyz
x,y,z
-x,1/2+y,1/2-z
-x,-y,-z
x,1/2-y,1/2+z
loop_
_atom_site_type_symbol
_atom_site_label
_atom_site_fract_x
_atom_site_fract_y
_atom_site_fract_z
Si Si1 0.514903 0.912717 0.654269
Si Si2 0.876248 0.528964 0.935812
Si Si3 0.738800 0.476219 0.647327
Si Si4 0.303696 0.358052 0.605194
Si Si5 0.983160 0.978388 0.344048
Si Si6 0.645364 0.235355 0.766660
Si Si7 0.156716 0.536330 0.374739
Si Si8 0.383388 0.444599 0.967577
O O1 0.511993 0.161328 0.765770
O O2 0.568160 0.812132 0.607701
O O3 0.500000 0.000000 0.500000
O O4 0.929694 0.599162 0.877624
O O5 0.853486 0.490618 0.791792
O O6 0.852077 0.766787 0.036513
O O7 0.873117 0.267689 0.033890
O O8 0.728357 0.735488 0.745456
O O9 0.732353 0.494661 0.473952
O O10 0.701354 0.271765 0.728788
O O11 0.790129 0.380568 0.643618
O O12 0.351870 0.482934 0.633892
O O13 0.333521 0.184045 0.466584
O O14 0.010570 0.750087 0.242680
O O15 0.000000 0.000000 0.500000
O O16 0.620444 0.203800 0.628555
O O17 0.616937 0.468685 0.859934
#
# Coordination Sequence:
#
# PCOD8128821 Si02
#       8
#     4   4   4   4   4   4   4   4
#     4  12  29  49  76 106 143 183 230 280 353 431
#     4  12  26  47  68 107 137 193 233 286 361 416
#     4  11  25  40  65  95 129 177 223 273 332 393
#     4  11  23  40  63  94 126 164 225 269 326 387
#     4  12  24  44  74 103 140 180 237 302 351 416
#     4  11  23  40  64  95 125 167 219 273 324 389
#     4  12  27  44  72  96 151 184 234 286 343 431
#     4  11  25  42  70  94 132 170 217 283 332 393
#
# _framework density 23.614453000000001
#
# number of rings (size 3 to 8) (size 9 to 14) (size 15 to 20)
#    0.000    0.500    2.500    5.250    7.000    0.000 
#    0.000    0.000    0.000    0.000    0.000    0.000 
#    0.000    0.000    0.000    0.000    0.000    0.000 
#
# Total GULP energy -396492.333850 kJ/mol
# GULP energy per Si atom -12390.385433 kJ/mol
# Density = 2.356071 g / cm^3
# Si number density = 23.614453 Si / 1000 Ang^3
#
#
#
# Elastic Constant Matrix: (Units=GPa)
#
#
# Indices 1 2 3 4 5 6 
#
# 1 76.9835 -11.4414 9.0212 0.0000 -13.5846 0.0000
# 2 -11.4414 81.8958 20.0097 0.0000 1.4927 0.0000
# 3 9.0212 20.0097 92.8668 0.0000 13.0152 0.0000
# 4 0.0000 0.0000 0.0000 31.6526 0.0000 1.8386
# 5 -13.5846 1.4927 13.0152 0.0000 42.4560 0.0000
# 6 0.0000 0.0000 0.0000 1.8386 0.0000 31.5562
#
#
#
# Elastic Compliance Matrix: (Units=1/GPa)
#
#
# Indices 1 2 3 4 5 6 
#
# 1 0.014662 0.002622 -0.002752 0.000000 0.005443 0.000000
# 2 0.002622 0.013365 -0.003329 0.000000 0.001390 0.000000
# 3 -0.002752 -0.003329 0.012392 0.000000 -0.004562 0.000000
# 4 0.000000 0.000000 0.000000 0.031700 0.000000 -0.001847
# 5 0.005443 0.001390 -0.004562 0.000000 0.026645 0.000000
# 6 0.000000 0.000000 0.000000 -0.001847 0.000000 0.031797
#
#
# Mechanical properties :
#
#
# Convention : Reuss Voigt Hill
#
# Bulk Modulus (GPa) = 29.85026 31.88057 30.86542
# Shear Modulus (GPa) = 33.63651 36.74340 35.18995
#
# Velocity S-wave (km/s) = 3.77822 3.94886 3.86448
# Velocity P-wave (km/s) = 5.63040 5.85842 5.74554
#
# Compressibility (1/GPa) = 0.03350054
#
# Stress axis : x y z
#
# Youngs Moduli (GPa) = 68.20164 74.82236 80.69603
#
# Poissons Ratio (x) = -0.19616 0.22208
# Poissons Ratio (y) = -0.17880 0.26865
# Poissons Ratio (z) = 0.18769 0.24909
#
# Static dielectric constant tensor:
#      x y z
#    x 4.012820 0.000000 0.007280 
#    y 0.000000 4.299000 0.000000 
#    z 0.007280 0.000000 4.406620 
# 
# 
# High freq. dielectric constant tensor:
#      x y z
#    x 1.934600 0.000000 0.004240 
#    y 0.000000 1.939740 0.000000 
#    z 0.004240 0.000000 1.958370 
# 
# From -- ./inp_files/19890.got.cif
#   From: 2010.03.12/outbox.cif.g09.slc.cpg/sg14_10_cif.got.tgz:19890.got - 2010.03.31 13:35:05.
