data_PCOD8128437
_publ_section_title
;
Structure prediction by ZEFSAII (Michael W. Deem and Ramdas Pophale) SiO2 
 PCOD8128437
Probable space group: P 21/C
;
_chemical_formula_sum "Si O2"
_cell_formula_units_Z 12
_cell_length_a 7.600358
_cell_length_b 4.740731
_cell_length_c 10.782152
_cell_angle_alpha 90.000000
_cell_angle_beta 90.000097
_cell_angle_gamma 90.000000
_cell_volume 388.494444
_symmetry_space_group_name_H-M "P 21/C"
_symmetry_group_IT_number 14
_symmetry_cell_setting 'monoclinic'
loop_
_space_group_symop_operation_xyz
x,y,z
-x,1/2+y,1/2-z
-x,-y,-z
x,1/2-y,1/2+z
loop_
_atom_site_type_symbol
_atom_site_label
_atom_site_fract_x
_atom_site_fract_y
_atom_site_fract_z
Si Si1 0.250000 0.250001 0.477015
Si Si2 0.539080 0.156323 0.668623
Si Si3 0.039080 0.843675 0.831377
O O1 0.276770 0.974374 0.388048
O O2 0.223229 0.525634 0.388050
O O3 0.077400 0.206233 0.559895
O O4 0.422603 0.293766 0.559894
O O5 0.431194 0.887290 0.723882
O O6 0.931197 0.112710 0.776117
#
# Coordination Sequence:
#
# PCOD8128437 Si02
#       3
#     4   4   4
#     4  10  26  48  76 112 152 200 254 314 380 454
#     4  11  26  47  78 112 154 199 254 313 382 454
#     4  11  26  47  78 112 154 199 254 313 382 454
#
# _framework density 30.888473999999999
#
# number of rings (size 3 to 8) (size 9 to 14) (size 15 to 20)
#    0.000    1.333    0.000    2.000    0.000   26.667 
#    0.000    0.000    0.000    0.000    0.000    0.000 
#    0.000    0.000    0.000    0.000    0.000    0.000 
#
# Total GULP energy -148829.603949 kJ/mol
# GULP energy per Si atom -12402.466996 kJ/mol
# Density = 3.081817 g / cm^3
# Si number density = 30.888474 Si / 1000 Ang^3
#
#
#
# Elastic Constant Matrix: (Units=GPa)
#
#
# Indices 1 2 3 4 5 6 
#
# 1 182.5969 62.4552 78.8129 0.0000 4.0690 0.0000
# 2 62.4552 243.2867 103.9329 0.0000 3.5390 0.0000
# 3 78.8129 103.9329 181.7576 0.0000 -4.1427 0.0000
# 4 0.0000 0.0000 0.0000 65.2687 0.0000 1.2010
# 5 4.0690 3.5390 -4.1427 0.0000 75.0253 0.0000
# 6 0.0000 0.0000 0.0000 1.2010 0.0000 51.2014
#
#
#
# Elastic Compliance Matrix: (Units=1/GPa)
#
#
# Indices 1 2 3 4 5 6 
#
# 1 0.006831 -0.000630 -0.002612 0.000000 -0.000485 0.000000
# 2 -0.000630 0.005511 -0.002887 0.000000 -0.000385 0.000000
# 3 -0.002612 -0.002887 0.008302 0.000000 0.000736 0.000000
# 4 0.000000 0.000000 0.000000 0.015328 0.000000 -0.000360
# 5 -0.000485 -0.000385 0.000736 0.000000 0.013414 0.000000
# 6 0.000000 0.000000 0.000000 -0.000360 0.000000 0.019539
#
#
# Mechanical properties :
#
#
# Convention : Reuss Voigt Hill
#
# Bulk Modulus (GPa) = 119.26697 122.00480 120.63588
# Shear Modulus (GPa) = 59.53891 62.46176 61.00034
#
# Velocity S-wave (km/s) = 4.39514 4.50173 4.44876
# Velocity P-wave (km/s) = 8.02822 8.16119 8.09498
#
# Compressibility (1/GPa) = 0.00838455
#
# Stress axis : x y z
#
# Youngs Moduli (GPa) = 146.40117 181.45362 120.45148
#
# Poissons Ratio (x) = 0.11439 0.31467
# Poissons Ratio (y) = 0.09229 0.34771
# Poissons Ratio (z) = 0.38246 0.52381
#
# Static dielectric constant tensor:
#      x y z
#    x 5.446960 0.000000 0.060350 
#    y 0.000000 6.128430 0.000000 
#    z 0.060350 0.000000 6.154060 
# 
# 
# High freq. dielectric constant tensor:
#      x y z
#    x 2.274340 0.000000 0.000620 
#    y 0.000000 2.312650 0.000000 
#    z 0.000620 0.000000 2.281650 
# 
# From -- ./inp_files/22408.got.cif
#   From: 2010.03.12/outbox.cif.g09.slc.cpg/sg14_12_cif.got.tgz:22408.got - 2010.03.31 13:35:05.
