data_PCOD8128160
_publ_section_title
;
Structure prediction by ZEFSAII (Michael W. Deem and Ramdas Pophale) SiO2 
 PCOD8128160
Probable space group: P 21/C
;
_chemical_formula_sum "Si O2"
_cell_formula_units_Z 12
_cell_length_a 6.060913
_cell_length_b 6.562671
_cell_length_c 13.147588
_cell_angle_alpha 90.000000
_cell_angle_beta 61.675569
_cell_angle_gamma 90.000000
_cell_volume 460.344753
_symmetry_space_group_name_H-M "P 21/C"
_symmetry_group_IT_number 14
_symmetry_cell_setting 'monoclinic'
loop_
_space_group_symop_operation_xyz
x,y,z
-x,1/2+y,1/2-z
-x,-y,-z
x,1/2-y,1/2+z
loop_
_atom_site_type_symbol
_atom_site_label
_atom_site_fract_x
_atom_site_fract_y
_atom_site_fract_z
Si Si1 0.240446 0.472681 0.329729
Si Si2 0.527950 0.663963 0.091424
Si Si3 0.148010 0.690144 0.005713
O O1 0.348288 0.512913 0.194894
O O2 0.457051 0.380716 0.356019
O O3 0.143138 0.678967 0.403427
O O4 0.027586 0.295577 0.369335
O O5 0.425573 0.691904 0.999722
O O6 0.820754 0.562911 0.026355
#
# Coordination Sequence:
#
# PCOD8128160 Si02
#       3
#     4   4   4
#     4  11  22  42  66  93 127 165 209 259 316 374
#     4  11  22  42  66  93 127 165 209 259 316 374
#     4  10  24  42  62  94 126 166 210 258 312 376
#
# _framework density 26.067419000000001
#
# number of rings (size 3 to 8) (size 9 to 14) (size 15 to 20)
#    0.000    1.333    3.333    2.000    0.000    2.667 
#   24.000    0.000    0.000    0.000    0.000    0.000 
#    0.000    0.000    0.000    0.000    0.000    0.000 
#
# Total GULP energy -148697.168259 kJ/mol
# GULP energy per Si atom -12391.430688 kJ/mol
# Density = 2.600809 g / cm^3
# Si number density = 26.067419 Si / 1000 Ang^3
#
#
#
# Elastic Constant Matrix: (Units=GPa)
#
#
# Indices 1 2 3 4 5 6 
#
# 1 86.5910 48.0063 35.7597 0.0000 -8.7492 0.0000
# 2 48.0063 139.0201 34.9140 0.0000 -6.1177 0.0000
# 3 35.7597 34.9140 117.3470 0.0000 -13.6676 0.0000
# 4 0.0000 0.0000 0.0000 45.7770 0.0000 -16.4284
# 5 -8.7492 -6.1177 -13.6676 0.0000 38.7219 0.0000
# 6 0.0000 0.0000 0.0000 -16.4284 0.0000 43.6906
#
#
#
# Elastic Compliance Matrix: (Units=1/GPa)
#
#
# Indices 1 2 3 4 5 6 
#
# 1 0.015525 -0.004483 -0.003203 0.000000 0.001669 0.000000
# 2 -0.004483 0.009076 -0.001340 0.000000 -0.000052 0.000000
# 3 -0.003203 -0.001340 0.010207 0.000000 0.002667 0.000000
# 4 0.000000 0.000000 0.000000 0.025253 0.000000 0.009495
# 5 0.001669 -0.000052 0.002667 0.000000 0.027136 0.000000
# 6 0.000000 0.000000 0.000000 0.009495 0.000000 0.026459
#
#
# Mechanical properties :
#
#
# Convention : Reuss Voigt Hill
#
# Bulk Modulus (GPa) = 59.68132 64.47977 62.08055
# Shear Modulus (GPa) = 36.41843 40.58978 38.50411
#
# Velocity S-wave (km/s) = 3.74182 3.95030 3.84747
# Velocity P-wave (km/s) = 6.45081 6.75248 6.60337
#
# Compressibility (1/GPa) = 0.01675566
#
# Stress axis : x y z
#
# Youngs Moduli (GPa) = 64.41028 110.18468 97.97080
#
# Poissons Ratio (x) = 0.49400 0.31378
# Poissons Ratio (y) = 0.28878 0.13129
# Poissons Ratio (z) = 0.20629 0.14766
#
# Static dielectric constant tensor:
#      x y z
#    x 5.425790 0.000000 -0.436500 
#    y 0.000000 5.044130 0.000000 
#    z -0.436500 0.000000 4.361180 
# 
# 
# High freq. dielectric constant tensor:
#      x y z
#    x 2.079740 0.000000 -0.017430 
#    y 0.000000 2.074710 0.000000 
#    z -0.017430 0.000000 2.028740 
# 
# From -- ./inp_files/20118.got.cif
#   From: 2010.03.12/outbox.cif.g09.slc.cpg/sg14_11_cif.got.tgz:20118.got - 2010.03.31 13:35:05.
