data_PCOD8128748
_publ_section_title
;
Structure prediction by ZEFSAII (Michael W. Deem and Ramdas Pophale) SiO2 
 PCOD8128748
Probable space group: P 21/C
;
_chemical_formula_sum "Si O2"
_cell_formula_units_Z 32
_cell_length_a 11.524527
_cell_length_b 14.230209
_cell_length_c 9.495242
_cell_angle_alpha 90.000000
_cell_angle_beta 95.959174
_cell_angle_gamma 90.000000
_cell_volume 1548.770931
_symmetry_space_group_name_H-M "P 21/C"
_symmetry_group_IT_number 14
_symmetry_cell_setting 'monoclinic'
loop_
_space_group_symop_operation_xyz
x,y,z
-x,1/2+y,1/2-z
-x,-y,-z
x,1/2-y,1/2+z
loop_
_atom_site_type_symbol
_atom_site_label
_atom_site_fract_x
_atom_site_fract_y
_atom_site_fract_z
Si Si1 0.974953 0.829160 0.804323
Si Si2 0.517569 0.911158 0.101595
Si Si3 0.421168 0.941935 0.386256
Si Si4 0.753013 0.965466 0.082246
Si Si5 0.650846 0.260442 0.979232
Si Si6 0.187754 0.994020 0.219551
Si Si7 0.017759 0.354298 0.365132
Si Si8 0.230180 0.653205 0.278682
O O1 0.940361 0.728875 0.733091
O O2 0.092435 0.857985 0.736971
O O3 0.878305 0.908091 0.757461
O O4 0.994263 0.819857 0.974892
O O5 0.492446 0.945350 0.253353
O O6 0.655780 0.885237 0.099891
O O7 0.441250 0.821570 0.056877
O O8 0.500000 0.000000 0.000000
O O9 0.419616 0.837214 0.443918
O O10 0.287249 0.979228 0.350851
O O11 0.500000 0.000000 0.500000
O O12 0.883164 0.932956 0.130529
O O13 0.718073 0.051005 0.181381
O O14 0.745806 0.002178 0.921015
O O15 0.703685 0.302089 0.843989
O O16 0.756698 0.222084 0.086190
O O17 0.100951 0.903866 0.204229
#
# Coordination Sequence:
#
# PCOD8128748 Si02
#       8
#     4   4   4   4   4   4   4   4
#     4  11  23  40  73 102 142 186 228 287 351 422
#     4  12  24  45  72  98 133 187 231 282 359 414
#     4  12  27  46  68 101 140 180 237 297 339 409
#     4  11  22  43  74  96 137 189 227 281 349 429
#     4  12  26  41  69 101 136 178 232 289 336 416
#     4  11  22  47  72 102 141 188 231 287 356 418
#     4  11  23  45  67 108 142 181 235 284 352 418
#     4  12  21  42  69 103 133 182 229 280 343 410
#
# _framework density 20.661546000000001
#
# number of rings (size 3 to 8) (size 9 to 14) (size 15 to 20)
#    0.000    0.500    6.250    3.000    0.000    1.000 
#    9.000    1.250    0.000    0.000    0.000    0.000 
#    0.000    0.000    0.000    0.000    0.000    0.000 
#
# Total GULP energy -396740.860336 kJ/mol
# GULP energy per Si atom -12398.151886 kJ/mol
# Density = 2.061452 g / cm^3
# Si number density = 20.661546 Si / 1000 Ang^3
#
#
#
# Elastic Constant Matrix: (Units=GPa)
#
#
# Indices 1 2 3 4 5 6 
#
# 1 128.0239 41.1164 62.7044 0.0000 -3.3871 0.0000
# 2 41.1164 112.2249 73.5132 0.0000 -10.1651 0.0000
# 3 62.7044 73.5132 120.2815 0.0000 -0.9634 0.0000
# 4 0.0000 0.0000 0.0000 38.5377 0.0000 -8.5058
# 5 -3.3871 -10.1651 -0.9634 0.0000 36.7396 0.0000
# 6 0.0000 0.0000 0.0000 -8.5058 0.0000 35.6610
#
#
#
# Elastic Compliance Matrix: (Units=1/GPa)
#
#
# Indices 1 2 3 4 5 6 
#
# 1 0.010521 -0.000331 -0.005277 0.000000 0.000740 0.000000
# 2 -0.000331 0.015443 -0.009234 0.000000 0.004000 0.000000
# 3 -0.005277 -0.009234 0.016687 0.000000 -0.002604 0.000000
# 4 0.000000 0.000000 0.000000 0.027391 0.000000 0.006533
# 5 0.000740 0.004000 -0.002604 0.000000 0.028325 0.000000
# 6 0.000000 0.000000 0.000000 0.006533 0.000000 0.029600
#
#
# Mechanical properties :
#
#
# Convention : Reuss Voigt Hill
#
# Bulk Modulus (GPa) = 77.11009 79.46647 78.28828
# Shear Modulus (GPa) = 30.86938 34.40075 32.63506
#
# Velocity S-wave (km/s) = 3.86949 4.08482 3.97861
# Velocity P-wave (km/s) = 7.57400 7.79694 7.68628
#
# Compressibility (1/GPa) = 0.01296847
#
# Stress axis : x y z
#
# Youngs Moduli (GPa) = 95.04433 64.75501 59.92690
#
# Poissons Ratio (x) = 0.02146 0.31620
# Poissons Ratio (y) = 0.03149 0.55334
# Poissons Ratio (z) = 0.50150 0.59792
#
# Static dielectric constant tensor:
#      x y z
#    x 4.192290 0.000000 -0.161160 
#    y 0.000000 4.353720 0.000000 
#    z -0.161160 0.000000 3.965490 
# 
# 
# High freq. dielectric constant tensor:
#      x y z
#    x 1.824040 0.000000 -0.002290 
#    y 0.000000 1.811040 0.000000 
#    z -0.002290 0.000000 1.805690 
# 
# From -- ./inp_files/13106.got.cif
#   From: 2010.03.12/outbox.cif.g09.slc.cpg/sg14_7_cif.got.tgz:13106.got - 2010.03.31 13:35:05.
