data_PCOD8128936
_publ_section_title
;
Structure prediction by ZEFSAII (Michael W. Deem and Ramdas Pophale) SiO2 
 PCOD8128936
Probable space group: P 21/C
;
_chemical_formula_sum "Si O2"
_cell_formula_units_Z 28
_cell_length_a 8.570999
_cell_length_b 11.600638
_cell_length_c 15.974203
_cell_angle_alpha 90.000000
_cell_angle_beta 51.476231
_cell_angle_gamma 90.000000
_cell_volume 1242.606202
_symmetry_space_group_name_H-M "P 21/C"
_symmetry_group_IT_number 14
_symmetry_cell_setting 'monoclinic'
loop_
_space_group_symop_operation_xyz
x,y,z
-x,1/2+y,1/2-z
-x,-y,-z
x,1/2-y,1/2+z
loop_
_atom_site_type_symbol
_atom_site_label
_atom_site_fract_x
_atom_site_fract_y
_atom_site_fract_z
Si Si1 0.058671 0.540398 0.071417
Si Si2 0.254269 0.088136 0.895515
Si Si3 0.634029 0.230451 0.548201
Si Si4 0.960262 0.331146 0.207456
Si Si5 0.783818 0.734978 0.232397
Si Si6 0.423477 0.892289 0.079561
Si Si7 0.867330 0.146687 0.102551
O O1 0.089985 0.423254 0.113097
O O2 0.872227 0.612510 0.172570
O O3 0.276360 0.602558 0.997945
O O4 0.000000 0.500000 0.000000
O O5 0.174717 0.176653 0.854601
O O6 0.455588 0.124471 0.875023
O O7 0.281759 0.963502 0.840875
O O8 0.087681 0.090218 0.024731
O O9 0.453117 0.251726 0.673107
O O10 0.567238 0.279206 0.480962
O O11 0.820799 0.293556 0.529031
O O12 0.803458 0.404625 0.314586
O O13 0.850298 0.236802 0.184632
O O14 0.108394 0.263391 0.217416
O O15 0.500000 0.000000 0.000000
#
# Coordination Sequence:
#
# PCOD8128936 Si02
#       7
#     4   4   4   4   4   4   4
#     4  12  26  48  75 105 150 193 243 304 368 439
#     4  11  24  42  73 105 143 187 241 296 362 433
#     4  12  24  47  70 109 148 184 245 295 369 440
#     4  12  26  46  72 104 145 193 244 302 363 435
#     4  12  27  45  74 110 144 192 241 303 372 436
#     4  12  24  44  71 104 141 191 242 299 361 434
#     4  11  23  44  70 105 141 187 239 302 353 436
#
# _framework density 22.533284999999999
#
# number of rings (size 3 to 8) (size 9 to 14) (size 15 to 20)
#    0.000    0.286    5.714    2.571    4.000    0.571 
#    0.000    1.429    0.000    0.000    0.000    0.000 
#    0.000    0.000    0.000    0.000    0.000    0.000 
#
# Total GULP energy -347026.623122 kJ/mol
# GULP energy per Si atom -12393.807969 kJ/mol
# Density = 2.248200 g / cm^3
# Si number density = 22.533285 Si / 1000 Ang^3
#
#
#
# Elastic Constant Matrix: (Units=GPa)
#
#
# Indices 1 2 3 4 5 6 
#
# 1 100.1775 51.6868 36.6507 0.0000 12.0011 0.0000
# 2 51.6868 130.7429 50.2072 0.0000 21.4718 0.0000
# 3 36.6507 50.2072 104.4082 0.0000 -4.9073 0.0000
# 4 0.0000 0.0000 0.0000 44.1072 0.0000 7.7176
# 5 12.0011 21.4718 -4.9073 0.0000 49.8861 0.0000
# 6 0.0000 0.0000 0.0000 7.7176 0.0000 40.1946
#
#
#
# Elastic Compliance Matrix: (Units=1/GPa)
#
#
# Indices 1 2 3 4 5 6 
#
# 1 0.013230 -0.003820 -0.002893 0.000000 -0.001823 0.000000
# 2 -0.003820 0.011611 -0.004455 0.000000 -0.004517 0.000000
# 3 -0.002893 -0.004455 0.012918 0.000000 0.003884 0.000000
# 4 0.000000 0.000000 0.000000 0.023460 0.000000 -0.004505
# 5 -0.001823 -0.004517 0.003884 0.000000 0.022811 0.000000
# 6 0.000000 0.000000 0.000000 -0.004505 0.000000 0.025744
#
#
# Mechanical properties :
#
#
# Convention : Reuss Voigt Hill
#
# Bulk Modulus (GPa) = 64.83480 68.04645 66.44062
# Shear Modulus (GPa) = 36.42960 39.95651 38.19305
#
# Velocity S-wave (km/s) = 4.02519 4.21553 4.12146
# Velocity P-wave (km/s) = 7.10198 7.34561 7.22483
#
# Compressibility (1/GPa) = 0.01542382
#
# Stress axis : x y z
#
# Youngs Moduli (GPa) = 75.58587 86.12294 77.41036
#
# Poissons Ratio (x) = 0.32898 0.22395
# Poissons Ratio (y) = 0.28873 0.34486
# Poissons Ratio (z) = 0.21867 0.38368
#
# Static dielectric constant tensor:
#      x y z
#    x 4.552360 0.000000 -0.925020 
#    y 0.000000 2.794460 0.000000 
#    z -0.925020 0.000000 5.921810 
# 
# 
# High freq. dielectric constant tensor:
#      x y z
#    x 1.893490 0.000000 0.005690 
#    y 0.000000 1.890170 0.000000 
#    z 0.005690 0.000000 1.890960 
# 
# From -- ./inp_files/40240.got.cif
#   From: 2010.03.12/outbox.cif.g09.slc.cpg/sg14_21_cif.got.tgz:40240.got - 2010.03.31 13:35:05.
