data_PCOD8128905
_publ_section_title
;
Structure prediction by ZEFSAII (Michael W. Deem and Ramdas Pophale) SiO2 
 PCOD8128905
Probable space group: P 21/C
;
_chemical_formula_sum "Si O2"
_cell_formula_units_Z 32
_cell_length_a 11.611067
_cell_length_b 21.283356
_cell_length_c 10.932768
_cell_angle_alpha 90.000000
_cell_angle_beta 147.020938
_cell_angle_gamma 90.000000
_cell_volume 1470.640940
_symmetry_space_group_name_H-M "P 21/C"
_symmetry_group_IT_number 14
_symmetry_cell_setting 'monoclinic'
loop_
_space_group_symop_operation_xyz
x,y,z
-x,1/2+y,1/2-z
-x,-y,-z
x,1/2-y,1/2+z
loop_
_atom_site_type_symbol
_atom_site_label
_atom_site_fract_x
_atom_site_fract_y
_atom_site_fract_z
Si Si1 0.768271 0.636642 0.533105
Si Si2 0.216135 0.539151 0.677485
Si Si3 0.551571 0.456001 0.860517
Si Si4 0.468104 0.252591 0.543453
Si Si5 0.219339 0.668105 0.557387
Si Si6 0.071448 0.943703 0.476631
Si Si7 0.151054 0.829015 0.721586
Si Si8 0.890315 0.780751 0.932623
O O1 0.562256 0.607361 0.285307
O O2 0.688554 0.695696 0.540224
O O3 0.921734 0.664789 0.563735
O O4 0.892031 0.584553 0.725111
O O5 0.369418 0.508353 0.711936
O O6 0.163421 0.607246 0.584520
O O7 0.000000 0.500000 0.500000
O O8 0.335425 0.550428 0.909840
O O9 0.731798 0.473022 0.922530
O O10 0.665407 0.282908 0.654014
O O11 0.348437 0.215531 0.328969
O O12 0.551184 0.200655 0.715462
O O13 0.195736 0.647613 0.397259
O O14 0.039731 0.715016 0.446209
O O15 0.148583 0.887986 0.630989
O O16 0.000000 0.000000 0.500000
O O17 0.934812 0.788412 0.529355
#
# Coordination Sequence:
#
# PCOD8128905 Si02
#       8
#     4   4   4   4   4   4   4   4
#     4  12  24  45  73  99 141 187 236 298 366 429
#     4  11  25  47  72 104 137 186 238 298 352 420
#     4  11  25  46  73 100 138 185 243 291 353 426
#     4  11  23  44  68 103 136 176 230 290 366 425
#     4  11  25  41  67 101 138 172 228 291 346 421
#     4  12  28  47  70 102 145 196 239 291 359 434
#     4  11  25  43  66 101 139 178 230 288 348 434
#     4  11  23  43  70 101 133 179 226 289 365 419
#
# _framework density 21.759219999999999
#
# number of rings (size 3 to 8) (size 9 to 14) (size 15 to 20)
#    0.000    0.750    2.500    4.500    5.250    4.500 
#    2.250    0.000    0.000    0.000    0.000    0.000 
#    0.000    0.000    0.000    0.000    0.000    0.000 
#
# Total GULP energy -396692.694382 kJ/mol
# GULP energy per Si atom -12396.646699 kJ/mol
# Density = 2.170970 g / cm^3
# Si number density = 21.759220 Si / 1000 Ang^3
#
#
#
# Elastic Constant Matrix: (Units=GPa)
#
#
# Indices 1 2 3 4 5 6 
#
# 1 123.9147 38.2086 45.8736 0.0000 0.2566 0.0000
# 2 38.2086 89.8741 48.4755 0.0000 -2.6282 0.0000
# 3 45.8736 48.4755 130.5869 0.0000 -4.1662 0.0000
# 4 0.0000 0.0000 0.0000 35.1694 0.0000 0.8504
# 5 0.2566 -2.6282 -4.1662 0.0000 32.4341 0.0000
# 6 0.0000 0.0000 0.0000 0.8504 0.0000 42.4307
#
#
#
# Elastic Compliance Matrix: (Units=1/GPa)
#
#
# Indices 1 2 3 4 5 6 
#
# 1 0.009859 -0.002914 -0.002401 0.000000 -0.000623 0.000000
# 2 -0.002914 0.014781 -0.004442 0.000000 0.000650 0.000000
# 3 -0.002401 -0.004442 0.010181 0.000000 0.000967 0.000000
# 4 0.000000 0.000000 0.000000 0.028448 0.000000 -0.000570
# 5 -0.000623 0.000650 0.000967 0.000000 0.031014 0.000000
# 6 0.000000 0.000000 0.000000 -0.000570 0.000000 0.023579
#
#
# Mechanical properties :
#
#
# Convention : Reuss Voigt Hill
#
# Bulk Modulus (GPa) = 65.33859 67.72121 66.52990
# Shear Modulus (GPa) = 35.09293 36.12806 35.61049
#
# Velocity S-wave (km/s) = 4.02031 4.07917 4.04984
# Velocity P-wave (km/s) = 7.18635 7.30594 7.24639
#
# Compressibility (1/GPa) = 0.01530489
#
# Stress axis : x y z
#
# Youngs Moduli (GPa) = 101.43033 67.65569 98.22058
#
# Poissons Ratio (x) = 0.19718 0.23586
# Poissons Ratio (y) = 0.29561 0.43632
# Poissons Ratio (z) = 0.24357 0.30054
#
# Static dielectric constant tensor:
#      x y z
#    x 4.036390 0.000000 -0.090450 
#    y 0.000000 3.014740 0.000000 
#    z -0.090450 0.000000 4.358350 
# 
# 
# High freq. dielectric constant tensor:
#      x y z
#    x 1.864110 0.000000 -0.004010 
#    y 0.000000 1.855440 0.000000 
#    z -0.004010 0.000000 1.866130 
# 
# From -- ./inp_files/30755.got.cif
#   From: 2010.03.12/outbox.cif.g09.slc.cpg/sg14_16_cif.got.tgz:30755.got - 2010.03.31 13:35:05.
