data_PCOD8128747
_publ_section_title
;
Structure prediction by ZEFSAII (Michael W. Deem and Ramdas Pophale) SiO2 
 PCOD8128747
Probable space group: P 21/C
;
_chemical_formula_sum "Si O2"
_cell_formula_units_Z 24
_cell_length_a 9.906569
_cell_length_b 17.030539
_cell_length_c 9.827855
_cell_angle_alpha 90.000000
_cell_angle_beta 44.141005
_cell_angle_gamma 90.000000
_cell_volume 1154.744038
_symmetry_space_group_name_H-M "P 21/C"
_symmetry_group_IT_number 14
_symmetry_cell_setting 'monoclinic'
loop_
_space_group_symop_operation_xyz
x,y,z
-x,1/2+y,1/2-z
-x,-y,-z
x,1/2-y,1/2+z
loop_
_atom_site_type_symbol
_atom_site_label
_atom_site_fract_x
_atom_site_fract_y
_atom_site_fract_z
Si Si1 0.280648 0.578631 0.535968
Si Si2 0.102464 0.347681 0.280173
Si Si3 0.676644 0.087510 0.675038
Si Si4 0.240940 0.407229 0.454269
Si Si5 0.059082 0.169292 0.334135
Si Si6 0.689706 0.589273 0.121660
O O1 0.327982 0.575220 0.660226
O O2 0.216119 0.493493 0.532767
O O3 0.468775 0.608467 0.319445
O O4 0.107982 0.638529 0.632427
O O5 0.145148 0.405033 0.375006
O O6 0.108589 0.259156 0.330793
O O7 0.263805 0.363154 0.048661
O O8 0.830268 0.151973 0.514467
O O9 0.722538 0.003524 0.572338
O O10 0.466014 0.117917 0.780993
O O11 0.125386 0.346917 0.632755
O O12 0.169823 0.113823 0.358563
#
# Coordination Sequence:
#
# PCOD8128747 Si02
#       6
#     4   4   4   4   4   4
#     4  11  22  44  70  94 123 171 222 260 307 382
#     4  12  27  38  62 101 137 162 202 273 332 365
#     4  11  22  43  74  91 118 177 228 250 304 391
#     4  11  24  43  65  98 126 167 218 271 307 369
#     4  12  23  41  66  93 132 173 211 253 326 389
#     4  11  22  44  71  92 125 173 219 261 308 380
#
# _framework density 20.783828
#
# number of rings (size 3 to 8) (size 9 to 14) (size 15 to 20)
#    0.000    0.667    5.000    4.000    0.000    6.667 
#    0.000    0.000    0.000    0.000    0.000    0.000 
#    0.000    0.000    0.000    0.000    0.000    0.000 
#
# Total GULP energy -297779.334053 kJ/mol
# GULP energy per Si atom -12407.472252 kJ/mol
# Density = 2.073652 g / cm^3
# Si number density = 20.783828 Si / 1000 Ang^3
#
#
#
# Elastic Constant Matrix: (Units=GPa)
#
#
# Indices 1 2 3 4 5 6 
#
# 1 55.9367 3.3975 25.8861 0.0000 0.3095 0.0000
# 2 3.3975 64.4097 43.5798 0.0000 -6.9356 0.0000
# 3 25.8861 43.5798 112.9210 0.0000 -4.9846 0.0000
# 4 0.0000 0.0000 0.0000 27.1686 0.0000 2.3867
# 5 0.3095 -6.9356 -4.9846 0.0000 33.8820 0.0000
# 6 0.0000 0.0000 0.0000 2.3867 0.0000 12.0005
#
#
#
# Elastic Compliance Matrix: (Units=1/GPa)
#
#
# Indices 1 2 3 4 5 6 
#
# 1 0.020378 0.002774 -0.005763 0.000000 -0.000466 0.000000
# 2 0.002774 0.021725 -0.008883 0.000000 0.003115 0.000000
# 3 -0.005763 -0.008883 0.013615 0.000000 0.000237 0.000000
# 4 0.000000 0.000000 0.000000 0.037462 0.000000 -0.007451
# 5 -0.000466 0.003115 0.000237 0.000000 0.030191 0.000000
# 6 0.000000 0.000000 0.000000 -0.007451 0.000000 0.084811
#
#
# Mechanical properties :
#
#
# Convention : Reuss Voigt Hill
#
# Bulk Modulus (GPa) = 31.27388 42.11048 36.69218
# Shear Modulus (GPa) = 20.61142 25.30381 22.95762
#
# Velocity S-wave (km/s) = 3.15255 3.49302 3.32714
# Velocity P-wave (km/s) = 5.32272 6.04760 5.69670
#
# Compressibility (1/GPa) = 0.03197557
#
# Stress axis : x y z
#
# Youngs Moduli (GPa) = 49.07193 46.03038 73.44633
#
# Poissons Ratio (x) = -0.12768 0.42325
# Poissons Ratio (y) = -0.13612 0.65240
# Poissons Ratio (z) = 0.28278 0.40887
#
# Static dielectric constant tensor:
#      x y z
#    x 3.723220 0.000000 -0.112330 
#    y 0.000000 3.586490 0.000000 
#    z -0.112330 0.000000 3.980460 
# 
# 
# High freq. dielectric constant tensor:
#      x y z
#    x 1.815160 0.000000 -0.004910 
#    y 0.000000 1.803470 0.000000 
#    z -0.004910 0.000000 1.828200 
# 
# From -- ./inp_files/10132.got.cif
#   From: 2010.03.12/outbox.cif.g09.slc.cpg/sg14_6_cif.got.tgz:10132.got - 2010.03.31 13:35:05.
