data_PCOD8128088
_publ_section_title
;
Structure prediction by ZEFSAII (Michael W. Deem and Ramdas Pophale) SiO2 
 PCOD8128088
Probable space group: P 21/C
;
_chemical_formula_sum "Si O2"
_cell_formula_units_Z 16
_cell_length_a 9.650988
_cell_length_b 12.412493
_cell_length_c 10.578712
_cell_angle_alpha 90.000000
_cell_angle_beta 150.857495
_cell_angle_gamma 90.000000
_cell_volume 617.131613
_symmetry_space_group_name_H-M "P 21/C"
_symmetry_group_IT_number 14
_symmetry_cell_setting 'monoclinic'
loop_
_space_group_symop_operation_xyz
x,y,z
-x,1/2+y,1/2-z
-x,-y,-z
x,1/2-y,1/2+z
loop_
_atom_site_type_symbol
_atom_site_label
_atom_site_fract_x
_atom_site_fract_y
_atom_site_fract_z
Si Si1 0.934018 0.182480 0.463671
Si Si2 0.553726 0.400764 0.454709
Si Si3 0.595384 0.471330 0.883424
Si Si4 0.868402 0.907107 0.814469
O O1 0.790890 0.099576 0.446657
O O2 0.260782 0.160056 0.699017
O O3 0.929980 0.301688 0.521580
O O4 0.779962 0.178362 0.203174
O O5 0.500000 0.500000 0.500000
O O6 0.632982 0.454674 0.380746
O O7 0.437348 0.391735 0.855739
O O8 0.806327 0.555564 0.121656
O O9 0.000000 0.000000 0.000000
#
# Coordination Sequence:
#
# PCOD8128088 Si02
#       4
#     4   4   4   4
#     4  11  26  48  78 108 143 204 246 301 382 439
#     4  10  23  47  77 107 140 194 252 299 365 449
#     4  10  25  49  72 109 157 194 250 315 370 455
#     4  11  28  46  72 114 154 194 249 316 375 442
#
# _framework density 25.926400000000001
#
# number of rings (size 3 to 8) (size 9 to 14) (size 15 to 20)
#    0.000    1.500    0.000    3.000   17.500    4.000 
#    0.000    0.000    0.000    0.000    0.000    0.000 
#    0.000    0.000    0.000    0.000    0.000    0.000 
#
# Total GULP energy -198282.729104 kJ/mol
# GULP energy per Si atom -12392.670569 kJ/mol
# Density = 2.586739 g / cm^3
# Si number density = 25.926400 Si / 1000 Ang^3
#
#
#
# Elastic Constant Matrix: (Units=GPa)
#
#
# Indices 1 2 3 4 5 6 
#
# 1 102.2041 40.5239 38.2904 0.0000 -26.4126 0.0000
# 2 40.5239 152.5298 82.8382 0.0000 -27.3696 0.0000
# 3 38.2904 82.8382 215.3366 0.0000 -33.6502 0.0000
# 4 0.0000 0.0000 0.0000 49.1375 0.0000 -0.2232
# 5 -26.4126 -27.3696 -33.6502 0.0000 46.4999 0.0000
# 6 0.0000 0.0000 0.0000 -0.2232 0.0000 32.4638
#
#
#
# Elastic Compliance Matrix: (Units=1/GPa)
#
#
# Indices 1 2 3 4 5 6 
#
# 1 0.012155 -0.001961 -0.000573 0.000000 0.005335 0.000000
# 2 -0.001961 0.008965 -0.002762 0.000000 0.002165 0.000000
# 3 -0.000573 -0.002762 0.006205 0.000000 0.002539 0.000000
# 4 0.000000 0.000000 0.000000 0.020352 0.000000 0.000140
# 5 0.005335 0.002165 0.002539 0.000000 0.027647 0.000000
# 6 0.000000 0.000000 0.000000 0.000140 0.000000 0.030805
#
#
# Mechanical properties :
#
#
# Convention : Reuss Voigt Hill
#
# Bulk Modulus (GPa) = 59.75926 88.15284 73.95605
# Shear Modulus (GPa) = 40.88312 46.18143 43.53228
#
# Velocity S-wave (km/s) = 3.97532 4.22507 4.10209
# Velocity P-wave (km/s) = 6.64609 7.60767 7.14308
#
# Compressibility (1/GPa) = 0.01673381
#
# Stress axis : x y z
#
# Youngs Moduli (GPa) = 82.26789 111.53930 161.15621
#
# Poissons Ratio (x) = 0.21869 0.09241
# Poissons Ratio (y) = 0.16130 0.44512
# Poissons Ratio (z) = 0.04718 0.30808
#
# Static dielectric constant tensor:
#      x y z
#    x 5.236020 0.000000 -0.275770 
#    y 0.000000 5.459740 0.000000 
#    z -0.275770 0.000000 5.803990 
# 
# 
# High freq. dielectric constant tensor:
#      x y z
#    x 2.053170 0.000000 -0.001590 
#    y 0.000000 2.028350 0.000000 
#    z -0.001590 0.000000 2.059140 
# 
# From -- ./inp_files/29311.got.cif
#   From: 2010.03.12/outbox.cif.g09.slc.cpg/sg14_15_cif.got.tgz:29311.got - 2010.03.31 13:35:05.
