data_PCOD8128553
_publ_section_title
;
Structure prediction by ZEFSAII (Michael W. Deem and Ramdas Pophale) SiO2 
 PCOD8128553
Probable space group: P 21/C
;
_chemical_formula_sum "Si O2"
_cell_formula_units_Z 20
_cell_length_a 8.311151
_cell_length_b 22.920279
_cell_length_c 4.866234
_cell_angle_alpha 90.000000
_cell_angle_beta 87.224780
_cell_angle_gamma 90.000000
_cell_volume 925.900693
_symmetry_space_group_name_H-M "P 21/C"
_symmetry_group_IT_number 14
_symmetry_cell_setting 'monoclinic'
loop_
_space_group_symop_operation_xyz
x,y,z
-x,1/2+y,1/2-z
-x,-y,-z
x,1/2-y,1/2+z
loop_
_atom_site_type_symbol
_atom_site_label
_atom_site_fract_x
_atom_site_fract_y
_atom_site_fract_z
Si Si1 0.420229 0.109379 0.872868
Si Si2 0.275024 0.050096 0.366406
Si Si3 0.966969 0.109330 0.143157
Si Si4 0.200224 0.289738 0.559899
Si Si5 0.761885 0.417065 0.151666
O O1 0.304983 0.087125 0.638407
O O2 0.603263 0.117035 0.762667
O O3 0.412049 0.064214 0.128583
O O4 0.357979 0.171887 0.984243
O O5 0.102395 0.067025 0.256620
O O6 0.284195 0.982197 0.439947
O O7 0.830916 0.118377 0.386422
O O8 0.039472 0.171318 0.042540
O O9 0.891799 0.078742 0.883408
O O10 0.201246 0.232634 0.371593
#
# Coordination Sequence:
#
# PCOD8128553 Si02
#       5
#     4   4   4   4   4
#     4  11  23  39  62  91 120 160 207 240 292 363
#     4  11  21  39  61  90 129 170 192 224 296 378
#     4  11  23  38  61  91 120 158 204 242 296 361
#     4  11  23  44  64  80 111 162 208 251 299 358
#     4  12  22  38  61  96 131 152 189 255 299 348
#
# _framework density 21.600588999999999
#
# number of rings (size 3 to 8) (size 9 to 14) (size 15 to 20)
#    0.000    0.800    0.000   10.800    0.000    0.000 
#    0.000    6.000    0.000    0.000    0.000    0.000 
#    0.000    0.000    0.000    0.000    0.000    0.000 
#
# Total GULP energy -248129.821635 kJ/mol
# GULP energy per Si atom -12406.491082 kJ/mol
# Density = 2.155142 g / cm^3
# Si number density = 21.600589 Si / 1000 Ang^3
#
#
#
# Elastic Constant Matrix: (Units=GPa)
#
#
# Indices 1 2 3 4 5 6 
#
# 1 53.2625 36.3187 6.8288 0.0000 -20.8808 0.0000
# 2 36.3187 98.3425 36.1190 0.0000 -16.7252 0.0000
# 3 6.8288 36.1190 106.4130 0.0000 -15.0036 0.0000
# 4 0.0000 0.0000 0.0000 45.8054 0.0000 -4.2676
# 5 -20.8808 -16.7252 -15.0036 0.0000 50.6855 0.0000
# 6 0.0000 0.0000 0.0000 -4.2676 0.0000 16.7362
#
#
#
# Elastic Compliance Matrix: (Units=1/GPa)
#
#
# Indices 1 2 3 4 5 6 
#
# 1 0.029071 -0.010202 0.002933 0.000000 0.009478 0.000000
# 2 -0.010202 0.015585 -0.004699 0.000000 -0.000451 0.000000
# 3 0.002933 -0.004699 0.011224 0.000000 0.002980 0.000000
# 4 0.000000 0.000000 0.000000 0.022363 0.000000 0.005702
# 5 0.009478 -0.000451 0.002980 0.000000 0.024368 0.000000
# 6 0.000000 0.000000 0.000000 0.005702 0.000000 0.061205
#
#
# Mechanical properties :
#
#
# Convention : Reuss Voigt Hill
#
# Bulk Modulus (GPa) = 31.30240 46.28344 38.79292
# Shear Modulus (GPa) = 25.20185 34.56218 29.88201
#
# Velocity S-wave (km/s) = 3.41943 4.00441 3.72343
# Velocity P-wave (km/s) = 5.48753 6.54629 6.04015
#
# Compressibility (1/GPa) = 0.03194643
#
# Stress axis : x y z
#
# Youngs Moduli (GPa) = 34.39864 64.16356 89.09294
#
# Poissons Ratio (x) = 0.65457 -0.26135
# Poissons Ratio (y) = 0.35092 0.41864
# Poissons Ratio (z) = -0.10091 0.30150
#
# Static dielectric constant tensor:
#      x y z
#    x 3.833390 0.000000 -0.152260 
#    y 0.000000 3.649880 0.000000 
#    z -0.152260 0.000000 4.245890 
# 
# 
# High freq. dielectric constant tensor:
#      x y z
#    x 1.844270 0.000000 -0.006090 
#    y 0.000000 1.828510 0.000000 
#    z -0.006090 0.000000 1.877240 
# 
# From -- ./inp_files/1413.got.cif
#   From: 2010.03.12/outbox.cif.g09.slc.cpg/sg14_1_cif.got.tgz:1413.got - 2010.03.31 13:35:05.
