data_PCOD8128999
_publ_section_title
;
Structure prediction by ZEFSAII (Michael W. Deem and Ramdas Pophale) SiO2 
 PCOD8128999
Probable space group: P 21/C
;
_chemical_formula_sum "Si O2"
_cell_formula_units_Z 24
_cell_length_a 13.264304
_cell_length_b 9.293033
_cell_length_c 8.943750
_cell_angle_alpha 90.000000
_cell_angle_beta 71.641267
_cell_angle_gamma 90.000000
_cell_volume 1046.345218
_symmetry_space_group_name_H-M "P 21/C"
_symmetry_group_IT_number 14
_symmetry_cell_setting 'monoclinic'
loop_
_space_group_symop_operation_xyz
x,y,z
-x,1/2+y,1/2-z
-x,-y,-z
x,1/2-y,1/2+z
loop_
_atom_site_type_symbol
_atom_site_label
_atom_site_fract_x
_atom_site_fract_y
_atom_site_fract_z
Si Si1 0.494732 0.862547 0.898477
Si Si2 0.754332 0.422033 0.910728
Si Si3 0.610234 0.840753 0.542558
Si Si4 0.096886 0.110111 0.470836
Si Si5 0.180968 0.349899 0.601044
Si Si6 0.255889 0.634016 0.420089
O O1 0.584856 0.858131 0.729688
O O2 0.382184 0.869182 0.871509
O O3 0.509898 0.721497 0.995939
O O4 0.500000 0.000000 0.000000
O O5 0.782122 0.375147 0.731680
O O6 0.638015 0.498485 0.969786
O O7 0.829449 0.545952 0.935317
O O8 0.777780 0.289037 0.006351
O O9 0.705777 0.726633 0.477804
O O10 0.084443 0.269895 0.553043
O O11 0.153444 0.137843 0.287781
O O12 0.000000 0.000000 0.500000
O O13 0.193957 0.512859 0.539950
#
# Coordination Sequence:
#
# PCOD8128999 Si02
#       6
#     4   4   4   4   4   4
#     4  12  26  40  68 102 143 195 263 293 343 438
#     4  11  26  44  68 100 147 189 243 309 381 435
#     4  11  24  44  67  98 147 198 245 304 363 425
#     4  11  26  49  78 109 138 189 245 306 384 466
#     4  11  23  46  76 103 149 192 240 307 382 439
#     4  12  25  42  67 104 144 196 243 306 360 429
#
# _framework density 22.936979999999998
#
# number of rings (size 3 to 8) (size 9 to 14) (size 15 to 20)
#    0.000    0.667    1.667    7.000    4.667    4.000 
#    0.000    2.500    0.000    0.000    0.000    0.000 
#    0.000    0.000    0.000    0.000    0.000    0.000 
#
# Total GULP energy -297419.150568 kJ/mol
# GULP energy per Si atom -12392.464607 kJ/mol
# Density = 2.288477 g / cm^3
# Si number density = 22.936980 Si / 1000 Ang^3
#
#
#
# Elastic Constant Matrix: (Units=GPa)
#
#
# Indices 1 2 3 4 5 6 
#
# 1 64.3799 27.0257 30.0215 0.0000 6.8696 0.0000
# 2 27.0257 141.8361 45.5376 0.0000 10.1880 0.0000
# 3 30.0215 45.5376 172.1892 0.0000 21.2667 0.0000
# 4 0.0000 0.0000 0.0000 48.5399 0.0000 5.9671
# 5 6.8696 10.1880 21.2667 0.0000 28.7380 0.0000
# 6 0.0000 0.0000 0.0000 5.9671 0.0000 55.9609
#
#
#
# Elastic Compliance Matrix: (Units=1/GPa)
#
#
# Indices 1 2 3 4 5 6 
#
# 1 0.017825 -0.002561 -0.002219 0.000000 -0.001711 0.000000
# 2 -0.002561 0.008120 -0.001564 0.000000 -0.001109 0.000000
# 3 -0.002219 -0.001564 0.007125 0.000000 -0.004188 0.000000
# 4 0.000000 0.000000 0.000000 0.020875 0.000000 -0.002226
# 5 -0.001711 -0.001109 -0.004188 0.000000 0.038699 0.000000
# 6 0.000000 0.000000 0.000000 -0.002226 0.000000 0.018107
#
#
# Mechanical properties :
#
#
# Convention : Reuss Voigt Hill
#
# Bulk Modulus (GPa) = 49.06234 64.84165 56.95200
# Shear Modulus (GPa) = 38.39232 45.03577 41.71405
#
# Velocity S-wave (km/s) = 4.09567 4.43590 4.26917
# Velocity P-wave (km/s) = 6.61835 7.38696 7.01319
#
# Compressibility (1/GPa) = 0.02038223
#
# Stress axis : x y z
#
# Youngs Moduli (GPa) = 56.09987 123.15002 140.34377
#
# Poissons Ratio (x) = 0.31540 0.31146
# Poissons Ratio (y) = 0.14368 0.21949
# Poissons Ratio (z) = 0.12450 0.19260
#
# Static dielectric constant tensor:
#      x y z
#    x 4.226990 0.000000 0.356280 
#    y 0.000000 3.228750 0.000000 
#    z 0.356280 0.000000 4.071690 
# 
# 
# High freq. dielectric constant tensor:
#      x y z
#    x 1.883720 0.000000 0.016920 
#    y 0.000000 1.931660 0.000000 
#    z 0.016920 0.000000 1.917850 
# 
# From -- ./inp_files/15007.got.cif
#   From: 2010.03.12/outbox.cif.g09.slc.cpg/sg14_8_cif.got.tgz:15007.got - 2010.03.31 13:35:05.
