data_PCOD8128991
_publ_section_title
;
Structure prediction by ZEFSAII (Michael W. Deem and Ramdas Pophale) SiO2 
 PCOD8128991
Probable space group: P 21/C
;
_chemical_formula_sum "Si O2"
_cell_formula_units_Z 24
_cell_length_a 17.680033
_cell_length_b 11.304779
_cell_length_c 11.731094
_cell_angle_alpha 90.000000
_cell_angle_beta 152.175973
_cell_angle_gamma 90.000000
_cell_volume 1094.397300
_symmetry_space_group_name_H-M "P 21/C"
_symmetry_group_IT_number 14
_symmetry_cell_setting 'monoclinic'
loop_
_space_group_symop_operation_xyz
x,y,z
-x,1/2+y,1/2-z
-x,-y,-z
x,1/2-y,1/2+z
loop_
_atom_site_type_symbol
_atom_site_label
_atom_site_fract_x
_atom_site_fract_y
_atom_site_fract_z
Si Si1 0.772696 0.773437 0.564927
Si Si2 0.095750 0.695234 0.885951
Si Si3 0.650955 0.000014 0.287312
Si Si4 0.496109 0.079680 0.313798
Si Si5 0.692129 0.413162 0.289181
Si Si6 0.899148 0.592650 0.436562
O O1 0.646688 0.668135 0.407714
O O2 0.775678 0.837467 0.691296
O O3 0.951270 0.719929 0.782135
O O4 0.719374 0.866941 0.395768
O O5 0.023394 0.680238 0.663320
O O6 0.202841 0.581317 0.066918
O O7 0.206350 0.809399 0.020889
O O8 0.599725 0.054736 0.339966
O O9 0.500000 0.000000 0.000000
O O10 0.608075 0.136409 0.561970
O O11 0.432835 0.954606 0.279935
O O12 0.800053 0.527747 0.403876
O O13 0.000000 0.500000 0.500000
#
# Coordination Sequence:
#
# PCOD8128991 Si02
#       6
#     4   4   4   4   4   4
#     4  12  26  45  72 105 142 185 243 295 360 428
#     4  12  25  43  75 102 138 185 239 296 362 430
#     4  12  28  47  69 106 147 188 244 298 355 432
#     4  11  26  45  73 101 144 193 238 297 363 427
#     4  11  23  46  71 102 139 191 241 289 369 422
#     4  12  22  46  70 104 144 188 235 300 359 428
#
# _framework density 21.929880000000001
#
# number of rings (size 3 to 8) (size 9 to 14) (size 15 to 20)
#    0.000    0.333    6.667    1.000    4.667    1.333 
#    0.000    1.667    0.000    0.000    0.000    0.000 
#    0.000    0.000    0.000    0.000    0.000    0.000 
#
# Total GULP energy -297690.784522 kJ/mol
# GULP energy per Si atom -12403.782688 kJ/mol
# Density = 2.187997 g / cm^3
# Si number density = 21.929880 Si / 1000 Ang^3
#
#
#
# Elastic Constant Matrix: (Units=GPa)
#
#
# Indices 1 2 3 4 5 6 
#
# 1 55.4180 21.2737 7.0648 0.0000 6.3730 0.0000
# 2 21.2737 75.5573 40.3404 0.0000 2.2773 0.0000
# 3 7.0648 40.3404 134.7575 0.0000 -9.8996 0.0000
# 4 0.0000 0.0000 0.0000 64.9307 0.0000 2.1235
# 5 6.3730 2.2773 -9.8996 0.0000 41.6469 0.0000
# 6 0.0000 0.0000 0.0000 2.1235 0.0000 31.2649
#
#
#
# Elastic Compliance Matrix: (Units=1/GPa)
#
#
# Indices 1 2 3 4 5 6 
#
# 1 0.020589 -0.005991 0.000516 0.000000 -0.002700 0.000000
# 2 -0.005991 0.017664 -0.005066 0.000000 -0.001253 0.000000
# 3 0.000516 -0.005066 0.009083 0.000000 0.002357 0.000000
# 4 0.000000 0.000000 0.000000 0.015435 0.000000 -0.001048
# 5 -0.002700 -0.001253 0.002357 0.000000 0.025054 0.000000
# 6 0.000000 0.000000 0.000000 -0.001048 0.000000 0.032056
#
#
# Mechanical properties :
#
#
# Convention : Reuss Voigt Hill
#
# Bulk Modulus (GPa) = 38.08874 44.78785 41.43830
# Shear Modulus (GPa) = 33.39666 40.70543 37.05104
#
# Velocity S-wave (km/s) = 3.90665 4.31299 4.11484
# Velocity P-wave (km/s) = 6.14454 6.72831 6.44304
#
# Compressibility (1/GPa) = 0.02625448
#
# Stress axis : x y z
#
# Youngs Moduli (GPa) = 48.56897 56.61151 110.09129
#
# Poissons Ratio (x) = 0.33916 -0.05677
# Poissons Ratio (y) = 0.29097 0.55771
# Poissons Ratio (z) = -0.02504 0.28679
#
# Static dielectric constant tensor:
#      x y z
#    x 4.562310 0.000000 -0.024850 
#    y 0.000000 3.982220 0.000000 
#    z -0.024850 0.000000 4.165910 
# 
# 
# High freq. dielectric constant tensor:
#      x y z
#    x 1.854760 0.000000 0.010050 
#    y 0.000000 1.862750 0.000000 
#    z 0.010050 0.000000 1.885060 
# 
# From -- ./inp_files/28767.got.cif
#   From: 2010.03.12/outbox.cif.g09.slc.cpg/sg14_15_cif.got.tgz:28767.got - 2010.03.31 13:35:05.
