data_PCOD8128043
_publ_section_title
;
Structure prediction by ZEFSAII (Michael W. Deem and Ramdas Pophale) SiO2 
 PCOD8128043
Probable space group: P 21/C
;
_chemical_formula_sum "Si O2"
_cell_formula_units_Z 32
_cell_length_a 12.296907
_cell_length_b 12.624246
_cell_length_c 9.649022
_cell_angle_alpha 90.000000
_cell_angle_beta 92.905758
_cell_angle_gamma 90.000000
_cell_volume 1495.980347
_symmetry_space_group_name_H-M "P 21/C"
_symmetry_group_IT_number 14
_symmetry_cell_setting 'monoclinic'
loop_
_space_group_symop_operation_xyz
x,y,z
-x,1/2+y,1/2-z
-x,-y,-z
x,1/2-y,1/2+z
loop_
_atom_site_type_symbol
_atom_site_label
_atom_site_fract_x
_atom_site_fract_y
_atom_site_fract_z
Si Si1 0.411355 0.356206 0.926367
Si Si2 0.650734 0.079799 0.460030
Si Si3 0.871662 0.589346 0.486162
Si Si4 0.790055 0.528706 0.748476
Si Si5 0.705318 0.746837 0.337703
Si Si6 0.030308 0.754790 0.124267
Si Si7 0.970962 0.535698 0.217741
Si Si8 0.149383 0.841710 0.381775
O O1 0.369832 0.474276 0.952959
O O2 0.362328 0.317743 0.779298
O O3 0.541710 0.355456 0.922441
O O4 0.377527 0.276234 0.045325
O O5 0.726215 0.156382 0.559095
O O6 0.705070 0.051572 0.314693
O O7 0.795221 0.514524 0.579824
O O8 0.801013 0.673475 0.398722
O O9 0.942438 0.522007 0.380236
O O10 0.948912 0.646768 0.604550
O O11 0.759741 0.649236 0.778020
O O12 0.907797 0.498975 0.816554
O O13 0.130803 0.786256 0.231820
O O14 0.957126 0.658452 0.177294
O O15 0.076916 0.728381 0.978170
O O16 0.889221 0.464265 0.122611
#
# Coordination Sequence:
#
# PCOD8128043 Si02
#       8
#     4   4   4   4   4   4   4   4
#     4  10  23  45  70  96 121 168 228 289 327 394
#     4  10  24  44  68  91 132 172 223 273 350 389
#     4  12  23  38  64 105 135 177 223 272 317 404
#     4  11  22  39  64  97 133 177 210 270 328 397
#     4  11  22  42  71  96 128 169 229 272 336 383
#     4  12  25  40  62  99 138 175 225 259 326 411
#     4  12  24  40  64  96 147 179 217 264 333 400
#     4  12  25  42  65  95 132 184 214 272 337 402
#
# _framework density 21.390654000000001
#
# number of rings (size 3 to 8) (size 9 to 14) (size 15 to 20)
#    0.000    0.750    5.000    3.000    3.500    1.000 
#    0.000    0.625    2.750    0.000    0.000    0.000 
#    0.000    0.000    0.000    0.000    0.000    0.000 
#
# Total GULP energy -396863.323129 kJ/mol
# GULP energy per Si atom -12401.978848 kJ/mol
# Density = 2.134197 g / cm^3
# Si number density = 21.390654 Si / 1000 Ang^3
#
#
#
# Elastic Constant Matrix: (Units=GPa)
#
#
# Indices 1 2 3 4 5 6 
#
# 1 102.3979 17.0881 39.2655 0.0000 -5.8282 0.0000
# 2 17.0881 59.2554 16.3648 0.0000 5.8650 0.0000
# 3 39.2655 16.3648 107.5641 0.0000 5.9499 0.0000
# 4 0.0000 0.0000 0.0000 30.3428 0.0000 7.3206
# 5 -5.8282 5.8650 5.9499 0.0000 22.5672 0.0000
# 6 0.0000 0.0000 0.0000 7.3206 0.0000 22.7903
#
#
#
# Elastic Compliance Matrix: (Units=1/GPa)
#
#
# Indices 1 2 3 4 5 6 
#
# 1 0.012166 -0.002819 -0.004289 0.000000 0.005005 0.000000
# 2 -0.002819 0.018620 -0.001518 0.000000 -0.005167 0.000000
# 3 -0.004289 -0.001518 0.011298 0.000000 -0.003692 0.000000
# 4 0.000000 0.000000 0.000000 0.035725 0.000000 -0.011476
# 5 0.005005 -0.005167 -0.003692 0.000000 0.047921 0.000000
# 6 0.000000 0.000000 0.000000 -0.011476 0.000000 0.047564
#
#
# Mechanical properties :
#
#
# Convention : Reuss Voigt Hill
#
# Bulk Modulus (GPa) = 40.27243 46.07270 43.17257
# Shear Modulus (GPa) = 25.14797 28.23999 26.69398
#
# Velocity S-wave (km/s) = 3.43250 3.63740 3.53643
# Velocity P-wave (km/s) = 5.88025 6.26310 6.07469
#
# Compressibility (1/GPa) = 0.02483088
#
# Stress axis : x y z
#
# Youngs Moduli (GPa) = 82.19718 53.70648 88.51446
#
# Poissons Ratio (x) = 0.15142 0.37964
# Poissons Ratio (y) = 0.23174 0.13435
# Poissons Ratio (z) = 0.35254 0.08152
#
# Static dielectric constant tensor:
#      x y z
#    x 3.808480 0.000000 -0.166020 
#    y 0.000000 3.864820 0.000000 
#    z -0.166020 0.000000 4.005320 
# 
# 
# High freq. dielectric constant tensor:
#      x y z
#    x 1.824740 0.000000 -0.008720 
#    y 0.000000 1.840040 0.000000 
#    z -0.008720 0.000000 1.854290 
# 
# From -- ./inp_files/13338.got.cif
#   From: 2010.03.12/outbox.cif.g09.slc.cpg/sg14_7_cif.got.tgz:13338.got - 2010.03.31 13:35:05.
