data_PCOD8128439
_publ_section_title
;
Structure prediction by ZEFSAII (Michael W. Deem and Ramdas Pophale) SiO2 
 PCOD8128439
Probable space group: P 21/C
;
_chemical_formula_sum "Si O2"
_cell_formula_units_Z 28
_cell_length_a 14.442635
_cell_length_b 8.188076
_cell_length_c 18.846059
_cell_angle_alpha 90.000000
_cell_angle_beta 140.570077
_cell_angle_gamma 90.000000
_cell_volume 1415.514110
_symmetry_space_group_name_H-M "P 21/C"
_symmetry_group_IT_number 14
_symmetry_cell_setting 'monoclinic'
loop_
_space_group_symop_operation_xyz
x,y,z
-x,1/2+y,1/2-z
-x,-y,-z
x,1/2-y,1/2+z
loop_
_atom_site_type_symbol
_atom_site_label
_atom_site_fract_x
_atom_site_fract_y
_atom_site_fract_z
Si Si1 0.746132 0.439930 0.037363
Si Si2 0.787084 0.250238 0.701976
Si Si3 0.512811 0.694353 0.913720
Si Si4 0.302982 0.035333 0.938210
Si Si5 0.892521 0.758667 0.076523
Si Si6 0.595777 0.326947 0.377943
Si Si7 0.365133 0.160327 0.158322
O O1 0.588809 0.518146 0.964223
O O2 0.718521 0.316966 0.954181
O O3 0.809520 0.343886 0.141745
O O4 0.863273 0.576219 0.086966
O O5 0.658438 0.175145 0.673462
O O6 0.755850 0.441843 0.666249
O O7 0.935281 0.226414 0.834456
O O8 0.543145 0.776706 0.855483
O O9 0.588387 0.815016 0.017379
O O10 0.166217 0.105878 0.902537
O O11 0.400317 0.909072 0.042332
O O12 0.804016 0.784847 0.950148
O O13 0.438068 0.241880 0.270447
O O14 0.626870 0.461979 0.334940
#
# Coordination Sequence:
#
# PCOD8128439 Si02
#       7
#     4   4   4   4   4   4   4
#     4   9  18  30  46  69  90 119 155 184 219 260
#     4  11  17  28  47  68  97 121 146 184 228 267
#     4   9  18  29  44  69  95 120 149 184 223 266
#     4   8  18  31  46  67  90 121 155 184 219 262
#     4   9  18  29  44  69  95 120 149 184 223 266
#     4   9  16  30  54  68  82 115 157 194 213 255
#     4   9  17  31  49  68  88 114 154 188 222 264
#
# _framework density 19.780798999999998
#
# number of rings (size 3 to 8) (size 9 to 14) (size 15 to 20)
#    0.000    3.429    0.000    3.429    0.000    0.000 
#    0.000    0.000    0.000   15.429    0.000    0.000 
#    0.000    0.000    0.000    0.000    0.000    0.000 
#
# Total GULP energy -346884.654592 kJ/mol
# GULP energy per Si atom -12388.737664 kJ/mol
# Density = 1.973578 g / cm^3
# Si number density = 19.780799 Si / 1000 Ang^3
#
#
#
# Elastic Constant Matrix: (Units=GPa)
#
#
# Indices 1 2 3 4 5 6 
#
# 1 23.2347 3.8246 27.6909 0.0000 18.8750 0.0000
# 2 3.8246 99.3243 37.6159 0.0000 -0.2415 0.0000
# 3 27.6909 37.6159 135.1774 0.0000 25.5707 0.0000
# 4 0.0000 0.0000 0.0000 23.1497 0.0000 -2.9933
# 5 18.8750 -0.2415 25.5707 0.0000 30.0704 0.0000
# 6 0.0000 0.0000 0.0000 -2.9933 0.0000 11.1979
#
#
#
# Elastic Compliance Matrix: (Units=1/GPa)
#
#
# Indices 1 2 3 4 5 6 
#
# 1 0.098113 -0.000107 -0.010032 0.000000 -0.053054 0.000000
# 2 -0.000107 0.011533 -0.003834 0.000000 0.003420 0.000000
# 3 -0.010032 -0.003834 0.011124 0.000000 -0.003193 0.000000
# 4 0.000000 0.000000 0.000000 0.044744 0.000000 0.011960
# 5 -0.053054 0.003420 -0.003193 0.000000 0.069299 0.000000
# 6 0.000000 0.000000 0.000000 0.011960 0.000000 0.092500
#
#
# Mechanical properties :
#
#
# Convention : Reuss Voigt Hill
#
# Bulk Modulus (GPa) = 10.77343 43.99990 27.38667
# Shear Modulus (GPa) = 12.94664 25.45725 19.20195
#
# Velocity S-wave (km/s) = 2.56111 3.59133 3.11904
# Velocity P-wave (km/s) = 3.76881 6.28402 5.18135
#
# Compressibility (1/GPa) = 0.09282091
#
# Stress axis : x y z
#
# Youngs Moduli (GPa) = 10.19235 86.71097 89.89808
#
# Poissons Ratio (x) = 0.00931 0.90190
# Poissons Ratio (y) = 0.00109 0.34469
# Poissons Ratio (z) = 0.10225 0.33247
#
# Static dielectric constant tensor:
#      x y z
#    x 2.880270 0.000000 0.012530 
#    y 0.000000 4.022630 0.000000 
#    z 0.012530 0.000000 3.680580 
# 
# 
# High freq. dielectric constant tensor:
#      x y z
#    x 1.693830 0.000000 0.001720 
#    y 0.000000 1.793810 0.000000 
#    z 0.001720 0.000000 1.771650 
# 
# From -- ./inp_files/74132.got.cif
#   From: 2010.03.12/outbox.cif.g09.slc.cpg/sg14_38_cif.got.tgz:74132.got - 2010.03.31 13:35:05.
