data_PCOD8128464
_publ_section_title
;
Structure prediction by ZEFSAII (Michael W. Deem and Ramdas Pophale) SiO2 
 PCOD8128464
Probable space group: P 21/C
;
_chemical_formula_sum "Si O2"
_cell_formula_units_Z 32
_cell_length_a 14.526678
_cell_length_b 13.266260
_cell_length_c 21.002748
_cell_angle_alpha 90.000000
_cell_angle_beta 158.312338
_cell_angle_gamma 90.000000
_cell_volume 1495.754196
_symmetry_space_group_name_H-M "P 21/C"
_symmetry_group_IT_number 14
_symmetry_cell_setting 'monoclinic'
loop_
_space_group_symop_operation_xyz
x,y,z
-x,1/2+y,1/2-z
-x,-y,-z
x,1/2-y,1/2+z
loop_
_atom_site_type_symbol
_atom_site_label
_atom_site_fract_x
_atom_site_fract_y
_atom_site_fract_z
Si Si1 0.343553 0.636532 0.953824
Si Si2 0.466436 0.634451 0.287702
Si Si3 0.096464 0.238628 0.381256
Si Si4 0.685011 0.591415 0.066370
Si Si5 0.965737 0.700498 0.020408
Si Si6 0.196004 0.586160 0.678026
Si Si7 0.227940 0.544688 0.556174
Si Si8 0.554947 0.260298 0.352896
O O1 0.613172 0.619951 0.093052
O O2 0.381471 0.700066 0.042267
O O3 0.235340 0.524004 0.895604
O O4 0.146256 0.691617 0.781343
O O5 0.651776 0.695238 0.453438
O O6 0.188587 0.632273 0.137360
O O7 0.562339 0.520660 0.344506
O O8 0.455665 0.681915 0.211135
O O9 0.100217 0.164226 0.322649
O O10 0.075402 0.171977 0.431937
O O11 0.439698 0.620770 0.869916
O O12 0.017536 0.819829 0.049941
O O13 0.714700 0.683612 0.817475
O O14 0.286781 0.542531 0.669044
O O15 0.048296 0.504368 0.627033
O O16 0.234465 0.655036 0.527523
#
# Coordination Sequence:
#
# PCOD8128464 Si02
#       8
#     4   4   4   4   4   4   4   4
#     4  11  25  40  61  95 126 162 207 263 315 367
#     4  11  21  39  64  89 123 165 208 254 308 379
#     4  11  21  42  63  90 119 163 214 255 305 369
#     4  11  23  42  67  88 122 166 221 252 305 379
#     4  11  21  41  65  88 123 166 207 254 307 381
#     4  11  19  39  69  92 114 168 221 258 291 377
#     4  11  22  35  64  98 125 159 207 266 316 363
#     4  11  24  38  58  97 134 157 201 266 328 357
#
# _framework density 21.393889999999999
#
# number of rings (size 3 to 8) (size 9 to 14) (size 15 to 20)
#    0.000    1.000    6.250    1.500    1.750    4.500 
#    0.000    1.250    0.000    3.000    0.000    0.000 
#    0.000    0.000    0.000    0.000    0.000    0.000 
#
# Total GULP energy -396708.347842 kJ/mol
# GULP energy per Si atom -12397.135870 kJ/mol
# Density = 2.134520 g / cm^3
# Si number density = 21.393890 Si / 1000 Ang^3
#
#
#
# Elastic Constant Matrix: (Units=GPa)
#
#
# Indices 1 2 3 4 5 6 
#
# 1 77.8740 46.4134 20.5711 0.0000 12.5737 0.0000
# 2 46.4134 101.4807 10.9147 0.0000 0.6159 0.0000
# 3 20.5711 10.9147 55.9427 0.0000 3.0322 0.0000
# 4 0.0000 0.0000 0.0000 25.2539 0.0000 7.1434
# 5 12.5737 0.6159 3.0322 0.0000 27.5817 0.0000
# 6 0.0000 0.0000 0.0000 7.1434 0.0000 44.1817
#
#
#
# Elastic Compliance Matrix: (Units=1/GPa)
#
#
# Indices 1 2 3 4 5 6 
#
# 1 0.021082 -0.008995 -0.005520 0.000000 -0.008803 0.000000
# 2 -0.008995 0.013903 0.000392 0.000000 0.003747 0.000000
# 3 -0.005520 0.000392 0.019811 0.000000 0.000330 0.000000
# 4 0.000000 0.000000 0.000000 0.041496 0.000000 -0.006709
# 5 -0.008803 0.003747 0.000330 0.000000 0.040149 0.000000
# 6 0.000000 0.000000 0.000000 -0.006709 0.000000 0.023719
#
#
# Mechanical properties :
#
#
# Convention : Reuss Voigt Hill
#
# Bulk Modulus (GPa) = 37.66516 43.45511 40.56013
# Shear Modulus (GPa) = 25.34792 29.89665 27.62229
#
# Velocity S-wave (km/s) = 3.44586 3.74229 3.59713
# Velocity P-wave (km/s) = 5.78582 6.24732 6.02099
#
# Compressibility (1/GPa) = 0.02654974
#
# Stress axis : x y z
#
# Youngs Moduli (GPa) = 47.43440 71.92640 50.47724
#
# Poissons Ratio (x) = 0.64697 0.27864
# Poissons Ratio (y) = 0.42667 -0.01978
# Poissons Ratio (z) = 0.26184 -0.02819
#
# Static dielectric constant tensor:
#      x y z
#    x 4.027550 0.000000 0.091600 
#    y 0.000000 3.752410 0.000000 
#    z 0.091600 0.000000 3.812870 
# 
# 
# High freq. dielectric constant tensor:
#      x y z
#    x 1.839730 0.000000 0.002620 
#    y 0.000000 1.830000 0.000000 
#    z 0.002620 0.000000 1.833540 
# 
# From -- ./inp_files/68673.got.cif
#   From: 2010.03.12/outbox.cif.g09.slc.cpg/sg14_35_cif.got.tgz:68673.got - 2010.03.31 13:35:05.
