data_PCOD8128137
_publ_section_title
;
Structure prediction by ZEFSAII (Michael W. Deem and Ramdas Pophale) SiO2 
 PCOD8128137
Probable space group: P 21/C
;
_chemical_formula_sum "Si O2"
_cell_formula_units_Z 24
_cell_length_a 5.148582
_cell_length_b 14.909494
_cell_length_c 14.605394
_cell_angle_alpha 90.000000
_cell_angle_beta 114.313602
_cell_angle_gamma 90.000000
_cell_volume 1021.710448
_symmetry_space_group_name_H-M "P 21/C"
_symmetry_group_IT_number 14
_symmetry_cell_setting 'monoclinic'
loop_
_space_group_symop_operation_xyz
x,y,z
-x,1/2+y,1/2-z
-x,-y,-z
x,1/2-y,1/2+z
loop_
_atom_site_type_symbol
_atom_site_label
_atom_site_fract_x
_atom_site_fract_y
_atom_site_fract_z
Si Si1 0.019424 0.177305 0.769073
Si Si2 0.441785 0.362072 0.661652
Si Si3 0.493035 0.703516 0.139294
Si Si4 0.473960 0.566271 0.729643
Si Si5 0.164015 0.717098 0.424375
Si Si6 0.330589 0.508493 0.065989
O O1 0.173133 0.268809 0.829860
O O2 0.290671 0.111273 0.799611
O O3 0.808957 0.129297 0.811220
O O4 0.878737 0.196766 0.648849
O O5 0.566105 0.291118 0.757879
O O6 0.422800 0.465842 0.687332
O O7 0.629359 0.352602 0.597763
O O8 0.123957 0.332831 0.592313
O O9 0.445744 0.599726 0.122441
O O10 0.286700 0.755815 0.040986
O O11 0.583926 0.568086 0.850114
O O12 0.500000 0.500000 0.000000
O O13 0.000000 0.500000 0.000000
#
# Coordination Sequence:
#
# PCOD8128137 Si02
#       6
#     4   4   4   4   4   4
#     4  11  23  40  64  91 123 166 209 256 310 375
#     4  10  24  41  62  90 125 163 205 258 313 370
#     4  10  24  41  65  94 126 163 210 259 315 375
#     4  11  22  41  60  87 127 164 205 258 310 371
#     4  11  22  41  63  91 123 161 207 260 313 372
#     4  11  23  38  63  95 124 159 206 265 326 375
#
# _framework density 23.490020999999999
#
# number of rings (size 3 to 8) (size 9 to 14) (size 15 to 20)
#    0.000    1.333    0.000    6.000    0.000   13.333 
#    0.000    5.000    0.000    0.000    0.000    0.000 
#    0.000    0.000    0.000    0.000    0.000    0.000 
#
# Total GULP energy -297380.569232 kJ/mol
# GULP energy per Si atom -12390.857051 kJ/mol
# Density = 2.343656 g / cm^3
# Si number density = 23.490021 Si / 1000 Ang^3
#
#
#
# Elastic Constant Matrix: (Units=GPa)
#
#
# Indices 1 2 3 4 5 6 
#
# 1 108.4608 30.5975 33.9458 0.0000 18.0439 0.0000
# 2 30.5975 90.1647 22.0829 0.0000 14.7401 0.0000
# 3 33.9458 22.0829 87.4702 0.0000 10.2084 0.0000
# 4 0.0000 0.0000 0.0000 33.9202 0.0000 5.6158
# 5 18.0439 14.7401 10.2084 0.0000 30.1624 0.0000
# 6 0.0000 0.0000 0.0000 5.6158 0.0000 32.0520
#
#
#
# Elastic Compliance Matrix: (Units=1/GPa)
#
#
# Indices 1 2 3 4 5 6 
#
# 1 0.011741 -0.002380 -0.003406 0.000000 -0.004707 0.000000
# 2 -0.002380 0.013064 -0.001869 0.000000 -0.004328 0.000000
# 3 -0.003406 -0.001869 0.013412 0.000000 -0.001588 0.000000
# 4 0.000000 0.000000 0.000000 0.030362 0.000000 -0.005320
# 5 -0.004707 -0.004328 -0.001588 0.000000 0.038622 0.000000
# 6 0.000000 0.000000 0.000000 -0.005320 0.000000 0.032131
#
#
# Mechanical properties :
#
#
# Convention : Reuss Voigt Hill
#
# Bulk Modulus (GPa) = 43.65922 51.03866 47.34894
# Shear Modulus (GPa) = 30.81140 32.52488 31.66814
#
# Velocity S-wave (km/s) = 3.62564 3.72509 3.67570
# Velocity P-wave (km/s) = 6.01279 6.34639 6.18184
#
# Compressibility (1/GPa) = 0.02290467
#
# Stress axis : x y z
#
# Youngs Moduli (GPa) = 85.17448 76.54681 74.56271
#
# Poissons Ratio (x) = 0.18221 0.25396
# Poissons Ratio (y) = 0.20275 0.13938
# Poissons Ratio (z) = 0.29010 0.14309
#
# Static dielectric constant tensor:
#      x y z
#    x 4.168070 0.000000 0.200740 
#    y 0.000000 4.413750 0.000000 
#    z 0.200740 0.000000 4.505240 
# 
# 
# High freq. dielectric constant tensor:
#      x y z
#    x 1.937850 0.000000 0.005830 
#    y 0.000000 1.937350 0.000000 
#    z 0.005830 0.000000 1.928810 
# 
# From -- ./inp_files/37391.got.cif
#   From: 2010.03.12/outbox.cif.g09.slc.cpg/sg14_19_cif.got.tgz:37391.got - 2010.03.31 13:35:05.
