data_PCOD8128690
_publ_section_title
;
Structure prediction by ZEFSAII (Michael W. Deem and Ramdas Pophale) SiO2 
 PCOD8128690
Probable space group: P 21/C
;
_chemical_formula_sum "Si O2"
_cell_formula_units_Z 24
_cell_length_a 23.735548
_cell_length_b 4.614667
_cell_length_c 8.606995
_cell_angle_alpha 90.000000
_cell_angle_beta 121.294204
_cell_angle_gamma 90.000000
_cell_volume 805.580661
_symmetry_space_group_name_H-M "P 21/C"
_symmetry_group_IT_number 14
_symmetry_cell_setting 'monoclinic'
loop_
_space_group_symop_operation_xyz
x,y,z
-x,1/2+y,1/2-z
-x,-y,-z
x,1/2-y,1/2+z
loop_
_atom_site_type_symbol
_atom_site_label
_atom_site_fract_x
_atom_site_fract_y
_atom_site_fract_z
Si Si1 0.283417 0.622370 0.492048
Si Si2 0.114044 0.509057 0.090620
Si Si3 0.958375 0.529195 0.704156
Si Si4 0.543957 0.952739 0.286577
Si Si5 0.378297 0.625588 0.383082
Si Si6 0.797905 0.517963 0.349652
O O1 0.333808 0.443517 0.447775
O O2 0.327167 0.764866 0.685361
O O3 0.249684 0.878096 0.345039
O O4 0.230217 0.440994 0.515657
O O5 0.092968 0.550194 0.236792
O O6 0.132615 0.827581 0.043013
O O7 0.185599 0.343474 0.184780
O O8 0.063188 0.290766 0.937236
O O9 0.977503 0.227527 0.638814
O O10 0.471950 0.120682 0.185483
O O11 0.570013 0.942395 0.146403
O O12 0.589342 0.100364 0.481751
#
# Coordination Sequence:
#
# PCOD8128690 Si02
#       6
#     4   4   4   4   4   4
#     4   9  20  41  62  88 122 157 200 247 300 354
#     4  12  24  41  64  90 120 157 200 244 296 354
#     4  12  24  41  62  90 122 157 196 244 296 354
#     4  11  22  40  62  90 122 160 202 247 296 354
#     4   9  20  40  62  90 122 160 200 247 300 354
#     4  11  22  41  62  88 118 157 198 247 296 354
#
# _framework density 29.792176000000001
#
# number of rings (size 3 to 8) (size 9 to 14) (size 15 to 20)
#    0.000    1.333    0.000    6.000    0.000    0.000 
#    0.000   33.333    0.000    0.000    0.000    0.000 
#    0.000    0.000    0.000    0.000    0.000    0.000 
#
# Total GULP energy -297452.411319 kJ/mol
# GULP energy per Si atom -12393.850472 kJ/mol
# Density = 2.972437 g / cm^3
# Si number density = 29.792176 Si / 1000 Ang^3
#
#
#
# Elastic Constant Matrix: (Units=GPa)
#
#
# Indices 1 2 3 4 5 6 
#
# 1 225.2296 40.1457 50.6241 0.0000 -66.0684 0.0000
# 2 40.1457 143.7655 30.0172 0.0000 -18.0313 0.0000
# 3 50.6241 30.0172 118.0780 0.0000 -35.4698 0.0000
# 4 0.0000 0.0000 0.0000 35.8761 0.0000 -13.6651
# 5 -66.0684 -18.0313 -35.4698 0.0000 62.6817 0.0000
# 6 0.0000 0.0000 0.0000 -13.6651 0.0000 8.8578
#
#
#
# Elastic Compliance Matrix: (Units=1/GPa)
#
#
# Indices 1 2 3 4 5 6 
#
# 1 0.006611 -0.000907 -0.000710 0.000000 0.006305 0.000000
# 2 -0.000907 0.007555 -0.001405 0.000000 0.000422 0.000000
# 3 -0.000710 -0.001405 0.010583 0.000000 0.004837 0.000000
# 4 0.000000 0.000000 0.000000 0.067591 0.000000 0.104274
# 5 0.006305 0.000422 0.004837 0.000000 0.025458 0.000000
# 6 0.000000 0.000000 0.000000 0.104274 0.000000 0.273760
#
#
# Mechanical properties :
#
#
# Convention : Reuss Voigt Hill
#
# Bulk Modulus (GPa) = 53.45789 80.96080 67.20934
# Shear Modulus (GPa) = 12.38122 45.90220 29.14171
#
# Velocity S-wave (km/s) = 2.04080 3.92949 3.13096
# Velocity P-wave (km/s) = 4.85136 6.91535 5.97318
#
# Compressibility (1/GPa) = 0.01870631
#
# Stress axis : x y z
#
# Youngs Moduli (GPa) = 151.27026 132.35629 94.48880
#
# Poissons Ratio (x) = 0.12005 0.06704
# Poissons Ratio (y) = 0.13720 0.13275
# Poissons Ratio (z) = 0.10733 0.18595
#
# Static dielectric constant tensor:
#      x y z
#    x 7.327790 0.000000 0.511590 
#    y 0.000000 5.346530 0.000000 
#    z 0.511590 0.000000 6.123390 
# 
# 
# High freq. dielectric constant tensor:
#      x y z
#    x 2.253030 0.000000 0.032550 
#    y 0.000000 2.206630 0.000000 
#    z 0.032550 0.000000 2.262400 
# 
# From -- ./inp_files/19280.got.cif
#   From: 2010.03.12/outbox.cif.g09.slc.cpg/sg14_10_cif.got.tgz:19280.got - 2010.03.31 13:35:05.
