data_PCOD8128412
_publ_section_title
;
Structure prediction by ZEFSAII (Michael W. Deem and Ramdas Pophale) SiO2 
 PCOD8128412
Probable space group: P 21/C
;
_chemical_formula_sum "Si O2"
_cell_formula_units_Z 32
_cell_length_a 8.207655
_cell_length_b 11.080675
_cell_length_c 14.581161
_cell_angle_alpha 90.000000
_cell_angle_beta 95.458284
_cell_angle_gamma 90.000000
_cell_volume 1320.090555
_symmetry_space_group_name_H-M "P 21/C"
_symmetry_group_IT_number 14
_symmetry_cell_setting 'monoclinic'
loop_
_space_group_symop_operation_xyz
x,y,z
-x,1/2+y,1/2-z
-x,-y,-z
x,1/2-y,1/2+z
loop_
_atom_site_type_symbol
_atom_site_label
_atom_site_fract_x
_atom_site_fract_y
_atom_site_fract_z
Si Si1 0.351818 0.084506 0.461620
Si Si2 0.813265 0.214339 0.878274
Si Si3 0.354892 0.497781 0.563556
Si Si4 0.878540 0.952068 0.103180
Si Si5 0.438381 0.241110 0.622009
Si Si6 0.216449 0.842132 0.437099
Si Si7 0.692409 0.735331 0.696022
Si Si8 0.041375 0.807351 0.789190
O O1 0.312665 0.171139 0.546404
O O2 0.393794 0.166619 0.375532
O O3 0.500000 0.000000 0.500000
O O4 0.209499 0.988471 0.428474
O O5 0.819634 0.283036 0.781143
O O6 0.984551 0.147759 0.901351
O O7 0.661026 0.118071 0.873983
O O8 0.793830 0.312807 0.956351
O O9 0.500000 0.500000 0.500000
O O10 0.180839 0.497901 0.499489
O O11 0.380364 0.379950 0.625932
O O12 0.721908 0.888202 0.142289
O O13 0.940594 0.058797 0.171106
O O14 0.621412 0.223018 0.594951
O O15 0.424365 0.197275 0.725946
O O16 0.064519 0.790030 0.371970
O O17 0.860829 0.793108 0.740730
#
# Coordination Sequence:
#
# PCOD8128412 Si02
#       8
#     4   4   4   4   4   4   4   4
#     4  10  25  48  68 100 150 188 238 295 362 435
#     4  11  25  43  71  99 142 189 229 298 361 427
#     4  12  22  42  70 100 135 181 239 293 351 427
#     4  11  24  46  68 100 143 183 242 297 356 425
#     4  11  24  45  70 102 139 188 241 293 356 429
#     4  11  25  45  66 104 139 188 235 294 368 422
#     4  11  26  44  72 101 137 192 238 296 361 422
#     4  11  26  44  69 106 142 183 240 296 360 430
#
# _framework density 24.240760000000002
#
# number of rings (size 3 to 8) (size 9 to 14) (size 15 to 20)
#    0.000    1.000    3.750    1.125    8.750    3.000 
#    4.500    3.125    0.000    0.000    0.000    0.000 
#    0.000    0.000    0.000    0.000    0.000    0.000 
#
# Total GULP energy -396800.585111 kJ/mol
# GULP energy per Si atom -12400.018285 kJ/mol
# Density = 2.418559 g / cm^3
# Si number density = 24.240760 Si / 1000 Ang^3
#
#
#
# Elastic Constant Matrix: (Units=GPa)
#
#
# Indices 1 2 3 4 5 6 
#
# 1 34.9169 -13.5041 -0.9089 0.0000 -2.6813 0.0000
# 2 -13.5041 80.5929 32.1625 0.0000 0.1803 0.0000
# 3 -0.9089 32.1625 114.7827 0.0000 -4.7330 0.0000
# 4 0.0000 0.0000 0.0000 43.5331 0.0000 -0.6623
# 5 -2.6813 0.1803 -4.7330 0.0000 40.1325 0.0000
# 6 0.0000 0.0000 0.0000 -0.6623 0.0000 30.0315
#
#
#
# Elastic Compliance Matrix: (Units=1/GPa)
#
#
# Indices 1 2 3 4 5 6 
#
# 1 0.030952 0.005689 -0.001271 0.000000 0.001892 0.000000
# 2 0.005689 0.015027 -0.004173 0.000000 -0.000180 0.000000
# 3 -0.001271 -0.004173 0.009917 0.000000 0.001103 0.000000
# 4 0.000000 0.000000 0.000000 0.022979 0.000000 0.000507
# 5 0.001892 -0.000180 0.001103 0.000000 0.025175 0.000000
# 6 0.000000 0.000000 0.000000 0.000507 0.000000 0.033310
#
#
# Mechanical properties :
#
#
# Convention : Reuss Voigt Hill
#
# Bulk Modulus (GPa) = 17.73476 29.53239 23.63358
# Shear Modulus (GPa) = 32.12047 36.90895 34.51471
#
# Velocity S-wave (km/s) = 3.64409 3.90628 3.77746
# Velocity P-wave (km/s) = 5.00378 5.70568 5.36622
#
# Compressibility (1/GPa) = 0.05638644
#
# Stress axis : x y z
#
# Youngs Moduli (GPa) = 32.30808 66.54666 100.83864
#
# Poissons Ratio (x) = -0.37860 0.12817
# Poissons Ratio (y) = -0.18381 0.42080
# Poissons Ratio (z) = 0.04106 0.27770
#
# Static dielectric constant tensor:
#      x y z
#    x 4.345670 0.000000 -0.055940 
#    y 0.000000 5.239340 0.000000 
#    z -0.055940 0.000000 4.762670 
# 
# 
# High freq. dielectric constant tensor:
#      x y z
#    x 1.953830 0.000000 0.000360 
#    y 0.000000 1.970430 0.000000 
#    z 0.000360 0.000000 1.972080 
# 
# From -- ./inp_files/40066.got.cif
#   From: 2010.03.12/outbox.cif.g09.slc.cpg/sg14_21_cif.got.tgz:40066.got - 2010.03.31 13:35:05.
