data_PCOD8128662
_publ_section_title
;
Structure prediction by ZEFSAII (Michael W. Deem and Ramdas Pophale) SiO2 
 PCOD8128662
Probable space group: P 21/C
;
_chemical_formula_sum "Si O2"
_cell_formula_units_Z 28
_cell_length_a 24.362043
_cell_length_b 5.080704
_cell_length_c 28.889766
_cell_angle_alpha 90.000000
_cell_angle_beta 155.530913
_cell_angle_gamma 90.000000
_cell_volume 1481.132984
_symmetry_space_group_name_H-M "P 21/C"
_symmetry_group_IT_number 14
_symmetry_cell_setting 'monoclinic'
loop_
_space_group_symop_operation_xyz
x,y,z
-x,1/2+y,1/2-z
-x,-y,-z
x,1/2-y,1/2+z
loop_
_atom_site_type_symbol
_atom_site_label
_atom_site_fract_x
_atom_site_fract_y
_atom_site_fract_z
Si Si1 0.714057 0.514334 0.146852
Si Si2 0.128884 0.973876 0.762011
Si Si3 0.834093 0.002323 0.550120
Si Si4 0.552127 0.507304 0.113406
Si Si5 0.528632 0.006891 0.153900
Si Si6 0.420877 0.488536 0.204370
Si Si7 0.781424 0.508315 0.568130
O O1 0.793054 0.768811 0.192580
O O2 0.660837 0.555069 0.157590
O O3 0.812128 0.268160 0.221268
O O4 0.594781 0.463338 0.019831
O O5 0.140810 0.928021 0.826055
O O6 0.974121 0.999734 0.630956
O O7 0.721532 0.928646 0.426804
O O8 0.833844 0.789828 0.591106
O O9 0.809431 0.291551 0.550980
O O10 0.570214 0.722250 0.167190
O O11 0.577252 0.222050 0.154414
O O12 0.599307 0.056179 0.257190
O O13 0.372710 0.033523 0.040221
O O14 0.488493 0.730265 0.229725
#
# Coordination Sequence:
#
# PCOD8128662 Si02
#       7
#     4   4   4   4   4   4   4
#     4  11  22  38  60  86 115 147 191 238 289 339
#     4  12  23  37  59  85 120 154 184 231 288 343
#     4  12  24  39  55  85 122 156 188 225 280 347
#     4  11  22  38  60  88 113 147 190 243 290 328
#     4  12  21  37  62  84 119 147 188 239 286 326
#     4  12  23  38  59  83 115 155 192 233 271 328
#     4  12  21  37  58  87 119 154 182 227 287 346
#
# _framework density 18.904446
#
# number of rings (size 3 to 8) (size 9 to 14) (size 15 to 20)
#    0.000    0.286    5.714    5.143    0.000    2.286 
#    0.000    0.000    0.000    5.143    0.000    0.000 
#    0.000    0.000    0.000    0.000    0.000    0.000 
#
# Total GULP energy -347434.014150 kJ/mol
# GULP energy per Si atom -12408.357648 kJ/mol
# Density = 1.886142 g / cm^3
# Si number density = 18.904446 Si / 1000 Ang^3
#
#
#
# Elastic Constant Matrix: (Units=GPa)
#
#
# Indices 1 2 3 4 5 6 
#
# 1 89.6101 17.7745 39.9793 0.0000 1.5271 0.0000
# 2 17.7745 82.9347 9.0794 0.0000 6.8983 0.0000
# 3 39.9793 9.0794 70.2093 0.0000 12.8871 0.0000
# 4 0.0000 0.0000 0.0000 9.9466 0.0000 1.7504
# 5 1.5271 6.8983 12.8871 0.0000 21.9969 0.0000
# 6 0.0000 0.0000 0.0000 1.7504 0.0000 30.0660
#
#
#
# Elastic Compliance Matrix: (Units=1/GPa)
#
#
# Indices 1 2 3 4 5 6 
#
# 1 0.015966 -0.002812 -0.009733 0.000000 0.005476 0.000000
# 2 -0.002812 0.012938 0.000714 0.000000 -0.004280 0.000000
# 3 -0.009733 0.000714 0.021973 0.000000 -0.012421 0.000000
# 4 0.000000 0.000000 0.000000 0.101578 0.000000 -0.005914
# 5 0.005476 -0.004280 -0.012421 0.000000 0.053700 0.000000
# 6 0.000000 0.000000 0.000000 -0.005914 0.000000 0.033604
#
#
# Mechanical properties :
#
#
# Convention : Reuss Voigt Hill
#
# Bulk Modulus (GPa) = 36.74440 41.82451 39.28445
# Shear Modulus (GPa) = 18.34902 24.12996 21.23949
#
# Velocity S-wave (km/s) = 3.11886 3.57657 3.35553
# Velocity P-wave (km/s) = 5.69638 6.26323 5.98652
#
# Compressibility (1/GPa) = 0.02721503
#
# Stress axis : x y z
#
# Youngs Moduli (GPa) = 62.63196 77.29057 45.51013
#
# Poissons Ratio (x) = 0.21732 0.44296
# Poissons Ratio (y) = 0.17611 -0.03248
# Poissons Ratio (z) = 0.60961 -0.05516
#
# Static dielectric constant tensor:
#      x y z
#    x 3.513860 0.000000 -0.012440 
#    y 0.000000 3.627240 0.000000 
#    z -0.012440 0.000000 3.454500 
# 
# 
# High freq. dielectric constant tensor:
#      x y z
#    x 1.732830 0.000000 0.001910 
#    y 0.000000 1.756660 0.000000 
#    z 0.001910 0.000000 1.716750 
# 
# From -- ./inp_files/66446.got.cif
#   From: 2010.03.12/outbox.cif.g09.slc.cpg/sg14_34_cif.got.tgz:66446.got - 2010.03.31 13:35:05.
