data_PCOD8128746
_publ_section_title
;
Structure prediction by ZEFSAII (Michael W. Deem and Ramdas Pophale) SiO2 
 PCOD8128746
Probable space group: P 21/C
;
_chemical_formula_sum "Si O2"
_cell_formula_units_Z 20
_cell_length_a 10.671050
_cell_length_b 12.741328
_cell_length_c 10.438940
_cell_angle_alpha 90.000000
_cell_angle_beta 143.302503
_cell_angle_gamma 90.000000
_cell_volume 848.167566
_symmetry_space_group_name_H-M "P 21/C"
_symmetry_group_IT_number 14
_symmetry_cell_setting 'monoclinic'
loop_
_space_group_symop_operation_xyz
x,y,z
-x,1/2+y,1/2-z
-x,-y,-z
x,1/2-y,1/2+z
loop_
_atom_site_type_symbol
_atom_site_label
_atom_site_fract_x
_atom_site_fract_y
_atom_site_fract_z
Si Si1 0.493629 0.277336 0.967592
Si Si2 0.243316 0.763167 0.069191
Si Si3 0.129056 0.526492 0.944146
Si Si4 0.875514 0.921129 0.808865
Si Si5 0.703734 0.567565 0.676361
O O1 0.619834 0.231597 0.948929
O O2 0.332337 0.370828 0.795625
O O3 0.344381 0.186363 0.898886
O O4 0.641898 0.308145 0.209263
O O5 0.196193 0.640419 0.050415
O O6 0.030983 0.831065 0.880523
O O7 0.222052 0.493676 0.884010
O O8 0.876779 0.524319 0.719273
O O9 0.200265 0.438425 0.102552
O O10 0.000000 0.000000 0.000000
O O11 0.500000 0.500000 0.500000
#
# Coordination Sequence:
#
# PCOD8128746 Si02
#       5
#     4   4   4   4   4
#     4  12  27  46  76 107 150 197 254 301 386 447
#     4  12  27  47  75 110 149 196 254 309 376 459
#     4  11  25  43  73 103 143 188 250 301 373 436
#     4  12  29  48  72 110 159 195 244 321 384 447
#     4  11  22  43  74 103 134 188 247 304 353 444
#
# _framework density 23.580248000000001
#
# number of rings (size 3 to 8) (size 9 to 14) (size 15 to 20)
#    0.000    0.400    4.000    3.600    5.600    8.000 
#    0.000    0.000    0.000    0.000    0.000    0.000 
#    0.000    0.000    0.000    0.000    0.000    0.000 
#
# Total GULP energy -247943.536774 kJ/mol
# GULP energy per Si atom -12397.176839 kJ/mol
# Density = 2.352658 g / cm^3
# Si number density = 23.580248 Si / 1000 Ang^3
#
#
#
# Elastic Constant Matrix: (Units=GPa)
#
#
# Indices 1 2 3 4 5 6 
#
# 1 103.0177 4.8119 23.9829 0.0000 6.9995 0.0000
# 2 4.8119 76.7394 19.7063 0.0000 7.8889 0.0000
# 3 23.9829 19.7063 93.7512 0.0000 14.8273 0.0000
# 4 0.0000 0.0000 0.0000 51.0365 0.0000 1.7473
# 5 6.9995 7.8889 14.8273 0.0000 39.9986 0.0000
# 6 0.0000 0.0000 0.0000 1.7473 0.0000 37.5411
#
#
#
# Elastic Compliance Matrix: (Units=1/GPa)
#
#
# Indices 1 2 3 4 5 6 
#
# 1 0.010352 0.000091 -0.002526 0.000000 -0.000893 0.000000
# 2 0.000091 0.013891 -0.002664 0.000000 -0.001768 0.000000
# 3 -0.002526 -0.002664 0.012449 0.000000 -0.003648 0.000000
# 4 0.000000 0.000000 0.000000 0.019625 0.000000 -0.000913
# 5 -0.000893 -0.001768 -0.003648 0.000000 0.026858 0.000000
# 6 0.000000 0.000000 0.000000 -0.000913 0.000000 0.026680
#
#
# Mechanical properties :
#
#
# Convention : Reuss Voigt Hill
#
# Bulk Modulus (GPa) = 37.74190 41.16782 39.45486
# Shear Modulus (GPa) = 38.79465 40.71573 39.75519
#
# Velocity S-wave (km/s) = 4.06053 4.15985 4.11049
# Velocity P-wave (km/s) = 6.16639 6.36938 6.26871
#
# Compressibility (1/GPa) = 0.02649575
#
# Stress axis : x y z
#
# Youngs Moduli (GPa) = 96.60394 71.98819 80.32457
#
# Poissons Ratio (x) = -0.00658 0.20290
# Poissons Ratio (y) = -0.00883 0.21395
# Poissons Ratio (z) = 0.24402 0.19175
#
# Static dielectric constant tensor:
#      x y z
#    x 4.323040 0.000000 0.050630 
#    y 0.000000 9.483920 0.000000 
#    z 0.050630 0.000000 4.919670 
# 
# 
# High freq. dielectric constant tensor:
#      x y z
#    x 1.927800 0.000000 0.012980 
#    y 0.000000 1.943440 0.000000 
#    z 0.012980 0.000000 1.943530 
# 
# From -- ./inp_files/30077.got.cif
#   From: 2010.03.12/outbox.cif.g09.slc.cpg/sg14_16_cif.got.tgz:30077.got - 2010.03.31 13:35:05.
