data_PCOD8128310
_publ_section_title
;
Structure prediction by ZEFSAII (Michael W. Deem and Ramdas Pophale) SiO2 
 PCOD8128310
Probable space group: P 21/C
;
_chemical_formula_sum "Si O2"
_cell_formula_units_Z 32
_cell_length_a 8.218412
_cell_length_b 16.011562
_cell_length_c 12.489923
_cell_angle_alpha 90.000000
_cell_angle_beta 120.640891
_cell_angle_gamma 90.000000
_cell_volume 1414.070062
_symmetry_space_group_name_H-M "P 21/C"
_symmetry_group_IT_number 14
_symmetry_cell_setting 'monoclinic'
loop_
_space_group_symop_operation_xyz
x,y,z
-x,1/2+y,1/2-z
-x,-y,-z
x,1/2-y,1/2+z
loop_
_atom_site_type_symbol
_atom_site_label
_atom_site_fract_x
_atom_site_fract_y
_atom_site_fract_z
Si Si1 0.529457 0.708777 0.526066
Si Si2 0.125055 0.879829 0.183384
Si Si3 0.773952 0.051744 0.352732
Si Si4 0.842061 0.015715 0.601600
Si Si5 0.751582 0.602080 0.442688
Si Si6 0.237067 0.360039 0.800999
Si Si7 0.458185 0.558327 0.659892
Si Si8 0.829040 0.298755 0.728071
O O1 0.669341 0.681374 0.478067
O O2 0.620298 0.788337 0.614039
O O3 0.510451 0.633259 0.600898
O O4 0.320793 0.730475 0.412150
O O5 0.084743 0.917590 0.287258
O O6 0.329473 0.908884 0.213463
O O7 0.111223 0.780262 0.181773
O O8 0.970078 0.911717 0.046790
O O9 0.737495 0.063819 0.468534
O O10 0.721408 0.136054 0.270592
O O11 0.652555 0.973323 0.274621
O O12 0.989654 0.033784 0.398576
O O13 0.715752 0.943477 0.614868
O O14 0.721922 0.617639 0.307594
O O15 0.643824 0.516661 0.439067
O O16 0.016061 0.335755 0.735237
#
# Coordination Sequence:
#
# PCOD8128310 Si02
#       8
#     4   4   4   4   4   4   4   4
#     4  12  27  46  74 106 149 184 241 296 361 422
#     4  12  26  45  74 106 142 189 239 290 361 425
#     4  10  24  45  73 101 146 185 237 292 357 422
#     4  10  24  46  73 102 140 192 236 288 357 427
#     4  12  25  48  73 104 142 187 240 295 353 428
#     4  11  26  48  72 105 147 187 237 298 352 423
#     4  12  26  43  76 104 139 191 234 295 353 429
#     4  11  26  47  69 108 143 188 236 300 354 422
#
# _framework density 22.629712000000001
#
# number of rings (size 3 to 8) (size 9 to 14) (size 15 to 20)
#    0.000    0.750    3.750    2.250    7.000    3.500 
#    0.000    0.000    0.000    0.000    0.000    0.000 
#    0.000    0.000    0.000    0.000    0.000    0.000 
#
# Total GULP energy -396932.064982 kJ/mol
# GULP energy per Si atom -12404.127031 kJ/mol
# Density = 2.257821 g / cm^3
# Si number density = 22.629712 Si / 1000 Ang^3
#
#
#
# Elastic Constant Matrix: (Units=GPa)
#
#
# Indices 1 2 3 4 5 6 
#
# 1 67.5285 26.2330 35.6875 0.0000 -5.7073 0.0000
# 2 26.2330 102.8452 47.0282 0.0000 -9.8021 0.0000
# 3 35.6875 47.0282 148.8014 0.0000 -7.6923 0.0000
# 4 0.0000 0.0000 0.0000 35.4454 0.0000 1.7424
# 5 -5.7073 -9.8021 -7.6923 0.0000 32.7157 0.0000
# 6 0.0000 0.0000 0.0000 1.7424 0.0000 32.9390
#
#
#
# Elastic Compliance Matrix: (Units=1/GPa)
#
#
# Indices 1 2 3 4 5 6 
#
# 1 0.017790 -0.002901 -0.003274 0.000000 0.001464 0.000000
# 2 -0.002901 0.012060 -0.002992 0.000000 0.002404 0.000000
# 3 -0.003274 -0.002992 0.008478 0.000000 0.000526 0.000000
# 4 0.000000 0.000000 0.000000 0.028286 0.000000 -0.001496
# 5 0.001464 0.002404 0.000526 0.000000 0.031666 0.000000
# 6 0.000000 0.000000 0.000000 -0.001496 0.000000 0.030438
#
#
# Mechanical properties :
#
#
# Convention : Reuss Voigt Hill
#
# Bulk Modulus (GPa) = 50.01232 59.67473 54.84352
# Shear Modulus (GPa) = 32.52745 34.23512 33.38128
#
# Velocity S-wave (km/s) = 3.79539 3.89374 3.84488
# Velocity P-wave (km/s) = 6.43078 6.82952 6.63314
#
# Compressibility (1/GPa) = 0.01999507
#
# Stress axis : x y z
#
# Youngs Moduli (GPa) = 56.21292 82.91590 117.94862
#
# Poissons Ratio (x) = 0.24053 0.38616
# Poissons Ratio (y) = 0.16307 0.35286
# Poissons Ratio (z) = 0.18404 0.24805
#
# Static dielectric constant tensor:
#      x y z
#    x 4.160500 0.000000 -0.055940 
#    y 0.000000 4.181750 0.000000 
#    z -0.055940 0.000000 4.169450 
# 
# 
# High freq. dielectric constant tensor:
#      x y z
#    x 1.901500 0.000000 -0.001140 
#    y 0.000000 1.897750 0.000000 
#    z -0.001140 0.000000 1.896570 
# 
# From -- ./inp_files/25542.got.cif
#   From: 2010.03.12/outbox.cif.g09.slc.cpg/sg14_13_cif.got.tgz:25542.got - 2010.03.31 13:35:05.
