data_PCOD8128809
_publ_section_title
;
Structure prediction by ZEFSAII (Michael W. Deem and Ramdas Pophale) SiO2 
 PCOD8128809
Probable space group: P 21/C
;
_chemical_formula_sum "Si O2"
_cell_formula_units_Z 32
_cell_length_a 5.582392
_cell_length_b 22.118615
_cell_length_c 11.338223
_cell_angle_alpha 90.000000
_cell_angle_beta 81.067495
_cell_angle_gamma 90.000000
_cell_volume 1383.005482
_symmetry_space_group_name_H-M "P 21/C"
_symmetry_group_IT_number 14
_symmetry_cell_setting 'monoclinic'
loop_
_space_group_symop_operation_xyz
x,y,z
-x,1/2+y,1/2-z
-x,-y,-z
x,1/2-y,1/2+z
loop_
_atom_site_type_symbol
_atom_site_label
_atom_site_fract_x
_atom_site_fract_y
_atom_site_fract_z
Si Si1 0.187194 0.732291 0.275230
Si Si2 0.876875 0.421867 0.397548
Si Si3 0.510297 0.346537 0.566977
Si Si4 0.346340 0.368125 0.952596
Si Si5 0.117041 0.161606 0.702540
Si Si6 0.862456 0.558105 0.382267
Si Si7 0.103898 0.885433 0.660349
Si Si8 0.631125 0.766551 0.113593
O O1 0.325844 0.690779 0.357647
O O2 0.047336 0.683968 0.203715
O O3 0.355735 0.772823 0.178289
O O4 0.036586 0.785534 0.353670
O O5 0.656916 0.380186 0.453596
O O6 0.776633 0.489058 0.378809
O O7 0.980919 0.396519 0.266491
O O8 0.075333 0.425576 0.487096
O O9 0.351429 0.397023 0.646827
O O10 0.335237 0.297960 0.516529
O O11 0.618673 0.394407 0.909504
O O12 0.315191 0.303765 0.895018
O O13 0.110680 0.404481 0.916982
O O14 0.317846 0.363617 0.096969
O O15 0.200672 0.199546 0.808219
O O16 0.087213 0.570611 0.276430
#
# Coordination Sequence:
#
# PCOD8128809 Si02
#       8
#     4   4   4   4   4   4   4   4
#     4  11  24  37  66  97 142 180 228 291 364 434
#     4  11  25  44  70 106 138 192 239 313 363 427
#     4  12  23  40  69 104 140 188 235 304 363 436
#     4  11  27  42  70 101 148 188 242 288 373 441
#     4  12  25  43  64 104 148 186 233 302 363 448
#     4  11  24  46  73  98 143 185 258 300 366 422
#     4  11  24  47  67 104 135 196 243 298 352 438
#     4  11  23  39  61 100 140 191 225 290 365 435
#
# _framework density 23.138016
#
# number of rings (size 3 to 8) (size 9 to 14) (size 15 to 20)
#    0.000    0.750    5.000    2.625    8.750    0.000 
#    0.000    1.250    0.000    0.000    0.000    0.000 
#    0.000    0.000    0.000    0.000    0.000    0.000 
#
# Total GULP energy -396532.759727 kJ/mol
# GULP energy per Si atom -12391.648741 kJ/mol
# Density = 2.308535 g / cm^3
# Si number density = 23.138016 Si / 1000 Ang^3
#
#
#
# Elastic Constant Matrix: (Units=GPa)
#
#
# Indices 1 2 3 4 5 6 
#
# 1 120.7175 10.6748 -14.1699 0.0000 -31.3997 0.0000
# 2 10.6748 103.1004 67.5382 0.0000 24.9161 0.0000
# 3 -14.1699 67.5382 220.2064 0.0000 50.5612 0.0000
# 4 0.0000 0.0000 0.0000 29.2877 0.0000 3.7517
# 5 -31.3997 24.9161 50.5612 0.0000 69.7379 0.0000
# 6 0.0000 0.0000 0.0000 3.7517 0.0000 16.4906
#
#
#
# Elastic Compliance Matrix: (Units=1/GPa)
#
#
# Indices 1 2 3 4 5 6 
#
# 1 0.009858 -0.002387 0.000182 0.000000 0.005160 0.000000
# 2 -0.002387 0.012944 -0.003377 0.000000 -0.003251 0.000000
# 3 0.000182 -0.003377 0.006350 0.000000 -0.003315 0.000000
# 4 0.000000 0.000000 0.000000 0.035169 0.000000 -0.008001
# 5 0.005160 -0.003251 -0.003315 0.000000 0.020228 0.000000
# 6 0.000000 0.000000 0.000000 -0.008001 0.000000 0.062461
#
#
# Mechanical properties :
#
#
# Convention : Reuss Voigt Hill
#
# Bulk Modulus (GPa) = 55.59241 63.56785 59.58013
# Shear Modulus (GPa) = 30.45615 48.43534 39.44574
#
# Velocity S-wave (km/s) = 3.63200 4.58025 4.13340
# Velocity P-wave (km/s) = 6.45501 7.45014 6.97035
#
# Compressibility (1/GPa) = 0.01798807
#
# Stress axis : x y z
#
# Youngs Moduli (GPa) = 101.43778 77.25373 157.48176
#
# Poissons Ratio (x) = 0.18438 -0.02860
# Poissons Ratio (y) = 0.24209 0.53186
# Poissons Ratio (z) = -0.01842 0.26091
#
# Static dielectric constant tensor:
#      x y z
#    x 4.474400 0.000000 -0.245120 
#    y 0.000000 4.226350 0.000000 
#    z -0.245120 0.000000 4.194040 
# 
# 
# High freq. dielectric constant tensor:
#      x y z
#    x 1.911110 0.000000 -0.007720 
#    y 0.000000 1.896630 0.000000 
#    z -0.007720 0.000000 1.914160 
# 
# From -- ./inp_files/22087.got.cif
#   From: 2010.03.12/outbox.cif.g09.slc.cpg/sg14_12_cif.got.tgz:22087.got - 2010.03.31 13:35:05.
