data_PCOD8128497
_publ_section_title
;
Structure prediction by ZEFSAII (Michael W. Deem and Ramdas Pophale) SiO2 
 PCOD8128497
Probable space group: P 21/C
;
_chemical_formula_sum "Si O2"
_cell_formula_units_Z 32
_cell_length_a 13.721310
_cell_length_b 18.129640
_cell_length_c 11.275715
_cell_angle_alpha 90.000000
_cell_angle_beta 32.013277
_cell_angle_gamma 90.000000
_cell_volume 1486.960964
_symmetry_space_group_name_H-M "P 21/C"
_symmetry_group_IT_number 14
_symmetry_cell_setting 'monoclinic'
loop_
_space_group_symop_operation_xyz
x,y,z
-x,1/2+y,1/2-z
-x,-y,-z
x,1/2-y,1/2+z
loop_
_atom_site_type_symbol
_atom_site_label
_atom_site_fract_x
_atom_site_fract_y
_atom_site_fract_z
Si Si1 0.146405 0.447243 0.033549
Si Si2 0.271649 0.895676 0.325353
Si Si3 0.218312 0.624495 0.614454
Si Si4 0.585299 0.636016 0.113654
Si Si5 0.478315 0.697779 0.980961
Si Si6 0.749939 0.706272 0.510217
Si Si7 0.350374 0.145559 0.124350
Si Si8 0.842655 0.287151 0.853574
O O1 0.170613 0.531453 0.974029
O O2 0.257137 0.427067 0.040170
O O3 0.220258 0.391462 0.855532
O O4 0.929906 0.434669 0.280469
O O5 0.187244 0.870814 0.287387
O O6 0.243410 0.830696 0.448092
O O7 0.490036 0.910439 0.083752
O O8 0.427322 0.604403 0.364970
O O9 0.183599 0.702056 0.585734
O O10 0.503492 0.644224 0.066845
O O11 0.676838 0.711297 0.064540
O O12 0.601369 0.665440 0.746544
O O13 0.544370 0.781385 0.937149
O O14 0.265599 0.695153 0.157479
O O15 0.776883 0.665374 0.357007
O O16 0.940486 0.700423 0.385803
#
# Coordination Sequence:
#
# PCOD8128497 Si02
#       8
#     4   4   4   4   4   4   4   4
#     4  12  24  43  63  98 135 170 212 264 335 389
#     4  12  24  41  68  98 131 170 212 268 331 386
#     4  12  23  40  64  97 133 164 216 273 324 378
#     4  11  23  39  63  95 127 175 211 266 321 385
#     4  11  21  40  63  96 127 163 227 266 313 377
#     4  11  21  38  65  95 124 166 223 266 321 375
#     4  11  20  40  65  94 131 167 212 272 324 374
#     4  12  22  39  65  94 128 167 214 271 320 377
#
# _framework density 21.520402000000001
#
# number of rings (size 3 to 8) (size 9 to 14) (size 15 to 20)
#    0.000    0.500    7.500    2.250    0.000    2.000 
#    0.000    0.625    0.000    1.500    0.000    0.000 
#    0.000    0.000    0.000    0.000    0.000    0.000 
#
# Total GULP energy -396731.662939 kJ/mol
# GULP energy per Si atom -12397.864467 kJ/mol
# Density = 2.147142 g / cm^3
# Si number density = 21.520402 Si / 1000 Ang^3
#
#
#
# Elastic Constant Matrix: (Units=GPa)
#
#
# Indices 1 2 3 4 5 6 
#
# 1 135.6354 13.9801 24.2402 0.0000 -16.0989 0.0000
# 2 13.9801 43.8662 -7.7339 0.0000 3.8952 0.0000
# 3 24.2402 -7.7339 51.1597 0.0000 -19.7127 0.0000
# 4 0.0000 0.0000 0.0000 27.0640 0.0000 0.1663
# 5 -16.0989 3.8952 -19.7127 0.0000 37.5206 0.0000
# 6 0.0000 0.0000 0.0000 0.1663 0.0000 18.7472
#
#
#
# Elastic Compliance Matrix: (Units=1/GPa)
#
#
# Indices 1 2 3 4 5 6 
#
# 1 0.008684 -0.003633 -0.003865 0.000000 0.002072 0.000000
# 2 -0.003633 0.024956 0.004884 0.000000 -0.001584 0.000000
# 3 -0.003865 0.004884 0.026684 0.000000 0.011854 0.000000
# 4 0.000000 0.000000 0.000000 0.036951 0.000000 -0.000328
# 5 0.002072 -0.001584 0.011854 0.000000 0.033933 0.000000
# 6 0.000000 0.000000 0.000000 -0.000328 0.000000 0.053344
#
#
# Mechanical properties :
#
#
# Convention : Reuss Voigt Hill
#
# Bulk Modulus (GPa) = 18.15054 32.40381 25.27717
# Shear Modulus (GPa) = 24.02151 30.01136 27.01643
#
# Velocity S-wave (km/s) = 3.34461 3.73842 3.54699
# Velocity P-wave (km/s) = 4.83401 5.80727 5.34285
#
# Compressibility (1/GPa) = 0.05509478
#
# Stress axis : x y z
#
# Youngs Moduli (GPa) = 115.15521 40.07038 37.47597
#
# Poissons Ratio (x) = 0.14558 0.14485
# Poissons Ratio (y) = 0.41836 -0.18302
# Poissons Ratio (z) = 0.44510 -0.19570
#
# Static dielectric constant tensor:
#      x y z
#    x 4.200540 0.000000 -0.162960 
#    y 0.000000 3.544850 0.000000 
#    z -0.162960 0.000000 3.964330 
# 
# 
# High freq. dielectric constant tensor:
#      x y z
#    x 1.859690 0.000000 -0.016340 
#    y 0.000000 1.805450 0.000000 
#    z -0.016340 0.000000 1.843310 
# 
# From -- ./inp_files/33030.got.cif
#   From: 2010.03.12/outbox.cif.g09.slc.cpg/sg14_17_cif.got.tgz:33030.got - 2010.03.31 13:35:05.
