data_PCOD8128988
_publ_section_title
;
Structure prediction by ZEFSAII (Michael W. Deem and Ramdas Pophale) SiO2 
 PCOD8128988
Probable space group: P 21/C
;
_chemical_formula_sum "Si O2"
_cell_formula_units_Z 32
_cell_length_a 14.807175
_cell_length_b 19.111455
_cell_length_c 11.328203
_cell_angle_alpha 90.000000
_cell_angle_beta 152.520848
_cell_angle_gamma 90.000000
_cell_volume 1479.206770
_symmetry_space_group_name_H-M "P 21/C"
_symmetry_group_IT_number 14
_symmetry_cell_setting 'monoclinic'
loop_
_space_group_symop_operation_xyz
x,y,z
-x,1/2+y,1/2-z
-x,-y,-z
x,1/2-y,1/2+z
loop_
_atom_site_type_symbol
_atom_site_label
_atom_site_fract_x
_atom_site_fract_y
_atom_site_fract_z
Si Si1 0.486289 0.782901 0.322496
Si Si2 0.798549 0.152947 0.196706
Si Si3 0.801111 0.295102 0.298072
Si Si4 0.687568 0.964011 0.781177
Si Si5 0.472169 0.637644 0.200130
Si Si6 0.985481 0.956696 0.700547
Si Si7 0.838461 0.614691 0.243722
Si Si8 0.336708 0.948002 0.762961
O O1 0.363935 0.773751 0.299880
O O2 0.562105 0.707341 0.364740
O O3 0.670137 0.829647 0.566447
O O4 0.365321 0.824301 0.085287
O O5 0.899214 0.223243 0.364971
O O6 0.966208 0.106320 0.332186
O O7 0.686902 0.113401 0.171107
O O8 0.959647 0.344464 0.541111
O O9 0.717697 0.338908 0.092123
O O10 0.626922 0.898963 0.792817
O O11 0.835937 0.936173 0.853649
O O12 0.500000 0.000000 0.500000
O O13 0.810450 0.018535 0.002751
O O14 0.407802 0.581376 0.221098
O O15 0.823934 0.931748 0.608916
O O16 0.876737 0.016496 0.499823
O O17 0.500000 0.000000 0.000000
#
# Coordination Sequence:
#
# PCOD8128988 Si02
#       8
#     4   4   4   4   4   4   4   4
#     4  11  23  46  70  98 135 173 227 288 335 398
#     4  11  24  44  68  94 138 178 219 281 340 395
#     4  11  23  46  70  98 135 172 228 291 332 399
#     4  12  24  43  71 101 138 178 226 281 337 408
#     4  11  24  44  70  99 135 179 224 281 345 394
#     4  12  25  42  66 102 136 179 228 271 338 415
#     4  12  24  42  72 100 131 178 223 278 344 395
#     4  12  25  43  65  97 141 183 223 273 335 411
#
# _framework density 21.633216999999998
#
# number of rings (size 3 to 8) (size 9 to 14) (size 15 to 20)
#    0.000    0.500    3.750    5.250    0.000    3.000 
#    0.000    0.000    0.000    0.000    0.000    0.000 
#    0.000    0.000    0.000    0.000    0.000    0.000 
#
# Total GULP energy -396925.836952 kJ/mol
# GULP energy per Si atom -12403.932405 kJ/mol
# Density = 2.158398 g / cm^3
# Si number density = 21.633217 Si / 1000 Ang^3
#
#
#
# Elastic Constant Matrix: (Units=GPa)
#
#
# Indices 1 2 3 4 5 6 
#
# 1 116.1781 42.2528 9.0723 0.0000 -3.1499 0.0000
# 2 42.2528 109.6650 30.7357 0.0000 -4.4039 0.0000
# 3 9.0723 30.7357 79.2559 0.0000 -6.9458 0.0000
# 4 0.0000 0.0000 0.0000 9.3403 0.0000 0.5650
# 5 -3.1499 -4.4039 -6.9458 0.0000 29.5304 0.0000
# 6 0.0000 0.0000 0.0000 0.5650 0.0000 52.0008
#
#
#
# Elastic Compliance Matrix: (Units=1/GPa)
#
#
# Indices 1 2 3 4 5 6 
#
# 1 0.010031 -0.003965 0.000440 0.000000 0.000582 0.000000
# 2 -0.003965 0.011808 -0.004093 0.000000 0.000375 0.000000
# 3 0.000440 -0.004093 0.014402 0.000000 0.002824 0.000000
# 4 0.000000 0.000000 0.000000 0.107133 0.000000 -0.001164
# 5 0.000582 0.000375 0.002824 0.000000 0.034646 0.000000
# 6 0.000000 0.000000 0.000000 -0.001164 0.000000 0.019243
#
#
# Mechanical properties :
#
#
# Convention : Reuss Voigt Hill
#
# Bulk Modulus (GPa) = 47.60376 52.13562 49.86969
# Shear Modulus (GPa) = 22.77917 33.04354 27.91136
#
# Velocity S-wave (km/s) = 3.24847 3.91249 3.59584
# Velocity P-wave (km/s) = 6.01023 6.67550 6.35158
#
# Compressibility (1/GPa) = 0.02100675
#
# Stress axis : x y z
#
# Youngs Moduli (GPa) = 99.69258 84.68558 69.43699
#
# Poissons Ratio (x) = 0.33576 -0.03058
# Poissons Ratio (y) = 0.39526 0.28418
# Poissons Ratio (z) = -0.04390 0.34658
#
# Static dielectric constant tensor:
#      x y z
#    x 4.045320 0.000000 -0.198040 
#    y 0.000000 4.260390 0.000000 
#    z -0.198040 0.000000 3.701100 
# 
# 
# High freq. dielectric constant tensor:
#      x y z
#    x 1.866990 0.000000 -0.013010 
#    y 0.000000 1.872690 0.000000 
#    z -0.013010 0.000000 1.833230 
# 
# From -- ./inp_files/33054.got.cif
#   From: 2010.03.12/outbox.cif.g09.slc.cpg/sg14_17_cif.got.tgz:33054.got - 2010.03.31 13:35:05.
