data_PCOD8128284
_publ_section_title
;
Structure prediction by ZEFSAII (Michael W. Deem and Ramdas Pophale) SiO2 
 PCOD8128284
Probable space group: P 21/C
;
_chemical_formula_sum "Si O2"
_cell_formula_units_Z 20
_cell_length_a 11.774628
_cell_length_b 7.491134
_cell_length_c 14.161291
_cell_angle_alpha 90.000000
_cell_angle_beta 44.535903
_cell_angle_gamma 90.000000
_cell_volume 876.064670
_symmetry_space_group_name_H-M "P 21/C"
_symmetry_group_IT_number 14
_symmetry_cell_setting 'monoclinic'
loop_
_space_group_symop_operation_xyz
x,y,z
-x,1/2+y,1/2-z
-x,-y,-z
x,1/2-y,1/2+z
loop_
_atom_site_type_symbol
_atom_site_label
_atom_site_fract_x
_atom_site_fract_y
_atom_site_fract_z
Si Si1 0.771506 0.263798 0.843233
Si Si2 0.512622 0.250556 0.139520
Si Si3 0.168640 0.216656 0.897058
Si Si4 0.317984 0.574687 0.791477
Si Si5 0.966987 0.024894 0.867253
O O1 0.754076 0.198704 0.746809
O O2 0.882138 0.439266 0.778040
O O3 0.848389 0.108332 0.861192
O O4 0.595010 0.307472 0.991908
O O5 0.342430 0.356479 0.253909
O O6 0.638279 0.296129 0.148379
O O7 0.476147 0.036943 0.162640
O O8 0.180952 0.430835 0.904638
O O9 0.130946 0.129383 0.020136
O O10 0.028168 0.173690 0.905048
#
# Coordination Sequence:
#
# PCOD8128284 Si02
#       5
#     4   4   4   4   4
#     4  12  26  42  71  99 138 176 229 274 335 398
#     4  10  24  45  70  96 132 178 226 274 327 402
#     4   9  24  45  69  90 142 174 222 270 341 386
#     4  10  24  44  70  96 133 177 225 276 332 393
#     4  11  25  43  66 103 138 174 220 283 327 400
#
# _framework density 22.829363000000001
#
# number of rings (size 3 to 8) (size 9 to 14) (size 15 to 20)
#    1.200    0.400    0.000    3.000   11.200    1.600 
#    0.000    0.000    0.000    0.000    0.000    0.000 
#    0.000    0.000    0.000    0.000    0.000    0.000 
#
# Total GULP energy -247981.329952 kJ/mol
# GULP energy per Si atom -12399.066498 kJ/mol
# Density = 2.277740 g / cm^3
# Si number density = 22.829363 Si / 1000 Ang^3
#
#
#
# Elastic Constant Matrix: (Units=GPa)
#
#
# Indices 1 2 3 4 5 6 
#
# 1 91.5950 11.0390 -4.9100 0.0000 7.8109 0.0000
# 2 11.0390 30.1155 -2.5935 0.0000 -0.8842 0.0000
# 3 -4.9100 -2.5935 44.8764 0.0000 -12.3133 0.0000
# 4 0.0000 0.0000 0.0000 26.0529 0.0000 2.5458
# 5 7.8109 -0.8842 -12.3133 0.0000 32.8569 0.0000
# 6 0.0000 0.0000 0.0000 2.5458 0.0000 31.1719
#
#
#
# Elastic Compliance Matrix: (Units=1/GPa)
#
#
# Indices 1 2 3 4 5 6 
#
# 1 0.011694 -0.004346 0.000260 0.000000 -0.002799 0.000000
# 2 -0.004346 0.035083 0.002335 0.000000 0.002852 0.000000
# 3 0.000260 0.002335 0.025020 0.000000 0.009377 0.000000
# 4 0.000000 0.000000 0.000000 0.038692 0.000000 -0.003160
# 5 -0.002799 0.002852 0.009377 0.000000 0.034691 0.000000
# 6 0.000000 0.000000 0.000000 -0.003160 0.000000 0.032338
#
#
# Mechanical properties :
#
#
# Convention : Reuss Voigt Hill
#
# Bulk Modulus (GPa) = 14.64250 19.29531 16.96891
# Shear Modulus (GPa) = 24.53542 28.88643 26.71093
#
# Velocity S-wave (km/s) = 3.28187 3.56099 3.42427
# Velocity P-wave (km/s) = 4.55946 5.03765 4.80451
#
# Compressibility (1/GPa) = 0.06829434
#
# Stress axis : x y z
#
# Youngs Moduli (GPa) = 85.51315 28.50349 39.96838
#
# Poissons Ratio (x) = 0.12388 -0.01040
# Poissons Ratio (y) = 0.37167 -0.09331
# Poissons Ratio (z) = -0.02225 -0.06655
#
# Static dielectric constant tensor:
#      x y z
#    x 3.906860 0.000000 -0.137860 
#    y 0.000000 3.820910 0.000000 
#    z -0.137860 0.000000 4.168900 
# 
# 
# High freq. dielectric constant tensor:
#      x y z
#    x 1.900810 0.000000 -0.008380 
#    y 0.000000 1.887870 0.000000 
#    z -0.008380 0.000000 1.904140 
# 
# From -- ./inp_files/42969.got.cif
#   From: 2010.03.12/outbox.cif.g09.slc.cpg/sg14_22_cif.got.tgz:42969.got - 2010.03.31 13:35:05.
