data_PCOD8128438
_publ_section_title
;
Structure prediction by ZEFSAII (Michael W. Deem and Ramdas Pophale) SiO2 
 PCOD8128438
Probable space group: P 21/C
;
_chemical_formula_sum "Si O2"
_cell_formula_units_Z 20
_cell_length_a 8.518398
_cell_length_b 9.596636
_cell_length_c 10.636712
_cell_angle_alpha 90.000000
_cell_angle_beta 81.350836
_cell_angle_gamma 90.000000
_cell_volume 859.641012
_symmetry_space_group_name_H-M "P 21/C"
_symmetry_group_IT_number 14
_symmetry_cell_setting 'monoclinic'
loop_
_space_group_symop_operation_xyz
x,y,z
-x,1/2+y,1/2-z
-x,-y,-z
x,1/2-y,1/2+z
loop_
_atom_site_type_symbol
_atom_site_label
_atom_site_fract_x
_atom_site_fract_y
_atom_site_fract_z
Si Si1 0.820471 0.176728 0.394963
Si Si2 0.171684 0.172689 0.285729
Si Si3 0.832043 0.013583 0.950490
Si Si4 0.387972 0.970699 0.397102
Si Si5 0.316635 0.037670 0.782209
O O1 0.808661 0.342753 0.377518
O O2 0.004681 0.134943 0.369742
O O3 0.747151 0.138153 0.541120
O O4 0.729715 0.098069 0.293755
O O5 0.306490 0.112974 0.361218
O O6 0.194035 0.337914 0.267391
O O7 0.183735 0.111152 0.145145
O O8 0.692062 0.000539 0.069993
O O9 0.000000 0.000000 0.000000
O O10 0.500000 0.000000 0.500000
O O11 0.502494 0.914058 0.271608
#
# Coordination Sequence:
#
# PCOD8128438 Si02
#       5
#     4   4   4   4   4
#     4  11  24  47  75 102 144 188 242 290 360 419
#     4  12  25  45  76 104 142 193 237 295 354 426
#     4  12  26  44  75 109 142 184 242 298 349 430
#     4  10  27  45  71 102 145 188 238 296 356 419
#     4  11  27  49  70 108 149 183 245 291 363 422
#
# _framework density 23.265526000000001
#
# number of rings (size 3 to 8) (size 9 to 14) (size 15 to 20)
#    0.000    0.800    4.000    0.600   11.200    4.000 
#    0.000    0.000    0.000    0.000    0.000    0.000 
#    0.000    0.000    0.000    0.000    0.000    0.000 
#
# Total GULP energy -248035.155413 kJ/mol
# GULP energy per Si atom -12401.757771 kJ/mol
# Density = 2.321257 g / cm^3
# Si number density = 23.265526 Si / 1000 Ang^3
#
#
#
# Elastic Constant Matrix: (Units=GPa)
#
#
# Indices 1 2 3 4 5 6 
#
# 1 106.5740 17.3690 65.9068 0.0000 -30.8049 0.0000
# 2 17.3690 119.7698 47.8327 0.0000 4.7998 0.0000
# 3 65.9068 47.8327 145.9928 0.0000 -30.4069 0.0000
# 4 0.0000 0.0000 0.0000 44.7697 0.0000 4.7440
# 5 -30.8049 4.7998 -30.4069 0.0000 59.4345 0.0000
# 6 0.0000 0.0000 0.0000 4.7440 0.0000 29.0914
#
#
#
# Elastic Compliance Matrix: (Units=1/GPa)
#
#
# Indices 1 2 3 4 5 6 
#
# 1 0.014020 -0.000073 -0.005362 0.000000 0.004529 0.000000
# 2 -0.000073 0.010001 -0.003828 0.000000 -0.002804 0.000000
# 3 -0.005362 -0.003828 0.011204 0.000000 0.003262 0.000000
# 4 0.000000 0.000000 0.000000 0.022729 0.000000 -0.003707
# 5 0.004529 -0.002804 0.003262 0.000000 0.021068 0.000000
# 6 0.000000 0.000000 0.000000 -0.003707 0.000000 0.034979
#
#
# Mechanical properties :
#
#
# Convention : Reuss Voigt Hill
#
# Bulk Modulus (GPa) = 59.88291 70.50597 65.19444
# Shear Modulus (GPa) = 36.20751 42.74099 39.47425
#
# Velocity S-wave (km/s) = 3.94924 4.29078 4.12355
# Velocity P-wave (km/s) = 6.82570 7.41070 7.12421
#
# Compressibility (1/GPa) = 0.01669925
#
# Stress axis : x y z
#
# Youngs Moduli (GPa) = 71.32590 99.99025 89.25689
#
# Poissons Ratio (x) = 0.00733 0.47858
# Poissons Ratio (y) = 0.00523 0.34164
# Poissons Ratio (z) = 0.38244 0.38272
#
# Static dielectric constant tensor:
#      x y z
#    x 4.400240 0.000000 -0.677450 
#    y 0.000000 4.154020 0.000000 
#    z -0.677450 0.000000 4.684460 
# 
# 
# High freq. dielectric constant tensor:
#      x y z
#    x 1.922780 0.000000 -0.025330 
#    y 0.000000 1.914870 0.000000 
#    z -0.025330 0.000000 1.931070 
# 
# From -- ./inp_files/23008.got.cif
#   From: 2010.03.12/outbox.cif.g09.slc.cpg/sg14_12_cif.got.tgz:23008.got - 2010.03.31 13:35:05.
