data_PCOD8128754
_publ_section_title
;
Structure prediction by ZEFSAII (Michael W. Deem and Ramdas Pophale) SiO2 
 PCOD8128754
Probable space group: P 21/C
;
_chemical_formula_sum "Si O2"
_cell_formula_units_Z 32
_cell_length_a 11.473493
_cell_length_b 8.972344
_cell_length_c 27.961947
_cell_angle_alpha 90.000000
_cell_angle_beta 28.156898
_cell_angle_gamma 90.000000
_cell_volume 1358.337192
_symmetry_space_group_name_H-M "P 21/C"
_symmetry_group_IT_number 14
_symmetry_cell_setting 'monoclinic'
loop_
_space_group_symop_operation_xyz
x,y,z
-x,1/2+y,1/2-z
-x,-y,-z
x,1/2-y,1/2+z
loop_
_atom_site_type_symbol
_atom_site_label
_atom_site_fract_x
_atom_site_fract_y
_atom_site_fract_z
Si Si1 0.438518 0.198318 0.910348
Si Si2 0.291395 0.884638 0.941620
Si Si3 0.926818 0.937789 0.474789
Si Si4 0.347549 0.734770 0.320832
Si Si5 0.534829 0.369254 0.061836
Si Si6 0.786211 0.557316 0.679515
Si Si7 0.626462 0.842179 0.956173
Si Si8 0.156078 0.920863 0.741059
O O1 0.713480 0.260132 0.804733
O O2 0.437076 0.039664 0.885010
O O3 0.264629 0.307690 0.943325
O O4 0.333424 0.197379 0.002839
O O5 0.220485 0.821171 0.915811
O O6 0.484402 0.772505 0.896376
O O7 0.043763 0.914225 0.060798
O O8 0.171886 0.864694 0.362341
O O9 0.793490 0.050653 0.485063
O O10 0.000000 0.000000 0.500000
O O11 0.359411 0.591845 0.282905
O O12 0.621118 0.797016 0.230122
O O13 0.532673 0.294544 0.009504
O O14 0.298852 0.480521 0.149151
O O15 0.831765 0.532049 0.718574
O O16 0.874798 0.870258 0.835159
O O17 0.500000 0.000000 0.000000
#
# Coordination Sequence:
#
# PCOD8128754 Si02
#       8
#     4   4   4   4   4   4   4   4
#     4  11  25  45  76 105 144 196 243 304 369 433
#     4  12  23  47  70 106 147 193 246 300 371 433
#     4  11  22  44  69 103 149 186 234 299 361 439
#     4  12  26  42  70 107 146 201 243 300 370 445
#     4  11  25  43  79 107 143 198 243 302 375 438
#     4  12  26  44  69 107 146 195 250 302 369 448
#     4  12  25  48  76 108 145 187 248 316 367 430
#     4  11  25  48  71 105 151 186 249 304 368 443
#
# _framework density 23.558216999999999
#
# number of rings (size 3 to 8) (size 9 to 14) (size 15 to 20)
#    0.000    0.500    6.250    1.125    5.250    3.000 
#    0.000    0.000    0.000    0.000    0.000    0.000 
#    0.000    0.000    0.000    0.000    0.000    0.000 
#
# Total GULP energy -396549.160427 kJ/mol
# GULP energy per Si atom -12392.161263 kJ/mol
# Density = 2.350460 g / cm^3
# Si number density = 23.558217 Si / 1000 Ang^3
#
#
#
# Elastic Constant Matrix: (Units=GPa)
#
#
# Indices 1 2 3 4 5 6 
#
# 1 92.4163 34.7466 16.0547 0.0000 -5.3698 0.0000
# 2 34.7466 140.3036 39.2602 0.0000 -17.0470 0.0000
# 3 16.0547 39.2602 93.7178 0.0000 -16.1030 0.0000
# 4 0.0000 0.0000 0.0000 33.2461 0.0000 2.2885
# 5 -5.3698 -17.0470 -16.1030 0.0000 31.4105 0.0000
# 6 0.0000 0.0000 0.0000 2.2885 0.0000 38.1326
#
#
#
# Elastic Compliance Matrix: (Units=1/GPa)
#
#
# Indices 1 2 3 4 5 6 
#
# 1 0.012001 -0.002705 -0.000902 0.000000 0.000121 0.000000
# 2 -0.002705 0.008932 -0.002769 0.000000 0.002966 0.000000
# 3 -0.000902 -0.002769 0.012830 0.000000 0.004921 0.000000
# 4 0.000000 0.000000 0.000000 0.030204 0.000000 -0.001813
# 5 0.000121 0.002966 0.004921 0.000000 0.035989 0.000000
# 6 0.000000 0.000000 0.000000 -0.001813 0.000000 0.026333
#
#
# Mechanical properties :
#
#
# Convention : Reuss Voigt Hill
#
# Bulk Modulus (GPa) = 47.59134 56.28453 51.93794
# Shear Modulus (GPa) = 34.23575 36.31625 35.27600
#
# Velocity S-wave (km/s) = 3.81627 3.93052 3.87382
# Velocity P-wave (km/s) = 6.29794 6.67400 6.48869
#
# Compressibility (1/GPa) = 0.02101223
#
# Stress axis : x y z
#
# Youngs Moduli (GPa) = 83.32376 111.95075 77.94048
#
# Poissons Ratio (x) = 0.30284 0.07029
# Poissons Ratio (y) = 0.22540 0.21582
# Poissons Ratio (z) = 0.07515 0.30999
#
# Static dielectric constant tensor:
#      x y z
#    x 4.441190 0.000000 0.008550 
#    y 0.000000 4.815540 0.000000 
#    z 0.008550 0.000000 4.274360 
# 
# 
# High freq. dielectric constant tensor:
#      x y z
#    x 1.924990 0.000000 -0.010900 
#    y 0.000000 1.957650 0.000000 
#    z -0.010900 0.000000 1.917150 
# 
# From -- ./inp_files/79961.got.cif
#   From: 2010.03.12/outbox.cif.g09.slc.cpg/sg14_40_cif.got.tgz:79961.got - 2010.03.31 13:35:05.
