data_PCOD8128637
_publ_section_title
;
Structure prediction by ZEFSAII (Michael W. Deem and Ramdas Pophale) SiO2 
 PCOD8128637
Probable space group: P 21/C
;
_chemical_formula_sum "Si O2"
_cell_formula_units_Z 32
_cell_length_a 11.912752
_cell_length_b 16.992530
_cell_length_c 9.048702
_cell_angle_alpha 90.000000
_cell_angle_beta 124.666243
_cell_angle_gamma 90.000000
_cell_volume 1506.542574
_symmetry_space_group_name_H-M "P 21/C"
_symmetry_group_IT_number 14
_symmetry_cell_setting 'monoclinic'
loop_
_space_group_symop_operation_xyz
x,y,z
-x,1/2+y,1/2-z
-x,-y,-z
x,1/2-y,1/2+z
loop_
_atom_site_type_symbol
_atom_site_label
_atom_site_fract_x
_atom_site_fract_y
_atom_site_fract_z
Si Si1 0.489109 0.200117 0.829865
Si Si2 0.545002 0.152041 0.553730
Si Si3 0.189395 0.301232 0.013282
Si Si4 0.482930 0.582678 0.408936
Si Si5 0.977662 0.585790 0.912173
Si Si6 0.223107 0.119755 0.990047
Si Si7 0.744907 0.426784 0.009888
Si Si8 0.736397 0.917061 0.660034
O O1 0.560493 0.194279 0.723301
O O2 0.501501 0.289042 0.891527
O O3 0.329044 0.178318 0.704767
O O4 0.566912 0.142737 0.001475
O O5 0.690339 0.115129 0.617942
O O6 0.428966 0.084782 0.470908
O O7 0.067687 0.345612 0.008274
O O8 0.168517 0.208310 0.977266
O O9 0.202205 0.335397 0.856873
O O10 0.500000 0.500000 0.500000
O O11 0.620056 0.618751 0.442170
O O12 0.370530 0.573050 0.200149
O O13 0.867922 0.575882 0.699318
O O14 0.000000 0.500000 0.000000
O O15 0.120737 0.615940 0.951267
O O16 0.210127 0.071345 0.133358
O O17 0.787411 0.514722 0.089005
#
# Coordination Sequence:
#
# PCOD8128637 Si02
#       8
#     4   4   4   4   4   4   4   4
#     4  11  22  40  72 101 136 176 239 285 344 407
#     4  11  22  40  66 101 137 173 228 294 341 405
#     4  11  21  45  72 105 128 184 241 297 336 419
#     4  12  23  41  68 106 135 184 229 286 357 418
#     4  12  26  49  68 100 148 187 228 296 365 431
#     4  12  24  43  76 101 134 183 250 286 345 431
#     4  12  25  44  63 101 146 182 220 290 365 414
#     4  11  22  39  72 100 133 172 237 288 341 406
#
# _framework density 21.240687999999999
#
# number of rings (size 3 to 8) (size 9 to 14) (size 15 to 20)
#    0.000    0.500    5.000    5.625    1.750    0.500 
#    4.500    0.000    0.000    0.000    0.000    0.000 
#    0.000    0.000    0.000    0.000    0.000    0.000 
#
# Total GULP energy -396877.573299 kJ/mol
# GULP energy per Si atom -12402.424166 kJ/mol
# Density = 2.119234 g / cm^3
# Si number density = 21.240688 Si / 1000 Ang^3
#
#
#
# Elastic Constant Matrix: (Units=GPa)
#
#
# Indices 1 2 3 4 5 6 
#
# 1 131.7830 35.2496 32.2744 0.0000 -3.1952 0.0000
# 2 35.2496 89.1929 26.4977 0.0000 -4.7247 0.0000
# 3 32.2744 26.4977 128.8554 0.0000 -15.4050 0.0000
# 4 0.0000 0.0000 0.0000 32.5538 0.0000 -6.4430
# 5 -3.1952 -4.7247 -15.4050 0.0000 26.8144 0.0000
# 6 0.0000 0.0000 0.0000 -6.4430 0.0000 29.6402
#
#
#
# Elastic Compliance Matrix: (Units=1/GPa)
#
#
# Indices 1 2 3 4 5 6 
#
# 1 0.008782 -0.003008 -0.001631 0.000000 -0.000421 0.000000
# 2 -0.003008 0.012986 -0.001810 0.000000 0.000889 0.000000
# 3 -0.001631 -0.001810 0.009106 0.000000 0.004718 0.000000
# 4 0.000000 0.000000 0.000000 0.032099 0.000000 0.006978
# 5 -0.000421 0.000889 0.004718 0.000000 0.040110 0.000000
# 6 0.000000 0.000000 0.000000 0.006978 0.000000 0.035255
#
#
# Mechanical properties :
#
#
# Convention : Reuss Voigt Hill
#
# Bulk Modulus (GPa) = 55.63944 59.76386 57.70165
# Shear Modulus (GPa) = 31.80069 34.85566 33.32817
#
# Velocity S-wave (km/s) = 3.87351 4.05530 3.96545
# Velocity P-wave (km/s) = 6.80125 7.07989 6.94197
#
# Compressibility (1/GPa) = 0.01797286
#
# Stress axis : x y z
#
# Youngs Moduli (GPa) = 113.86594 77.00841 109.82294
#
# Poissons Ratio (x) = 0.23168 0.17916
# Poissons Ratio (y) = 0.34256 0.19883
# Poissons Ratio (z) = 0.18575 0.13942
#
# Static dielectric constant tensor:
#      x y z
#    x 3.953410 0.000000 -0.261370 
#    y 0.000000 3.808430 0.000000 
#    z -0.261370 0.000000 3.917130 
# 
# 
# High freq. dielectric constant tensor:
#      x y z
#    x 1.825520 0.000000 -0.032550 
#    y 0.000000 1.832030 0.000000 
#    z -0.032550 0.000000 1.831560 
# 
# From -- ./inp_files/13902.got.cif
#   From: 2010.03.12/outbox.cif.g09.slc.cpg/sg14_7_cif.got.tgz:13902.got - 2010.03.31 13:35:05.
