data_PCOD8128924
_publ_section_title
;
Structure prediction by ZEFSAII (Michael W. Deem and Ramdas Pophale) SiO2 
 PCOD8128924
Probable space group: P 21/C
;
_chemical_formula_sum "Si O2"
_cell_formula_units_Z 28
_cell_length_a 32.644823
_cell_length_b 8.003623
_cell_length_c 32.232466
_cell_angle_alpha 90.000000
_cell_angle_beta 8.646101
_cell_angle_gamma 90.000000
_cell_volume 1266.025998
_symmetry_space_group_name_H-M "P 21/C"
_symmetry_group_IT_number 14
_symmetry_cell_setting 'monoclinic'
loop_
_space_group_symop_operation_xyz
x,y,z
-x,1/2+y,1/2-z
-x,-y,-z
x,1/2-y,1/2+z
loop_
_atom_site_type_symbol
_atom_site_label
_atom_site_fract_x
_atom_site_fract_y
_atom_site_fract_z
Si Si1 0.139943 0.444515 0.983332
Si Si2 0.639467 0.256605 0.962427
Si Si3 0.868489 0.780579 0.236057
Si Si4 0.323706 0.447033 0.410605
Si Si5 0.617979 0.429021 0.736694
Si Si6 0.815566 0.564887 0.966716
Si Si7 0.251810 0.994820 0.718132
O O1 0.414552 0.391154 0.683883
O O2 0.216031 0.493038 0.954104
O O3 0.916020 0.298460 0.208205
O O4 0.999259 0.598679 0.100398
O O5 0.721707 0.324465 0.834834
O O6 0.511206 0.397273 0.119858
O O7 0.603386 0.782154 0.531939
O O8 0.762751 0.844942 0.297482
O O9 0.099995 0.905035 0.021352
O O10 0.321488 0.566163 0.372588
O O11 0.251419 0.259448 0.470642
O O12 0.120757 0.527771 0.646914
O O13 0.620644 0.450143 0.133913
O O14 0.500000 0.000000 0.500000
O O15 0.000000 0.000000 0.000000
#
# Coordination Sequence:
#
# PCOD8128924 Si02
#       7
#     4   4   4   4   4   4   4
#     4  12  25  45  64 101 134 178 225 276 330 396
#     4  11  23  44  72  93 134 180 218 268 336 406
#     4  11  25  42  72  98 135 174 224 271 330 402
#     4  12  27  44  63  96 131 176 231 281 339 372
#     4  11  23  44  66  93 128 184 227 267 324 404
#     4  12  28  43  66  93 138 176 229 285 332 384
#     4  11  23  44  72 104 132 169 219 271 332 415
#
# _framework density 22.11645
#
# number of rings (size 3 to 8) (size 9 to 14) (size 15 to 20)
#    0.000    0.571    1.429    7.714    8.000    0.000 
#    0.000    4.286    0.000    0.000    0.000    0.000 
#    0.000    0.000    0.000    0.000    0.000    0.000 
#
# Total GULP energy -347344.767874 kJ/mol
# GULP energy per Si atom -12405.170281 kJ/mol
# Density = 2.206611 g / cm^3
# Si number density = 22.116450 Si / 1000 Ang^3
#
#
#
# Elastic Constant Matrix: (Units=GPa)
#
#
# Indices 1 2 3 4 5 6 
#
# 1 133.6356 36.5071 50.2651 0.0000 -3.0318 0.0000
# 2 36.5071 62.3586 11.0468 0.0000 8.7685 0.0000
# 3 50.2651 11.0468 114.6153 0.0000 2.6321 0.0000
# 4 0.0000 0.0000 0.0000 41.2689 0.0000 -6.1877
# 5 -3.0318 8.7685 2.6321 0.0000 49.2458 0.0000
# 6 0.0000 0.0000 0.0000 -6.1877 0.0000 26.5010
#
#
#
# Elastic Compliance Matrix: (Units=1/GPa)
#
#
# Indices 1 2 3 4 5 6 
#
# 1 0.010672 -0.005778 -0.004167 0.000000 0.001909 0.000000
# 2 -0.005778 0.019845 0.000711 0.000000 -0.003927 0.000000
# 3 -0.004167 0.000711 0.010506 0.000000 -0.000945 0.000000
# 4 0.000000 0.000000 0.000000 0.025110 0.000000 0.005863
# 5 0.001909 -0.003927 -0.000945 0.000000 0.021174 0.000000
# 6 0.000000 0.000000 0.000000 0.005863 0.000000 0.039103
#
#
# Mechanical properties :
#
#
# Convention : Reuss Voigt Hill
#
# Bulk Modulus (GPa) = 44.33567 56.24974 50.29270
# Shear Modulus (GPa) = 32.80911 37.58918 35.19914
#
# Velocity S-wave (km/s) = 3.85576 4.12710 3.99373
# Velocity P-wave (km/s) = 6.31764 6.94257 6.63746
#
# Compressibility (1/GPa) = 0.02255520
#
# Stress axis : x y z
#
# Youngs Moduli (GPa) = 93.70053 50.38997 95.18773
#
# Poissons Ratio (x) = 0.29116 0.39668
# Poissons Ratio (y) = 0.54141 -0.06773
# Poissons Ratio (z) = 0.39048 -0.03585
#
# Static dielectric constant tensor:
#      x y z
#    x 3.201850 0.000000 -0.133470 
#    y 0.000000 3.917610 0.000000 
#    z -0.133470 0.000000 4.350480 
# 
# 
# High freq. dielectric constant tensor:
#      x y z
#    x 1.861300 0.000000 -0.005330 
#    y 0.000000 1.869620 0.000000 
#    z -0.005330 0.000000 1.898830 
# 
# From -- ./inp_files/80877.got.cif
#   From: 2010.03.12/outbox.cif.g09.slc.cpg/sg14_41_cif.got.tgz:80877.got - 2010.03.31 13:35:05.
