data_PCOD8128194
_publ_section_title
;
Structure prediction by ZEFSAII (Michael W. Deem and Ramdas Pophale) SiO2 
 PCOD8128194
Probable space group: P 21/C
;
_chemical_formula_sum "Si O2"
_cell_formula_units_Z 32
_cell_length_a 12.190622
_cell_length_b 13.734274
_cell_length_c 12.002298
_cell_angle_alpha 90.000000
_cell_angle_beta 46.215010
_cell_angle_gamma 90.000000
_cell_volume 1450.768113
_symmetry_space_group_name_H-M "P 21/C"
_symmetry_group_IT_number 14
_symmetry_cell_setting 'monoclinic'
loop_
_space_group_symop_operation_xyz
x,y,z
-x,1/2+y,1/2-z
-x,-y,-z
x,1/2-y,1/2+z
loop_
_atom_site_type_symbol
_atom_site_label
_atom_site_fract_x
_atom_site_fract_y
_atom_site_fract_z
Si Si1 0.763036 0.615589 0.878714
Si Si2 0.176026 0.982900 0.866108
Si Si3 0.745282 0.569975 0.455859
Si Si4 0.048931 0.093901 0.535861
Si Si5 0.937765 0.698021 0.179452
Si Si6 0.763653 0.210545 0.078846
Si Si7 0.505606 0.763116 0.101032
Si Si8 0.738902 0.126457 0.862770
O O1 0.753627 0.528051 0.796534
O O2 0.833285 0.574444 0.945515
O O3 0.877989 0.695697 0.750412
O O4 0.594167 0.662197 0.011446
O O5 0.203501 0.865975 0.843022
O O6 0.250999 0.033622 0.920733
O O7 0.000000 0.000000 0.000000
O O8 0.904189 0.619096 0.300943
O O9 0.625215 0.654763 0.539624
O O10 0.697399 0.488719 0.397067
O O11 0.136463 0.164348 0.386581
O O12 0.893460 0.145706 0.686279
O O13 0.000000 0.000000 0.500000
O O14 0.117279 0.701879 0.024442
O O15 0.595975 0.253296 0.216536
O O16 0.774868 0.144598 0.964220
O O17 0.393364 0.800913 0.082915
#
# Coordination Sequence:
#
# PCOD8128194 Si02
#       8
#     4   4   4   4   4   4   4   4
#     4  11  26  44  68 105 136 178 233 286 343 416
#     4  11  23  44  72  95 137 178 230 283 348 400
#     4  10  24  42  69  99 136 186 223 282 355 404
#     4  12  24  45  72 107 135 178 237 288 344 411
#     4  11  22  40  72 100 134 176 236 287 327 411
#     4  11  24  42  66  98 138 180 226 287 338 418
#     4  11  26  42  67 100 140 177 224 283 344 412
#     4  11  22  45  67  99 139 179 233 280 349 412
#
# _framework density 22.057281
#
# number of rings (size 3 to 8) (size 9 to 14) (size 15 to 20)
#    0.000    1.000    5.000    1.125    5.250    2.500 
#    4.500    0.000    0.000    0.000    0.000    0.000 
#    0.000    0.000    0.000    0.000    0.000    0.000 
#
# Total GULP energy -396520.375218 kJ/mol
# GULP energy per Si atom -12391.261726 kJ/mol
# Density = 2.200708 g / cm^3
# Si number density = 22.057281 Si / 1000 Ang^3
#
#
#
# Elastic Constant Matrix: (Units=GPa)
#
#
# Indices 1 2 3 4 5 6 
#
# 1 94.7478 33.9579 35.2093 0.0000 3.5166 0.0000
# 2 33.9579 86.8240 37.3704 0.0000 8.4803 0.0000
# 3 35.2093 37.3704 123.5583 0.0000 -5.2358 0.0000
# 4 0.0000 0.0000 0.0000 30.1571 0.0000 3.4883
# 5 3.5166 8.4803 -5.2358 0.0000 42.4091 0.0000
# 6 0.0000 0.0000 0.0000 3.4883 0.0000 31.0005
#
#
#
# Elastic Compliance Matrix: (Units=1/GPa)
#
#
# Indices 1 2 3 4 5 6 
#
# 1 0.012915 -0.003906 -0.002524 0.000000 -0.000602 0.000000
# 2 -0.003906 0.014857 -0.003511 0.000000 -0.003081 0.000000
# 3 -0.002524 -0.003511 0.009965 0.000000 0.002142 0.000000
# 4 0.000000 0.000000 0.000000 0.033597 0.000000 -0.003780
# 5 -0.000602 -0.003081 0.002142 0.000000 0.024510 0.000000
# 6 0.000000 0.000000 0.000000 -0.003780 0.000000 0.032683
#
#
# Mechanical properties :
#
#
# Convention : Reuss Voigt Hill
#
# Bulk Modulus (GPa) = 56.00760 57.57837 56.79299
# Shear Modulus (GPa) = 32.39153 33.95286 33.17220
#
# Velocity S-wave (km/s) = 3.83628 3.92765 3.88224
# Velocity P-wave (km/s) = 6.71340 6.83588 6.77492
#
# Compressibility (1/GPa) = 0.01785472
#
# Stress axis : x y z
#
# Youngs Moduli (GPa) = 77.43193 67.30707 100.34731
#
# Poissons Ratio (x) = 0.26289 0.25331
# Poissons Ratio (y) = 0.30243 0.35233
# Poissons Ratio (z) = 0.19546 0.23633
#
# Static dielectric constant tensor:
#      x y z
#    x 4.042700 0.000000 0.437390 
#    y 0.000000 2.440400 0.000000 
#    z 0.437390 0.000000 5.385400 
# 
# 
# High freq. dielectric constant tensor:
#      x y z
#    x 1.845620 0.000000 0.008850 
#    y 0.000000 1.876670 0.000000 
#    z 0.008850 0.000000 1.880820 
# 
# From -- ./inp_files/30019.got.cif
#   From: 2010.03.12/outbox.cif.g09.slc.cpg/sg14_16_cif.got.tgz:30019.got - 2010.03.31 13:35:05.
