data_PCOD8128163
_publ_section_title
;
Structure prediction by ZEFSAII (Michael W. Deem and Ramdas Pophale) SiO2 
 PCOD8128163
Probable space group: P 21/C
;
_chemical_formula_sum "Si O2"
_cell_formula_units_Z 32
_cell_length_a 21.578722
_cell_length_b 13.419041
_cell_length_c 21.155035
_cell_angle_alpha 90.000000
_cell_angle_beta 166.457171
_cell_angle_gamma 90.000000
_cell_volume 1434.485607
_symmetry_space_group_name_H-M "P 21/C"
_symmetry_group_IT_number 14
_symmetry_cell_setting 'monoclinic'
loop_
_space_group_symop_operation_xyz
x,y,z
-x,1/2+y,1/2-z
-x,-y,-z
x,1/2-y,1/2+z
loop_
_atom_site_type_symbol
_atom_site_label
_atom_site_fract_x
_atom_site_fract_y
_atom_site_fract_z
Si Si1 0.752510 0.463102 0.715287
Si Si2 0.148621 0.570975 0.558957
Si Si3 0.581777 0.180723 0.863993
Si Si4 0.335726 0.424829 0.008504
Si Si5 0.220660 0.021250 0.899869
Si Si6 0.553077 0.259050 0.473350
Si Si7 0.296816 0.894122 0.554745
Si Si8 0.033417 0.147347 0.991268
O O1 0.500000 0.500000 0.500000
O O2 0.787682 0.513918 0.682888
O O3 0.709165 0.344652 0.666885
O O4 0.000000 0.500000 0.000000
O O5 0.439379 0.595931 0.820987
O O6 0.142958 0.456886 0.574732
O O7 0.080775 0.641217 0.550891
O O8 0.946781 0.595694 0.302614
O O9 0.359553 0.149518 0.592319
O O10 0.734549 0.278743 0.993547
O O11 0.455717 0.202766 0.807885
O O12 0.780121 0.087134 0.067270
O O13 0.354560 0.539647 0.049823
O O14 0.970377 0.078404 0.676420
O O15 0.471819 0.088420 0.165743
O O16 0.282612 0.223125 0.238615
O O17 0.784374 0.175552 0.699302
#
# Coordination Sequence:
#
# PCOD8128163 Si02
#       8
#     4   4   4   4   4   4   4   4
#     4  11  23  45  66  89 127 173 213 279 329 368
#     4  11  23  41  63  93 139 169 206 274 334 393
#     4  10  24  42  67  94 131 171 220 271 330 390
#     4  11  23  41  63  97 133 171 215 271 338 395
#     4  10  24  42  63  95 130 161 221 267 317 401
#     4  11  24  42  67  96 121 172 235 267 312 410
#     4  11  22  41  65  94 126 173 211 262 334 391
#     4  11  23  42  66  96 127 174 221 264 326 398
#
# _framework density 22.307648
#
# number of rings (size 3 to 8) (size 9 to 14) (size 15 to 20)
#    0.000    1.250    0.000    6.000    0.000   12.000 
#   13.500    0.000    0.000    0.000    0.000    0.000 
#    0.000    0.000    0.000    0.000    0.000    0.000 
#
# Total GULP energy -396818.568857 kJ/mol
# GULP energy per Si atom -12400.580277 kJ/mol
# Density = 2.225687 g / cm^3
# Si number density = 22.307648 Si / 1000 Ang^3
#
#
#
# Elastic Constant Matrix: (Units=GPa)
#
#
# Indices 1 2 3 4 5 6 
#
# 1 117.7313 51.0046 50.8088 0.0000 -1.8775 0.0000
# 2 51.0046 106.4225 31.7763 0.0000 5.1344 0.0000
# 3 50.8088 31.7763 139.0529 0.0000 12.6803 0.0000
# 4 0.0000 0.0000 0.0000 28.3487 0.0000 4.2030
# 5 -1.8775 5.1344 12.6803 0.0000 43.2800 0.0000
# 6 0.0000 0.0000 0.0000 4.2030 0.0000 34.6702
#
#
#
# Elastic Compliance Matrix: (Units=1/GPa)
#
#
# Indices 1 2 3 4 5 6 
#
# 1 0.012163 -0.004880 -0.003524 0.000000 0.002139 0.000000
# 2 -0.004880 0.012055 -0.000844 0.000000 -0.001394 0.000000
# 3 -0.003524 -0.000844 0.008915 0.000000 -0.002665 0.000000
# 4 0.000000 0.000000 0.000000 0.035921 0.000000 -0.004355
# 5 0.002139 -0.001394 -0.002665 0.000000 0.024144 0.000000
# 6 0.000000 0.000000 0.000000 -0.004355 0.000000 0.029371
#
#
# Mechanical properties :
#
#
# Convention : Reuss Voigt Hill
#
# Bulk Modulus (GPa) = 68.32703 70.04292 69.18498
# Shear Modulus (GPa) = 34.25932 36.56757 35.41344
#
# Velocity S-wave (km/s) = 3.92314 4.05314 3.98867
# Velocity P-wave (km/s) = 7.15662 7.30553 7.23146
#
# Compressibility (1/GPa) = 0.01463550
#
# Stress axis : x y z
#
# Youngs Moduli (GPa) = 82.21478 82.95392 112.16847
#
# Poissons Ratio (x) = 0.40485 0.39530
# Poissons Ratio (y) = 0.40124 0.09471
# Poissons Ratio (z) = 0.28974 0.07004
#
# Static dielectric constant tensor:
#      x y z
#    x 4.168400 0.000000 -0.135780 
#    y 0.000000 4.180080 0.000000 
#    z -0.135780 0.000000 3.849060 
# 
# 
# High freq. dielectric constant tensor:
#      x y z
#    x 1.889210 0.000000 -0.002650 
#    y 0.000000 1.879300 0.000000 
#    z -0.002650 0.000000 1.883450 
# 
# From -- ./inp_files/75031.got.cif
#   From: 2010.03.12/outbox.cif.g09.slc.cpg/sg14_38_cif.got.tgz:75031.got - 2010.03.31 13:35:05.
