data_PCOD8128772
_publ_section_title
;
Structure prediction by ZEFSAII (Michael W. Deem and Ramdas Pophale) SiO2 
 PCOD8128772
Probable space group: P 21/C
;
_chemical_formula_sum "Si O2"
_cell_formula_units_Z 24
_cell_length_a 8.446033
_cell_length_b 13.824443
_cell_length_c 17.826001
_cell_angle_alpha 90.000000
_cell_angle_beta 32.270666
_cell_angle_gamma 90.000000
_cell_volume 1111.297013
_symmetry_space_group_name_H-M "P 21/C"
_symmetry_group_IT_number 14
_symmetry_cell_setting 'monoclinic'
loop_
_space_group_symop_operation_xyz
x,y,z
-x,1/2+y,1/2-z
-x,-y,-z
x,1/2-y,1/2+z
loop_
_atom_site_type_symbol
_atom_site_label
_atom_site_fract_x
_atom_site_fract_y
_atom_site_fract_z
Si Si1 0.269507 0.747250 0.017231
Si Si2 0.383726 0.448982 0.618876
Si Si3 0.408911 0.249570 0.751086
Si Si4 0.691821 0.083559 0.384684
Si Si5 0.723050 0.420509 0.697610
Si Si6 0.329098 0.411355 0.387616
O O1 0.378281 0.685659 0.045789
O O2 0.916490 0.755547 0.155160
O O3 0.432351 0.850515 0.949144
O O4 0.374443 0.699556 0.896935
O O5 0.500000 0.500000 0.500000
O O6 0.430173 0.523677 0.667857
O O7 0.036617 0.434009 0.756851
O O8 0.495337 0.360113 0.736617
O O9 0.457199 0.190657 0.808597
O O10 0.618698 0.087133 0.325563
O O11 0.500000 0.000000 0.500000
O O12 0.754974 0.530996 0.655461
O O13 0.056685 0.381456 0.551200
#
# Coordination Sequence:
#
# PCOD8128772 Si02
#       6
#     4   4   4   4   4   4
#     4  12  25  48  69 101 147 188 234 292 360 426
#     4  12  26  46  72 102 140 197 236 282 365 430
#     4  12  24  44  75 101 136 189 239 296 353 419
#     4  12  28  45  71 109 145 180 237 301 356 421
#     4  11  23  44  69 106 134 183 237 287 355 419
#     4  11  22  45  73  97 142 184 237 288 350 433
#
# _framework density 21.596385000000001
#
# number of rings (size 3 to 8) (size 9 to 14) (size 15 to 20)
#    0.000    0.333    6.667    2.000    4.667    1.333 
#    0.000    3.333    0.000    0.000    0.000    0.000 
#    0.000    0.000    0.000    0.000    0.000    0.000 
#
# Total GULP energy -297480.396840 kJ/mol
# GULP energy per Si atom -12395.016535 kJ/mol
# Density = 2.154723 g / cm^3
# Si number density = 21.596385 Si / 1000 Ang^3
#
#
#
# Elastic Constant Matrix: (Units=GPa)
#
#
# Indices 1 2 3 4 5 6 
#
# 1 88.7799 28.0819 38.1765 0.0000 14.1198 0.0000
# 2 28.0819 89.1739 34.7330 0.0000 6.6439 0.0000
# 3 38.1765 34.7330 114.3999 0.0000 15.6102 0.0000
# 4 0.0000 0.0000 0.0000 38.4758 0.0000 7.4403
# 5 14.1198 6.6439 15.6102 0.0000 54.8511 0.0000
# 6 0.0000 0.0000 0.0000 7.4403 0.0000 42.1805
#
#
#
# Elastic Compliance Matrix: (Units=1/GPa)
#
#
# Indices 1 2 3 4 5 6 
#
# 1 0.014044 -0.002890 -0.003499 0.000000 -0.002269 0.000000
# 2 -0.002890 0.013324 -0.003082 0.000000 0.000007 0.000000
# 3 -0.003499 -0.003082 0.011102 0.000000 -0.001885 0.000000
# 4 0.000000 0.000000 0.000000 0.026908 0.000000 -0.004746
# 5 -0.002269 0.000007 -0.001885 0.000000 0.019351 0.000000
# 6 0.000000 0.000000 0.000000 -0.004746 0.000000 0.024545
#
#
# Mechanical properties :
#
#
# Convention : Reuss Voigt Hill
#
# Bulk Modulus (GPa) = 51.21199 54.92627 53.06913
# Shear Modulus (GPa) = 37.11238 39.85895 38.48567
#
# Velocity S-wave (km/s) = 4.14992 4.30074 4.22600
# Velocity P-wave (km/s) = 6.83573 7.08168 6.95979
#
# Compressibility (1/GPa) = 0.01952668
#
# Stress axis : x y z
#
# Youngs Moduli (GPa) = 71.20601 75.05203 90.07418
#
# Poissons Ratio (x) = 0.21694 0.31520
# Poissons Ratio (y) = 0.20582 0.27758
# Poissons Ratio (z) = 0.24917 0.23129
#
# Static dielectric constant tensor:
#      x y z
#    x 3.956060 0.000000 0.235180 
#    y 0.000000 4.009220 0.000000 
#    z 0.235180 0.000000 3.816470 
# 
# 
# High freq. dielectric constant tensor:
#      x y z
#    x 1.846940 0.000000 0.015320 
#    y 0.000000 1.850340 0.000000 
#    z 0.015320 0.000000 1.861880 
# 
# From -- ./inp_files/55894.got.cif
#   From: 2010.03.12/outbox.cif.g09.slc.cpg/sg14_28_cif.got.tgz:55894.got - 2010.03.31 13:35:05.
