data_PCOD8128527
_publ_section_title
;
Structure prediction by ZEFSAII (Michael W. Deem and Ramdas Pophale) SiO2 
 PCOD8128527
Probable space group: P 21/C
;
_chemical_formula_sum "Si O2"
_cell_formula_units_Z 32
_cell_length_a 11.068154
_cell_length_b 17.633107
_cell_length_c 9.721676
_cell_angle_alpha 90.000000
_cell_angle_beta 116.051133
_cell_angle_gamma 90.000000
_cell_volume 1704.575005
_symmetry_space_group_name_H-M "P 21/C"
_symmetry_group_IT_number 14
_symmetry_cell_setting 'monoclinic'
loop_
_space_group_symop_operation_xyz
x,y,z
-x,1/2+y,1/2-z
-x,-y,-z
x,1/2-y,1/2+z
loop_
_atom_site_type_symbol
_atom_site_label
_atom_site_fract_x
_atom_site_fract_y
_atom_site_fract_z
Si Si1 0.148570 0.783066 0.268343
Si Si2 0.851429 0.716934 0.619772
Si Si3 0.852291 0.843281 0.828882
Si Si4 0.432922 0.168394 0.989022
Si Si5 0.417797 0.084783 0.253827
Si Si6 0.432922 0.831606 0.443900
Si Si7 0.582203 0.084782 0.836031
Si Si8 0.147709 0.656719 0.476591
O O1 0.271780 0.832245 0.390618
O O2 0.165740 0.698854 0.339356
O O3 0.160699 0.781686 0.108021
O O4 1.000000 0.815270 0.237026
O O5 0.839301 0.718314 0.447322
O O6 0.728219 0.667755 0.618837
O O7 0.834260 0.801146 0.673616
O O8 1.000000 0.882008 0.908689
O O9 0.740313 0.908044 0.787838
O O10 0.500000 0.250000 0.993492
O O11 0.493206 0.103700 0.923247
O O12 0.461799 0.144541 0.159688
O O13 0.506794 0.103700 0.430041
O O14 0.448923 0.000000 0.224461
O O15 0.461799 0.855460 0.302110
O O16 0.740314 0.091956 0.952475
#
# Coordination Sequence:
#
# PCOD8128527 Si02
#       8
#     4   4   4   4   4   4   4   4
#     4   9  18  32  53  79 103 132 177 228 262 303
#     4   9  18  32  53  79 103 132 177 228 262 303
#     4   9  18  33  53  78 106 138 177 220 265 315
#     4  11  21  36  58  79 106 141 185 220 261 320
#     4  11  23  36  53  81 114 144 175 222 274 317
#     4  11  21  36  58  79 106 141 185 220 261 320
#     4  11  23  36  53  81 114 144 175 222 274 317
#     4   9  18  33  53  78 106 138 177 220 265 315
#
# _framework density 18.773007
#
# number of rings (size 3 to 8) (size 9 to 14) (size 15 to 20)
#    0.000    2.000    2.500    1.500    3.500    0.500 
#    0.000    0.000    0.000    0.750    0.000    0.000 
#    0.000    0.000    0.000    0.000    0.000    0.000 
#
# Total GULP energy -396567.825072 kJ/mol
# GULP energy per Si atom -12392.744533 kJ/mol
# Density = 1.873028 g / cm^3
# Si number density = 18.773007 Si / 1000 Ang^3
#
#
#
# Elastic Constant Matrix: (Units=GPa)
#
#
# Indices 1 2 3 4 5 6 
#
# 1 110.6372 16.6217 29.8762 0.0000 14.5157 0.0000
# 2 16.6217 50.7041 1.9605 0.0000 6.6503 0.0000
# 3 29.8762 1.9605 48.8506 0.0000 13.5105 0.0000
# 4 0.0000 0.0000 0.0000 23.5401 0.0000 -1.6737
# 5 14.5157 6.6503 13.5105 0.0000 24.8357 0.0000
# 6 0.0000 0.0000 0.0000 -1.6737 0.0000 19.8503
#
#
#
# Elastic Compliance Matrix: (Units=1/GPa)
#
#
# Indices 1 2 3 4 5 6 
#
# 1 0.011531 -0.003213 -0.006236 0.000000 -0.002487 0.000000
# 2 -0.003213 0.021363 0.002555 0.000000 -0.005232 0.000000
# 3 -0.006236 0.002555 0.027500 0.000000 -0.012000 0.000000
# 4 0.000000 0.000000 0.000000 0.042737 0.000000 0.003603
# 5 -0.002487 -0.005232 -0.012000 0.000000 0.049647 0.000000
# 6 0.000000 0.000000 0.000000 0.003603 0.000000 0.050681
#
#
# Mechanical properties :
#
#
# Convention : Reuss Voigt Hill
#
# Bulk Modulus (GPa) = 21.45591 34.12320 27.78955
# Shear Modulus (GPa) = 21.47924 24.42746 22.95335
#
# Velocity S-wave (km/s) = 3.38621 3.61113 3.50048
# Velocity P-wave (km/s) = 5.17131 5.96684 5.58326
#
# Compressibility (1/GPa) = 0.04660721
#
# Stress axis : x y z
#
# Youngs Moduli (GPa) = 86.71968 46.80997 36.36316
#
# Poissons Ratio (x) = 0.15039 0.22674
# Poissons Ratio (y) = 0.27862 -0.09290
# Poissons Ratio (z) = 0.54075 -0.11958
#
# Static dielectric constant tensor:
#      x y z
#    x 3.824500 0.000000 0.101110 
#    y 0.000000 2.924350 0.000000 
#    z 0.101110 0.000000 3.601600 
# 
# 
# High freq. dielectric constant tensor:
#      x y z
#    x 1.751170 0.000000 0.006740 
#    y 0.000000 1.675360 0.000000 
#    z 0.006740 0.000000 1.736320 
# 
# From -- ./inp_files/13788.got.cif
#   From: 2010.03.12/outbox.cif.g09.slc.cpg/sg14_7_cif.got.tgz:13788.got - 2010.03.31 13:35:05.
