data_PCOD8128849
_publ_section_title
;
Structure prediction by ZEFSAII (Michael W. Deem and Ramdas Pophale) SiO2 
 PCOD8128849
Probable space group: P 21/C
;
_chemical_formula_sum "Si O2"
_cell_formula_units_Z 20
_cell_length_a 8.211755
_cell_length_b 13.944484
_cell_length_c 8.026211
_cell_angle_alpha 90.000000
_cell_angle_beta 92.921372
_cell_angle_gamma 90.000000
_cell_volume 917.876467
_symmetry_space_group_name_H-M "P 21/C"
_symmetry_group_IT_number 14
_symmetry_cell_setting 'monoclinic'
loop_
_space_group_symop_operation_xyz
x,y,z
-x,1/2+y,1/2-z
-x,-y,-z
x,1/2-y,1/2+z
loop_
_atom_site_type_symbol
_atom_site_label
_atom_site_fract_x
_atom_site_fract_y
_atom_site_fract_z
Si Si1 0.074616 0.615416 0.831567
Si Si2 0.087628 0.917127 0.690089
Si Si3 0.831708 0.763791 0.731708
Si Si4 0.353522 0.133097 0.023979
Si Si5 0.287266 0.910667 0.027854
O O1 0.195525 0.633710 0.682273
O O2 0.956500 0.527203 0.780909
O O3 0.964471 0.710130 0.855099
O O4 0.172505 0.595498 0.011081
O O5 0.920747 0.857439 0.664642
O O6 0.201631 0.883425 0.848261
O O7 0.777655 0.682230 0.602024
O O8 0.667531 0.804205 0.809968
O O9 0.536162 0.138920 0.965701
O O10 0.299695 0.024272 0.052373
#
# Coordination Sequence:
#
# PCOD8128849 Si02
#       5
#     4   4   4   4   4
#     4  11  23  41  71 102 130 175 235 277 326 409
#     4  11  23  41  71 102 130 175 235 277 326 409
#     4  12  22  44  68  96 138 176 230 280 334 406
#     4  11  25  44  68  98 141 179 222 288 350 398
#     4  11  24  47  68  96 140 186 222 284 347 402
#
# _framework density 21.789425000000001
#
# number of rings (size 3 to 8) (size 9 to 14) (size 15 to 20)
#    0.000    0.800    6.000    1.800    0.000    1.600 
#    3.600    2.000    0.000    0.000    0.000    0.000 
#    0.000    0.000    0.000    0.000    0.000    0.000 
#
# Total GULP energy -247879.187278 kJ/mol
# GULP energy per Si atom -12393.959364 kJ/mol
# Density = 2.173983 g / cm^3
# Si number density = 21.789425 Si / 1000 Ang^3
#
#
#
# Elastic Constant Matrix: (Units=GPa)
#
#
# Indices 1 2 3 4 5 6 
#
# 1 94.8490 37.1195 45.1368 0.0000 -12.5902 0.0000
# 2 37.1195 94.3645 14.6859 0.0000 -12.3152 0.0000
# 3 45.1368 14.6859 120.3486 0.0000 -9.4032 0.0000
# 4 0.0000 0.0000 0.0000 22.6551 0.0000 -1.7641
# 5 -12.5902 -12.3152 -9.4032 0.0000 26.6604 0.0000
# 6 0.0000 0.0000 0.0000 -1.7641 0.0000 38.3699
#
#
#
# Elastic Compliance Matrix: (Units=1/GPa)
#
#
# Indices 1 2 3 4 5 6 
#
# 1 0.015151 -0.004783 -0.004846 0.000000 0.003236 0.000000
# 2 -0.004783 0.012905 0.000523 0.000000 0.003887 0.000000
# 3 -0.004846 0.000523 0.010183 0.000000 0.001545 0.000000
# 4 0.000000 0.000000 0.000000 0.044299 0.000000 0.002037
# 5 0.003236 0.003887 0.001545 0.000000 0.041377 0.000000
# 6 0.000000 0.000000 0.000000 0.002037 0.000000 0.026156
#
#
# Mechanical properties :
#
#
# Convention : Reuss Voigt Hill
#
# Bulk Modulus (GPa) = 49.93353 55.93850 52.93601
# Shear Modulus (GPa) = 28.57831 31.71174 30.14503
#
# Velocity S-wave (km/s) = 3.62549 3.81907 3.72354
# Velocity P-wave (km/s) = 6.36331 6.72125 6.54472
#
# Compressibility (1/GPa) = 0.02002662
#
# Stress axis : x y z
#
# Youngs Moduli (GPa) = 66.00438 77.49190 98.19836
#
# Poissons Ratio (x) = 0.37066 0.47584
# Poissons Ratio (y) = 0.31571 -0.05135
# Poissons Ratio (z) = 0.31984 -0.04052
#
# Static dielectric constant tensor:
#      x y z
#    x 3.638720 0.000000 -0.167660 
#    y 0.000000 4.047890 0.000000 
#    z -0.167660 0.000000 4.013280 
# 
# 
# High freq. dielectric constant tensor:
#      x y z
#    x 1.826250 0.000000 -0.011250 
#    y 0.000000 1.872510 0.000000 
#    z -0.011250 0.000000 1.865330 
# 
# From -- ./inp_files/5502.got.cif
#   From: 2010.03.12/outbox.cif.g09.slc.cpg/sg14_3_cif.got.tgz:5502.got - 2010.03.31 13:35:05.
