data_PCOD8128666
_publ_section_title
;
Structure prediction by ZEFSAII (Michael W. Deem and Ramdas Pophale) SiO2 
 PCOD8128666
Probable space group: P 21/C
;
_chemical_formula_sum "Si O2"
_cell_formula_units_Z 32
_cell_length_a 11.695305
_cell_length_b 15.067761
_cell_length_c 13.500968
_cell_angle_alpha 90.000000
_cell_angle_beta 137.849334
_cell_angle_gamma 90.000000
_cell_volume 1596.618225
_symmetry_space_group_name_H-M "P 21/C"
_symmetry_group_IT_number 14
_symmetry_cell_setting 'monoclinic'
loop_
_space_group_symop_operation_xyz
x,y,z
-x,1/2+y,1/2-z
-x,-y,-z
x,1/2-y,1/2+z
loop_
_atom_site_type_symbol
_atom_site_label
_atom_site_fract_x
_atom_site_fract_y
_atom_site_fract_z
Si Si1 0.918998 0.122875 0.124929
Si Si2 0.575958 0.270701 0.667061
Si Si3 0.672460 0.836502 0.158671
Si Si4 0.060344 0.765550 0.194232
Si Si5 0.547237 0.114603 0.799222
Si Si6 0.160511 0.308843 0.627494
Si Si7 0.413119 0.084798 0.189643
Si Si8 0.893011 0.931496 0.153366
O O1 0.969957 0.194989 0.239123
O O2 0.021582 0.126579 0.087476
O O3 0.966364 0.030133 0.207698
O O4 0.723223 0.132087 0.968624
O O5 0.461064 0.285612 0.497275
O O6 0.767638 0.253750 0.755201
O O7 0.515590 0.184664 0.690695
O O8 0.557992 0.360197 0.722744
O O9 0.593128 0.875243 0.206903
O O10 0.819426 0.768055 0.279730
O O11 0.771394 0.916435 0.169493
O O12 0.050884 0.862731 0.241174
O O13 0.904191 0.764178 0.016389
O O14 0.524924 0.014148 0.742330
O O15 0.348212 0.355978 0.740563
O O16 0.230854 0.075107 0.019691
#
# Coordination Sequence:
#
# PCOD8128666 Si02
#       8
#     4   4   4   4   4   4   4   4
#     4  11  22  38  64  90 120 159 200 249 299 348
#     4  11  22  38  63  90 118 156 206 244 293 360
#     4  11  22  40  63  85 125 159 196 248 300 351
#     4  11  22  38  63  90 118 156 206 244 293 360
#     4  11  22  38  64  90 120 159 200 249 299 348
#     4  11  22  40  63  85 125 159 196 248 300 351
#     4   9  22  37  60  91 118 156 207 240 292 363
#     4   9  22  37  60  91 118 156 207 240 292 363
#
# _framework density 20.042362000000001
#
# number of rings (size 3 to 8) (size 9 to 14) (size 15 to 20)
#    0.000    1.500    5.000    0.000    3.500    3.000 
#    0.000    1.250   11.000    0.000    0.000    0.000 
#    0.000    0.000    0.000    0.000    0.000    0.000 
#
# Total GULP energy -396570.068526 kJ/mol
# GULP energy per Si atom -12392.814641 kJ/mol
# Density = 1.999674 g / cm^3
# Si number density = 20.042362 Si / 1000 Ang^3
#
#
#
# Elastic Constant Matrix: (Units=GPa)
#
#
# Indices 1 2 3 4 5 6 
#
# 1 108.1366 30.2866 9.9426 0.0000 9.3689 0.0000
# 2 30.2866 113.3978 26.5544 0.0000 -0.8851 0.0000
# 3 9.9426 26.5544 34.3180 0.0000 -1.5302 0.0000
# 4 0.0000 0.0000 0.0000 22.4708 0.0000 0.0385
# 5 9.3689 -0.8851 -1.5302 0.0000 24.4065 0.0000
# 6 0.0000 0.0000 0.0000 0.0385 0.0000 29.3028
#
#
#
# Elastic Compliance Matrix: (Units=1/GPa)
#
#
# Indices 1 2 3 4 5 6 
#
# 1 0.010432 -0.002525 -0.001255 0.000000 -0.004175 0.000000
# 2 -0.002525 0.011382 -0.008036 0.000000 0.000878 0.000000
# 3 -0.001255 -0.008036 0.035830 0.000000 0.002437 0.000000
# 4 0.000000 0.000000 0.000000 0.044502 0.000000 -0.000058
# 5 -0.004175 0.000878 0.002437 0.000000 0.042760 0.000000
# 6 0.000000 0.000000 0.000000 -0.000058 0.000000 0.034127
#
#
# Mechanical properties :
#
#
# Convention : Reuss Voigt Hill
#
# Bulk Modulus (GPa) = 29.40188 43.26884 36.33536
# Shear Modulus (GPa) = 23.36447 27.84059 25.60253
#
# Velocity S-wave (km/s) = 3.41802 3.73109 3.57798
# Velocity P-wave (km/s) = 5.50262 6.34011 5.93615
#
# Compressibility (1/GPa) = 0.03401143
#
# Stress axis : x y z
#
# Youngs Moduli (GPa) = 95.86072 87.86153 27.90996
#
# Poissons Ratio (x) = 0.22184 0.03502
# Poissons Ratio (y) = 0.24204 0.22429
# Poissons Ratio (z) = 0.12028 0.70606
#
# Static dielectric constant tensor:
#      x y z
#    x 3.785590 0.000000 -0.032530 
#    y 0.000000 3.935020 0.000000 
#    z -0.032530 0.000000 3.308800 
# 
# 
# High freq. dielectric constant tensor:
#      x y z
#    x 1.805940 0.000000 -0.000190 
#    y 0.000000 1.788430 0.000000 
#    z -0.000190 0.000000 1.744150 
# 
# From -- ./inp_files/25261.got.cif
#   From: 2010.03.12/outbox.cif.g09.slc.cpg/sg14_13_cif.got.tgz:25261.got - 2010.03.31 13:35:05.
