data_PCOD8128833
_publ_section_title
;
Structure prediction by ZEFSAII (Michael W. Deem and Ramdas Pophale) SiO2 
 PCOD8128833
Probable space group: P 21/C
;
_chemical_formula_sum "Si O2"
_cell_formula_units_Z 20
_cell_length_a 14.520710
_cell_length_b 9.951976
_cell_length_c 7.459187
_cell_angle_alpha 90.000000
_cell_angle_beta 131.099204
_cell_angle_gamma 90.000000
_cell_volume 812.294893
_symmetry_space_group_name_H-M "P 21/C"
_symmetry_group_IT_number 14
_symmetry_cell_setting 'monoclinic'
loop_
_space_group_symop_operation_xyz
x,y,z
-x,1/2+y,1/2-z
-x,-y,-z
x,1/2-y,1/2+z
loop_
_atom_site_type_symbol
_atom_site_label
_atom_site_fract_x
_atom_site_fract_y
_atom_site_fract_z
Si Si1 0.320018 0.544317 0.916853
Si Si2 0.291643 0.376435 0.207608
Si Si3 0.946304 0.800521 0.058104
Si Si4 0.581559 0.862266 0.769613
Si Si5 0.082227 0.909235 0.914646
O O1 0.369524 0.427733 0.850219
O O2 0.211229 0.620619 0.674381
O O3 0.261800 0.497948 0.033408
O O4 0.435458 0.637999 0.105888
O O5 0.352595 0.427379 0.471280
O O6 0.388644 0.294243 0.211824
O O7 0.175454 0.286047 0.107243
O O8 0.964911 0.870127 0.888996
O O9 0.063597 0.702217 0.235750
O O10 0.930638 0.933716 0.167641
#
# Coordination Sequence:
#
# PCOD8128833 Si02
#       5
#     4   4   4   4   4
#     4  11  25  45  66 101 144 178 244 290 348 423
#     4  12  21  45  72  96 139 191 226 290 362 426
#     4  11  24  43  72  98 140 185 235 286 358 420
#     4  11  23  40  70 100 130 189 230 284 352 424
#     4  11  24  46  66 104 140 184 235 295 345 420
#
# _framework density 24.621597999999999
#
# number of rings (size 3 to 8) (size 9 to 14) (size 15 to 20)
#    0.000    0.800    4.000    4.200    0.000    2.400 
#    3.600    0.000    0.000    0.000    0.000    0.000 
#    0.000    0.000    0.000    0.000    0.000    0.000 
#
# Total GULP energy -247825.316049 kJ/mol
# GULP energy per Si atom -12391.265802 kJ/mol
# Density = 2.456556 g / cm^3
# Si number density = 24.621598 Si / 1000 Ang^3
#
#
#
# Elastic Constant Matrix: (Units=GPa)
#
#
# Indices 1 2 3 4 5 6 
#
# 1 91.3649 12.4745 35.0993 0.0000 16.7706 0.0000
# 2 12.4745 46.6335 31.5309 0.0000 19.6634 0.0000
# 3 35.0993 31.5309 141.0279 0.0000 25.5204 0.0000
# 4 0.0000 0.0000 0.0000 38.1647 0.0000 7.3571
# 5 16.7706 19.6634 25.5204 0.0000 52.0367 0.0000
# 6 0.0000 0.0000 0.0000 7.3571 0.0000 29.6439
#
#
#
# Elastic Compliance Matrix: (Units=1/GPa)
#
#
# Indices 1 2 3 4 5 6 
#
# 1 0.012458 -0.000548 -0.002512 0.000000 -0.002576 0.000000
# 2 -0.000548 0.028213 -0.004690 0.000000 -0.008184 0.000000
# 3 -0.002512 -0.004690 0.009106 0.000000 -0.001884 0.000000
# 4 0.000000 0.000000 0.000000 0.027519 0.000000 -0.006830
# 5 -0.002576 -0.008184 -0.001884 0.000000 0.024064 0.000000
# 6 0.000000 0.000000 0.000000 -0.006830 0.000000 0.035429
#
#
# Mechanical properties :
#
#
# Convention : Reuss Voigt Hill
#
# Bulk Modulus (GPa) = 29.17535 48.58174 38.87854
# Shear Modulus (GPa) = 30.54130 37.29715 33.91923
#
# Velocity S-wave (km/s) = 3.52579 3.89628 3.71566
# Velocity P-wave (km/s) = 5.33387 6.32579 5.85089
#
# Compressibility (1/GPa) = 0.03427551
#
# Stress axis : x y z
#
# Youngs Moduli (GPa) = 80.27143 35.44513 109.82365
#
# Poissons Ratio (x) = 0.01942 0.27586
# Poissons Ratio (y) = 0.04398 0.51512
# Poissons Ratio (z) = 0.20163 0.16625
#
# Static dielectric constant tensor:
#      x y z
#    x 4.400500 0.000000 0.060340 
#    y 0.000000 4.892050 0.000000 
#    z 0.060340 0.000000 4.598280 
# 
# 
# High freq. dielectric constant tensor:
#      x y z
#    x 1.976000 0.000000 0.007750 
#    y 0.000000 1.957030 0.000000 
#    z 0.007750 0.000000 1.988940 
# 
# From -- ./inp_files/17491.got.cif
#   From: 2010.03.12/outbox.cif.g09.slc.cpg/sg14_9_cif.got.tgz:17491.got - 2010.03.31 13:35:05.
