data_PCOD8128385
_publ_section_title
;
Structure prediction by ZEFSAII (Michael W. Deem and Ramdas Pophale) SiO2 
 PCOD8128385
Probable space group: P 21/C
;
_chemical_formula_sum "Si O2"
_cell_formula_units_Z 32
_cell_length_a 8.508602
_cell_length_b 13.046974
_cell_length_c 14.417909
_cell_angle_alpha 90.000000
_cell_angle_beta 101.963858
_cell_angle_gamma 90.000000
_cell_volume 1565.787495
_symmetry_space_group_name_H-M "P 21/C"
_symmetry_group_IT_number 14
_symmetry_cell_setting 'monoclinic'
loop_
_space_group_symop_operation_xyz
x,y,z
-x,1/2+y,1/2-z
-x,-y,-z
x,1/2-y,1/2+z
loop_
_atom_site_type_symbol
_atom_site_label
_atom_site_fract_x
_atom_site_fract_y
_atom_site_fract_z
Si Si1 0.873662 0.973084 0.353542
Si Si2 0.609556 0.836260 0.252093
Si Si3 0.216312 0.656914 0.451604
Si Si4 0.033723 0.836404 0.524831
Si Si5 0.995940 0.996898 0.167403
Si Si6 0.208560 0.306761 0.410700
Si Si7 0.341119 0.538445 0.634300
Si Si8 0.463936 0.172500 0.103424
O O1 0.695044 0.936581 0.305806
O O2 0.956621 0.885413 0.424474
O O3 0.979425 0.987295 0.275061
O O4 0.861893 0.079826 0.407107
O O5 0.715952 0.790454 0.181388
O O6 0.433290 0.869369 0.196956
O O7 0.597919 0.749542 0.327031
O O8 0.153033 0.747505 0.508271
O O9 0.297353 0.570695 0.525035
O O10 0.352414 0.700004 0.399098
O O11 0.071802 0.606344 0.375479
O O12 0.895688 0.792693 0.575539
O O13 0.183952 0.992599 0.171425
O O14 0.905645 0.906383 0.101034
O O15 0.351442 0.321170 0.500274
O O16 0.460657 0.442102 0.643523
#
# Coordination Sequence:
#
# PCOD8128385 Si02
#       8
#     4   4   4   4   4   4   4   4
#     4  10  25  45  64  95 138 176 216 280 330 395
#     4  11  26  43  66 100 135 179 221 270 341 397
#     4  12  24  42  70  97 130 173 223 275 331 391
#     4  11  24  44  69  94 134 179 223 271 334 396
#     4  11  24  41  71  98 129 172 228 273 326 395
#     4  11  21  44  68  96 132 173 224 277 322 395
#     4  12  24  42  65 101 132 169 220 277 330 388
#     4  12  24  43  68  95 137 172 219 273 338 390
#
# _framework density 20.437000000000001
#
# number of rings (size 3 to 8) (size 9 to 14) (size 15 to 20)
#    0.000    0.750    5.000    3.000    3.500    3.000 
#    0.000    0.625    0.000    0.000    0.000    0.000 
#    0.000    0.000    0.000    0.000    0.000    0.000 
#
# Total GULP energy -397010.234855 kJ/mol
# GULP energy per Si atom -12406.569839 kJ/mol
# Density = 2.039048 g / cm^3
# Si number density = 20.437000 Si / 1000 Ang^3
#
#
#
# Elastic Constant Matrix: (Units=GPa)
#
#
# Indices 1 2 3 4 5 6 
#
# 1 123.7992 48.3041 43.8539 0.0000 -11.4098 0.0000
# 2 48.3041 96.8252 47.5959 0.0000 -13.3684 0.0000
# 3 43.8539 47.5959 110.8370 0.0000 -10.0222 0.0000
# 4 0.0000 0.0000 0.0000 32.8358 0.0000 -0.3360
# 5 -11.4098 -13.3684 -10.0222 0.0000 27.6009 0.0000
# 6 0.0000 0.0000 0.0000 -0.3360 0.0000 30.7259
#
#
#
# Elastic Compliance Matrix: (Units=1/GPa)
#
#
# Indices 1 2 3 4 5 6 
#
# 1 0.010586 -0.003891 -0.002370 0.000000 0.001631 0.000000
# 2 -0.003891 0.015071 -0.004568 0.000000 0.004033 0.000000
# 3 -0.002370 -0.004568 0.012028 0.000000 0.001175 0.000000
# 4 0.000000 0.000000 0.000000 0.030458 0.000000 0.000333
# 5 0.001631 0.004033 0.001175 0.000000 0.039285 0.000000
# 6 0.000000 0.000000 0.000000 0.000333 0.000000 0.032549
#
#
# Mechanical properties :
#
#
# Convention : Reuss Voigt Hill
#
# Bulk Modulus (GPa) = 62.39381 67.88545 65.13963
# Shear Modulus (GPa) = 29.94439 31.01301 30.47870
#
# Velocity S-wave (km/s) = 3.83195 3.89973 3.86599
# Velocity P-wave (km/s) = 7.08340 7.31889 7.20211
#
# Compressibility (1/GPa) = 0.01602723
#
# Stress axis : x y z
#
# Youngs Moduli (GPa) = 94.46853 66.35260 83.14076
#
# Poissons Ratio (x) = 0.25816 0.19705
# Poissons Ratio (y) = 0.36755 0.37977
# Poissons Ratio (z) = 0.22390 0.30308
#
# Static dielectric constant tensor:
#      x y z
#    x 3.716770 0.000000 -0.042530 
#    y 0.000000 3.681760 0.000000 
#    z -0.042530 0.000000 3.775840 
# 
# 
# High freq. dielectric constant tensor:
#      x y z
#    x 1.803510 0.000000 -0.003160 
#    y 0.000000 1.798380 0.000000 
#    z -0.003160 0.000000 1.808590 
# 
# From -- ./inp_files/40382.got.cif
#   From: 2010.03.12/outbox.cif.g09.slc.cpg/sg14_21_cif.got.tgz:40382.got - 2010.03.31 13:35:05.
