data_PCOD8128083
_publ_section_title
;
Structure prediction by ZEFSAII (Michael W. Deem and Ramdas Pophale) SiO2 
 PCOD8128083
Probable space group: P 21/C
;
_chemical_formula_sum "Si O2"
_cell_formula_units_Z 20
_cell_length_a 17.127145
_cell_length_b 7.116458
_cell_length_c 10.361323
_cell_angle_alpha 90.000000
_cell_angle_beta 37.861440
_cell_angle_gamma 90.000000
_cell_volume 775.101217
_symmetry_space_group_name_H-M "P 21/C"
_symmetry_group_IT_number 14
_symmetry_cell_setting 'monoclinic'
loop_
_space_group_symop_operation_xyz
x,y,z
-x,1/2+y,1/2-z
-x,-y,-z
x,1/2-y,1/2+z
loop_
_atom_site_type_symbol
_atom_site_label
_atom_site_fract_x
_atom_site_fract_y
_atom_site_fract_z
Si Si1 0.967424 0.357997 0.431196
Si Si2 0.819496 0.810835 0.020713
Si Si3 0.785667 0.467674 0.208449
Si Si4 0.419305 0.617695 0.705974
Si Si5 0.597354 0.508171 0.684796
O O1 0.869316 0.475418 0.469173
O O2 0.904969 0.169175 0.570158
O O3 0.000000 0.500000 0.500000
O O4 0.093711 0.302362 0.191930
O O5 0.673150 0.824063 0.158950
O O6 0.823186 0.690190 0.150385
O O7 0.726060 0.428078 0.142334
O O8 0.689998 0.430126 0.450470
O O9 0.500000 0.500000 0.500000
O O10 0.464051 0.575066 0.794865
O O11 0.436553 0.843445 0.669262
#
# Coordination Sequence:
#
# PCOD8128083 Si02
#       5
#     4   4   4   4   4
#     4  12  27  43  72 107 147 193 239 292 354 423
#     4  12  25  46  71 107 146 189 240 296 355 423
#     4  11  25  46  71 107 145 188 242 293 356 427
#     4  10  23  47  71 106 139 184 238 299 360 428
#     4  11  24  46  74 101 143 187 238 299 361 429
#
# _framework density 25.803083999999998
#
# number of rings (size 3 to 8) (size 9 to 14) (size 15 to 20)
#    0.000    0.800    4.000    2.400    5.600    1.600 
#    7.200    6.000    0.000    0.000    0.000    0.000 
#    0.000    0.000    0.000    0.000    0.000    0.000 
#
# Total GULP energy -247893.976673 kJ/mol
# GULP energy per Si atom -12394.698834 kJ/mol
# Density = 2.574435 g / cm^3
# Si number density = 25.803084 Si / 1000 Ang^3
#
#
#
# Elastic Constant Matrix: (Units=GPa)
#
#
# Indices 1 2 3 4 5 6 
#
# 1 82.3822 27.2150 7.1405 0.0000 -3.0420 0.0000
# 2 27.2150 149.9240 27.0968 0.0000 0.6101 0.0000
# 3 7.1405 27.0968 48.7712 0.0000 -3.3786 0.0000
# 4 0.0000 0.0000 0.0000 53.1096 0.0000 -2.2064
# 5 -3.0420 0.6101 -3.3786 0.0000 24.4093 0.0000
# 6 0.0000 0.0000 0.0000 -2.2064 0.0000 53.7347
#
#
#
# Elastic Compliance Matrix: (Units=1/GPa)
#
#
# Indices 1 2 3 4 5 6 
#
# 1 0.012993 -0.002269 -0.000531 0.000000 0.001603 0.000000
# 2 -0.002269 0.007825 -0.004088 0.000000 -0.001044 0.000000
# 3 -0.000531 -0.004088 0.023076 0.000000 0.003230 0.000000
# 4 0.000000 0.000000 0.000000 0.018861 0.000000 0.000774
# 5 0.001603 -0.001044 0.003230 0.000000 0.041641 0.000000
# 6 0.000000 0.000000 0.000000 0.000774 0.000000 0.018642
#
#
# Mechanical properties :
#
#
# Convention : Reuss Voigt Hill
#
# Bulk Modulus (GPa) = 33.20059 44.88688 39.04373
# Shear Modulus (GPa) = 34.04763 40.89242 37.47002
#
# Velocity S-wave (km/s) = 3.63646 3.98526 3.81485
# Velocity P-wave (km/s) = 5.52509 6.21370 5.87948
#
# Compressibility (1/GPa) = 0.03011995
#
# Stress axis : x y z
#
# Youngs Moduli (GPa) = 76.96246 127.79559 43.33444
#
# Poissons Ratio (x) = 0.29000 0.02299
# Poissons Ratio (y) = 0.17465 0.17713
# Poissons Ratio (z) = 0.04083 0.52237
#
# Static dielectric constant tensor:
#      x y z
#    x 5.440930 0.000000 -0.190220 
#    y 0.000000 5.188470 0.000000 
#    z -0.190220 0.000000 4.244400 
# 
# 
# High freq. dielectric constant tensor:
#      x y z
#    x 2.047970 0.000000 -0.010190 
#    y 0.000000 2.049280 0.000000 
#    z -0.010190 0.000000 2.003040 
# 
# From -- ./inp_files/34533.got.cif
#   From: 2010.03.12/outbox.cif.g09.slc.cpg/sg14_18_cif.got.tgz:34533.got - 2010.03.31 13:35:05.
