data_PCOD8128021
_publ_section_title
;
Structure prediction by ZEFSAII (Michael W. Deem and Ramdas Pophale) SiO2 
 PCOD8128021
Probable space group: P 21/C
;
_chemical_formula_sum "Si O2"
_cell_formula_units_Z 28
_cell_length_a 21.338906
_cell_length_b 8.820282
_cell_length_c 9.975559
_cell_angle_alpha 90.000000
_cell_angle_beta 40.284343
_cell_angle_gamma 90.000000
_cell_volume 1213.989784
_symmetry_space_group_name_H-M "P 21/C"
_symmetry_group_IT_number 14
_symmetry_cell_setting 'monoclinic'
loop_
_space_group_symop_operation_xyz
x,y,z
-x,1/2+y,1/2-z
-x,-y,-z
x,1/2-y,1/2+z
loop_
_atom_site_type_symbol
_atom_site_label
_atom_site_fract_x
_atom_site_fract_y
_atom_site_fract_z
Si Si1 0.804642 0.579292 0.916741
Si Si2 0.395786 0.433928 0.623479
Si Si3 0.813634 0.113400 0.148470
Si Si4 0.515849 0.174245 0.461592
Si Si5 0.134858 0.072286 0.175419
Si Si6 0.913157 0.082973 0.477058
Si Si7 0.625911 0.196203 0.020467
O O1 0.833799 0.517100 0.723821
O O2 0.827483 0.756775 0.884858
O O3 0.690276 0.548797 0.127923
O O4 0.869920 0.486451 0.913287
O O5 0.500000 0.500000 0.500000
O O6 0.417265 0.254874 0.566845
O O7 0.361668 0.519015 0.543105
O O8 0.900563 0.235183 0.002331
O O9 0.720294 0.209207 0.337516
O O10 0.798565 0.030596 0.030354
O O11 0.602104 0.209021 0.216002
O O12 0.540241 0.236032 0.568937
O O13 0.500000 0.000000 0.500000
O O14 0.027273 0.056085 0.292233
O O15 0.141090 0.001034 0.312445
#
# Coordination Sequence:
#
# PCOD8128021 Si02
#       7
#     4   4   4   4   4   4   4
#     4  12  25  45  73 107 144 188 240 303 362 439
#     4  10  23  45  66  99 143 180 235 289 344 425
#     4  12  25  43  74 100 143 186 240 292 366 436
#     4  11  25  44  71 101 142 185 233 293 354 412
#     4  11  27  46  69 109 140 183 240 306 370 430
#     4  11  25  47  73 100 145 187 236 297 370 445
#     4  11  24  44  70 103 136 189 235 285 355 427
#
# _framework density 23.064444000000002
#
# number of rings (size 3 to 8) (size 9 to 14) (size 15 to 20)
#    0.000    0.857    1.429    5.143    4.000    5.714 
#    7.714    0.000    0.000    0.000    0.000    0.000 
#    0.000    0.000    0.000    0.000    0.000    0.000 
#
# Total GULP energy -347198.842133 kJ/mol
# GULP energy per Si atom -12399.958648 kJ/mol
# Density = 2.301195 g / cm^3
# Si number density = 23.064444 Si / 1000 Ang^3
#
#
#
# Elastic Constant Matrix: (Units=GPa)
#
#
# Indices 1 2 3 4 5 6 
#
# 1 59.0763 23.7546 14.2330 0.0000 3.5536 0.0000
# 2 23.7546 154.7867 25.7625 0.0000 -2.2182 0.0000
# 3 14.2330 25.7625 74.6050 0.0000 14.0915 0.0000
# 4 0.0000 0.0000 0.0000 38.9847 0.0000 6.5988
# 5 3.5536 -2.2182 14.0915 0.0000 24.7886 0.0000
# 6 0.0000 0.0000 0.0000 6.5988 0.0000 38.1657
#
#
#
# Elastic Compliance Matrix: (Units=1/GPa)
#
#
# Indices 1 2 3 4 5 6 
#
# 1 0.018593 -0.002475 -0.002406 0.000000 -0.001519 0.000000
# 2 -0.002475 0.007292 -0.002505 0.000000 0.002431 0.000000
# 3 -0.002406 -0.002505 0.016474 0.000000 -0.009244 0.000000
# 4 0.000000 0.000000 0.000000 0.026424 0.000000 -0.004569
# 5 -0.001519 0.002431 -0.009244 0.000000 0.046032 0.000000
# 6 0.000000 0.000000 0.000000 -0.004569 0.000000 0.026991
#
#
# Mechanical properties :
#
#
# Convention : Reuss Voigt Hill
#
# Bulk Modulus (GPa) = 36.24738 46.21866 41.23302
# Shear Modulus (GPa) = 30.16147 35.36898 32.76522
#
# Velocity S-wave (km/s) = 3.62014 3.92022 3.77317
# Velocity P-wave (km/s) = 5.76400 6.36972 6.07441
#
# Compressibility (1/GPa) = 0.02758820
#
# Stress axis : x y z
#
# Youngs Moduli (GPa) = 53.78262 137.13437 60.70160
#
# Poissons Ratio (x) = 0.33939 0.14602
# Poissons Ratio (y) = 0.13310 0.15207
# Poissons Ratio (z) = 0.12938 0.34355
#
# Static dielectric constant tensor:
#      x y z
#    x 4.146480 0.000000 0.076320 
#    y 0.000000 5.317290 0.000000 
#    z 0.076320 0.000000 4.209980 
# 
# 
# High freq. dielectric constant tensor:
#      x y z
#    x 1.903590 0.000000 -0.000850 
#    y 0.000000 1.933330 0.000000 
#    z -0.000850 0.000000 1.917710 
# 
# From -- ./inp_files/18717.got.cif
#   From: 2010.03.12/outbox.cif.g09.slc.cpg/sg14_10_cif.got.tgz:18717.got - 2010.03.31 13:35:05.
