data_PCOD8128655
_publ_section_title
;
Structure prediction by ZEFSAII (Michael W. Deem and Ramdas Pophale) SiO2 
 PCOD8128655
Probable space group: P 21/C
;
_chemical_formula_sum "Si O2"
_cell_formula_units_Z 20
_cell_length_a 9.534598
_cell_length_b 8.127085
_cell_length_c 27.909229
_cell_angle_alpha 90.000000
_cell_angle_beta 153.420231
_cell_angle_gamma 90.000000
_cell_volume 967.660632
_symmetry_space_group_name_H-M "P 21/C"
_symmetry_group_IT_number 14
_symmetry_cell_setting 'monoclinic'
loop_
_space_group_symop_operation_xyz
x,y,z
-x,1/2+y,1/2-z
-x,-y,-z
x,1/2-y,1/2+z
loop_
_atom_site_type_symbol
_atom_site_label
_atom_site_fract_x
_atom_site_fract_y
_atom_site_fract_z
Si Si1 0.124578 0.957621 0.642327
Si Si2 0.937778 0.085666 0.133285
Si Si3 0.323456 0.248477 0.434970
Si Si4 0.225466 0.746736 0.006306
Si Si5 0.470982 0.714037 0.682096
O O1 0.392992 0.042549 0.756738
O O2 0.996038 0.085043 0.563299
O O3 0.259966 0.796546 0.658582
O O4 0.834290 0.908440 0.588112
O O5 0.251787 0.164296 0.250425
O O6 0.932692 0.895062 0.146163
O O7 0.626691 0.182860 0.057761
O O8 0.942286 0.109310 0.076391
O O9 0.438744 0.202845 0.416409
O O10 0.261459 0.814452 0.070884
#
# Coordination Sequence:
#
# PCOD8128655 Si02
#       5
#     4   4   4   4   4
#     4  11  22  38  58  85 116 152 186 241 286 329
#     4   8  19  38  58  81 119 144 187 233 282 337
#     4   9  18  40  59  82 118 146 183 241 287 328
#     4   9  20  37  60  82 112 148 194 228 281 339
#     4  11  22  37  58  82 117 151 194 230 286 340
#
# _framework density 20.668400999999999
#
# number of rings (size 3 to 8) (size 9 to 14) (size 15 to 20)
#    1.200    1.200    0.000    2.400    0.000    1.600 
#    0.000   11.000    0.000    0.000    0.000    0.000 
#    0.000    0.000    0.000    0.000    0.000    0.000 
#
# Total GULP energy -247837.030840 kJ/mol
# GULP energy per Si atom -12391.851542 kJ/mol
# Density = 2.062136 g / cm^3
# Si number density = 20.668401 Si / 1000 Ang^3
#
#
#
# Elastic Constant Matrix: (Units=GPa)
#
#
# Indices 1 2 3 4 5 6 
#
# 1 69.6599 20.3226 20.0578 0.0000 -4.2098 0.0000
# 2 20.3226 48.4655 14.1342 0.0000 -10.8309 0.0000
# 3 20.0578 14.1342 54.9786 0.0000 -14.7822 0.0000
# 4 0.0000 0.0000 0.0000 31.1508 0.0000 14.8786
# 5 -4.2098 -10.8309 -14.7822 0.0000 33.2855 0.0000
# 6 0.0000 0.0000 0.0000 14.8786 0.0000 31.9300
#
#
#
# Elastic Compliance Matrix: (Units=1/GPa)
#
#
# Indices 1 2 3 4 5 6 
#
# 1 0.017617 -0.006309 -0.005404 0.000000 -0.002224 0.000000
# 2 -0.006309 0.025436 -0.002529 0.000000 0.006356 0.000000
# 3 -0.005404 -0.002529 0.023172 0.000000 0.008785 0.000000
# 4 0.000000 0.000000 0.000000 0.041292 0.000000 -0.019241
# 5 -0.002224 0.006356 0.008785 0.000000 0.035731 0.000000
# 6 0.000000 0.000000 0.000000 -0.019241 0.000000 0.040284
#
#
# Mechanical properties :
#
#
# Convention : Reuss Voigt Hill
#
# Bulk Modulus (GPa) = 26.49415 31.34813 28.92114
# Shear Modulus (GPa) = 22.26209 27.17922 24.72066
#
# Velocity S-wave (km/s) = 3.28549 3.63025 3.46216
# Velocity P-wave (km/s) = 5.21911 5.72466 5.47772
#
# Compressibility (1/GPa) = 0.03774418
#
# Stress axis : x y z
#
# Youngs Moduli (GPa) = 56.76212 39.31367 43.15494
#
# Poissons Ratio (x) = 0.24801 0.23319
# Poissons Ratio (y) = 0.35809 0.10913
# Poissons Ratio (z) = 0.30672 0.09942
#
# Static dielectric constant tensor:
#      x y z
#    x 3.442120 0.000000 0.266600 
#    y 0.000000 3.494850 0.000000 
#    z 0.266600 0.000000 3.511850 
# 
# 
# High freq. dielectric constant tensor:
#      x y z
#    x 1.787650 0.000000 0.025220 
#    y 0.000000 1.803030 0.000000 
#    z 0.025220 0.000000 1.790110 
# 
# From -- ./inp_files/46105.got.cif
#   From: 2010.03.12/outbox.cif.g09.slc.cpg/sg14_24_cif.got.tgz:46105.got - 2010.03.31 13:35:05.
