data_PCOD8128834
_publ_section_title
;
Structure prediction by ZEFSAII (Michael W. Deem and Ramdas Pophale) SiO2 
 PCOD8128834
Probable space group: P 21/C
;
_chemical_formula_sum "Si O2"
_cell_formula_units_Z 24
_cell_length_a 9.295616
_cell_length_b 8.415185
_cell_length_c 13.769436
_cell_angle_alpha 90.000000
_cell_angle_beta 89.761054
_cell_angle_gamma 90.000000
_cell_volume 1077.095516
_symmetry_space_group_name_H-M "P 21/C"
_symmetry_group_IT_number 14
_symmetry_cell_setting 'monoclinic'
loop_
_space_group_symop_operation_xyz
x,y,z
-x,1/2+y,1/2-z
-x,-y,-z
x,1/2-y,1/2+z
loop_
_atom_site_type_symbol
_atom_site_label
_atom_site_fract_x
_atom_site_fract_y
_atom_site_fract_z
Si Si1 0.397019 0.101692 0.803118
Si Si2 0.097704 0.909020 0.320720
Si Si3 0.325218 0.090077 0.193620
Si Si4 0.104313 0.744247 0.510552
Si Si5 0.799432 0.604669 0.516468
Si Si6 0.827432 0.110859 0.294404
O O1 0.403313 0.255353 0.735082
O O2 0.559334 0.048736 0.825167
O O3 0.321287 0.958224 0.745062
O O4 0.322227 0.147274 0.905061
O O5 0.125609 0.889978 0.435694
O O6 0.103633 0.731869 0.280965
O O7 0.209018 0.028867 0.271391
O O8 0.935593 0.964503 0.304620
O O9 0.251325 0.137591 0.092698
O O10 0.164821 0.580271 0.467822
O O11 0.194940 0.794873 0.604757
O O12 0.936654 0.716687 0.538742
#
# Coordination Sequence:
#
# PCOD8128834 Si02
#       6
#     4   4   4   4   4   4
#     4  12  27  47  70 100 139 185 232 284 345 411
#     4  12  23  41  68 103 139 178 230 287 338 407
#     4  12  27  47  70 100 139 185 232 284 345 411
#     4  11  23  40  72 105 135 176 233 281 346 402
#     4  11  23  46  70 102 139 185 223 285 348 406
#     4  12  23  41  68 103 139 178 230 287 338 407
#
# _framework density 22.282147999999999
#
# number of rings (size 3 to 8) (size 9 to 14) (size 15 to 20)
#    0.000    0.333    3.333    7.000    0.000    1.333 
#    0.000    1.667    0.000    0.000    0.000    0.000 
#    0.000    0.000    0.000    0.000    0.000    0.000 
#
# Total GULP energy -297753.716874 kJ/mol
# GULP energy per Si atom -12406.404870 kJ/mol
# Density = 2.223143 g / cm^3
# Si number density = 22.282148 Si / 1000 Ang^3
#
#
#
# Elastic Constant Matrix: (Units=GPa)
#
#
# Indices 1 2 3 4 5 6 
#
# 1 49.7512 -6.1672 19.5191 0.0000 2.0616 0.0000
# 2 -6.1672 65.7388 17.3816 0.0000 4.2883 0.0000
# 3 19.5191 17.3816 106.5120 0.0000 -1.2614 0.0000
# 4 0.0000 0.0000 0.0000 37.4572 0.0000 1.6983
# 5 2.0616 4.2883 -1.2614 0.0000 25.6813 0.0000
# 6 0.0000 0.0000 0.0000 1.6983 0.0000 34.4288
#
#
#
# Elastic Compliance Matrix: (Units=1/GPa)
#
#
# Indices 1 2 3 4 5 6 
#
# 1 0.022503 0.003534 -0.004732 0.000000 -0.002629 0.000000
# 2 0.003534 0.016654 -0.003404 0.000000 -0.003232 0.000000
# 3 -0.004732 -0.003404 0.010829 0.000000 0.001480 0.000000
# 4 0.000000 0.000000 0.000000 0.026757 0.000000 -0.001320
# 5 -0.002629 -0.003232 0.001480 0.000000 0.039762 0.000000
# 6 0.000000 0.000000 0.000000 -0.001320 0.000000 0.029111
#
#
# Mechanical properties :
#
#
# Convention : Reuss Voigt Hill
#
# Bulk Modulus (GPa) = 24.52010 31.49655 28.00832
# Shear Modulus (GPa) = 29.68887 32.26470 30.97678
#
# Velocity S-wave (km/s) = 3.65417 3.80940 3.73259
# Velocity P-wave (km/s) = 5.36957 5.78919 5.58332
#
# Compressibility (1/GPa) = 0.04078287
#
# Stress axis : x y z
#
# Youngs Moduli (GPa) = 44.43771 60.04579 92.34728
#
# Poissons Ratio (x) = -0.21218 0.43696
# Poissons Ratio (y) = -0.15703 0.31431
# Poissons Ratio (z) = 0.21027 0.20437
#
# Static dielectric constant tensor:
#      x y z
#    x 3.818110 0.000000 0.092510 
#    y 0.000000 3.960630 0.000000 
#    z 0.092510 0.000000 4.100840 
# 
# 
# High freq. dielectric constant tensor:
#      x y z
#    x 1.864980 0.000000 0.003690 
#    y 0.000000 1.888360 0.000000 
#    z 0.003690 0.000000 1.891350 
# 
# From -- ./inp_files/38986.got.cif
#   From: 2010.03.12/outbox.cif.g09.slc.cpg/sg14_20_cif.got.tgz:38986.got - 2010.03.31 13:35:05.
