data_PCOD8128777
_publ_section_title
;
Structure prediction by ZEFSAII (Michael W. Deem and Ramdas Pophale) SiO2 
 PCOD8128777
Probable space group: P 21/C
;
_chemical_formula_sum "Si O2"
_cell_formula_units_Z 24
_cell_length_a 6.353943
_cell_length_b 9.152261
_cell_length_c 17.552778
_cell_angle_alpha 90.000000
_cell_angle_beta 102.319724
_cell_angle_gamma 90.000000
_cell_volume 997.240181
_symmetry_space_group_name_H-M "P 21/C"
_symmetry_group_IT_number 14
_symmetry_cell_setting 'monoclinic'
loop_
_space_group_symop_operation_xyz
x,y,z
-x,1/2+y,1/2-z
-x,-y,-z
x,1/2-y,1/2+z
loop_
_atom_site_type_symbol
_atom_site_label
_atom_site_fract_x
_atom_site_fract_y
_atom_site_fract_z
Si Si1 0.640118 0.103948 0.306294
Si Si2 0.974057 0.543584 0.615475
Si Si3 0.846771 0.284315 0.508195
Si Si4 0.275918 0.614408 0.771516
Si Si5 0.601783 0.751632 0.077006
Si Si6 0.915409 0.001452 0.590263
O O1 0.702186 0.211393 0.241200
O O2 0.492093 0.196319 0.351244
O O3 0.501576 0.964989 0.267976
O O4 0.852636 0.050439 0.365015
O O5 0.968467 0.381076 0.580636
O O6 0.729382 0.599116 0.603698
O O7 0.108867 0.653625 0.572393
O O8 0.088482 0.541270 0.705753
O O9 0.587402 0.282966 0.498652
O O10 0.934810 0.116952 0.521259
O O11 0.206638 0.593280 0.853142
O O12 0.765852 0.633802 0.053846
#
# Coordination Sequence:
#
# PCOD8128777 Si02
#       6
#     4   4   4   4   4   4
#     4  11  26  45  70  99 133 179 223 285 330 401
#     4  11  25  44  69  98 139 179 221 280 334 400
#     4  11  25  43  68 102 133 180 222 276 337 403
#     4  11  26  44  69  99 133 181 224 279 340 393
#     4  11  22  46  67  98 132 177 224 275 337 395
#     4  11  26  42  71  98 134 176 227 280 335 400
#
# _framework density 24.066420000000001
#
# number of rings (size 3 to 8) (size 9 to 14) (size 15 to 20)
#    0.000    1.000    3.333    1.000    7.000    5.333 
#    3.000    0.000    0.000    0.000    0.000    0.000 
#    0.000    0.000    0.000    0.000    0.000    0.000 
#
# Total GULP energy -297742.826187 kJ/mol
# GULP energy per Si atom -12405.951091 kJ/mol
# Density = 2.401164 g / cm^3
# Si number density = 24.066420 Si / 1000 Ang^3
#
#
#
# Elastic Constant Matrix: (Units=GPa)
#
#
# Indices 1 2 3 4 5 6 
#
# 1 93.4466 19.4982 5.2136 0.0000 33.3293 0.0000
# 2 19.4982 91.2726 4.6925 0.0000 25.1856 0.0000
# 3 5.2136 4.6925 54.3152 0.0000 24.2170 0.0000
# 4 0.0000 0.0000 0.0000 38.0887 0.0000 10.7901
# 5 33.3293 25.1856 24.2170 0.0000 45.3908 0.0000
# 6 0.0000 0.0000 0.0000 10.7901 0.0000 41.2373
#
#
#
# Elastic Compliance Matrix: (Units=1/GPa)
#
#
# Indices 1 2 3 4 5 6 
#
# 1 0.015356 0.000336 0.004733 0.000000 -0.013987 0.000000
# 2 0.000336 0.013261 0.002903 0.000000 -0.009154 0.000000
# 3 0.004733 0.002903 0.026208 0.000000 -0.019069 0.000000
# 4 0.000000 0.000000 0.000000 0.028356 0.000000 -0.007420
# 5 -0.013987 -0.009154 -0.019069 0.000000 0.047554 0.000000
# 6 0.000000 0.000000 0.000000 -0.007420 0.000000 0.026191
#
#
# Mechanical properties :
#
#
# Convention : Reuss Voigt Hill
#
# Bulk Modulus (GPa) = 14.13033 33.09366 23.61199
# Shear Modulus (GPa) = 30.38191 38.91871 34.65031
#
# Velocity S-wave (km/s) = 3.55691 4.02573 3.79856
# Velocity P-wave (km/s) = 4.77000 5.94890 5.39177
#
# Compressibility (1/GPa) = 0.07076977
#
# Stress axis : x y z
#
# Youngs Moduli (GPa) = 65.12169 75.40896 38.15626
#
# Poissons Ratio (x) = -0.02532 -0.18060
# Poissons Ratio (y) = -0.02187 -0.11078
# Poissons Ratio (z) = -0.30824 -0.21894
#
# Static dielectric constant tensor:
#      x y z
#    x 4.631380 0.000000 0.030550 
#    y 0.000000 4.464560 0.000000 
#    z 0.030550 0.000000 4.137750 
# 
# 
# High freq. dielectric constant tensor:
#      x y z
#    x 1.970240 0.000000 0.003330 
#    y 0.000000 1.966920 0.000000 
#    z 0.003330 0.000000 1.947230 
# 
# From -- ./inp_files/71072.got.cif
#   From: 2010.03.12/outbox.cif.g09.slc.cpg/sg14_36_cif.got.tgz:71072.got - 2010.03.31 13:35:05.
