data_PCOD8128242
_publ_section_title
;
Structure prediction by ZEFSAII (Michael W. Deem and Ramdas Pophale) SiO2 
 PCOD8128242
Probable space group: P 21/C
;
_chemical_formula_sum "Si O2"
_cell_formula_units_Z 28
_cell_length_a 8.362688
_cell_length_b 8.451623
_cell_length_c 26.224288
_cell_angle_alpha 90.000000
_cell_angle_beta 138.494449
_cell_angle_gamma 90.000000
_cell_volume 1228.292617
_symmetry_space_group_name_H-M "P 21/C"
_symmetry_group_IT_number 14
_symmetry_cell_setting 'monoclinic'
loop_
_space_group_symop_operation_xyz
x,y,z
-x,1/2+y,1/2-z
-x,-y,-z
x,1/2-y,1/2+z
loop_
_atom_site_type_symbol
_atom_site_label
_atom_site_fract_x
_atom_site_fract_y
_atom_site_fract_z
Si Si1 0.647568 0.484865 0.266142
Si Si2 0.234990 0.101056 0.049698
Si Si3 0.772560 0.473064 0.082312
Si Si4 0.094610 0.186699 0.906620
Si Si5 0.797482 0.706990 0.856324
Si Si6 0.833817 0.947573 0.705084
Si Si7 0.292045 0.089162 0.849909
O O1 0.364783 0.442257 0.199673
O O2 0.695193 0.662181 0.294110
O O3 0.715862 0.460890 0.223806
O O4 0.819976 0.377187 0.343334
O O5 0.239372 0.238266 0.093919
O O6 0.447308 0.973224 0.103671
O O7 0.233632 0.178866 0.993528
O O8 0.000000 0.000000 0.000000
O O9 0.928138 0.630990 0.113008
O O10 0.759475 0.442164 0.139480
O O11 0.918945 0.334084 0.087213
O O12 0.500000 0.500000 0.000000
O O13 0.248986 0.090641 0.900867
O O14 0.747624 0.766410 0.680776
O O15 0.120811 0.960850 0.781566
#
# Coordination Sequence:
#
# PCOD8128242 Si02
#       7
#     4   4   4   4   4   4   4
#     4  11  25  46  71 107 139 185 240 292 362 424
#     4  12  27  43  71 104 147 190 232 293 368 427
#     4  11  27  46  70 102 141 183 241 297 360 434
#     4  10  24  47  70  99 143 186 239 292 357 428
#     4  12  28  45  74 105 148 187 236 301 365 428
#     4  10  24  43  74  99 136 186 239 295 354 422
#     4  10  24  43  74 101 141 187 248 291 355 432
#
# _framework density 22.795871999999999
#
# number of rings (size 3 to 8) (size 9 to 14) (size 15 to 20)
#    0.000    1.143    1.429    2.143   16.000    4.000 
#    0.000    0.000    0.000    0.000    0.000    0.000 
#    0.000    0.000    0.000    0.000    0.000    0.000 
#
# Total GULP energy -347093.071992 kJ/mol
# GULP energy per Si atom -12396.181143 kJ/mol
# Density = 2.274399 g / cm^3
# Si number density = 22.795872 Si / 1000 Ang^3
#
#
#
# Elastic Constant Matrix: (Units=GPa)
#
#
# Indices 1 2 3 4 5 6 
#
# 1 99.3625 33.6233 78.8138 0.0000 0.9611 0.0000
# 2 33.6233 71.0259 50.2642 0.0000 2.7567 0.0000
# 3 78.8138 50.2642 149.0903 0.0000 -1.2286 0.0000
# 4 0.0000 0.0000 0.0000 36.5190 0.0000 7.8017
# 5 0.9611 2.7567 -1.2286 0.0000 53.2526 0.0000
# 6 0.0000 0.0000 0.0000 7.8017 0.0000 37.9948
#
#
#
# Elastic Compliance Matrix: (Units=1/GPa)
#
#
# Indices 1 2 3 4 5 6 
#
# 1 0.017620 -0.002274 -0.008551 0.000000 -0.000398 0.000000
# 2 -0.002274 0.018850 -0.005161 0.000000 -0.001054 0.000000
# 3 -0.008551 -0.005161 0.012974 0.000000 0.000721 0.000000
# 4 0.000000 0.000000 0.000000 0.028639 0.000000 -0.005881
# 5 -0.000398 -0.001054 0.000721 0.000000 0.018857 0.000000
# 6 0.000000 0.000000 0.000000 -0.005881 0.000000 0.027527
#
#
# Mechanical properties :
#
#
# Convention : Reuss Voigt Hill
#
# Bulk Modulus (GPa) = 57.24107 71.65349 64.44728
# Shear Modulus (GPa) = 30.81402 36.00511 33.40956
#
# Velocity S-wave (km/s) = 3.68059 3.97855 3.83246
# Velocity P-wave (km/s) = 6.57473 7.25300 6.92218
#
# Compressibility (1/GPa) = 0.01746997
#
# Stress axis : x y z
#
# Youngs Moduli (GPa) = 56.75243 53.05165 77.07851
#
# Poissons Ratio (x) = 0.12066 0.65911
# Poissons Ratio (y) = 0.12908 0.39782
# Poissons Ratio (z) = 0.48530 0.27381
#
# Static dielectric constant tensor:
#      x y z
#    x 4.425010 0.000000 -0.364490 
#    y 0.000000 3.985900 0.000000 
#    z -0.364490 0.000000 4.494770 
# 
# 
# High freq. dielectric constant tensor:
#      x y z
#    x 1.905370 0.000000 -0.006270 
#    y 0.000000 1.893620 0.000000 
#    z -0.006270 0.000000 1.911450 
# 
# From -- ./inp_files/76514.got.cif
#   From: 2010.03.12/outbox.cif.g09.slc.cpg/sg14_39_cif.got.tgz:76514.got - 2010.03.31 13:35:05.
