data_PCOD8128317
_publ_section_title
;
Structure prediction by ZEFSAII (Michael W. Deem and Ramdas Pophale) SiO2 
 PCOD8128317
Probable space group: P 21/C
;
_chemical_formula_sum "Si O2"
_cell_formula_units_Z 28
_cell_length_a 8.519335
_cell_length_b 25.989393
_cell_length_c 7.847430
_cell_angle_alpha 90.000000
_cell_angle_beta 131.132483
_cell_angle_gamma 90.000000
_cell_volume 1308.682105
_symmetry_space_group_name_H-M "P 21/C"
_symmetry_group_IT_number 14
_symmetry_cell_setting 'monoclinic'
loop_
_space_group_symop_operation_xyz
x,y,z
-x,1/2+y,1/2-z
-x,-y,-z
x,1/2-y,1/2+z
loop_
_atom_site_type_symbol
_atom_site_label
_atom_site_fract_x
_atom_site_fract_y
_atom_site_fract_z
Si Si1 0.684287 0.055135 0.769647
Si Si2 0.254325 0.832410 0.303698
Si Si3 0.817967 0.056092 0.234705
Si Si4 0.249806 0.490536 0.999516
Si Si5 0.751872 0.168851 0.300779
Si Si6 0.909736 0.752518 0.028793
Si Si7 0.584765 0.748195 0.544355
O O1 0.734806 0.115175 0.791774
O O2 0.806724 0.025273 0.706324
O O3 0.438059 0.046109 0.577762
O O4 0.750736 0.034701 0.002413
O O5 0.261791 0.842811 0.509649
O O6 0.450398 0.797287 0.392274
O O7 0.042744 0.804103 0.091797
O O8 0.695563 0.026722 0.299197
O O9 0.769686 0.116158 0.211287
O O10 0.064161 0.046524 0.425843
O O11 0.544426 0.196287 0.081164
O O12 0.957152 0.202032 0.412298
O O13 0.658201 0.752596 0.794516
O O14 0.836278 0.751860 0.173952
#
# Coordination Sequence:
#
# PCOD8128317 Si02
#       7
#     4   4   4   4   4   4   4
#     4  11  24  43  68  95 129 171 215 271 326 389
#     4  11  24  41  62  96 129 167 218 267 321 389
#     4  11  24  43  68  95 129 171 215 271 326 389
#     4  10  24  46  66  94 132 168 220 270 324 386
#     4  11  24  41  62  96 129 167 218 267 321 389
#     4  11  24  41  62  89 130 173 212 262 319 385
#     4  11  24  41  62  89 130 173 212 262 319 385
#
# _framework density 21.395572000000001
#
# number of rings (size 3 to 8) (size 9 to 14) (size 15 to 20)
#    0.000    1.143    4.286    0.857    6.000    0.000 
#    0.000    1.429    0.000    0.000    0.000    0.000 
#    0.000    0.000    0.000    0.000    0.000    0.000 
#
# Total GULP energy -347053.232814 kJ/mol
# GULP energy per Si atom -12394.758315 kJ/mol
# Density = 2.134687 g / cm^3
# Si number density = 21.395572 Si / 1000 Ang^3
#
#
#
# Elastic Constant Matrix: (Units=GPa)
#
#
# Indices 1 2 3 4 5 6 
#
# 1 112.3043 51.2100 23.9944 0.0000 5.7476 0.0000
# 2 51.2100 112.5262 31.1462 0.0000 1.4358 0.0000
# 3 23.9944 31.1462 106.6079 0.0000 -3.9285 0.0000
# 4 0.0000 0.0000 0.0000 20.8706 0.0000 0.6453
# 5 5.7476 1.4358 -3.9285 0.0000 40.3904 0.0000
# 6 0.0000 0.0000 0.0000 0.6453 0.0000 24.8420
#
#
#
# Elastic Compliance Matrix: (Units=1/GPa)
#
#
# Indices 1 2 3 4 5 6 
#
# 1 0.011461 -0.004858 -0.001218 0.000000 -0.001577 0.000000
# 2 -0.004858 0.011744 -0.002336 0.000000 0.000047 0.000000
# 3 -0.001218 -0.002336 0.010383 0.000000 0.001266 0.000000
# 4 0.000000 0.000000 0.000000 0.047953 0.000000 -0.001246
# 5 -0.001577 0.000047 0.001266 0.000000 0.025104 0.000000
# 6 0.000000 0.000000 0.000000 -0.001246 0.000000 0.040287
#
#
# Mechanical properties :
#
#
# Convention : Reuss Voigt Hill
#
# Bulk Modulus (GPa) = 59.65462 60.45997 60.05729
# Shear Modulus (GPa) = 29.52564 32.22645 30.87604
#
# Velocity S-wave (km/s) = 3.71885 3.88522 3.80294
# Velocity P-wave (km/s) = 6.81044 6.96032 6.88579
#
# Compressibility (1/GPa) = 0.01676316
#
# Stress axis : x y z
#
# Youngs Moduli (GPa) = 87.25434 85.15137 96.30730
#
# Poissons Ratio (x) = 0.41370 0.11732
# Poissons Ratio (y) = 0.42392 0.22496
# Poissons Ratio (z) = 0.10629 0.19890
#
# Static dielectric constant tensor:
#      x y z
#    x 4.078200 0.000000 -0.260330 
#    y 0.000000 3.597240 0.000000 
#    z -0.260330 0.000000 3.844590 
# 
# 
# High freq. dielectric constant tensor:
#      x y z
#    x 1.869290 0.000000 -0.016760 
#    y 0.000000 1.825120 0.000000 
#    z -0.016760 0.000000 1.847920 
# 
# From -- ./inp_files/11112.got.cif
#   From: 2010.03.12/outbox.cif.g09.slc.cpg/sg14_6_cif.got.tgz:11112.got - 2010.03.31 13:35:05.
