data_PCOD8128554
_publ_section_title
;
Structure prediction by ZEFSAII (Michael W. Deem and Ramdas Pophale) SiO2 
 PCOD8128554
Probable space group: P 21/C
;
_chemical_formula_sum "Si O2"
_cell_formula_units_Z 20
_cell_length_a 8.212965
_cell_length_b 4.907165
_cell_length_c 25.481528
_cell_angle_alpha 90.000000
_cell_angle_beta 115.422891
_cell_angle_gamma 90.000000
_cell_volume 927.518641
_symmetry_space_group_name_H-M "P 21/C"
_symmetry_group_IT_number 14
_symmetry_cell_setting 'monoclinic'
loop_
_space_group_symop_operation_xyz
x,y,z
-x,1/2+y,1/2-z
-x,-y,-z
x,1/2-y,1/2+z
loop_
_atom_site_type_symbol
_atom_site_label
_atom_site_fract_x
_atom_site_fract_y
_atom_site_fract_z
Si Si1 0.152289 0.127438 0.950356
Si Si2 0.395170 0.173303 0.393200
Si Si3 0.636645 0.830271 0.916981
Si Si4 0.066246 0.118875 0.612407
Si Si5 0.040057 0.499426 0.788831
O O1 0.319122 0.225590 0.938213
O O2 0.985874 0.339039 0.924473
O O3 0.213910 0.097151 0.018776
O O4 0.090950 0.835676 0.920525
O O5 0.525233 0.401073 0.386259
O O6 0.236540 0.115222 0.330193
O O7 0.503692 0.899405 0.420273
O O8 0.739549 0.723611 0.879542
O O9 0.077544 0.066601 0.676063
O O10 0.066634 0.771595 0.758630
#
# Coordination Sequence:
#
# PCOD8128554 Si02
#       5
#     4   4   4   4   4
#     4  11  21  39  61  91 130 169 191 224 296 380
#     4  11  23  38  62  92 120 159 203 243 297 359
#     4  12  22  38  61  97 131 152 189 254 299 350
#     4  11  23  39  63  92 121 162 205 239 294 364
#     4  11  23  44  66  82 111 162 212 254 298 357
#
# _framework density 21.562906000000002
#
# number of rings (size 3 to 8) (size 9 to 14) (size 15 to 20)
#    0.000    0.800    0.000   10.800    0.000    0.000 
#    0.000    4.000    0.000    2.400    0.000    0.000 
#    0.000    0.000    0.000    0.000    0.000    0.000 
#
# Total GULP energy -248176.482024 kJ/mol
# GULP energy per Si atom -12408.824101 kJ/mol
# Density = 2.151383 g / cm^3
# Si number density = 21.562906 Si / 1000 Ang^3
#
#
#
# Elastic Constant Matrix: (Units=GPa)
#
#
# Indices 1 2 3 4 5 6 
#
# 1 72.0296 -1.0885 31.8005 0.0000 -6.8725 0.0000
# 2 -1.0885 88.8966 24.1363 0.0000 -10.2593 0.0000
# 3 31.8005 24.1363 87.5130 0.0000 -23.8395 0.0000
# 4 0.0000 0.0000 0.0000 49.5913 0.0000 11.1215
# 5 -6.8725 -10.2593 -23.8395 0.0000 21.0490 0.0000
# 6 0.0000 0.0000 0.0000 11.1215 0.0000 44.0262
#
#
#
# Elastic Compliance Matrix: (Units=1/GPa)
#
#
# Indices 1 2 3 4 5 6 
#
# 1 0.016902 0.001955 -0.007113 0.000000 -0.001584 0.000000
# 2 0.001955 0.012525 -0.003367 0.000000 0.002930 0.000000
# 3 -0.007113 -0.003367 0.020045 0.000000 0.018739 0.000000
# 4 0.000000 0.000000 0.000000 0.021376 0.000000 -0.005400
# 5 -0.001584 0.002930 0.018739 0.000000 0.069642 0.000000
# 6 0.000000 0.000000 0.000000 -0.005400 0.000000 0.024078
#
#
# Mechanical properties :
#
#
# Convention : Reuss Voigt Hill
#
# Bulk Modulus (GPa) = 30.84186 39.79287 35.31737
# Shear Modulus (GPa) = 25.98434 35.83937 30.91185
#
# Velocity S-wave (km/s) = 3.47515 4.08129 3.79035
# Velocity P-wave (km/s) = 5.51692 6.37994 5.96406
#
# Compressibility (1/GPa) = 0.03242347
#
# Stress axis : x y z
#
# Youngs Moduli (GPa) = 59.16553 79.83885 49.88853
#
# Poissons Ratio (x) = -0.15611 0.35483
# Poissons Ratio (y) = -0.11568 0.16796
# Poissons Ratio (z) = 0.42082 0.26880
#
# Static dielectric constant tensor:
#      x y z
#    x 3.823630 0.000000 0.011690 
#    y 0.000000 4.228100 0.000000 
#    z 0.011690 0.000000 3.701880 
# 
# 
# High freq. dielectric constant tensor:
#      x y z
#    x 1.845130 0.000000 -0.001940 
#    y 0.000000 1.874400 0.000000 
#    z -0.001940 0.000000 1.829950 
# 
# From -- ./inp_files/75969.got.cif
#   From: 2010.03.12/outbox.cif.g09.slc.cpg/sg14_38_cif.got.tgz:75969.got - 2010.03.31 13:35:05.
