data_PCOD8128331
_publ_section_title
;
Structure prediction by ZEFSAII (Michael W. Deem and Ramdas Pophale) SiO2 
 PCOD8128331
Probable space group: P 21/C
;
_chemical_formula_sum "Si O2"
_cell_formula_units_Z 20
_cell_length_a 8.441495
_cell_length_b 9.322556
_cell_length_c 11.256745
_cell_angle_alpha 90.000000
_cell_angle_beta 92.768792
_cell_angle_gamma 90.000000
_cell_volume 884.830132
_symmetry_space_group_name_H-M "P 21/C"
_symmetry_group_IT_number 14
_symmetry_cell_setting 'monoclinic'
loop_
_space_group_symop_operation_xyz
x,y,z
-x,1/2+y,1/2-z
-x,-y,-z
x,1/2-y,1/2+z
loop_
_atom_site_type_symbol
_atom_site_label
_atom_site_fract_x
_atom_site_fract_y
_atom_site_fract_z
Si Si1 0.750966 0.482601 0.508989
Si Si2 0.446550 0.965225 0.629121
Si Si3 0.034540 0.347993 0.654167
Si Si4 0.517586 0.647890 0.652273
Si Si5 0.078482 0.483126 0.129906
O O1 0.816891 0.582506 0.407282
O O2 0.684633 0.584897 0.611136
O O3 0.615405 0.382413 0.450807
O O4 0.878972 0.374883 0.568960
O O5 0.526186 0.816857 0.671905
O O6 0.500000 0.000000 0.500000
O O7 0.520878 0.082008 0.720705
O O8 0.257473 0.960918 0.631278
O O9 0.068119 0.180574 0.673058
O O10 0.018720 0.417606 0.782989
O O11 0.000000 0.500000 0.000000
#
# Coordination Sequence:
#
# PCOD8128331 Si02
#       5
#     4   4   4   4   4
#     4  10  24  46  74 100 144 190 238 298 360 418
#     4  12  29  46  73 107 146 190 244 292 363 428
#     4  11  26  46  73 103 145 187 242 296 358 429
#     4  11  26  46  73 103 145 187 242 296 358 429
#     4  12  29  46  73 107 146 190 244 292 363 428
#
# _framework density 22.603209
#
# number of rings (size 3 to 8) (size 9 to 14) (size 15 to 20)
#    0.000    0.800    2.000    2.400   19.600    0.000 
#    0.000    0.000    0.000    0.000    0.000    0.000 
#    0.000    0.000    0.000    0.000    0.000    0.000 
#
# Total GULP energy -248171.685489 kJ/mol
# GULP energy per Si atom -12408.584274 kJ/mol
# Density = 2.255176 g / cm^3
# Si number density = 22.603209 Si / 1000 Ang^3
#
#
#
# Elastic Constant Matrix: (Units=GPa)
#
#
# Indices 1 2 3 4 5 6 
#
# 1 56.1042 2.7798 5.6012 0.0000 -22.0112 0.0000
# 2 2.7798 128.8903 45.8997 0.0000 -25.3029 0.0000
# 3 5.6012 45.8997 156.9350 0.0000 -28.0531 0.0000
# 4 0.0000 0.0000 0.0000 44.6611 0.0000 0.7727
# 5 -22.0112 -25.3029 -28.0531 0.0000 40.7786 0.0000
# 6 0.0000 0.0000 0.0000 0.7727 0.0000 30.6299
#
#
#
# Elastic Compliance Matrix: (Units=1/GPa)
#
#
# Indices 1 2 3 4 5 6 
#
# 1 0.023352 0.001938 0.001218 0.000000 0.014645 0.000000
# 2 0.001938 0.009481 -0.001828 0.000000 0.005671 0.000000
# 3 0.001218 -0.001828 0.007728 0.000000 0.004839 0.000000
# 4 0.000000 0.000000 0.000000 0.022401 0.000000 -0.000565
# 5 0.014645 0.005671 0.004839 0.000000 0.039276 0.000000
# 6 0.000000 0.000000 0.000000 -0.000565 0.000000 0.032662
#
#
# Mechanical properties :
#
#
# Convention : Reuss Voigt Hill
#
# Bulk Modulus (GPa) = 23.13993 50.05455 36.59724
# Shear Modulus (GPa) = 34.09452 42.39050 38.24251
#
# Velocity S-wave (km/s) = 3.88802 4.33531 4.11774
# Velocity P-wave (km/s) = 5.51500 6.87407 6.23170
#
# Compressibility (1/GPa) = 0.04321534
#
# Stress axis : x y z
#
# Youngs Moduli (GPa) = 42.82307 105.47202 129.39201
#
# Poissons Ratio (x) = -0.20437 -0.15755
# Poissons Ratio (y) = -0.08298 0.23659
# Poissons Ratio (z) = -0.05214 0.19285
#
# Static dielectric constant tensor:
#      x y z
#    x 4.139140 0.000000 -0.245310 
#    y 0.000000 4.103930 0.000000 
#    z -0.245310 0.000000 4.107830 
# 
# 
# High freq. dielectric constant tensor:
#      x y z
#    x 1.898670 0.000000 -0.000680 
#    y 0.000000 1.895990 0.000000 
#    z -0.000680 0.000000 1.912490 
# 
# From -- ./inp_files/23007.got.cif
#   From: 2010.03.12/outbox.cif.g09.slc.cpg/sg14_12_cif.got.tgz:23007.got - 2010.03.31 13:35:05.
