data_PCOD8128648
_publ_section_title
;
Structure prediction by ZEFSAII (Michael W. Deem and Ramdas Pophale) SiO2 
 PCOD8128648
Probable space group: P 21/C
;
_chemical_formula_sum "Si O2"
_cell_formula_units_Z 32
_cell_length_a 13.314462
_cell_length_b 19.914025
_cell_length_c 8.725614
_cell_angle_alpha 90.000000
_cell_angle_beta 49.053673
_cell_angle_gamma 90.000000
_cell_volume 1747.478542
_symmetry_space_group_name_H-M "P 21/C"
_symmetry_group_IT_number 14
_symmetry_cell_setting 'monoclinic'
loop_
_space_group_symop_operation_xyz
x,y,z
-x,1/2+y,1/2-z
-x,-y,-z
x,1/2-y,1/2+z
loop_
_atom_site_type_symbol
_atom_site_label
_atom_site_fract_x
_atom_site_fract_y
_atom_site_fract_z
Si Si1 0.396146 0.089085 0.422957
Si Si2 0.160990 0.177823 0.019862
Si Si3 0.839006 0.677824 0.841844
Si Si4 0.683200 0.442643 0.998428
Si Si5 0.042161 0.925091 0.637292
Si Si6 0.957843 0.425091 0.221613
Si Si7 0.396142 0.410917 0.284757
Si Si8 0.683204 0.057359 0.135176
O O1 0.303598 0.149655 0.454579
O O2 0.388835 0.084096 0.611166
O O3 0.550290 0.099338 0.221333
O O4 0.337963 0.018610 0.420051
O O5 0.133138 0.250000 0.116863
O O6 0.045956 0.127415 0.183134
O O7 0.161246 0.184276 0.838755
O O8 0.303590 0.149652 0.938237
O O9 0.954033 0.627412 0.775057
O O10 0.805961 0.411077 0.966802
O O11 0.710210 0.439445 0.789794
O O12 0.550284 0.400664 0.178100
O O13 0.023275 0.913144 0.476724
O O14 1.000000 0.999999 0.728800
O O15 0.805968 0.411075 0.421282
O O16 0.337957 0.481393 0.404026
#
# Coordination Sequence:
#
# PCOD8128648 Si02
#       8
#     4   4   4   4   4   4   4   4
#     4   8  16  31  55  82 107 138 182 228 274 331
#     4  11  22  38  58  81 111 149 187 228 282 339
#     4  11  22  38  58  81 111 149 187 228 282 339
#     4   9  16  32  57  83 107 139 184 229 275 328
#     4  11  22  35  53  83 117 148 187 234 279 328
#     4  11  22  35  53  83 117 148 187 234 279 328
#     4   8  16  31  55  82 107 138 182 228 274 331
#     4   9  16  32  57  83 107 139 184 229 275 328
#
# _framework density 18.312099
#
# number of rings (size 3 to 8) (size 9 to 14) (size 15 to 20)
#    0.000    2.250    2.500    3.000    0.000    1.000 
#    0.000    6.250    0.000    3.000    0.000    0.000 
#    0.000    0.000    0.000    0.000    0.000    0.000 
#
# Total GULP energy -396711.882114 kJ/mol
# GULP energy per Si atom -12397.246316 kJ/mol
# Density = 1.827042 g / cm^3
# Si number density = 18.312099 Si / 1000 Ang^3
#
#
#
# Elastic Constant Matrix: (Units=GPa)
#
#
# Indices 1 2 3 4 5 6 
#
# 1 89.0898 45.5279 48.4436 0.0000 -29.0503 0.0000
# 2 45.5279 103.0458 39.0246 0.0000 -13.4678 0.0000
# 3 48.4436 39.0246 65.3884 0.0000 -20.0706 0.0000
# 4 0.0000 0.0000 0.0000 15.9449 0.0000 1.1734
# 5 -29.0503 -13.4678 -20.0706 0.0000 31.9230 0.0000
# 6 0.0000 0.0000 0.0000 1.1734 0.0000 15.3796
#
#
#
# Elastic Compliance Matrix: (Units=1/GPa)
#
#
# Indices 1 2 3 4 5 6 
#
# 1 0.023662 -0.004692 -0.010816 0.000000 0.012753 0.000000
# 2 -0.004692 0.013482 -0.005124 0.000000 -0.001803 0.000000
# 3 -0.010816 -0.005124 0.028103 0.000000 0.005665 0.000000
# 4 0.000000 0.000000 0.000000 0.063070 0.000000 -0.004812
# 5 0.012753 -0.001803 0.005665 0.000000 0.045732 0.000000
# 6 0.000000 0.000000 0.000000 -0.004812 0.000000 0.065388
#
#
# Mechanical properties :
#
#
# Convention : Reuss Voigt Hill
#
# Bulk Modulus (GPa) = 41.69322 58.16847 49.93085
# Shear Modulus (GPa) = 17.31938 20.95138 19.13538
#
# Velocity S-wave (km/s) = 3.07870 3.38617 3.23609
# Velocity P-wave (km/s) = 5.95445 6.86456 6.42564
#
# Compressibility (1/GPa) = 0.02398471
#
# Stress axis : x y z
#
# Youngs Moduli (GPa) = 42.26224 74.17254 35.58356
#
# Poissons Ratio (x) = 0.34798 0.38486
# Poissons Ratio (y) = 0.19827 0.18233
# Poissons Ratio (z) = 0.45709 0.38006
#
# Static dielectric constant tensor:
#      x y z
#    x 3.493550 0.000000 -0.297970 
#    y 0.000000 3.478860 0.000000 
#    z -0.297970 0.000000 3.349820 
# 
# 
# High freq. dielectric constant tensor:
#      x y z
#    x 1.714060 0.000000 -0.018210 
#    y 0.000000 1.682430 0.000000 
#    z -0.018210 0.000000 1.705280 
# 
# From -- ./inp_files/13888.got.cif
#   From: 2010.03.12/outbox.cif.g09.slc.cpg/sg14_7_cif.got.tgz:13888.got - 2010.03.31 13:35:05.
