data_PCOD8128073
_publ_section_title
;
Structure prediction by ZEFSAII (Michael W. Deem and Ramdas Pophale) SiO2 
 PCOD8128073
Probable space group: P 21/C
;
_chemical_formula_sum "Si O2"
_cell_formula_units_Z 20
_cell_length_a 12.311857
_cell_length_b 9.239664
_cell_length_c 13.308392
_cell_angle_alpha 90.000000
_cell_angle_beta 32.924118
_cell_angle_gamma 90.000000
_cell_volume 822.862198
_symmetry_space_group_name_H-M "P 21/C"
_symmetry_group_IT_number 14
_symmetry_cell_setting 'monoclinic'
loop_
_space_group_symop_operation_xyz
x,y,z
-x,1/2+y,1/2-z
-x,-y,-z
x,1/2-y,1/2+z
loop_
_atom_site_type_symbol
_atom_site_label
_atom_site_fract_x
_atom_site_fract_y
_atom_site_fract_z
Si Si1 0.267382 0.104913 0.107956
Si Si2 0.937199 0.036151 0.208034
Si Si3 0.675688 0.997373 0.726136
Si Si4 0.166584 0.679640 0.405860
Si Si5 0.597368 0.595881 0.074433
O O1 0.069459 0.086850 0.197692
O O2 0.206210 0.077248 0.272715
O O3 0.441585 0.995241 0.938427
O O4 0.359715 0.260682 0.020473
O O5 0.709144 0.029553 0.425210
O O6 0.014188 0.877357 0.109966
O O7 0.941845 0.156483 0.117144
O O8 0.767387 0.155335 0.630200
O O9 0.689869 0.899603 0.615318
O O10 0.359305 0.571770 0.262203
#
# Coordination Sequence:
#
# PCOD8128073 Si02
#       5
#     4   4   4   4   4
#     4  10  24  44  67 104 131 176 230 276 327 413
#     4  11  24  43  68 101 137 174 225 274 333 404
#     4  10  23  46  72  93 139 180 219 278 343 391
#     4  10  24  45  68 101 137 176 220 281 333 399
#     4  11  24  44  70  98 134 178 221 280 340 391
#
# _framework density 24.305406000000001
#
# number of rings (size 3 to 8) (size 9 to 14) (size 15 to 20)
#    0.000    1.600    2.000    0.600    5.600    4.000 
#   10.800    0.000    0.000    0.000    0.000    0.000 
#    0.000    0.000    0.000    0.000    0.000    0.000 
#
# Total GULP energy -247983.889050 kJ/mol
# GULP energy per Si atom -12399.194452 kJ/mol
# Density = 2.425009 g / cm^3
# Si number density = 24.305406 Si / 1000 Ang^3
#
#
#
# Elastic Constant Matrix: (Units=GPa)
#
#
# Indices 1 2 3 4 5 6 
#
# 1 123.2894 7.3075 17.4993 0.0000 2.5513 0.0000
# 2 7.3075 40.3325 -2.1165 0.0000 1.9391 0.0000
# 3 17.4993 -2.1165 87.9961 0.0000 3.2791 0.0000
# 4 0.0000 0.0000 0.0000 20.8415 0.0000 2.8979
# 5 2.5513 1.9391 3.2791 0.0000 36.9875 0.0000
# 6 0.0000 0.0000 0.0000 2.8979 0.0000 34.7437
#
#
#
# Elastic Compliance Matrix: (Units=1/GPa)
#
#
# Indices 1 2 3 4 5 6 
#
# 1 0.008456 -0.001605 -0.001707 0.000000 -0.000348 0.000000
# 2 -0.001605 0.025198 0.000974 0.000000 -0.001297 0.000000
# 3 -0.001707 0.000974 0.011763 0.000000 -0.000976 0.000000
# 4 0.000000 0.000000 0.000000 0.048544 0.000000 -0.004049
# 5 -0.000348 -0.001297 -0.000976 0.000000 0.027215 0.000000
# 6 0.000000 0.000000 0.000000 -0.004049 0.000000 0.029120
#
#
# Mechanical properties :
#
#
# Convention : Reuss Voigt Hill
#
# Bulk Modulus (GPa) = 24.54580 32.99983 28.77282
# Shear Modulus (GPa) = 29.66429 33.77640 31.72035
#
# Velocity S-wave (km/s) = 3.49733 3.73187 3.61650
# Velocity P-wave (km/s) = 5.14094 5.67237 5.41318
#
# Compressibility (1/GPa) = 0.04074016
#
# Stress axis : x y z
#
# Youngs Moduli (GPa) = 118.26452 39.68554 85.00930
#
# Poissons Ratio (x) = 0.06369 0.14512
# Poissons Ratio (y) = 0.18980 -0.08276
# Poissons Ratio (z) = 0.20190 -0.03864
#
# Static dielectric constant tensor:
#      x y z
#    x 4.480450 0.000000 -0.164480 
#    y 0.000000 3.947100 0.000000 
#    z -0.164480 0.000000 4.871750 
# 
# 
# High freq. dielectric constant tensor:
#      x y z
#    x 1.975840 0.000000 0.000470 
#    y 0.000000 1.933010 0.000000 
#    z 0.000470 0.000000 1.983640 
# 
# From -- ./inp_files/28423.got.cif
#   From: 2010.03.12/outbox.cif.g09.slc.cpg/sg14_15_cif.got.tgz:28423.got - 2010.03.31 13:35:05.
