data_PCOD8128039
_publ_section_title
;
Structure prediction by ZEFSAII (Michael W. Deem and Ramdas Pophale) SiO2 
 PCOD8128039
Probable space group: P 21/C
;
_chemical_formula_sum "Si O2"
_cell_formula_units_Z 20
_cell_length_a 11.223690
_cell_length_b 8.182858
_cell_length_c 9.581538
_cell_angle_alpha 90.000000
_cell_angle_beta 80.628931
_cell_angle_gamma 90.000000
_cell_volume 868.242434
_symmetry_space_group_name_H-M "P 21/C"
_symmetry_group_IT_number 14
_symmetry_cell_setting 'monoclinic'
loop_
_space_group_symop_operation_xyz
x,y,z
-x,1/2+y,1/2-z
-x,-y,-z
x,1/2-y,1/2+z
loop_
_atom_site_type_symbol
_atom_site_label
_atom_site_fract_x
_atom_site_fract_y
_atom_site_fract_z
Si Si1 0.027318 0.169939 0.921053
Si Si2 0.781287 0.128950 0.858954
Si Si3 0.361967 0.814698 0.838602
Si Si4 0.423987 0.401673 0.127265
Si Si5 0.822972 0.747647 0.862517
O O1 0.125444 0.150147 0.779936
O O2 0.900671 0.233459 0.880741
O O3 0.086205 0.288717 0.025887
O O4 0.000000 0.000000 0.000000
O O5 0.732677 0.197874 0.722354
O O6 0.815236 0.940323 0.830944
O O7 0.680420 0.153115 0.996136
O O8 0.494016 0.735185 0.816738
O O9 0.373132 0.985527 0.758994
O O10 0.309543 0.318923 0.073499
O O11 0.500000 0.500000 0.000000
#
# Coordination Sequence:
#
# PCOD8128039 Si02
#       5
#     4   4   4   4   4
#     4  10  23  45  70 103 139 181 235 290 356 422
#     4  11  25  46  71 105 140 190 235 302 354 429
#     4  12  26  46  71 101 149 181 251 288 363 422
#     4  12  27  44  70 106 141 192 237 299 356 424
#     4  11  25  44  74 100 144 186 240 290 363 418
#
# _framework density 23.035041
#
# number of rings (size 3 to 8) (size 9 to 14) (size 15 to 20)
#    0.000    0.800    2.000    4.800    8.400    3.200 
#    0.000    6.000    0.000    0.000    0.000    0.000 
#    0.000    0.000    0.000    0.000    0.000    0.000 
#
# Total GULP energy -248068.424333 kJ/mol
# GULP energy per Si atom -12403.421217 kJ/mol
# Density = 2.298261 g / cm^3
# Si number density = 23.035041 Si / 1000 Ang^3
#
#
#
# Elastic Constant Matrix: (Units=GPa)
#
#
# Indices 1 2 3 4 5 6 
#
# 1 170.0006 47.6752 35.4012 0.0000 11.7057 0.0000
# 2 47.6752 63.7811 15.7439 0.0000 0.5927 0.0000
# 3 35.4012 15.7439 105.5188 0.0000 -3.6510 0.0000
# 4 0.0000 0.0000 0.0000 29.6375 0.0000 -2.2381
# 5 11.7057 0.5927 -3.6510 0.0000 35.7716 0.0000
# 6 0.0000 0.0000 0.0000 -2.2381 0.0000 41.0809
#
#
#
# Elastic Compliance Matrix: (Units=1/GPa)
#
#
# Indices 1 2 3 4 5 6 
#
# 1 0.008017 -0.005482 -0.001966 0.000000 -0.002733 0.000000
# 2 -0.005482 0.020036 -0.001104 0.000000 0.001349 0.000000
# 3 -0.001966 -0.001104 0.010361 0.000000 0.001719 0.000000
# 4 0.000000 0.000000 0.000000 0.033880 0.000000 0.001846
# 5 -0.002733 0.001349 0.001719 0.000000 0.029003 0.000000
# 6 0.000000 0.000000 0.000000 0.001846 0.000000 0.024443
#
#
# Mechanical properties :
#
#
# Convention : Reuss Voigt Hill
#
# Bulk Modulus (GPa) = 46.92564 59.66011 53.29288
# Shear Modulus (GPa) = 33.34484 37.33002 35.33743
#
# Velocity S-wave (km/s) = 3.80882 4.03000 3.92097
# Velocity P-wave (km/s) = 6.30543 6.90004 6.60943
#
# Compressibility (1/GPa) = 0.02131031
#
# Stress axis : x y z
#
# Youngs Moduli (GPa) = 124.72795 49.90953 96.51698
#
# Poissons Ratio (x) = 0.27361 0.18980
# Poissons Ratio (y) = 0.68377 0.10652
# Poissons Ratio (z) = 0.24527 0.05508
#
# Static dielectric constant tensor:
#      x y z
#    x 4.925820 0.000000 0.334040 
#    y 0.000000 4.174890 0.000000 
#    z 0.334040 0.000000 4.183030 
# 
# 
# High freq. dielectric constant tensor:
#      x y z
#    x 1.935870 0.000000 0.004460 
#    y 0.000000 1.894870 0.000000 
#    z 0.004460 0.000000 1.916100 
# 
# From -- ./inp_files/11755.got.cif
#   From: 2010.03.12/outbox.cif.g09.slc.cpg/sg14_6_cif.got.tgz:11755.got - 2010.03.31 13:35:05.
