data_PCOD8128335
_publ_section_title
;
Structure prediction by ZEFSAII (Michael W. Deem and Ramdas Pophale) SiO2 
 PCOD8128335
Probable space group: P 21/C
;
_chemical_formula_sum "Si O2"
_cell_formula_units_Z 28
_cell_length_a 7.808759
_cell_length_b 27.434208
_cell_length_c 7.900027
_cell_angle_alpha 90.000000
_cell_angle_beta 130.152434
_cell_angle_gamma 90.000000
_cell_volume 1293.554839
_symmetry_space_group_name_H-M "P 21/C"
_symmetry_group_IT_number 14
_symmetry_cell_setting 'monoclinic'
loop_
_space_group_symop_operation_xyz
x,y,z
-x,1/2+y,1/2-z
-x,-y,-z
x,1/2-y,1/2+z
loop_
_atom_site_type_symbol
_atom_site_label
_atom_site_fract_x
_atom_site_fract_y
_atom_site_fract_z
Si Si1 0.628692 0.049422 0.556827
Si Si2 0.917990 0.506542 0.756235
Si Si3 0.858913 0.411629 0.500967
Si Si4 0.689023 0.586601 0.424292
Si Si5 0.186561 0.694374 0.400741
Si Si6 0.354867 0.306265 0.482638
Si Si7 0.915240 0.755195 0.458723
O O1 0.529733 0.077426 0.332525
O O2 0.885153 0.034649 0.709723
O O3 0.500000 0.000000 0.500000
O O4 0.644581 0.082428 0.736726
O O5 0.864115 0.454657 0.641467
O O6 0.710496 0.543326 0.580007
O O7 0.000000 0.500000 0.000000
O O8 0.809900 0.363176 0.573194
O O9 0.098712 0.408166 0.563016
O O10 0.642829 0.635935 0.494320
O O11 0.415473 0.711543 0.457360
O O12 0.131494 0.722152 0.542461
O O13 0.979069 0.708731 0.150351
O O14 0.149230 0.291753 0.231906
O O15 0.298252 0.278767 0.623667
#
# Coordination Sequence:
#
# PCOD8128335 Si02
#       7
#     4   4   4   4   4   4   4
#     4  11  21  42  64  85 128 181 213 253 315 390
#     4  11  25  39  63  95 136 167 214 271 318 377
#     4  11  23  42  64  95 130 173 216 266 322 383
#     4  11  23  43  63  93 131 174 218 259 325 388
#     4  11  24  43  69  98 127 171 217 272 328 394
#     4  11  24  43  68  99 124 174 217 265 334 393
#     4  10  24  47  67  91 137 164 215 280 329 382
#
# _framework density 21.645778
#
# number of rings (size 3 to 8) (size 9 to 14) (size 15 to 20)
#    0.000    1.143    4.286    1.714    4.000    4.000 
#    2.571    0.000    0.000    0.000    0.000    0.000 
#    0.000    0.000    0.000    0.000    0.000    0.000 
#
# Total GULP energy -347042.165232 kJ/mol
# GULP energy per Si atom -12394.363044 kJ/mol
# Density = 2.159651 g / cm^3
# Si number density = 21.645778 Si / 1000 Ang^3
#
#
#
# Elastic Constant Matrix: (Units=GPa)
#
#
# Indices 1 2 3 4 5 6 
#
# 1 90.6250 42.7616 17.6018 0.0000 -3.0151 0.0000
# 2 42.7616 154.3934 71.9827 0.0000 -10.8679 0.0000
# 3 17.6018 71.9827 133.5025 0.0000 -16.1174 0.0000
# 4 0.0000 0.0000 0.0000 36.3377 0.0000 -10.1975
# 5 -3.0151 -10.8679 -16.1174 0.0000 31.6556 0.0000
# 6 0.0000 0.0000 0.0000 -10.1975 0.0000 19.7371
#
#
#
# Elastic Compliance Matrix: (Units=1/GPa)
#
#
# Indices 1 2 3 4 5 6 
#
# 1 0.012703 -0.003654 0.000309 0.000000 0.000113 0.000000
# 2 -0.003654 0.009715 -0.004684 0.000000 0.000603 0.000000
# 3 0.000309 -0.004684 0.010425 0.000000 0.003729 0.000000
# 4 0.000000 0.000000 0.000000 0.032186 0.000000 0.016630
# 5 0.000113 0.000603 0.003729 0.000000 0.033706 0.000000
# 6 0.000000 0.000000 0.000000 0.016630 0.000000 0.059258
#
#
# Mechanical properties :
#
#
# Convention : Reuss Voigt Hill
#
# Bulk Modulus (GPa) = 59.57594 71.46812 65.52203
# Shear Modulus (GPa) = 27.83241 33.95774 30.89508
#
# Velocity S-wave (km/s) = 3.58971 3.96510 3.78206
# Velocity P-wave (km/s) = 6.69061 7.35197 7.02907
#
# Compressibility (1/GPa) = 0.01678530
#
# Stress axis : x y z
#
# Youngs Moduli (GPa) = 78.72459 102.93133 95.91970
#
# Poissons Ratio (x) = 0.37615 -0.02966
# Poissons Ratio (y) = 0.28769 0.44926
# Poissons Ratio (z) = -0.02434 0.48210
#
# Static dielectric constant tensor:
#      x y z
#    x 4.025970 0.000000 -0.035490 
#    y 0.000000 3.922680 0.000000 
#    z -0.035490 0.000000 4.306980 
# 
# 
# High freq. dielectric constant tensor:
#      x y z
#    x 1.848970 0.000000 -0.005990 
#    y 0.000000 1.855790 0.000000 
#    z -0.005990 0.000000 1.853610 
# 
# From -- ./inp_files/11122.got.cif
#   From: 2010.03.12/outbox.cif.g09.slc.cpg/sg14_6_cif.got.tgz:11122.got - 2010.03.31 13:35:05.
