data_PCOD8128516
_publ_section_title
;
Structure prediction by ZEFSAII (Michael W. Deem and Ramdas Pophale) SiO2 
 PCOD8128516
Probable space group: P 21/C
;
_chemical_formula_sum "Si O2"
_cell_formula_units_Z 32
_cell_length_a 10.234581
_cell_length_b 15.275622
_cell_length_c 17.239549
_cell_angle_alpha 90.000000
_cell_angle_beta 29.969294
_cell_angle_gamma 90.000000
_cell_volume 1346.360914
_symmetry_space_group_name_H-M "P 21/C"
_symmetry_group_IT_number 14
_symmetry_cell_setting 'monoclinic'
loop_
_space_group_symop_operation_xyz
x,y,z
-x,1/2+y,1/2-z
-x,-y,-z
x,1/2-y,1/2+z
loop_
_atom_site_type_symbol
_atom_site_label
_atom_site_fract_x
_atom_site_fract_y
_atom_site_fract_z
Si Si1 0.945780 0.101090 0.341471
Si Si2 0.949441 0.807972 0.010167
Si Si3 0.289764 0.562339 0.397363
Si Si4 0.406469 0.704108 0.710839
Si Si5 0.349685 0.302820 0.717785
Si Si6 0.292665 0.773463 0.093599
Si Si7 0.232567 0.529889 0.596500
Si Si8 0.739017 0.452691 0.106465
O O1 0.219647 0.111959 0.245728
O O2 0.984708 0.020106 0.262490
O O3 0.896474 0.189357 0.315931
O O4 0.739837 0.080553 0.516572
O O5 0.005839 0.910533 0.005037
O O6 0.711262 0.790553 0.074893
O O7 0.877154 0.752957 0.124323
O O8 0.221687 0.783694 0.829978
O O9 0.424251 0.658565 0.343482
O O10 0.249662 0.505476 0.496351
O O11 0.481410 0.512361 0.240489
O O12 0.404691 0.703302 0.619702
O O13 0.282350 0.622458 0.818698
O O14 0.474449 0.245501 0.584638
O O15 0.167404 0.866229 0.131952
O O16 0.500000 0.500000 0.500000
O O17 0.000000 0.500000 0.000000
#
# Coordination Sequence:
#
# PCOD8128516 Si02
#       8
#     4   4   4   4   4   4   4   4
#     4  12  23  42  76 111 157 199 256 318 392 463
#     4  12  25  48  71 112 146 200 255 322 390 456
#     4  11  23  42  74 107 146 194 260 315 376 467
#     4  12  27  44  74 107 150 196 260 318 381 464
#     4  11  20  43  72 108 147 197 247 311 381 469
#     4  11  26  42  70 117 150 203 258 321 394 466
#     4  11  21  43  76 108 149 201 260 313 387 478
#     4  12  23  44  76 114 151 200 255 320 391 473
#
# _framework density 23.767772000000001
#
# number of rings (size 3 to 8) (size 9 to 14) (size 15 to 20)
#    0.000    0.500    6.250    3.750    1.750    0.500 
#    0.000    0.000    0.000    4.500    3.250    0.000 
#    0.000    0.000    0.000    0.000    0.000    0.000 
#
# Total GULP energy -396502.286007 kJ/mol
# GULP energy per Si atom -12390.696438 kJ/mol
# Density = 2.371368 g / cm^3
# Si number density = 23.767772 Si / 1000 Ang^3
#
#
#
# Elastic Constant Matrix: (Units=GPa)
#
#
# Indices 1 2 3 4 5 6 
#
# 1 90.6124 28.1813 52.5264 0.0000 1.5154 0.0000
# 2 28.1813 103.2096 40.9024 0.0000 8.4822 0.0000
# 3 52.5264 40.9024 107.0130 0.0000 11.3342 0.0000
# 4 0.0000 0.0000 0.0000 40.9978 0.0000 11.0979
# 5 1.5154 8.4822 11.3342 0.0000 26.8647 0.0000
# 6 0.0000 0.0000 0.0000 11.0979 0.0000 14.1790
#
#
#
# Elastic Compliance Matrix: (Units=1/GPa)
#
#
# Indices 1 2 3 4 5 6 
#
# 1 0.015796 -0.001592 -0.007436 0.000000 0.002749 0.000000
# 2 -0.001592 0.011667 -0.003452 0.000000 -0.002138 0.000000
# 3 -0.007436 -0.003452 0.014816 0.000000 -0.004742 0.000000
# 4 0.000000 0.000000 0.000000 0.030949 0.000000 -0.024224
# 5 0.002749 -0.002138 -0.004742 0.000000 0.039744 0.000000
# 6 0.000000 0.000000 0.000000 -0.024224 0.000000 0.089486
#
#
# Mechanical properties :
#
#
# Convention : Reuss Voigt Hill
#
# Bulk Modulus (GPa) = 57.73678 60.45055 59.09367
# Shear Modulus (GPa) = 21.44175 28.35665 24.89920
#
# Velocity S-wave (km/s) = 3.00682 3.45783 3.24018
# Velocity P-wave (km/s) = 6.03319 6.43671 6.23821
#
# Compressibility (1/GPa) = 0.01731998
#
# Stress axis : x y z
#
# Youngs Moduli (GPa) = 63.30898 85.70964 67.49514
#
# Poissons Ratio (x) = 0.13645 0.50188
# Poissons Ratio (y) = 0.10079 0.23297
# Poissons Ratio (z) = 0.47075 0.29583
#
# Static dielectric constant tensor:
#      x y z
#    x 4.066620 0.000000 0.108570 
#    y 0.000000 4.330960 0.000000 
#    z 0.108570 0.000000 4.491400 
# 
# 
# High freq. dielectric constant tensor:
#      x y z
#    x 1.933600 0.000000 0.011040 
#    y 0.000000 1.942630 0.000000 
#    z 0.011040 0.000000 1.951460 
# 
# From -- ./inp_files/57973.got.cif
#   From: 2010.03.12/outbox.cif.g09.slc.cpg/sg14_29_cif.got.tgz:57973.got - 2010.03.31 13:35:05.
