data_PCOD8128673
_publ_section_title
;
Structure prediction by ZEFSAII (Michael W. Deem and Ramdas Pophale) SiO2 
 PCOD8128673
Probable space group: P 21/C
;
_chemical_formula_sum "Si O2"
_cell_formula_units_Z 32
_cell_length_a 9.267555
_cell_length_b 8.552162
_cell_length_c 19.823756
_cell_angle_alpha 90.000000
_cell_angle_beta 102.811796
_cell_angle_gamma 90.000000
_cell_volume 1532.067319
_symmetry_space_group_name_H-M "P 21/C"
_symmetry_group_IT_number 14
_symmetry_cell_setting 'monoclinic'
loop_
_space_group_symop_operation_xyz
x,y,z
-x,1/2+y,1/2-z
-x,-y,-z
x,1/2-y,1/2+z
loop_
_atom_site_type_symbol
_atom_site_label
_atom_site_fract_x
_atom_site_fract_y
_atom_site_fract_z
Si Si1 0.417313 0.173652 0.378448
Si Si2 0.231563 0.164820 0.104666
Si Si3 0.051193 0.662397 0.975327
Si Si4 0.319825 0.809829 0.756237
Si Si5 0.635693 0.826170 0.258292
Si Si6 0.287744 0.842193 0.390688
Si Si7 0.748640 0.204418 0.886821
Si Si8 0.461792 0.325195 0.514556
O O1 0.321328 0.242363 0.307359
O O2 0.588744 0.219652 0.385623
O O3 0.368305 0.247988 0.444302
O O4 0.383788 0.990496 0.377219
O O5 0.248177 0.265975 0.174354
O O6 0.369198 0.203948 0.071693
O O7 0.079897 0.216493 0.054161
O O8 0.243879 0.981515 0.119298
O O9 0.136044 0.621901 0.914341
O O10 0.143659 0.745336 0.043140
O O11 0.000000 0.500000 0.000000
O O12 0.470066 0.711718 0.764128
O O13 0.250538 0.765586 0.821698
O O14 0.207017 0.766595 0.683455
O O15 0.355361 0.991315 0.754914
O O16 0.380532 0.753567 0.457408
O O17 0.500000 0.500000 0.500000
#
# Coordination Sequence:
#
# PCOD8128673 Si02
#       8
#     4   4   4   4   4   4   4   4
#     4  11  22  38  67  99 134 164 226 281 335 389
#     4  12  24  43  68  97 136 177 219 273 345 410
#     4  12  27  45  66  96 138 185 223 270 348 416
#     4  11  22  39  67  97 135 167 226 281 336 396
#     4  11  22  39  66 102 132 175 215 281 347 396
#     4  12  24  42  66 100 134 174 226 282 333 398
#     4  11  23  42  66  98 132 176 222 278 342 394
#     4  12  22  39  66 102 128 166 224 282 329 387
#
# _framework density 20.886807999999998
#
# number of rings (size 3 to 8) (size 9 to 14) (size 15 to 20)
#    0.000    0.500    3.750    6.750    1.750    0.000 
#    0.000    7.500    0.000    0.000    0.000    0.000 
#    0.000    0.000    0.000    0.000    0.000    0.000 
#
# Total GULP energy -396740.677649 kJ/mol
# GULP energy per Si atom -12398.146177 kJ/mol
# Density = 2.083927 g / cm^3
# Si number density = 20.886808 Si / 1000 Ang^3
#
#
#
# Elastic Constant Matrix: (Units=GPa)
#
#
# Indices 1 2 3 4 5 6 
#
# 1 69.5416 49.3788 35.5669 0.0000 0.6582 0.0000
# 2 49.3788 148.0641 61.3670 0.0000 -11.5346 0.0000
# 3 35.5669 61.3670 174.5524 0.0000 -3.2538 0.0000
# 4 0.0000 0.0000 0.0000 45.7162 0.0000 0.8005
# 5 0.6582 -11.5346 -3.2538 0.0000 31.7608 0.0000
# 6 0.0000 0.0000 0.0000 0.8005 0.0000 25.2704
#
#
#
# Elastic Compliance Matrix: (Units=1/GPa)
#
#
# Indices 1 2 3 4 5 6 
#
# 1 0.019634 -0.005951 -0.001960 0.000000 -0.002769 0.000000
# 2 -0.005951 0.009928 -0.002213 0.000000 0.003502 0.000000
# 3 -0.001960 -0.002213 0.006905 0.000000 -0.000056 0.000000
# 4 0.000000 0.000000 0.000000 0.021886 0.000000 -0.000693
# 5 -0.002769 0.003502 -0.000056 0.000000 0.032809 0.000000
# 6 0.000000 0.000000 0.000000 -0.000693 0.000000 0.039594
#
#
# Mechanical properties :
#
#
# Convention : Reuss Voigt Hill
#
# Bulk Modulus (GPa) = 61.65208 76.08707 68.86958
# Shear Modulus (GPa) = 31.96691 36.93918 34.45305
#
# Velocity S-wave (km/s) = 3.91638 4.20997 4.06582
# Velocity P-wave (km/s) = 7.07333 7.75494 7.42197
#
# Compressibility (1/GPa) = 0.01622005
#
# Stress axis : x y z
#
# Youngs Moduli (GPa) = 50.93115 100.72058 144.81935
#
# Poissons Ratio (x) = 0.59942 0.28385
# Poissons Ratio (y) = 0.30311 0.32043
# Poissons Ratio (z) = 0.09983 0.22285
#
# Static dielectric constant tensor:
#      x y z
#    x 3.716560 0.000000 -0.161170 
#    y 0.000000 3.752910 0.000000 
#    z -0.161170 0.000000 4.349760 
# 
# 
# High freq. dielectric constant tensor:
#      x y z
#    x 1.778590 0.000000 -0.005110 
#    y 0.000000 1.835960 0.000000 
#    z -0.005110 0.000000 1.852560 
# 
# From -- ./inp_files/64869.got.cif
#   From: 2010.03.12/outbox.cif.g09.slc.cpg/sg14_33_cif.got.tgz:64869.got - 2010.03.31 13:35:05.
