data_PCOD8128982
_publ_section_title
;
Structure prediction by ZEFSAII (Michael W. Deem and Ramdas Pophale) SiO2 
 PCOD8128982
Probable space group: P 21/C
;
_chemical_formula_sum "Si O2"
_cell_formula_units_Z 28
_cell_length_a 9.186229
_cell_length_b 14.252349
_cell_length_c 21.096287
_cell_angle_alpha 90.000000
_cell_angle_beta 151.236550
_cell_angle_gamma 90.000000
_cell_volume 1329.077953
_symmetry_space_group_name_H-M "P 21/C"
_symmetry_group_IT_number 14
_symmetry_cell_setting 'monoclinic'
loop_
_space_group_symop_operation_xyz
x,y,z
-x,1/2+y,1/2-z
-x,-y,-z
x,1/2-y,1/2+z
loop_
_atom_site_type_symbol
_atom_site_label
_atom_site_fract_x
_atom_site_fract_y
_atom_site_fract_z
Si Si1 0.678988 0.076867 0.529912
Si Si2 0.363131 0.403085 0.323189
Si Si3 0.285877 0.864401 0.171496
Si Si4 0.870882 0.321835 0.828475
Si Si5 0.643752 0.733225 0.566029
Si Si6 0.264231 0.040597 0.559910
Si Si7 0.608229 0.591806 0.440131
O O1 0.590157 0.181573 0.515440
O O2 0.035181 0.063086 0.675867
O O3 0.500000 0.000000 0.500000
O O4 0.603975 0.048929 0.428493
O O5 0.568886 0.379191 0.341412
O O6 0.331230 0.313779 0.356038
O O7 0.521736 0.485283 0.424880
O O8 0.271658 0.753057 0.177507
O O9 0.474976 0.914513 0.298649
O O10 0.951144 0.906522 0.047150
O O11 0.595573 0.384110 0.698849
O O12 0.025446 0.269862 0.827547
O O13 0.134161 0.380402 0.963117
O O14 0.533494 0.660309 0.470114
O O15 0.000000 0.000000 0.500000
#
# Coordination Sequence:
#
# PCOD8128982 Si02
#       7
#     4   4   4   4   4   4   4
#     4  12  25  44  72  96 140 178 234 281 343 411
#     4  12  25  45  66 104 136 176 234 281 338 410
#     4  11  25  41  70 101 136 179 231 278 343 407
#     4  11  23  46  70  97 140 181 227 279 345 408
#     4  11  25  42  67 103 135 178 226 285 343 404
#     4  12  24  46  71  99 135 186 229 283 344 408
#     4  11  23  46  69  95 139 183 223 282 347 402
#
# _framework density 21.067236000000001
#
# number of rings (size 3 to 8) (size 9 to 14) (size 15 to 20)
#    0.000    0.571    4.286    3.429    6.000    1.143 
#    5.143    0.000    0.000    0.000    0.000    0.000 
#    0.000    0.000    0.000    0.000    0.000    0.000 
#
# Total GULP energy -347231.863998 kJ/mol
# GULP energy per Si atom -12401.138000 kJ/mol
# Density = 2.101929 g / cm^3
# Si number density = 21.067236 Si / 1000 Ang^3
#
#
#
# Elastic Constant Matrix: (Units=GPa)
#
#
# Indices 1 2 3 4 5 6 
#
# 1 143.4245 72.8354 48.1235 0.0000 -0.0869 0.0000
# 2 72.8354 120.1947 45.6234 0.0000 3.9496 0.0000
# 3 48.1235 45.6234 117.4953 0.0000 2.4850 0.0000
# 4 0.0000 0.0000 0.0000 33.2745 0.0000 1.4722
# 5 -0.0869 3.9496 2.4850 0.0000 30.4774 0.0000
# 6 0.0000 0.0000 0.0000 1.4722 0.0000 40.1656
#
#
#
# Elastic Compliance Matrix: (Units=1/GPa)
#
#
# Indices 1 2 3 4 5 6 
#
# 1 0.010541 -0.005597 -0.002164 0.000000 0.000932 0.000000
# 2 -0.005597 0.012758 -0.002631 0.000000 -0.001455 0.000000
# 3 -0.002164 -0.002631 0.010430 0.000000 -0.000516 0.000000
# 4 0.000000 0.000000 0.000000 0.030102 0.000000 -0.001103
# 5 0.000932 -0.001455 -0.000516 0.000000 0.033044 0.000000
# 6 0.000000 0.000000 0.000000 -0.001103 0.000000 0.024937
#
#
# Mechanical properties :
#
#
# Convention : Reuss Voigt Hill
#
# Bulk Modulus (GPa) = 77.24612 79.36432 78.30522
# Shear Modulus (GPa) = 34.03427 35.08566 34.55996
#
# Velocity S-wave (km/s) = 4.02370 4.08538 4.05465
# Velocity P-wave (km/s) = 7.63760 7.74645 7.69222
#
# Compressibility (1/GPa) = 0.01294563
#
# Stress axis : x y z
#
# Youngs Moduli (GPa) = 94.86521 78.38290 95.88057
#
# Poissons Ratio (x) = 0.43871 0.20747
# Poissons Ratio (y) = 0.53097 0.25223
# Poissons Ratio (z) = 0.20527 0.20620
#
# Static dielectric constant tensor:
#      x y z
#    x 3.930550 0.000000 0.088230 
#    y 0.000000 4.211150 0.000000 
#    z 0.088230 0.000000 3.827220 
# 
# 
# High freq. dielectric constant tensor:
#      x y z
#    x 1.835740 0.000000 0.005730 
#    y 0.000000 1.841330 0.000000 
#    z 0.005730 0.000000 1.825370 
# 
# From -- ./inp_files/65869.got.cif
#   From: 2010.03.12/outbox.cif.g09.slc.cpg/sg14_33_cif.got.tgz:65869.got - 2010.03.31 13:35:05.
