data_PCOD8128627
_publ_section_title
;
Structure prediction by ZEFSAII (Michael W. Deem and Ramdas Pophale) SiO2 
 PCOD8128627
Probable space group: P 21/C
;
_chemical_formula_sum "Si O2"
_cell_formula_units_Z 32
_cell_length_a 21.625195
_cell_length_b 14.240359
_cell_length_c 15.049507
_cell_angle_alpha 90.000000
_cell_angle_beta 160.545923
_cell_angle_gamma 90.000000
_cell_volume 1543.527138
_symmetry_space_group_name_H-M "P 21/C"
_symmetry_group_IT_number 14
_symmetry_cell_setting 'monoclinic'
loop_
_space_group_symop_operation_xyz
x,y,z
-x,1/2+y,1/2-z
-x,-y,-z
x,1/2-y,1/2+z
loop_
_atom_site_type_symbol
_atom_site_label
_atom_site_fract_x
_atom_site_fract_y
_atom_site_fract_z
Si Si1 0.943706 0.773534 0.813321
Si Si2 0.667570 0.239236 0.079773
Si Si3 0.411831 0.593552 0.670569
Si Si4 0.295873 0.226497 0.165594
Si Si5 0.394270 0.593719 0.135377
Si Si6 0.343298 0.260563 0.431273
Si Si7 0.692015 0.986140 0.808258
Si Si8 0.959641 0.986270 0.843387
O O1 0.890410 0.749993 0.640313
O O2 0.821665 0.718655 0.722190
O O3 0.887732 0.881394 0.741321
O O4 0.158992 0.747780 0.118754
O O5 0.700847 0.152829 0.056314
O O6 0.479466 0.218434 0.880027
O O7 0.645379 0.338742 0.001366
O O8 0.498555 0.499870 0.747249
O O9 0.278676 0.559411 0.570574
O O10 0.566558 0.661064 0.922345
O O11 0.260883 0.252020 0.220842
O O12 0.320199 0.118691 0.173877
O O13 0.510004 0.653043 0.365303
O O14 0.195003 0.559443 0.903100
O O15 0.500000 0.000000 0.500000
O O16 0.856271 0.999676 0.962549
O O17 0.000000 0.000000 0.000000
#
# Coordination Sequence:
#
# PCOD8128627 Si02
#       8
#     4   4   4   4   4   4   4   4
#     4  12  24  44  65 101 137 175 221 290 343 407
#     4  11  24  41  71  97 134 180 225 282 345 402
#     4  11  21  44  69  95 136 182 225 281 350 400
#     4  12  24  44  65 101 137 175 221 290 343 407
#     4  11  21  44  69  95 136 182 225 281 350 400
#     4  11  24  41  71  97 134 180 225 282 345 402
#     4  12  23  38  65  99 131 175 231 281 334 408
#     4  12  23  38  65  99 131 175 231 281 334 408
#
# _framework density 20.731738
#
# number of rings (size 3 to 8) (size 9 to 14) (size 15 to 20)
#    0.000    0.500    7.500    2.250    0.000    2.000 
#    0.000    6.250    0.000    0.000    0.000    0.000 
#    0.000    0.000    0.000    0.000    0.000    0.000 
#
# Total GULP energy -396710.359485 kJ/mol
# GULP energy per Si atom -12397.198734 kJ/mol
# Density = 2.068455 g / cm^3
# Si number density = 20.731738 Si / 1000 Ang^3
#
#
#
# Elastic Constant Matrix: (Units=GPa)
#
#
# Indices 1 2 3 4 5 6 
#
# 1 107.7300 34.5224 55.8965 0.0000 -6.7629 0.0000
# 2 34.5224 124.7169 45.5654 0.0000 -16.1543 0.0000
# 3 55.8965 45.5654 125.7608 0.0000 -19.0786 0.0000
# 4 0.0000 0.0000 0.0000 31.5180 0.0000 -2.2851
# 5 -6.7629 -16.1543 -19.0786 0.0000 47.1485 0.0000
# 6 0.0000 0.0000 0.0000 -2.2851 0.0000 29.9541
#
#
#
# Elastic Compliance Matrix: (Units=1/GPa)
#
#
# Indices 1 2 3 4 5 6 
#
# 1 0.012375 -0.001703 -0.005010 0.000000 -0.000836 0.000000
# 2 -0.001703 0.009644 -0.002421 0.000000 0.002080 0.000000
# 3 -0.005010 -0.002421 0.011529 0.000000 0.003117 0.000000
# 4 0.000000 0.000000 0.000000 0.031904 0.000000 0.002434
# 5 -0.000836 0.002080 0.003117 0.000000 0.023064 0.000000
# 6 0.000000 0.000000 0.000000 0.002434 0.000000 0.033570
#
#
# Mechanical properties :
#
#
# Convention : Reuss Voigt Hill
#
# Bulk Modulus (GPa) = 65.45420 70.01959 67.73690
# Shear Modulus (GPa) = 34.37652 36.53902 35.45777
#
# Velocity S-wave (km/s) = 4.07647 4.20273 4.14008
# Velocity P-wave (km/s) = 7.33466 7.57615 7.45638
#
# Compressibility (1/GPa) = 0.01527786
#
# Stress axis : x y z
#
# Youngs Moduli (GPa) = 80.80568 103.69381 86.74104
#
# Poissons Ratio (x) = 0.17663 0.43458
# Poissons Ratio (y) = 0.13765 0.21004
# Poissons Ratio (z) = 0.40484 0.25109
#
# Static dielectric constant tensor:
#      x y z
#    x 3.506140 0.000000 -0.162910 
#    y 0.000000 3.676000 0.000000 
#    z -0.162910 0.000000 3.616500 
# 
# 
# High freq. dielectric constant tensor:
#      x y z
#    x 1.807700 0.000000 0.002720 
#    y 0.000000 1.818390 0.000000 
#    z 0.002720 0.000000 1.805840 
# 
# From -- ./inp_files/50721.got.cif
#   From: 2010.03.12/outbox.cif.g09.slc.cpg/sg14_26_cif.got.tgz:50721.got - 2010.03.31 13:35:05.
