data_PCOD8128366
_publ_section_title
;
Structure prediction by ZEFSAII (Michael W. Deem and Ramdas Pophale) SiO2 
 PCOD8128366
Probable space group: P 21/C
;
_chemical_formula_sum "Si O2"
_cell_formula_units_Z 28
_cell_length_a 30.802385
_cell_length_b 7.468434
_cell_length_c 9.688290
_cell_angle_alpha 90.000000
_cell_angle_beta 33.899669
_cell_angle_gamma 90.000000
_cell_volume 1243.062769
_symmetry_space_group_name_H-M "P 21/C"
_symmetry_group_IT_number 14
_symmetry_cell_setting 'monoclinic'
loop_
_space_group_symop_operation_xyz
x,y,z
-x,1/2+y,1/2-z
-x,-y,-z
x,1/2-y,1/2+z
loop_
_atom_site_type_symbol
_atom_site_label
_atom_site_fract_x
_atom_site_fract_y
_atom_site_fract_z
Si Si1 0.555676 0.331798 0.234614
Si Si2 0.928616 0.626190 0.822528
Si Si3 0.253915 0.634775 0.048997
Si Si4 0.137068 0.088280 0.209991
Si Si5 0.288358 0.942567 0.757453
Si Si6 0.587819 0.455495 0.439753
Si Si7 0.900582 0.171322 0.186980
O O1 0.558401 0.323186 0.393514
O O2 0.468755 0.373777 0.411173
O O3 0.580513 0.141609 0.106649
O O4 0.620018 0.482114 0.012863
O O5 0.909329 0.788897 0.772278
O O6 0.906627 0.432682 0.816851
O O7 0.020992 0.636862 0.607484
O O8 0.882115 0.651957 0.085814
O O9 0.281495 0.821328 0.911055
O O10 0.321604 0.490464 0.826209
O O11 0.252661 0.659511 0.217071
O O12 0.169223 0.579695 0.216484
O O13 0.113217 0.881052 0.250127
O O14 0.230797 0.111495 0.936338
#
# Coordination Sequence:
#
# PCOD8128366 Si02
#       7
#     4   4   4   4   4   4   4
#     4   9  18  36  57  86 118 154 200 245 303 362
#     4  11  27  43  65  98 123 168 218 263 320 380
#     4   9  19  35  63  84 116 162 205 248 307 379
#     4  11  26  43  67  92 132 165 211 269 312 383
#     4   9  20  37  61  88 120 161 204 257 307 375
#     4   9  18  35  57  84 118 152 198 245 300 365
#     4  10  25  43  68  90 127 169 212 263 321 372
#
# _framework density 22.525008
#
# number of rings (size 3 to 8) (size 9 to 14) (size 15 to 20)
#    0.000    2.286    0.000    0.429   14.000    0.571 
#    2.571    1.429    0.000    0.000    0.000    0.000 
#    0.000    0.000    0.000    0.000    0.000    0.000 
#
# Total GULP energy -346965.458629 kJ/mol
# GULP energy per Si atom -12391.623522 kJ/mol
# Density = 2.247374 g / cm^3
# Si number density = 22.525008 Si / 1000 Ang^3
#
#
#
# Elastic Constant Matrix: (Units=GPa)
#
#
# Indices 1 2 3 4 5 6 
#
# 1 94.8295 25.3940 48.8162 0.0000 -6.7512 0.0000
# 2 25.3940 53.0366 21.7492 0.0000 3.6317 0.0000
# 3 48.8162 21.7492 103.4729 0.0000 3.4259 0.0000
# 4 0.0000 0.0000 0.0000 22.9150 0.0000 -4.6125
# 5 -6.7512 3.6317 3.4259 0.0000 51.7521 0.0000
# 6 0.0000 0.0000 0.0000 -4.6125 0.0000 26.2307
#
#
#
# Elastic Compliance Matrix: (Units=1/GPa)
#
#
# Indices 1 2 3 4 5 6 
#
# 1 0.015290 -0.004940 -0.006266 0.000000 0.002756 0.000000
# 2 -0.004940 0.022300 -0.002289 0.000000 -0.002058 0.000000
# 3 -0.006266 -0.002289 0.013152 0.000000 -0.001528 0.000000
# 4 0.000000 0.000000 0.000000 0.045241 0.000000 0.007955
# 5 0.002756 -0.002058 -0.001528 0.000000 0.019928 0.000000
# 6 0.000000 0.000000 0.000000 0.007955 0.000000 0.039522
#
#
# Mechanical properties :
#
#
# Convention : Reuss Voigt Hill
#
# Bulk Modulus (GPa) = 42.10137 49.25089 45.67613
# Shear Modulus (GPa) = 26.26877 30.53820 28.40349
#
# Velocity S-wave (km/s) = 3.41868 3.68604 3.55487
# Velocity P-wave (km/s) = 5.85787 6.32679 6.09684
#
# Compressibility (1/GPa) = 0.02375219
#
# Stress axis : x y z
#
# Youngs Moduli (GPa) = 65.40161 44.84405 76.03202
#
# Poissons Ratio (x) = 0.22153 0.47645
# Poissons Ratio (y) = 0.32308 0.17400
# Poissons Ratio (z) = 0.40984 0.10263
#
# Static dielectric constant tensor:
#      x y z
#    x 4.214800 0.000000 -0.392770 
#    y 0.000000 3.487820 0.000000 
#    z -0.392770 0.000000 4.655180 
# 
# 
# High freq. dielectric constant tensor:
#      x y z
#    x 1.895370 0.000000 -0.009110 
#    y 0.000000 1.828710 0.000000 
#    z -0.009110 0.000000 1.916030 
# 
# From -- ./inp_files/19942.got.cif
#   From: 2010.03.12/outbox.cif.g09.slc.cpg/sg14_10_cif.got.tgz:19942.got - 2010.03.31 13:35:05.
