data_PCOD8128734
_publ_section_title
;
Structure prediction by ZEFSAII (Michael W. Deem and Ramdas Pophale) SiO2 
 PCOD8128734
Probable space group: P 21/C
;
_chemical_formula_sum "Si O2"
_cell_formula_units_Z 16
_cell_length_a 9.379374
_cell_length_b 7.746150
_cell_length_c 12.128599
_cell_angle_alpha 90.000000
_cell_angle_beta 47.310568
_cell_angle_gamma 90.000000
_cell_volume 647.710847
_symmetry_space_group_name_H-M "P 21/C"
_symmetry_group_IT_number 14
_symmetry_cell_setting 'monoclinic'
loop_
_space_group_symop_operation_xyz
x,y,z
-x,1/2+y,1/2-z
-x,-y,-z
x,1/2-y,1/2+z
loop_
_atom_site_type_symbol
_atom_site_label
_atom_site_fract_x
_atom_site_fract_y
_atom_site_fract_z
Si Si1 0.632282 0.159707 0.722022
Si Si2 0.393122 0.423114 0.951938
Si Si3 0.048101 0.025533 0.301548
Si Si4 0.910342 0.385941 0.450798
O O1 0.470394 0.227879 0.893042
O O2 0.530982 0.020109 0.697410
O O3 0.816269 0.082620 0.689079
O O4 0.708978 0.309556 0.599824
O O5 0.500000 0.500000 0.000000
O O6 0.163460 0.437785 0.082249
O O7 0.048161 0.225392 0.339308
O O8 0.124832 0.009941 0.136117
O O9 0.000000 0.500000 0.500000
#
# Coordination Sequence:
#
# PCOD8128734 Si02
#       4
#     4   4   4   4
#     4  11  25  45  68 102 140 183 228 283 344 407
#     4  11  24  44  68  99 136 179 231 286 342 409
#     4  11  25  45  70 102 140 181 231 285 342 410
#     4  11  22  42  72 101 133 179 225 280 344 406
#
# _framework density 24.702380000000002
#
# number of rings (size 3 to 8) (size 9 to 14) (size 15 to 20)
#    0.000    1.000    0.000    9.000    0.000   10.000 
#    0.000    3.750    0.000    0.000    0.000    0.000 
#    0.000    0.000    0.000    0.000    0.000    0.000 
#
# Total GULP energy -198366.344655 kJ/mol
# GULP energy per Si atom -12397.896541 kJ/mol
# Density = 2.464616 g / cm^3
# Si number density = 24.702380 Si / 1000 Ang^3
#
#
#
# Elastic Constant Matrix: (Units=GPa)
#
#
# Indices 1 2 3 4 5 6 
#
# 1 164.4909 55.2054 59.1737 0.0000 25.6487 0.0000
# 2 55.2054 105.2606 54.1315 0.0000 0.6596 0.0000
# 3 59.1737 54.1315 98.7508 0.0000 32.1421 0.0000
# 4 0.0000 0.0000 0.0000 72.1613 0.0000 4.8549
# 5 25.6487 0.6596 32.1421 0.0000 40.3314 0.0000
# 6 0.0000 0.0000 0.0000 4.8549 0.0000 32.3991
#
#
#
# Elastic Compliance Matrix: (Units=1/GPa)
#
#
# Indices 1 2 3 4 5 6 
#
# 1 0.008539 -0.003417 -0.002018 0.000000 -0.003767 0.000000
# 2 -0.003417 0.016529 -0.010305 0.000000 0.010116 0.000000
# 3 -0.002018 -0.010305 0.022295 0.000000 -0.016316 0.000000
# 4 0.000000 0.000000 0.000000 0.013999 0.000000 -0.002098
# 5 -0.003767 0.010116 -0.016316 0.000000 0.040028 0.000000
# 6 0.000000 0.000000 0.000000 -0.002098 0.000000 0.031179
#
#
# Mechanical properties :
#
#
# Convention : Reuss Voigt Hill
#
# Bulk Modulus (GPa) = 62.96078 78.39148 70.67613
# Shear Modulus (GPa) = 29.52561 42.31115 35.91838
#
# Velocity S-wave (km/s) = 3.46099 4.14313 3.81733
# Velocity P-wave (km/s) = 6.44317 7.39531 6.93560
#
# Compressibility (1/GPa) = 0.01588290
#
# Stress axis : x y z
#
# Youngs Moduli (GPa) = 117.10306 60.50093 44.85263
#
# Poissons Ratio (x) = 0.20676 0.09050
# Poissons Ratio (y) = 0.40019 0.46221
# Poissons Ratio (z) = 0.23628 0.62347
#
# Static dielectric constant tensor:
#      x y z
#    x 4.379800 0.000000 0.328700 
#    y 0.000000 4.849460 0.000000 
#    z 0.328700 0.000000 4.973850 
# 
# 
# High freq. dielectric constant tensor:
#      x y z
#    x 1.975790 0.000000 0.012710 
#    y 0.000000 1.992710 0.000000 
#    z 0.012710 0.000000 2.001960 
# 
# From -- ./inp_files/11580.got.cif
#   From: 2010.03.12/outbox.cif.g09.slc.cpg/sg14_6_cif.got.tgz:11580.got - 2010.03.31 13:35:05.
