data_PCOD8128700
_publ_section_title
;
Structure prediction by ZEFSAII (Michael W. Deem and Ramdas Pophale) SiO2 
 PCOD8128700
Probable space group: P 21/C
;
_chemical_formula_sum "Si O2"
_cell_formula_units_Z 28
_cell_length_a 10.581215
_cell_length_b 9.530523
_cell_length_c 13.647217
_cell_angle_alpha 90.000000
_cell_angle_beta 124.275282
_cell_angle_gamma 90.000000
_cell_volume 1137.249734
_symmetry_space_group_name_H-M "P 21/C"
_symmetry_group_IT_number 14
_symmetry_cell_setting 'monoclinic'
loop_
_space_group_symop_operation_xyz
x,y,z
-x,1/2+y,1/2-z
-x,-y,-z
x,1/2-y,1/2+z
loop_
_atom_site_type_symbol
_atom_site_label
_atom_site_fract_x
_atom_site_fract_y
_atom_site_fract_z
Si Si1 0.396162 0.996674 0.266389
Si Si2 0.231723 0.612968 0.513554
Si Si3 0.772310 0.732792 0.745732
Si Si4 0.740541 0.240389 0.675649
Si Si5 0.297273 0.524408 0.182123
Si Si6 0.077073 0.163248 0.876274
Si Si7 0.018611 0.666025 0.994967
O O1 0.276527 0.111213 0.251351
O O2 0.570099 0.058371 0.339055
O O3 0.385060 0.872236 0.341556
O O4 0.361911 0.958582 0.137529
O O5 0.297871 0.701757 0.450160
O O6 0.107843 0.495956 0.425510
O O7 0.158655 0.721349 0.559304
O O8 0.659249 0.626637 0.753206
O O9 0.783871 0.705986 0.635254
O O10 0.943085 0.690729 0.856710
O O11 0.724475 0.372564 0.738196
O O12 0.909400 0.172172 0.753711
O O13 0.122747 0.518741 0.055267
O O14 0.093345 0.280841 0.967712
#
# Coordination Sequence:
#
# PCOD8128700 Si02
#       7
#     4   4   4   4   4   4   4
#     4  12  26  47  72 102 148 198 233 291 374 430
#     4  12  22  44  73 104 138 191 233 294 362 432
#     4  12  24  43  75 103 145 184 238 305 358 427
#     4  11  24  42  72 101 142 184 242 298 344 429
#     4  11  25  46  66 101 149 187 236 294 356 429
#     4  11  22  40  69 110 133 172 246 292 355 418
#     4  11  23  43  72 102 138 186 239 296 360 417
#
# _framework density 24.620801
#
# number of rings (size 3 to 8) (size 9 to 14) (size 15 to 20)
#    0.000    0.571    7.143    2.571    0.000    0.571 
#    2.571    0.714    0.000    0.000    0.000    0.000 
#    0.000    0.000    0.000    0.000    0.000    0.000 
#
# Total GULP energy -347096.754975 kJ/mol
# GULP energy per Si atom -12396.312678 kJ/mol
# Density = 2.456476 g / cm^3
# Si number density = 24.620801 Si / 1000 Ang^3
#
#
#
# Elastic Constant Matrix: (Units=GPa)
#
#
# Indices 1 2 3 4 5 6 
#
# 1 123.9599 36.9634 46.5663 0.0000 -11.7457 0.0000
# 2 36.9634 97.0773 43.7153 0.0000 -14.3294 0.0000
# 3 46.5663 43.7153 62.7551 0.0000 -22.4536 0.0000
# 4 0.0000 0.0000 0.0000 30.2315 0.0000 -7.8425
# 5 -11.7457 -14.3294 -22.4536 0.0000 36.0344 0.0000
# 6 0.0000 0.0000 0.0000 -7.8425 0.0000 39.9429
#
#
#
# Elastic Compliance Matrix: (Units=1/GPa)
#
#
# Indices 1 2 3 4 5 6 
#
# 1 0.011329 -0.000731 -0.008597 0.000000 -0.001955 0.000000
# 2 -0.000731 0.015070 -0.010162 0.000000 -0.000578 0.000000
# 3 -0.008597 -0.010162 0.034676 0.000000 0.014764 0.000000
# 4 0.000000 0.000000 0.000000 0.034853 0.000000 0.006843
# 5 -0.001955 -0.000578 0.014764 0.000000 0.036084 0.000000
# 6 0.000000 0.000000 0.000000 0.006843 0.000000 0.026379
#
#
# Mechanical properties :
#
#
# Convention : Reuss Voigt Hill
#
# Bulk Modulus (GPa) = 45.25942 59.80915 52.53428
# Shear Modulus (GPa) = 24.42155 31.67824 28.04989
#
# Velocity S-wave (km/s) = 3.15287 3.59088 3.37898
# Velocity P-wave (km/s) = 5.62820 6.44495 6.05037
#
# Compressibility (1/GPa) = 0.02209485
#
# Stress axis : x y z
#
# Youngs Moduli (GPa) = 88.26603 66.35540 28.83873
#
# Poissons Ratio (x) = 0.04851 0.24792
# Poissons Ratio (y) = 0.06452 0.29307
# Poissons Ratio (z) = 0.75882 0.67432
#
# Static dielectric constant tensor:
#      x y z
#    x 4.374570 0.000000 -0.066310 
#    y 0.000000 4.798150 0.000000 
#    z -0.066310 0.000000 4.319110 
# 
# 
# High freq. dielectric constant tensor:
#      x y z
#    x 1.980930 0.000000 -0.011190 
#    y 0.000000 2.004680 0.000000 
#    z -0.011190 0.000000 1.965930 
# 
# From -- ./inp_files/43553.got.cif
#   From: 2010.03.12/outbox.cif.g09.slc.cpg/sg14_22_cif.got.tgz:43553.got - 2010.03.31 13:35:05.
