data_PCOD8128538
_publ_section_title
;
Structure prediction by ZEFSAII (Michael W. Deem and Ramdas Pophale) SiO2 
 PCOD8128538
Probable space group: P 21/C
;
_chemical_formula_sum "Si O2"
_cell_formula_units_Z 32
_cell_length_a 13.021207
_cell_length_b 5.274558
_cell_length_c 23.344307
_cell_angle_alpha 90.000000
_cell_angle_beta 71.732336
_cell_angle_gamma 90.000000
_cell_volume 1522.510044
_symmetry_space_group_name_H-M "P 21/C"
_symmetry_group_IT_number 14
_symmetry_cell_setting 'monoclinic'
loop_
_space_group_symop_operation_xyz
x,y,z
-x,1/2+y,1/2-z
-x,-y,-z
x,1/2-y,1/2+z
loop_
_atom_site_type_symbol
_atom_site_label
_atom_site_fract_x
_atom_site_fract_y
_atom_site_fract_z
Si Si1 0.609937 0.158074 0.075636
Si Si2 0.549581 0.930370 0.661639
Si Si3 0.612723 0.463120 0.360977
Si Si4 0.364082 0.207573 0.744235
Si Si5 0.242444 0.001177 0.854484
Si Si6 0.759553 0.415377 0.441602
Si Si7 0.120765 0.430157 0.046567
Si Si8 0.128088 0.493205 0.912110
O O1 0.617462 0.449553 0.096918
O O2 0.656711 0.963851 0.116387
O O3 0.481816 0.113994 0.089186
O O4 0.669776 0.120731 0.005961
O O5 0.445081 0.772118 0.659673
O O6 0.637455 0.836728 0.691884
O O7 0.488901 0.150487 0.708702
O O8 0.678170 0.624360 0.301156
O O9 0.702612 0.387427 0.390510
O O10 0.281136 0.986192 0.779909
O O11 0.198272 0.725016 0.876643
O O12 0.153739 0.223699 0.877815
O O13 0.822135 0.680475 0.437592
O O14 0.841579 0.182762 0.427899
O O15 0.993436 0.416704 0.078747
O O16 0.150345 0.457122 0.975152
#
# Coordination Sequence:
#
# PCOD8128538 Si02
#       8
#     4   4   4   4   4   4   4   4
#     4  11  23  38  60  99 137 175 213 266 324 401
#     4  11  21  38  60  91 135 179 225 275 315 373
#     4  11  26  40  61  94 140 187 217 261 326 392
#     4  11  22  38  62  94 130 176 223 276 315 384
#     4  12  22  38  69 103 129 162 223 275 340 384
#     4  12  26  43  66  97 138 183 217 260 334 423
#     4  11  24  45  67  96 135 166 220 279 339 401
#     4  11  23  42  70 101 125 163 216 290 343 380
#
# _framework density 21.017923
#
# number of rings (size 3 to 8) (size 9 to 14) (size 15 to 20)
#    0.000    0.750    5.000    2.625    7.000    2.500 
#    0.000    0.000    0.000    3.000    0.000    0.000 
#    0.000    0.000    0.000    0.000    0.000    0.000 
#
# Total GULP energy -396549.877130 kJ/mol
# GULP energy per Si atom -12392.183660 kJ/mol
# Density = 2.097009 g / cm^3
# Si number density = 21.017923 Si / 1000 Ang^3
#
#
#
# Elastic Constant Matrix: (Units=GPa)
#
#
# Indices 1 2 3 4 5 6 
#
# 1 84.1808 23.5512 36.8580 0.0000 8.5959 0.0000
# 2 23.5512 84.5625 14.3792 0.0000 -1.6559 0.0000
# 3 36.8580 14.3792 90.1305 0.0000 7.6514 0.0000
# 4 0.0000 0.0000 0.0000 26.7765 0.0000 -4.6803
# 5 8.5959 -1.6559 7.6514 0.0000 27.1895 0.0000
# 6 0.0000 0.0000 0.0000 -4.6803 0.0000 28.5056
#
#
#
# Elastic Compliance Matrix: (Units=1/GPa)
#
#
# Indices 1 2 3 4 5 6 
#
# 1 0.015646 -0.003487 -0.005537 0.000000 -0.003601 0.000000
# 2 -0.003487 0.012979 -0.000825 0.000000 0.002125 0.000000
# 3 -0.005537 -0.000825 0.013673 0.000000 -0.002148 0.000000
# 4 0.000000 0.000000 0.000000 0.038450 0.000000 0.006313
# 5 -0.003601 0.002125 -0.002148 0.000000 0.038651 0.000000
# 6 0.000000 0.000000 0.000000 0.006313 0.000000 0.036117
#
#
# Mechanical properties :
#
#
# Convention : Reuss Voigt Hill
#
# Bulk Modulus (GPa) = 44.24495 45.38340 44.81417
# Shear Modulus (GPa) = 27.36029 28.76670 28.06349
#
# Velocity S-wave (km/s) = 3.61190 3.70357 3.65803
# Velocity P-wave (km/s) = 6.20413 6.31888 6.26177
#
# Compressibility (1/GPa) = 0.02260145
#
# Stress axis : x y z
#
# Youngs Moduli (GPa) = 63.91207 77.05016 73.13645
#
# Poissons Ratio (x) = 0.26865 0.40492
# Poissons Ratio (y) = 0.22284 0.06034
# Poissons Ratio (z) = 0.35385 0.06357
#
# Static dielectric constant tensor:
#      x y z
#    x 3.677030 0.000000 -0.165200 
#    y 0.000000 4.054130 0.000000 
#    z -0.165200 0.000000 3.804900 
# 
# 
# High freq. dielectric constant tensor:
#      x y z
#    x 1.800500 0.000000 -0.017870 
#    y 0.000000 1.842100 0.000000 
#    z -0.017870 0.000000 1.821200 
# 
# From -- ./inp_files/72823.got.cif
#   From: 2010.03.12/outbox.cif.g09.slc.cpg/sg14_37_cif.got.tgz:72823.got - 2010.03.31 13:35:05.
