data_PCOD8128057
_publ_section_title
;
Structure prediction by ZEFSAII (Michael W. Deem and Ramdas Pophale) SiO2 
 PCOD8128057
Probable space group: P 21/C
;
_chemical_formula_sum "Si O2"
_cell_formula_units_Z 20
_cell_length_a 7.459307
_cell_length_b 9.572453
_cell_length_c 12.460509
_cell_angle_alpha 90.000000
_cell_angle_beta 112.718346
_cell_angle_gamma 90.000000
_cell_volume 820.698458
_symmetry_space_group_name_H-M "P 21/C"
_symmetry_group_IT_number 14
_symmetry_cell_setting 'monoclinic'
loop_
_space_group_symop_operation_xyz
x,y,z
-x,1/2+y,1/2-z
-x,-y,-z
x,1/2-y,1/2+z
loop_
_atom_site_type_symbol
_atom_site_label
_atom_site_fract_x
_atom_site_fract_y
_atom_site_fract_z
Si Si1 0.097071 0.264128 0.679717
Si Si2 0.697890 0.351686 0.515079
Si Si3 0.444105 0.106876 0.150350
Si Si4 0.692133 0.084946 0.401449
Si Si5 0.932556 0.540722 0.129421
O O1 0.292697 0.272729 0.652352
O O2 0.035530 0.104719 0.693628
O O3 0.928076 0.336103 0.573071
O O4 0.137749 0.358379 0.793198
O O5 0.661791 0.498857 0.451796
O O6 0.616496 0.330376 0.617417
O O7 0.602439 0.231567 0.419916
O O8 0.543032 0.028804 0.276355
O O9 0.735395 0.984004 0.513339
O O10 0.906447 0.119606 0.403558
#
# Coordination Sequence:
#
# PCOD8128057 Si02
#       5
#     4   4   4   4   4
#     4  11  24  45  72 101 141 183 225 286 348 408
#     4  10  24  46  67 102 141 180 233 286 343 408
#     4  11  24  42  72 102 136 185 231 281 345 418
#     4  10  23  46  67  99 143 175 230 290 331 412
#     4  10  24  47  70 103 140 182 230 286 347 407
#
# _framework density 24.369486999999999
#
# number of rings (size 3 to 8) (size 9 to 14) (size 15 to 20)
#    0.000    1.600    2.000    0.600    5.600    0.800 
#   14.400    0.000    0.000    0.000    0.000    0.000 
#    0.000    0.000    0.000    0.000    0.000    0.000 
#
# Total GULP energy -247878.656195 kJ/mol
# GULP energy per Si atom -12393.932810 kJ/mol
# Density = 2.431402 g / cm^3
# Si number density = 24.369487 Si / 1000 Ang^3
#
#
#
# Elastic Constant Matrix: (Units=GPa)
#
#
# Indices 1 2 3 4 5 6 
#
# 1 68.7869 23.8539 31.6605 0.0000 4.1377 0.0000
# 2 23.8539 76.1661 44.0165 0.0000 -21.0717 0.0000
# 3 31.6605 44.0165 133.9064 0.0000 -0.6364 0.0000
# 4 0.0000 0.0000 0.0000 31.6278 0.0000 -6.2818
# 5 4.1377 -21.0717 -0.6364 0.0000 32.2167 0.0000
# 6 0.0000 0.0000 0.0000 -6.2818 0.0000 24.4877
#
#
#
# Elastic Compliance Matrix: (Units=1/GPa)
#
#
# Indices 1 2 3 4 5 6 
#
# 1 0.018094 -0.006092 -0.002306 0.000000 -0.006354 0.000000
# 2 -0.006092 0.022804 -0.005981 0.000000 0.015579 0.000000
# 3 -0.002306 -0.005981 0.009963 0.000000 -0.003419 0.000000
# 4 0.000000 0.000000 0.000000 0.033315 0.000000 0.008546
# 5 -0.006354 0.015579 -0.003419 0.000000 0.041978 0.000000
# 6 0.000000 0.000000 0.000000 0.008546 0.000000 0.043029
#
#
# Mechanical properties :
#
#
# Convention : Reuss Voigt Hill
#
# Bulk Modulus (GPa) = 45.24432 53.10236 49.17334
# Shear Modulus (GPa) = 24.35356 29.62168 26.98762
#
# Velocity S-wave (km/s) = 3.16467 3.49022 3.33142
# Velocity P-wave (km/s) = 5.65330 6.17090 5.91776
#
# Compressibility (1/GPa) = 0.02210222
#
# Stress axis : x y z
#
# Youngs Moduli (GPa) = 55.26790 43.85212 100.37140
#
# Poissons Ratio (x) = 0.26715 0.23143
# Poissons Ratio (y) = 0.33669 0.60037
# Poissons Ratio (z) = 0.12743 0.26230
#
# Static dielectric constant tensor:
#      x y z
#    x 4.424060 0.000000 -0.123570 
#    y 0.000000 4.149100 0.000000 
#    z -0.123570 0.000000 4.667260 
# 
# 
# High freq. dielectric constant tensor:
#      x y z
#    x 1.968640 0.000000 0.003590 
#    y 0.000000 1.948020 0.000000 
#    z 0.003590 0.000000 1.981930 
# 
# From -- ./inp_files/23518.got.cif
#   From: 2010.03.12/outbox.cif.g09.slc.cpg/sg14_12_cif.got.tgz:23518.got - 2010.03.31 13:35:05.
