data_PCOD8128342
_publ_section_title
;
Structure prediction by ZEFSAII (Michael W. Deem and Ramdas Pophale) SiO2 
 PCOD8128342
Probable space group: P 21/C
;
_chemical_formula_sum "Si O2"
_cell_formula_units_Z 20
_cell_length_a 5.183284
_cell_length_b 7.452451
_cell_length_c 23.162135
_cell_angle_alpha 90.000000
_cell_angle_beta 59.353480
_cell_angle_gamma 90.000000
_cell_volume 769.745222
_symmetry_space_group_name_H-M "P 21/C"
_symmetry_group_IT_number 14
_symmetry_cell_setting 'monoclinic'
loop_
_space_group_symop_operation_xyz
x,y,z
-x,1/2+y,1/2-z
-x,-y,-z
x,1/2-y,1/2+z
loop_
_atom_site_type_symbol
_atom_site_label
_atom_site_fract_x
_atom_site_fract_y
_atom_site_fract_z
Si Si1 0.092946 0.879066 0.166115
Si Si2 0.516677 0.798934 0.896009
Si Si3 0.322533 0.525258 0.196058
Si Si4 0.833638 0.806344 0.470070
Si Si5 0.095575 0.332527 0.911620
O O1 0.136799 0.692414 0.193507
O O2 0.798640 0.974432 0.226788
O O3 0.043146 0.841124 0.103628
O O4 0.379225 0.009098 0.140730
O O5 0.710720 0.642755 0.843525
O O6 0.164803 0.778788 0.924541
O O7 0.595226 0.788912 0.955475
O O8 0.671345 0.579205 0.160290
O O9 0.733695 0.775681 0.548301
O O10 0.839711 0.021310 0.457059
#
# Coordination Sequence:
#
# PCOD8128342 Si02
#       5
#     4   4   4   4   4
#     4  12  25  44  71 103 142 192 244 297 362 432
#     4  11  25  45  74 105 145 182 242 294 360 427
#     4  11  25  45  67 104 144 189 243 299 360 427
#     4  10  24  47  73 108 144 187 233 301 359 433
#     4  10  25  43  75 100 145 189 238 296 365 421
#
# _framework density 25.982624000000001
#
# number of rings (size 3 to 8) (size 9 to 14) (size 15 to 20)
#    0.000    1.200    4.000    0.000    5.600    8.800 
#    0.000    0.000    0.000    0.000    0.000    0.000 
#    0.000    0.000    0.000    0.000    0.000    0.000 
#
# Total GULP energy -248055.236344 kJ/mol
# GULP energy per Si atom -12402.761817 kJ/mol
# Density = 2.592349 g / cm^3
# Si number density = 25.982624 Si / 1000 Ang^3
#
#
#
# Elastic Constant Matrix: (Units=GPa)
#
#
# Indices 1 2 3 4 5 6 
#
# 1 41.4486 11.3615 -1.0723 0.0000 7.7501 0.0000
# 2 11.3615 123.3236 43.0700 0.0000 -0.3127 0.0000
# 3 -1.0723 43.0700 92.0537 0.0000 2.0007 0.0000
# 4 0.0000 0.0000 0.0000 38.8388 0.0000 4.9285
# 5 7.7501 -0.3127 2.0007 0.0000 37.9097 0.0000
# 6 0.0000 0.0000 0.0000 4.9285 0.0000 34.5162
#
#
#
# Elastic Compliance Matrix: (Units=1/GPa)
#
#
# Indices 1 2 3 4 5 6 
#
# 1 0.026031 -0.003059 0.001853 0.000000 -0.005445 0.000000
# 2 -0.003059 0.010056 -0.004761 0.000000 0.000960 0.000000
# 3 0.001853 -0.004761 0.013137 0.000000 -0.001111 0.000000
# 4 0.000000 0.000000 0.000000 0.026223 0.000000 -0.003744
# 5 -0.005445 0.000960 -0.001111 0.000000 0.027558 0.000000
# 6 0.000000 0.000000 0.000000 -0.003744 0.000000 0.029507
#
#
# Mechanical properties :
#
#
# Convention : Reuss Voigt Hill
#
# Bulk Modulus (GPa) = 26.81822 40.39381 33.60601
# Shear Modulus (GPa) = 31.87243 35.81736 33.84489
#
# Velocity S-wave (km/s) = 3.50620 3.71686 3.61307
# Velocity P-wave (km/s) = 5.17062 5.83098 5.51070
#
# Compressibility (1/GPa) = 0.03728808
#
# Stress axis : x y z
#
# Youngs Moduli (GPa) = 38.41608 99.44403 76.12239
#
# Poissons Ratio (x) = 0.30420 -0.14104
# Poissons Ratio (y) = 0.11752 0.36245
# Poissons Ratio (z) = -0.07118 0.47350
#
# Static dielectric constant tensor:
#      x y z
#    x 4.218980 0.000000 -0.057580 
#    y 0.000000 4.774890 0.000000 
#    z -0.057580 0.000000 4.797930 
# 
# 
# High freq. dielectric constant tensor:
#      x y z
#    x 2.021650 0.000000 -0.010120 
#    y 0.000000 2.045970 0.000000 
#    z -0.010120 0.000000 2.040880 
# 
# From -- ./inp_files/63011.got.cif
#   From: 2010.03.12/outbox.cif.g09.slc.cpg/sg14_32_cif.got.tgz:63011.got - 2010.03.31 13:35:05.
