data_PCOD8128066
_publ_section_title
;
Structure prediction by ZEFSAII (Michael W. Deem and Ramdas Pophale) SiO2 
 PCOD8128066
Probable space group: P 21/C
;
_chemical_formula_sum "Si O2"
_cell_formula_units_Z 20
_cell_length_a 14.328080
_cell_length_b 4.793849
_cell_length_c 19.409928
_cell_angle_alpha 90.000000
_cell_angle_beta 29.087481
_cell_angle_gamma 90.000000
_cell_volume 648.129226
_symmetry_space_group_name_H-M "P 21/C"
_symmetry_group_IT_number 14
_symmetry_cell_setting 'monoclinic'
loop_
_space_group_symop_operation_xyz
x,y,z
-x,1/2+y,1/2-z
-x,-y,-z
x,1/2-y,1/2+z
loop_
_atom_site_type_symbol
_atom_site_label
_atom_site_fract_x
_atom_site_fract_y
_atom_site_fract_z
Si Si1 0.986003 0.018414 0.159459
Si Si2 0.640289 0.866213 0.235845
Si Si3 0.697539 0.085571 0.806711
Si Si4 0.714743 0.780362 0.930933
Si Si5 0.752104 0.128821 0.580357
O O1 0.885365 0.225515 0.169072
O O2 0.178245 0.156360 0.066551
O O3 0.831942 0.969075 0.319881
O O4 0.046639 0.726485 0.083486
O O5 0.696291 0.723395 0.272759
O O6 0.412999 0.823340 0.370490
O O7 0.707241 0.186044 0.178684
O O8 0.757586 0.690766 0.101336
O O9 0.701235 0.040975 0.887112
O O10 0.511025 0.281917 0.905623
#
# Coordination Sequence:
#
# PCOD8128066 Si02
#       5
#     4   4   4   4   4
#     4  12  24  44  71 102 139 186 235 295 352 434
#     4  10  23  46  70 105 138 191 231 301 350 421
#     4  11  25  45  70  99 142 180 243 284 360 421
#     4  11  25  45  66 106 136 185 231 296 355 420
#     4  10  24  44  73 101 144 183 240 290 362 411
#
# _framework density 30.858042999999999
#
# number of rings (size 3 to 8) (size 9 to 14) (size 15 to 20)
#    0.000    1.200    4.000    0.600    5.600    1.600 
#    3.600    0.000    0.000    0.000    0.000    0.000 
#    0.000    0.000    0.000    0.000    0.000    0.000 
#
# Total GULP energy -248068.998315 kJ/mol
# GULP energy per Si atom -12403.449916 kJ/mol
# Density = 3.078781 g / cm^3
# Si number density = 30.858043 Si / 1000 Ang^3
#
#
#
# Elastic Constant Matrix: (Units=GPa)
#
#
# Indices 1 2 3 4 5 6 
#
# 1 136.9893 -12.0470 21.0800 0.0000 -27.8668 0.0000
# 2 -12.0470 78.6441 -28.6186 0.0000 -21.3715 0.0000
# 3 21.0800 -28.6186 81.8302 0.0000 -21.1775 0.0000
# 4 0.0000 0.0000 0.0000 26.3934 0.0000 -6.5482
# 5 -27.8668 -21.3715 -21.1775 0.0000 54.2771 0.0000
# 6 0.0000 0.0000 0.0000 -6.5482 0.0000 39.9424
#
#
#
# Elastic Compliance Matrix: (Units=1/GPa)
#
#
# Indices 1 2 3 4 5 6 
#
# 1 0.008690 0.003010 0.000306 0.000000 0.005766 0.000000
# 2 0.003010 0.020398 0.009830 0.000000 0.013412 0.000000
# 3 0.000306 0.009830 0.018489 0.000000 0.011241 0.000000
# 4 0.000000 0.000000 0.000000 0.039495 0.000000 0.006475
# 5 0.005766 0.013412 0.011241 0.000000 0.031052 0.000000
# 6 0.000000 0.000000 0.000000 0.006475 0.000000 0.026098
#
#
# Mechanical properties :
#
#
# Convention : Reuss Voigt Hill
#
# Bulk Modulus (GPa) = 13.53765 28.69918 21.11841
# Shear Modulus (GPa) = 35.07471 45.25919 40.16695
#
# Velocity S-wave (km/s) = 3.37508 3.83389 3.61178
# Velocity P-wave (km/s) = 4.42547 5.37763 4.92462
#
# Compressibility (1/GPa) = 0.07386808
#
# Stress axis : x y z
#
# Youngs Moduli (GPa) = 115.06964 49.02365 54.08761
#
# Poissons Ratio (x) = -0.14754 -0.01656
# Poissons Ratio (y) = -0.34631 -0.53166
# Poissons Ratio (z) = -0.03523 -0.48189
#
# Static dielectric constant tensor:
#      x y z
#    x 5.719570 0.000000 -0.335940 
#    y 0.000000 5.568980 0.000000 
#    z -0.335940 0.000000 5.635130 
# 
# 
# High freq. dielectric constant tensor:
#      x y z
#    x 2.286470 0.000000 -0.005710 
#    y 0.000000 2.265910 0.000000 
#    z -0.005710 0.000000 2.276930 
# 
# From -- ./inp_files/42554.got.cif
#   From: 2010.03.12/outbox.cif.g09.slc.cpg/sg14_22_cif.got.tgz:42554.got - 2010.03.31 13:35:05.
