data_PCOD8128745
_publ_section_title
;
Structure prediction by ZEFSAII (Michael W. Deem and Ramdas Pophale) SiO2 
 PCOD8128745
Probable space group: P 21/C
;
_chemical_formula_sum "Si O2"
_cell_formula_units_Z 32
_cell_length_a 11.821732
_cell_length_b 17.616844
_cell_length_c 15.611290
_cell_angle_alpha 90.000000
_cell_angle_beta 152.103890
_cell_angle_gamma 90.000000
_cell_volume 1521.153474
_symmetry_space_group_name_H-M "P 21/C"
_symmetry_group_IT_number 14
_symmetry_cell_setting 'monoclinic'
loop_
_space_group_symop_operation_xyz
x,y,z
-x,1/2+y,1/2-z
-x,-y,-z
x,1/2-y,1/2+z
loop_
_atom_site_type_symbol
_atom_site_label
_atom_site_fract_x
_atom_site_fract_y
_atom_site_fract_z
Si Si1 0.914038 0.026342 0.035279
Si Si2 0.993168 0.823139 0.809791
Si Si3 0.804527 0.062556 0.633104
Si Si4 0.905207 0.841776 0.304458
Si Si5 0.440356 0.670726 0.904868
Si Si6 0.550219 0.943307 0.350517
Si Si7 0.655483 0.334339 0.614094
Si Si8 0.997095 0.917142 0.538200
O O1 0.620273 0.018464 0.835961
O O2 0.987743 0.113233 0.103891
O O3 0.000000 0.000000 0.000000
O O4 0.013823 0.971579 0.175377
O O5 0.194506 0.839084 0.872982
O O6 0.029266 0.739361 0.872040
O O7 0.728885 0.824941 0.592628
O O8 0.646543 0.129778 0.566875
O O9 0.960805 0.093087 0.659003
O O10 0.618384 0.000237 0.473204
O O11 0.943562 0.855882 0.429985
O O12 0.623720 0.847360 0.093349
O O13 0.379577 0.622221 0.779086
O O14 0.313564 0.752606 0.819148
O O15 0.788264 0.908961 0.468370
O O16 0.751703 0.397612 0.745315
O O17 0.000000 0.000000 0.500000
#
# Coordination Sequence:
#
# PCOD8128745 Si02
#       8
#     4   4   4   4   4   4   4   4
#     4  12  25  39  71 104 130 177 229 278 343 412
#     4  11  23  48  67  99 139 181 228 283 349 405
#     4  12  23  45  68 102 141 175 226 288 342 408
#     4  11  27  44  69 100 139 180 227 285 340 413
#     4  11  22  43  73  97 135 183 224 282 350 397
#     4  12  24  43  69 100 137 177 226 285 344 404
#     4  11  25  46  69  98 136 186 229 279 348 407
#     4  12  26  45  68 100 135 182 230 277 336 416
#
# _framework density 21.036667999999999
#
# number of rings (size 3 to 8) (size 9 to 14) (size 15 to 20)
#    0.000    0.500    6.250    1.875    3.500    0.500 
#    0.000    0.000    0.000    0.000    0.000    0.000 
#    0.000    0.000    0.000    0.000    0.000    0.000 
#
# Total GULP energy -396831.586734 kJ/mol
# GULP energy per Si atom -12400.987085 kJ/mol
# Density = 2.098879 g / cm^3
# Si number density = 21.036668 Si / 1000 Ang^3
#
#
#
# Elastic Constant Matrix: (Units=GPa)
#
#
# Indices 1 2 3 4 5 6 
#
# 1 79.1408 39.9652 13.4412 0.0000 -0.5156 0.0000
# 2 39.9652 109.1073 29.0026 0.0000 -15.9119 0.0000
# 3 13.4412 29.0026 76.0186 0.0000 -9.6872 0.0000
# 4 0.0000 0.0000 0.0000 29.8023 0.0000 -5.5494
# 5 -0.5156 -15.9119 -9.6872 0.0000 30.6585 0.0000
# 6 0.0000 0.0000 0.0000 -5.5494 0.0000 36.5916
#
#
#
# Elastic Compliance Matrix: (Units=1/GPa)
#
#
# Indices 1 2 3 4 5 6 
#
# 1 0.015801 -0.006005 -0.000902 0.000000 -0.003136 0.000000
# 2 -0.006005 0.013038 -0.003192 0.000000 0.005658 0.000000
# 3 -0.000902 -0.003192 0.014920 0.000000 0.003042 0.000000
# 4 0.000000 0.000000 0.000000 0.034530 0.000000 0.005237
# 5 -0.003136 0.005658 0.003042 0.000000 0.036462 0.000000
# 6 0.000000 0.000000 0.000000 0.005237 0.000000 0.028123
#
#
# Mechanical properties :
#
#
# Convention : Reuss Voigt Hill
#
# Bulk Modulus (GPa) = 42.44386 47.67607 45.05997
# Shear Modulus (GPa) = 29.25238 31.53434 30.39336
#
# Velocity S-wave (km/s) = 3.73304 3.87592 3.80515
# Velocity P-wave (km/s) = 6.22903 6.53780 6.38528
#
# Compressibility (1/GPa) = 0.02356053
#
# Stress axis : x y z
#
# Youngs Moduli (GPa) = 63.28639 76.69595 67.02585
#
# Poissons Ratio (x) = 0.46059 0.06048
# Poissons Ratio (y) = 0.38006 0.21392
# Poissons Ratio (z) = 0.05711 0.24479
#
# Static dielectric constant tensor:
#      x y z
#    x 3.892310 0.000000 0.018660 
#    y 0.000000 4.020310 0.000000 
#    z 0.018660 0.000000 3.908430 
# 
# 
# High freq. dielectric constant tensor:
#      x y z
#    x 1.834140 0.000000 0.001420 
#    y 0.000000 1.831610 0.000000 
#    z 0.001420 0.000000 1.827390 
# 
# From -- ./inp_files/45474.got.cif
#   From: 2010.03.12/outbox.cif.g09.slc.cpg/sg14_23_cif.got.tgz:45474.got - 2010.03.31 13:35:05.
