data_PCOD8128888
_publ_section_title
;
Structure prediction by ZEFSAII (Michael W. Deem and Ramdas Pophale) SiO2 
 PCOD8128888
Probable space group: P 21/C
;
_chemical_formula_sum "Si O2"
_cell_formula_units_Z 32
_cell_length_a 11.906236
_cell_length_b 20.198648
_cell_length_c 5.668607
_cell_angle_alpha 90.000000
_cell_angle_beta 96.911722
_cell_angle_gamma 90.000000
_cell_volume 1353.335526
_symmetry_space_group_name_H-M "P 21/C"
_symmetry_group_IT_number 14
_symmetry_cell_setting 'monoclinic'
loop_
_space_group_symop_operation_xyz
x,y,z
-x,1/2+y,1/2-z
-x,-y,-z
x,1/2-y,1/2+z
loop_
_atom_site_type_symbol
_atom_site_label
_atom_site_fract_x
_atom_site_fract_y
_atom_site_fract_z
Si Si1 0.764467 0.120580 0.191144
Si Si2 0.529136 0.112532 0.984626
Si Si3 0.207823 0.997546 0.499831
Si Si4 0.049685 0.788344 0.610186
Si Si5 0.354632 0.288322 0.278024
Si Si6 0.872249 0.633624 0.831285
Si Si7 0.948118 0.066202 0.882702
Si Si8 0.581601 0.517849 0.228281
O O1 0.644764 0.152669 0.076899
O O2 0.829894 0.173861 0.369071
O O3 0.725700 0.054617 0.320414
O O4 0.847973 0.099697 0.002754
O O5 0.449257 0.091084 0.182895
O O6 0.452120 0.155546 0.788857
O O7 0.573935 0.042496 0.904767
O O8 0.172584 0.060367 0.639927
O O9 0.099209 0.957432 0.381336
O O10 0.287845 0.023610 0.312532
O O11 0.041373 0.749456 0.357732
O O12 0.942084 0.838456 0.574807
O O13 0.371339 0.250203 0.533326
O O14 0.229182 0.317873 0.260972
O O15 0.959138 0.624329 0.633100
O O16 0.000000 0.000000 0.000000
O O17 0.500000 0.500000 0.000000
#
# Coordination Sequence:
#
# PCOD8128888 Si02
#       8
#     4   4   4   4   4   4   4   4
#     4  12  25  47  73 115 153 197 259 322 404 467
#     4  11  27  47  75 112 152 204 257 325 390 467
#     4  12  24  42  73 120 150 192 246 324 402 471
#     4  12  28  50  75 106 147 211 266 316 380 459
#     4  12  32  55  80 112 157 218 272 319 381 458
#     4  12  26  49  78 113 157 202 262 323 388 469
#     4  12  24  41  71 114 162 195 240 317 404 474
#     4  11  23  42  76 111 151 190 247 320 398 460
#
# _framework density 23.645281000000001
#
# number of rings (size 3 to 8) (size 9 to 14) (size 15 to 20)
#    0.000    0.250    5.000    3.375    7.000    2.000 
#    0.000    0.000    0.000    0.000    0.000    0.000 
#    0.000    0.000    0.000    0.000    0.000    0.000 
#
# Total GULP energy -396586.618476 kJ/mol
# GULP energy per Si atom -12393.331827 kJ/mol
# Density = 2.359146 g / cm^3
# Si number density = 23.645281 Si / 1000 Ang^3
#
#
#
# Elastic Constant Matrix: (Units=GPa)
#
#
# Indices 1 2 3 4 5 6 
#
# 1 131.8295 16.2536 18.6569 0.0000 8.8906 0.0000
# 2 16.2536 48.3377 20.5049 0.0000 5.8509 0.0000
# 3 18.6569 20.5049 102.2257 0.0000 3.0062 0.0000
# 4 0.0000 0.0000 0.0000 43.4930 0.0000 13.7975
# 5 8.8906 5.8509 3.0062 0.0000 48.7657 0.0000
# 6 0.0000 0.0000 0.0000 13.7975 0.0000 38.2963
#
#
#
# Elastic Compliance Matrix: (Units=1/GPa)
#
#
# Indices 1 2 3 4 5 6 
#
# 1 0.008071 -0.002147 -0.001009 0.000000 -0.001152 0.000000
# 2 -0.002147 0.023476 -0.004254 0.000000 -0.002163 0.000000
# 3 -0.001009 -0.004254 0.010819 0.000000 0.000027 0.000000
# 4 0.000000 0.000000 0.000000 0.025959 0.000000 -0.009353
# 5 -0.001152 -0.002163 0.000027 0.000000 0.020974 0.000000
# 6 0.000000 0.000000 0.000000 -0.009353 0.000000 0.029482
#
#
# Mechanical properties :
#
#
# Convention : Reuss Voigt Hill
#
# Bulk Modulus (GPa) = 36.30034 43.69152 39.99593
# Shear Modulus (GPa) = 35.01896 41.24284 38.13090
#
# Velocity S-wave (km/s) = 3.85257 4.18093 4.02010
# Velocity P-wave (km/s) = 5.93086 6.46722 6.20484
#
# Compressibility (1/GPa) = 0.02754795
#
# Stress axis : x y z
#
# Youngs Moduli (GPa) = 123.90644 42.59718 92.43233
#
# Poissons Ratio (x) = 0.09144 0.09322
# Poissons Ratio (y) = 0.26597 0.39316
# Poissons Ratio (z) = 0.12496 0.18119
#
# Static dielectric constant tensor:
#      x y z
#    x 4.639980 0.000000 -0.009650 
#    y 0.000000 4.676380 0.000000 
#    z -0.009650 0.000000 5.014460 
# 
# 
# High freq. dielectric constant tensor:
#      x y z
#    x 1.954750 0.000000 0.007830 
#    y 0.000000 1.933540 0.000000 
#    z 0.007830 0.000000 1.938890 
# 
# From -- ./inp_files/2963.got.cif
#   From: 2010.03.12/outbox.cif.g09.slc.cpg/sg14_2_cif.got.tgz:2963.got - 2010.03.31 13:35:05.
