data_PCOD8128507
_publ_section_title
;
Structure prediction by ZEFSAII (Michael W. Deem and Ramdas Pophale) SiO2 
 PCOD8128507
Probable space group: P 21/C
;
_chemical_formula_sum "Si O2"
_cell_formula_units_Z 32
_cell_length_a 11.748142
_cell_length_b 17.443507
_cell_length_c 13.959283
_cell_angle_alpha 90.000000
_cell_angle_beta 147.517358
_cell_angle_gamma 90.000000
_cell_volume 1536.300006
_symmetry_space_group_name_H-M "P 21/C"
_symmetry_group_IT_number 14
_symmetry_cell_setting 'monoclinic'
loop_
_space_group_symop_operation_xyz
x,y,z
-x,1/2+y,1/2-z
-x,-y,-z
x,1/2-y,1/2+z
loop_
_atom_site_type_symbol
_atom_site_label
_atom_site_fract_x
_atom_site_fract_y
_atom_site_fract_z
Si Si1 0.259846 0.327043 0.460901
Si Si2 0.121488 0.930357 0.338009
Si Si3 0.990402 0.450923 0.897302
Si Si4 0.661082 0.411168 0.391392
Si Si5 0.849349 0.935571 0.766320
Si Si6 0.556531 0.088762 0.031426
Si Si7 0.570628 0.923732 0.751318
Si Si8 0.684497 0.849115 0.470108
O O1 0.384212 0.354324 0.454542
O O2 0.379478 0.356618 0.639630
O O3 0.244726 0.236469 0.458623
O O4 0.017382 0.355432 0.280832
O O5 0.339871 0.907541 0.543690
O O6 0.985152 0.989984 0.304770
O O7 0.158462 0.973430 0.262791
O O8 0.180854 0.390341 0.019314
O O9 0.777147 0.400654 0.744898
O O10 0.000000 0.500000 0.000000
O O11 0.584335 0.385781 0.441621
O O12 0.575206 0.496754 0.311453
O O13 0.913016 0.403271 0.562855
O O14 0.558061 0.354308 0.239015
O O15 0.750136 0.922755 0.798737
O O16 0.707715 0.894121 0.585831
O O17 0.500000 0.000000 0.000000
#
# Coordination Sequence:
#
# PCOD8128507 Si02
#       8
#     4   4   4   4   4   4   4   4
#     4  12  27  44  63 106 141 172 227 297 350 400
#     4  11  22  40  70  97 131 176 231 282 334 418
#     4  11  20  41  72  99 131 185 237 280 333 422
#     4  12  22  42  73  96 130 182 231 282 333 419
#     4  11  23  44  67  99 130 181 230 278 338 425
#     4  12  20  41  72  99 132 175 236 284 335 417
#     4  12  23  41  72 100 130 178 238 275 345 420
#     4  11  27  45  62 102 144 171 232 292 353 399
#
# _framework density 20.829263999999998
#
# number of rings (size 3 to 8) (size 9 to 14) (size 15 to 20)
#    0.000    0.500    8.750    2.250    0.000    2.000 
#    4.500    0.000    0.000    0.000    0.000    0.000 
#    0.000    0.000    0.000    0.000    0.000    0.000 
#
# Total GULP energy -396895.043791 kJ/mol
# GULP energy per Si atom -12402.970118 kJ/mol
# Density = 2.078186 g / cm^3
# Si number density = 20.829264 Si / 1000 Ang^3
#
#
#
# Elastic Constant Matrix: (Units=GPa)
#
#
# Indices 1 2 3 4 5 6 
#
# 1 119.8484 41.0328 45.5201 0.0000 -1.9393 0.0000
# 2 41.0328 93.9867 20.7652 0.0000 -5.2296 0.0000
# 3 45.5201 20.7652 141.0016 0.0000 -3.6056 0.0000
# 4 0.0000 0.0000 0.0000 27.8311 0.0000 -2.7272
# 5 -1.9393 -5.2296 -3.6056 0.0000 22.5716 0.0000
# 6 0.0000 0.0000 0.0000 -2.7272 0.0000 21.1408
#
#
#
# Elastic Compliance Matrix: (Units=1/GPa)
#
#
# Indices 1 2 3 4 5 6 
#
# 1 0.010852 -0.004122 -0.002909 0.000000 -0.000487 0.000000
# 2 -0.004122 0.012684 -0.000473 0.000000 0.002509 0.000000
# 3 -0.002909 -0.000473 0.008125 0.000000 0.000938 0.000000
# 4 0.000000 0.000000 0.000000 0.036391 0.000000 0.004694
# 5 -0.000487 0.002509 0.000938 0.000000 0.044993 0.000000
# 6 0.000000 0.000000 0.000000 0.004694 0.000000 0.047908
#
#
# Mechanical properties :
#
#
# Convention : Reuss Voigt Hill
#
# Bulk Modulus (GPa) = 60.05104 63.27476 61.66290
# Shear Modulus (GPa) = 27.54657 30.80994 29.17825
#
# Velocity S-wave (km/s) = 3.64056 3.85017 3.74683
# Velocity P-wave (km/s) = 6.82380 7.08582 6.95604
#
# Compressibility (1/GPa) = 0.01665250
#
# Stress axis : x y z
#
# Youngs Moduli (GPa) = 92.14761 78.84190 123.07957
#
# Poissons Ratio (x) = 0.32501 0.35802
# Poissons Ratio (y) = 0.37986 0.05821
# Poissons Ratio (z) = 0.26804 0.03729
#
# Static dielectric constant tensor:
#      x y z
#    x 3.968500 0.000000 0.031400 
#    y 0.000000 3.469090 0.000000 
#    z 0.031400 0.000000 4.228670 
# 
# 
# High freq. dielectric constant tensor:
#      x y z
#    x 1.822140 0.000000 -0.001640 
#    y 0.000000 1.776500 0.000000 
#    z -0.001640 0.000000 1.839630 
# 
# From -- ./inp_files/45384.got.cif
#   From: 2010.03.12/outbox.cif.g09.slc.cpg/sg14_23_cif.got.tgz:45384.got - 2010.03.31 13:35:05.
