data_PCOD8128420
_publ_section_title
;
Structure prediction by ZEFSAII (Michael W. Deem and Ramdas Pophale) SiO2 
 PCOD8128420
Probable space group: P 21/C
;
_chemical_formula_sum "Si O2"
_cell_formula_units_Z 16
_cell_length_a 7.715577
_cell_length_b 5.443378
_cell_length_c 20.397848
_cell_angle_alpha 90.000000
_cell_angle_beta 48.273885
_cell_angle_gamma 90.000000
_cell_volume 639.374047
_symmetry_space_group_name_H-M "P 21/C"
_symmetry_group_IT_number 14
_symmetry_cell_setting 'monoclinic'
loop_
_space_group_symop_operation_xyz
x,y,z
-x,1/2+y,1/2-z
-x,-y,-z
x,1/2-y,1/2+z
loop_
_atom_site_type_symbol
_atom_site_label
_atom_site_fract_x
_atom_site_fract_y
_atom_site_fract_z
Si Si1 0.244762 0.596243 0.089926
Si Si2 0.497057 0.682721 0.152000
Si Si3 0.750062 0.898199 0.980218
Si Si4 0.194160 0.639803 0.845412
O O1 0.294159 0.581171 0.155421
O O2 0.362154 0.361998 0.021085
O O3 0.966860 0.565337 0.150046
O O4 0.320822 0.865414 0.043777
O O5 0.683224 0.469066 0.120975
O O6 0.391968 0.775288 0.246043
O O7 0.639725 0.906062 0.080909
O O8 0.030027 0.866345 0.910149
#
# Coordination Sequence:
#
# PCOD8128420 Si02
#       4
#     4   4   4   4
#     4  10  26  49  73 106 146 192 248 304 364 438
#     4  12  25  48  75 107 151 193 245 307 369 440
#     4  10  25  51  73 107 145 194 246 306 365 436
#     4  10  29  42  74 110 145 192 246 296 376 428
#
# _framework density 25.024473
#
# number of rings (size 3 to 8) (size 9 to 14) (size 15 to 20)
#    1.500    0.000    0.000    2.250    7.000    5.000 
#    0.000    0.000    0.000    0.000    0.000    0.000 
#    0.000    0.000    0.000    0.000    0.000    0.000 
#
# Total GULP energy -198389.063381 kJ/mol
# GULP energy per Si atom -12399.316461 kJ/mol
# Density = 2.496752 g / cm^3
# Si number density = 25.024473 Si / 1000 Ang^3
#
#
#
# Elastic Constant Matrix: (Units=GPa)
#
#
# Indices 1 2 3 4 5 6 
#
# 1 68.6514 -24.1691 -32.0611 0.0000 -60.9674 0.0000
# 2 -24.1691 64.1343 -23.0346 0.0000 -67.7004 0.0000
# 3 -32.0611 -23.0346 89.6213 0.0000 -47.0424 0.0000
# 4 0.0000 0.0000 0.0000 35.3892 0.0000 -8.2039
# 5 -60.9674 -67.7004 -47.0424 0.0000 -11.4421 0.0000
# 6 0.0000 0.0000 0.0000 -8.2039 0.0000 48.8210
#
#
#
# Elastic Compliance Matrix: (Units=1/GPa)
#
#
# Indices 1 2 3 4 5 6 
#
# 1 0.007052 -0.004193 -0.001664 0.000000 -0.005924 0.000000
# 2 -0.004193 0.006759 -0.002859 0.000000 -0.005898 0.000000
# 3 -0.001664 -0.002859 0.007397 0.000000 -0.004631 0.000000
# 4 0.000000 0.000000 0.000000 0.029403 0.000000 0.004941
# 5 -0.005924 -0.005898 -0.004631 0.000000 -0.001897 0.000000
# 6 0.000000 0.000000 0.000000 0.004941 0.000000 0.021313
#
#
# Mechanical properties :
#
#
# Convention : Reuss Voigt Hill
#
# Bulk Modulus (GPa) = 264.79218 7.09747 135.94482
# Shear Modulus (GPa) = 56.35787 34.66508 45.51148
#
# Velocity S-wave (km/s) = 4.75079 3.72593 4.26922
# Velocity P-wave (km/s) = 11.66775 4.62087 8.87380
#
# Compressibility (1/GPa) = 0.00377655
#
# Stress axis : x y z
#
# Youngs Moduli (GPa) = 141.80014 147.94261 135.18546
#
# Poissons Ratio (x) = 0.62035 0.22498
# Poissons Ratio (y) = 0.59460 0.38645
# Poissons Ratio (z) = 0.23599 0.42292
#
# Static dielectric constant tensor:
#      x y z
#    x 4.621680 0.000000 -0.250350 
#    y 0.000000 4.249430 0.000000 
#    z -0.250350 0.000000 4.196010 
# 
# 
# High freq. dielectric constant tensor:
#      x y z
#    x 2.029950 0.000000 -0.027350 
#    y 0.000000 1.988360 0.000000 
#    z -0.027350 0.000000 1.995440 
# 
# From -- ./inp_files/53827.got.cif
#   From: 2010.03.12/outbox.cif.g09.slc.cpg/sg14_27_cif.got.tgz:53827.got - 2010.03.31 13:35:05.
