data_PCOD8128424
_publ_section_title
;
Structure prediction by ZEFSAII (Michael W. Deem and Ramdas Pophale) SiO2 
 PCOD8128424
Probable space group: P 21/C
;
_chemical_formula_sum "Si O2"
_cell_formula_units_Z 20
_cell_length_a 19.027083
_cell_length_b 6.207816
_cell_length_c 13.502082
_cell_angle_alpha 90.000000
_cell_angle_beta 33.897173
_cell_angle_gamma 90.000000
_cell_volume 889.437979
_symmetry_space_group_name_H-M "P 21/C"
_symmetry_group_IT_number 14
_symmetry_cell_setting 'monoclinic'
loop_
_space_group_symop_operation_xyz
x,y,z
-x,1/2+y,1/2-z
-x,-y,-z
x,1/2-y,1/2+z
loop_
_atom_site_type_symbol
_atom_site_label
_atom_site_fract_x
_atom_site_fract_y
_atom_site_fract_z
Si Si1 0.583773 0.796634 0.936423
Si Si2 0.373541 0.534371 0.278943
Si Si3 0.172950 0.869898 0.569280
Si Si4 0.262275 0.274038 0.566564
Si Si5 0.978149 0.471513 0.142994
O O1 0.639350 0.661833 0.781953
O O2 0.710930 0.835358 0.850196
O O3 0.504134 0.652574 0.106431
O O4 0.500000 0.000000 0.000000
O O5 0.257555 0.700173 0.409203
O O6 0.370912 0.417234 0.387394
O O7 0.102612 0.994456 0.563044
O O8 0.079550 0.761334 0.759386
O O9 0.264488 0.026435 0.526736
O O10 0.121247 0.348390 0.706132
O O11 0.000000 0.500000 0.000000
#
# Coordination Sequence:
#
# PCOD8128424 Si02
#       5
#     4   4   4   4   4
#     4  11  26  45  71 102 136 181 236 283 350 420
#     4  10  26  42  70  99 138 180 228 285 348 408
#     4  11  24  47  66 104 139 183 238 286 346 420
#     4  11  26  44  70  98 139 184 226 293 346 409
#     4  11  26  42  71  99 140 184 237 287 350 413
#
# _framework density 22.486111999999999
#
# number of rings (size 3 to 8) (size 9 to 14) (size 15 to 20)
#    0.000    1.200    2.000    1.200   14.000    4.000 
#    0.000    0.000    0.000    0.000    0.000    0.000 
#    0.000    0.000    0.000    0.000    0.000    0.000 
#
# Total GULP energy -247818.132999 kJ/mol
# GULP energy per Si atom -12390.906650 kJ/mol
# Density = 2.243493 g / cm^3
# Si number density = 22.486112 Si / 1000 Ang^3
#
#
#
# Elastic Constant Matrix: (Units=GPa)
#
#
# Indices 1 2 3 4 5 6 
#
# 1 126.8877 43.5572 4.8047 0.0000 3.2607 0.0000
# 2 43.5572 115.5419 14.7865 0.0000 2.6268 0.0000
# 3 4.8047 14.7865 55.8468 0.0000 17.8295 0.0000
# 4 0.0000 0.0000 0.0000 30.8722 0.0000 8.1914
# 5 3.2607 2.6268 17.8295 0.0000 33.2840 0.0000
# 6 0.0000 0.0000 0.0000 8.1914 0.0000 30.7529
#
#
#
# Elastic Compliance Matrix: (Units=1/GPa)
#
#
# Indices 1 2 3 4 5 6 
#
# 1 0.009072 -0.003452 0.000398 0.000000 -0.000830 0.000000
# 2 -0.003452 0.010285 -0.002744 0.000000 0.000997 0.000000
# 3 0.000398 -0.002744 0.022367 0.000000 -0.011804 0.000000
# 4 0.000000 0.000000 0.000000 0.034855 0.000000 -0.009284
# 5 -0.000830 0.000997 -0.011804 0.000000 0.036370 0.000000
# 6 0.000000 0.000000 0.000000 -0.009284 0.000000 0.034990
#
#
# Mechanical properties :
#
#
# Convention : Reuss Voigt Hill
#
# Bulk Modulus (GPa) = 33.19172 47.17477 40.18325
# Shear Modulus (GPa) = 29.48492 34.65702 32.07097
#
# Velocity S-wave (km/s) = 3.62505 3.93015 3.78068
# Velocity P-wave (km/s) = 5.68457 6.45134 6.08006
#
# Compressibility (1/GPa) = 0.03012800
#
# Stress axis : x y z
#
# Youngs Moduli (GPa) = 110.22595 97.23064 44.70881
#
# Poissons Ratio (x) = 0.33566 -0.01781
# Poissons Ratio (y) = 0.38052 0.12269
# Poissons Ratio (z) = -0.04392 0.26683
#
# Static dielectric constant tensor:
#      x y z
#    x 3.813830 0.000000 0.127320 
#    y 0.000000 4.236960 0.000000 
#    z 0.127320 0.000000 4.165710 
# 
# 
# High freq. dielectric constant tensor:
#      x y z
#    x 1.883350 0.000000 0.006490 
#    y 0.000000 1.893430 0.000000 
#    z 0.006490 0.000000 1.897670 
# 
# From -- ./inp_files/33433.got.cif
#   From: 2010.03.12/outbox.cif.g09.slc.cpg/sg14_17_cif.got.tgz:33433.got - 2010.03.31 13:35:05.
