data_PCOD8128790
_publ_section_title
;
Structure prediction by ZEFSAII (Michael W. Deem and Ramdas Pophale) SiO2 
 PCOD8128790
Probable space group: P 21/C
;
_chemical_formula_sum "Si O2"
_cell_formula_units_Z 28
_cell_length_a 13.251498
_cell_length_b 8.028240
_cell_length_c 12.107463
_cell_angle_alpha 90.000000
_cell_angle_beta 57.778808
_cell_angle_gamma 90.000000
_cell_volume 1089.699595
_symmetry_space_group_name_H-M "P 21/C"
_symmetry_group_IT_number 14
_symmetry_cell_setting 'monoclinic'
loop_
_space_group_symop_operation_xyz
x,y,z
-x,1/2+y,1/2-z
-x,-y,-z
x,1/2-y,1/2+z
loop_
_atom_site_type_symbol
_atom_site_label
_atom_site_fract_x
_atom_site_fract_y
_atom_site_fract_z
Si Si1 0.179597 0.544723 0.840454
Si Si2 0.781375 0.692678 0.986329
Si Si3 0.429209 0.439442 0.645518
Si Si4 0.657871 0.019393 0.135831
Si Si5 0.626594 0.570343 0.889937
Si Si6 0.032911 0.424187 0.719498
Si Si7 0.125322 0.717244 0.550536
O O1 0.320457 0.567257 0.732320
O O2 0.108465 0.509397 0.772115
O O3 0.170655 0.394138 0.932012
O O4 0.117722 0.707789 0.931386
O O5 0.715051 0.563092 0.943063
O O6 0.899731 0.758223 0.857624
O O7 0.687992 0.836564 0.071945
O O8 0.500000 0.500000 0.500000
O O9 0.518931 0.439694 0.697039
O O10 0.378967 0.257174 0.653205
O O11 0.679362 0.034900 0.255412
O O12 0.739640 0.148722 0.017827
O O13 0.500000 0.500000 0.000000
O O14 0.030989 0.563136 0.622168
O O15 0.904128 0.364271 0.842096
#
# Coordination Sequence:
#
# PCOD8128790 Si02
#       7
#     4   4   4   4   4   4   4
#     4  12  25  45  76 101 147 190 236 298 365 424
#     4  11  22  47  70 102 143 193 232 297 357 427
#     4  12  24  44  70 100 148 194 234 297 359 426
#     4  11  25  44  67 108 144 189 242 287 365 426
#     4  12  26  42  69 105 144 185 246 293 348 432
#     4  11  24  52  71 108 144 183 244 302 363 425
#     4  11  27  45  77 103 140 189 241 297 361 430
#
# _framework density 25.695153999999999
#
# number of rings (size 3 to 8) (size 9 to 14) (size 15 to 20)
#    0.000    0.571    4.286    3.000    6.000    1.143 
#    0.000   10.000    0.000    0.000    0.000    0.000 
#    0.000    0.000    0.000    0.000    0.000    0.000 
#
# Total GULP energy -347125.234422 kJ/mol
# GULP energy per Si atom -12397.329801 kJ/mol
# Density = 2.563667 g / cm^3
# Si number density = 25.695154 Si / 1000 Ang^3
#
#
#
# Elastic Constant Matrix: (Units=GPa)
#
#
# Indices 1 2 3 4 5 6 
#
# 1 55.2004 19.8019 34.6525 0.0000 -9.7205 0.0000
# 2 19.8019 77.3828 48.7285 0.0000 -13.2706 0.0000
# 3 34.6525 48.7285 180.2231 0.0000 -24.6623 0.0000
# 4 0.0000 0.0000 0.0000 60.8620 0.0000 -3.7389
# 5 -9.7205 -13.2706 -24.6623 0.0000 42.2741 0.0000
# 6 0.0000 0.0000 0.0000 -3.7389 0.0000 30.5707
#
#
#
# Elastic Compliance Matrix: (Units=1/GPa)
#
#
# Indices 1 2 3 4 5 6 
#
# 1 0.021532 -0.003272 -0.002954 0.000000 0.002200 0.000000
# 2 -0.003272 0.016348 -0.003469 0.000000 0.002356 0.000000
# 3 -0.002954 -0.003469 0.007404 0.000000 0.002551 0.000000
# 4 0.000000 0.000000 0.000000 0.016555 0.000000 0.002025
# 5 0.002200 0.002356 0.002551 0.000000 0.026389 0.000000
# 6 0.000000 0.000000 0.000000 0.002025 0.000000 0.032959
#
#
# Mechanical properties :
#
#
# Convention : Reuss Voigt Hill
#
# Bulk Modulus (GPa) = 38.61974 57.68579 48.15277
# Shear Modulus (GPa) = 33.51033 40.71625 37.11329
#
# Velocity S-wave (km/s) = 3.61522 3.98501 3.80461
# Velocity P-wave (km/s) = 5.69991 6.60852 6.17096
#
# Compressibility (1/GPa) = 0.02589349
#
# Stress axis : x y z
#
# Youngs Moduli (GPa) = 46.44330 61.16800 135.06865
#
# Poissons Ratio (x) = 0.20016 0.39901
# Poissons Ratio (y) = 0.15197 0.46851
# Poissons Ratio (z) = 0.13720 0.21217
#
# Static dielectric constant tensor:
#      x y z
#    x 4.480310 0.000000 -0.116100 
#    y 0.000000 5.069640 0.000000 
#    z -0.116100 0.000000 5.483090 
# 
# 
# High freq. dielectric constant tensor:
#      x y z
#    x 1.998080 0.000000 -0.011620 
#    y 0.000000 2.028510 0.000000 
#    z -0.011620 0.000000 2.061040 
# 
# From -- ./inp_files/31464.got.cif
#   From: 2010.03.12/outbox.cif.g09.slc.cpg/sg14_16_cif.got.tgz:31464.got - 2010.03.31 13:35:05.
