data_PCOD8128874
_publ_section_title
;
Structure prediction by ZEFSAII (Michael W. Deem and Ramdas Pophale) SiO2 
 PCOD8128874
Probable space group: P 21/C
;
_chemical_formula_sum "Si O2"
_cell_formula_units_Z 32
_cell_length_a 11.162824
_cell_length_b 11.375587
_cell_length_c 10.651990
_cell_angle_alpha 90.000000
_cell_angle_beta 82.840685
_cell_angle_gamma 90.000000
_cell_volume 1342.083002
_symmetry_space_group_name_H-M "P 21/C"
_symmetry_group_IT_number 14
_symmetry_cell_setting 'monoclinic'
loop_
_space_group_symop_operation_xyz
x,y,z
-x,1/2+y,1/2-z
-x,-y,-z
x,1/2-y,1/2+z
loop_
_atom_site_type_symbol
_atom_site_label
_atom_site_fract_x
_atom_site_fract_y
_atom_site_fract_z
Si Si1 0.063138 0.095208 0.398611
Si Si2 0.680975 0.980830 0.290036
Si Si3 0.164975 0.703068 0.173234
Si Si4 0.253429 0.294008 0.045904
Si Si5 0.416139 0.464489 0.880823
Si Si6 0.617207 0.442998 0.544066
Si Si7 0.283379 0.709947 0.902201
Si Si8 0.734110 0.947536 0.822733
O O1 0.135347 0.184246 0.477982
O O2 0.155050 0.033225 0.288007
O O3 0.977038 0.173351 0.320331
O O4 0.000000 0.000000 0.500000
O O5 0.749153 0.862511 0.321191
O O6 0.774308 0.081861 0.301116
O O7 0.557840 0.009993 0.386987
O O8 0.652116 0.965064 0.148316
O O9 0.204680 0.790241 0.282389
O O10 0.199095 0.745212 0.029476
O O11 0.258186 0.158862 0.079707
O O12 0.371513 0.349603 0.962437
O O13 0.337251 0.581594 0.918314
O O14 0.392144 0.433446 0.737733
O O15 0.500000 0.500000 0.500000
O O16 0.611561 0.311812 0.607565
O O17 0.718794 0.441528 0.419083
#
# Coordination Sequence:
#
# PCOD8128874 Si02
#       8
#     4   4   4   4   4   4   4   4
#     4  11  24  50  76  98 148 198 251 314 370 453
#     4  11  23  42  70 106 144 196 246 291 378 448
#     4  11  24  44  71 107 139 194 256 303 367 445
#     4  11  25  43  73 106 144 192 250 303 378 448
#     4  11  23  45  71 106 147 198 242 299 377 456
#     4  11  25  45  67 110 156 191 239 313 375 438
#     4  11  25  45  74 108 149 198 252 307 370 458
#     4  11  26  46  70 109 147 194 240 315 380 441
#
# _framework density 23.843530999999999
#
# number of rings (size 3 to 8) (size 9 to 14) (size 15 to 20)
#    0.000    1.000    3.750    1.875    7.000    0.000 
#    0.000    2.500    0.000    0.000    0.000    0.000 
#    0.000    0.000    0.000    0.000    0.000    0.000 
#
# Total GULP energy -396424.724520 kJ/mol
# GULP energy per Si atom -12388.272641 kJ/mol
# Density = 2.378926 g / cm^3
# Si number density = 23.843531 Si / 1000 Ang^3
#
#
#
# Elastic Constant Matrix: (Units=GPa)
#
#
# Indices 1 2 3 4 5 6 
#
# 1 115.9136 16.4222 32.8240 0.0000 23.8774 0.0000
# 2 16.4222 60.8756 22.9528 0.0000 -0.4133 0.0000
# 3 32.8240 22.9528 146.7049 0.0000 9.8481 0.0000
# 4 0.0000 0.0000 0.0000 43.5976 0.0000 3.7383
# 5 23.8774 -0.4133 9.8481 0.0000 43.3402 0.0000
# 6 0.0000 0.0000 0.0000 3.7383 0.0000 24.1645
#
#
#
# Elastic Compliance Matrix: (Units=1/GPa)
#
#
# Indices 1 2 3 4 5 6 
#
# 1 0.010534 -0.002262 -0.001637 0.000000 -0.005453 0.000000
# 2 -0.002262 0.017970 -0.002438 0.000000 0.001971 0.000000
# 3 -0.001637 -0.002438 0.007621 0.000000 -0.000853 0.000000
# 4 0.000000 0.000000 0.000000 0.023245 0.000000 -0.003596
# 5 -0.005453 0.001971 -0.000853 0.000000 0.026290 0.000000
# 6 0.000000 0.000000 0.000000 -0.003596 0.000000 0.041939
#
#
# Mechanical properties :
#
#
# Convention : Reuss Voigt Hill
#
# Bulk Modulus (GPa) = 42.63936 51.98799 47.31367
# Shear Modulus (GPa) = 33.76304 38.97346 36.36825
#
# Velocity S-wave (km/s) = 3.76709 4.04734 3.90973
# Velocity P-wave (km/s) = 6.06985 6.61003 6.34569
#
# Compressibility (1/GPa) = 0.02345251
#
# Stress axis : x y z
#
# Youngs Moduli (GPa) = 94.92646 55.64960 131.21020
#
# Poissons Ratio (x) = 0.12586 0.21480
# Poissons Ratio (y) = 0.21469 0.31986
# Poissons Ratio (z) = 0.15540 0.13566
#
# Static dielectric constant tensor:
#      x y z
#    x 4.457830 0.000000 0.592120 
#    y 0.000000 4.202870 0.000000 
#    z 0.592120 0.000000 6.254550 
# 
# 
# High freq. dielectric constant tensor:
#      x y z
#    x 1.928200 0.000000 0.016820 
#    y 0.000000 1.936700 0.000000 
#    z 0.016820 0.000000 1.980340 
# 
# From -- ./inp_files/29110.got.cif
#   From: 2010.03.12/outbox.cif.g09.slc.cpg/sg14_15_cif.got.tgz:29110.got - 2010.03.31 13:35:05.
