data_PCOD8128766
_publ_section_title
;
Structure prediction by ZEFSAII (Michael W. Deem and Ramdas Pophale) SiO2 
 PCOD8128766
Probable space group: P 21/C
;
_chemical_formula_sum "Si O2"
_cell_formula_units_Z 24
_cell_length_a 8.374616
_cell_length_b 9.466222
_cell_length_c 15.859589
_cell_angle_alpha 90.000000
_cell_angle_beta 63.080572
_cell_angle_gamma 90.000000
_cell_volume 1121.050146
_symmetry_space_group_name_H-M "P 21/C"
_symmetry_group_IT_number 14
_symmetry_cell_setting 'monoclinic'
loop_
_space_group_symop_operation_xyz
x,y,z
-x,1/2+y,1/2-z
-x,-y,-z
x,1/2-y,1/2+z
loop_
_atom_site_type_symbol
_atom_site_label
_atom_site_fract_x
_atom_site_fract_y
_atom_site_fract_z
Si Si1 0.472482 0.544787 0.911593
Si Si2 0.157591 0.136785 0.759020
Si Si3 0.971152 0.654305 0.349024
Si Si4 0.601716 0.781216 0.672604
Si Si5 0.359974 0.063933 0.969881
Si Si6 0.706766 0.297991 0.617409
O O1 0.666560 0.575195 0.827034
O O2 0.367156 0.428268 0.882245
O O3 0.340795 0.679227 0.939987
O O4 0.500000 0.500000 0.000000
O O5 0.049966 0.248099 0.727903
O O6 0.214563 0.222679 0.829755
O O7 0.030544 0.004656 0.811153
O O8 0.784008 0.651483 0.442595
O O9 0.112392 0.733563 0.375274
O O10 0.535399 0.668142 0.618809
O O11 0.454803 0.807393 0.778435
O O12 0.263811 0.943632 0.938486
O O13 0.500000 0.000000 0.000000
#
# Coordination Sequence:
#
# PCOD8128766 Si02
#       6
#     4   4   4   4   4   4
#     4  11  23  44  67 100 134 180 232 277 350 411
#     4  11  26  43  68 101 137 184 228 286 347 408
#     4  12  26  45  67 106 139 175 240 286 348 407
#     4  11  22  45  67  97 133 179 229 275 340 413
#     4  12  25  44  72  99 136 185 228 283 345 417
#     4  11  23  43  69  97 137 178 225 283 342 409
#
# _framework density 21.408498000000002
#
# number of rings (size 3 to 8) (size 9 to 14) (size 15 to 20)
#    0.000    0.667    3.333    5.500    4.667    1.333 
#    0.000    1.667    0.000    0.000    0.000    0.000 
#    0.000    0.000    0.000    0.000    0.000    0.000 
#
# Total GULP energy -297667.738555 kJ/mol
# GULP energy per Si atom -12402.822440 kJ/mol
# Density = 2.135977 g / cm^3
# Si number density = 21.408498 Si / 1000 Ang^3
#
#
#
# Elastic Constant Matrix: (Units=GPa)
#
#
# Indices 1 2 3 4 5 6 
#
# 1 97.8456 26.6772 25.2088 0.0000 17.8707 0.0000
# 2 26.6772 96.6316 30.7805 0.0000 7.0847 0.0000
# 3 25.2088 30.7805 79.5752 0.0000 19.7515 0.0000
# 4 0.0000 0.0000 0.0000 43.5307 0.0000 15.3509
# 5 17.8707 7.0847 19.7515 0.0000 23.2516 0.0000
# 6 0.0000 0.0000 0.0000 15.3509 0.0000 49.5517
#
#
#
# Elastic Compliance Matrix: (Units=1/GPa)
#
#
# Indices 1 2 3 4 5 6 
#
# 1 0.012661 -0.002582 -0.001004 0.000000 -0.008091 0.000000
# 2 -0.002582 0.012332 -0.004450 0.000000 0.002008 0.000000
# 3 -0.001004 -0.004450 0.017839 0.000000 -0.013027 0.000000
# 4 0.000000 0.000000 0.000000 0.025790 0.000000 -0.007990
# 5 -0.008091 0.002008 -0.013027 0.000000 0.059681 0.000000
# 6 0.000000 0.000000 0.000000 -0.007990 0.000000 0.022656
#
#
# Mechanical properties :
#
#
# Convention : Reuss Voigt Hill
#
# Bulk Modulus (GPa) = 37.36987 48.82058 43.09522
# Shear Modulus (GPa) = 28.41704 36.02588 32.22146
#
# Velocity S-wave (km/s) = 3.64726 4.10663 3.88374
# Velocity P-wave (km/s) = 5.93551 6.73347 6.34704
#
# Compressibility (1/GPa) = 0.02675953
#
# Stress axis : x y z
#
# Youngs Moduli (GPa) = 78.98513 81.09057 56.05543
#
# Poissons Ratio (x) = 0.20940 0.05625
# Poissons Ratio (y) = 0.20397 0.24947
# Poissons Ratio (z) = 0.07926 0.36088
#
# Static dielectric constant tensor:
#      x y z
#    x 4.070310 0.000000 0.149330 
#    y 0.000000 4.283360 0.000000 
#    z 0.149330 0.000000 4.100200 
# 
# 
# High freq. dielectric constant tensor:
#      x y z
#    x 1.839660 0.000000 0.022480 
#    y 0.000000 1.854760 0.000000 
#    z 0.022480 0.000000 1.844100 
# 
# From -- ./inp_files/54518.got.cif
#   From: 2010.03.12/outbox.cif.g09.slc.cpg/sg14_28_cif.got.tgz:54518.got - 2010.03.31 13:35:05.
