data_PCOD8128976
_publ_section_title
;
Structure prediction by ZEFSAII (Michael W. Deem and Ramdas Pophale) SiO2 
 PCOD8128976
Probable space group: P 21/C
;
_chemical_formula_sum "Si O2"
_cell_formula_units_Z 20
_cell_length_a 9.529577
_cell_length_b 9.486527
_cell_length_c 8.747958
_cell_angle_alpha 90.000000
_cell_angle_beta 111.833964
_cell_angle_gamma 90.000000
_cell_volume 734.107702
_symmetry_space_group_name_H-M "P 21/C"
_symmetry_group_IT_number 14
_symmetry_cell_setting 'monoclinic'
loop_
_space_group_symop_operation_xyz
x,y,z
-x,1/2+y,1/2-z
-x,-y,-z
x,1/2-y,1/2+z
loop_
_atom_site_type_symbol
_atom_site_label
_atom_site_fract_x
_atom_site_fract_y
_atom_site_fract_z
Si Si1 0.763609 0.810354 0.767531
Si Si2 0.496709 0.118825 0.732563
Si Si3 0.062382 0.391237 0.363341
Si Si4 0.317653 0.927996 0.471364
Si Si5 0.186139 0.845241 0.015099
O O1 0.599447 0.743848 0.732575
O O2 0.821845 0.865490 0.951099
O O3 0.884931 0.693200 0.763072
O O4 0.753943 0.933942 0.637994
O O5 0.559897 0.151776 0.586583
O O6 0.642206 0.094967 0.900022
O O7 0.396153 0.977336 0.664176
O O8 0.086640 0.561768 0.353476
O O9 0.891640 0.353924 0.346835
O O10 0.185802 0.817962 0.462497
#
# Coordination Sequence:
#
# PCOD8128976 Si02
#       5
#     4   4   4   4   4
#     4  12  25  50  74 109 154 196 252 314 371 449
#     4  11  23  45  76 107 146 192 254 302 363 439
#     4  11  28  50  72 111 153 196 247 312 384 444
#     4  11  25  46  78 111 146 199 256 309 374 444
#     4  11  27  46  75 108 150 197 251 308 377 453
#
# _framework density 27.243960999999999
#
# number of rings (size 3 to 8) (size 9 to 14) (size 15 to 20)
#    0.000    0.800    4.000    2.400    2.800    4.800 
#    3.600    0.000    0.000    0.000    0.000    0.000 
#    0.000    0.000    0.000    0.000    0.000    0.000 
#
# Total GULP energy -247881.287785 kJ/mol
# GULP energy per Si atom -12394.064389 kJ/mol
# Density = 2.718195 g / cm^3
# Si number density = 27.243961 Si / 1000 Ang^3
#
#
#
# Elastic Constant Matrix: (Units=GPa)
#
#
# Indices 1 2 3 4 5 6 
#
# 1 146.0177 62.0502 0.4423 0.0000 9.2460 0.0000
# 2 62.0502 160.3990 18.7883 0.0000 -13.3218 0.0000
# 3 0.4423 18.7883 27.0888 0.0000 -2.9251 0.0000
# 4 0.0000 0.0000 0.0000 38.8310 0.0000 -8.3417
# 5 9.2460 -13.3218 -2.9251 0.0000 22.1057 0.0000
# 6 0.0000 0.0000 0.0000 -8.3417 0.0000 53.7977
#
#
#
# Elastic Compliance Matrix: (Units=1/GPa)
#
#
# Indices 1 2 3 4 5 6 
#
# 1 0.009030 -0.004247 0.002145 0.000000 -0.006053 0.000000
# 2 -0.004247 0.009064 -0.005514 0.000000 0.006509 0.000000
# 3 0.002145 -0.005514 0.040833 0.000000 0.001183 0.000000
# 4 0.000000 0.000000 0.000000 0.026640 0.000000 0.004131
# 5 -0.006053 0.006509 0.001183 0.000000 0.051848 0.000000
# 6 0.000000 0.000000 0.000000 0.004131 0.000000 0.019229
#
#
# Mechanical properties :
#
#
# Convention : Reuss Voigt Hill
#
# Bulk Modulus (GPa) = 22.88672 55.11854 39.00263
# Shear Modulus (GPa) = 26.81800 39.76189 33.28994
#
# Velocity S-wave (km/s) = 3.14086 3.82445 3.49939
# Velocity P-wave (km/s) = 4.64459 6.30693 5.53848
#
# Compressibility (1/GPa) = 0.04369345
#
# Stress axis : x y z
#
# Youngs Moduli (GPa) = 110.74071 110.32628 24.48996
#
# Poissons Ratio (x) = 0.46858 -0.05253
# Poissons Ratio (y) = 0.47034 0.13505
# Poissons Ratio (z) = -0.23751 0.60839
#
# Static dielectric constant tensor:
#      x y z
#    x 5.180750 0.000000 0.181150 
#    y 0.000000 5.430560 0.000000 
#    z 0.181150 0.000000 4.765730 
# 
# 
# High freq. dielectric constant tensor:
#      x y z
#    x 2.111940 0.000000 0.028940 
#    y 0.000000 2.100910 0.000000 
#    z 0.028940 0.000000 2.077960 
# 
# From -- ./inp_files/7993.got.cif
#   From: 2010.03.12/outbox.cif.g09.slc.cpg/sg14_4_cif.got.tgz:7993.got - 2010.03.31 13:35:05.
