data_PCOD8128638
_publ_section_title
;
Structure prediction by ZEFSAII (Michael W. Deem and Ramdas Pophale) SiO2 
 PCOD8128638
Probable space group: P 21/C
;
_chemical_formula_sum "Si O2"
_cell_formula_units_Z 20
_cell_length_a 7.309330
_cell_length_b 6.481312
_cell_length_c 21.071334
_cell_angle_alpha 90.000000
_cell_angle_beta 58.324751
_cell_angle_gamma 90.000000
_cell_volume 849.535428
_symmetry_space_group_name_H-M "P 21/C"
_symmetry_group_IT_number 14
_symmetry_cell_setting 'monoclinic'
loop_
_space_group_symop_operation_xyz
x,y,z
-x,1/2+y,1/2-z
-x,-y,-z
x,1/2-y,1/2+z
loop_
_atom_site_type_symbol
_atom_site_label
_atom_site_fract_x
_atom_site_fract_y
_atom_site_fract_z
Si Si1 0.833625 0.600295 0.717730
Si Si2 0.947006 0.381727 0.574256
Si Si3 0.747173 0.247292 0.317721
Si Si4 0.706716 0.915268 0.426675
Si Si5 0.468719 0.149654 0.152860
O O1 0.922688 0.563948 0.630886
O O2 0.708810 0.394973 0.763558
O O3 0.662521 0.786432 0.759011
O O4 0.034229 0.621753 0.729726
O O5 0.714119 0.274009 0.610945
O O6 0.000000 0.500000 0.500000
O O7 0.117680 0.198926 0.559843
O O8 0.543502 0.401954 0.355219
O O9 0.790793 0.117134 0.374376
O O10 0.641272 0.744412 0.388389
O O11 0.500000 0.000000 0.500000
#
# Coordination Sequence:
#
# PCOD8128638 Si02
#       5
#     4   4   4   4   4
#     4  11  23  43  73 106 138 186 246 297 361 437
#     4  12  28  47  71 110 150 196 239 302 372 440
#     4  11  21  45  75 100 139 189 243 300 367 426
#     4  11  26  47  71 102 143 192 241 298 366 439
#     4  11  26  46  75 104 144 193 242 307 360 434
#
# _framework density 23.542280999999999
#
# number of rings (size 3 to 8) (size 9 to 14) (size 15 to 20)
#    0.000    0.800    4.000    2.400    5.600    2.400 
#    3.600    0.000    0.000    0.000    0.000    0.000 
#    0.000    0.000    0.000    0.000    0.000    0.000 
#
# Total GULP energy -247825.869763 kJ/mol
# GULP energy per Si atom -12391.293488 kJ/mol
# Density = 2.348870 g / cm^3
# Si number density = 23.542281 Si / 1000 Ang^3
#
#
#
# Elastic Constant Matrix: (Units=GPa)
#
#
# Indices 1 2 3 4 5 6 
#
# 1 127.6159 50.7579 41.4636 0.0000 -21.6155 0.0000
# 2 50.7579 133.8128 53.5067 0.0000 2.1838 0.0000
# 3 41.4636 53.5067 147.8434 0.0000 -0.9958 0.0000
# 4 0.0000 0.0000 0.0000 37.6924 0.0000 -4.5648
# 5 -21.6155 2.1838 -0.9958 0.0000 38.4293 0.0000
# 6 0.0000 0.0000 0.0000 -4.5648 0.0000 32.3965
#
#
#
# Elastic Compliance Matrix: (Units=1/GPa)
#
#
# Indices 1 2 3 4 5 6 
#
# 1 0.010863 -0.003533 -0.001726 0.000000 0.006266 0.000000
# 2 -0.003533 0.009899 -0.002610 0.000000 -0.002617 0.000000
# 3 -0.001726 -0.002610 0.008188 0.000000 -0.000610 0.000000
# 4 0.000000 0.000000 0.000000 0.026991 0.000000 0.003803
# 5 0.006266 -0.002617 -0.000610 0.000000 0.029679 0.000000
# 6 0.000000 0.000000 0.000000 0.003803 0.000000 0.031403
#
#
# Mechanical properties :
#
#
# Convention : Reuss Voigt Hill
#
# Bulk Modulus (GPa) = 75.67492 77.85872 76.76682
# Shear Modulus (GPa) = 36.45212 39.27324 37.86268
#
# Velocity S-wave (km/s) = 3.93920 4.08879 4.01469
# Velocity P-wave (km/s) = 7.27350 7.44544 7.35997
#
# Compressibility (1/GPa) = 0.01321442
#
# Stress axis : x y z
#
# Youngs Moduli (GPa) = 92.05292 101.01654 122.12575
#
# Poissons Ratio (x) = 0.35687 0.21078
# Poissons Ratio (y) = 0.32521 0.31869
# Poissons Ratio (z) = 0.15887 0.26361
#
# Static dielectric constant tensor:
#      x y z
#    x 4.200220 0.000000 -0.093770 
#    y 0.000000 4.471320 0.000000 
#    z -0.093770 0.000000 4.426950 
# 
# 
# High freq. dielectric constant tensor:
#      x y z
#    x 1.929670 0.000000 -0.009030 
#    y 0.000000 1.936280 0.000000 
#    z -0.009030 0.000000 1.935370 
# 
# From -- ./inp_files/71572.got.cif
#   From: 2010.03.12/outbox.cif.g09.slc.cpg/sg14_36_cif.got.tgz:71572.got - 2010.03.31 13:35:05.
