data_PCOD8128312
_publ_section_title
;
Structure prediction by ZEFSAII (Michael W. Deem and Ramdas Pophale) SiO2 
 PCOD8128312
Probable space group: P 21/C
;
_chemical_formula_sum "Si O2"
_cell_formula_units_Z 28
_cell_length_a 17.704182
_cell_length_b 9.806372
_cell_length_c 9.531685
_cell_angle_alpha 90.000000
_cell_angle_beta 141.849720
_cell_angle_gamma 90.000000
_cell_volume 1022.233107
_symmetry_space_group_name_H-M "P 21/C"
_symmetry_group_IT_number 14
_symmetry_cell_setting 'monoclinic'
loop_
_space_group_symop_operation_xyz
x,y,z
-x,1/2+y,1/2-z
-x,-y,-z
x,1/2-y,1/2+z
loop_
_atom_site_type_symbol
_atom_site_label
_atom_site_fract_x
_atom_site_fract_y
_atom_site_fract_z
Si Si1 0.047362 0.111175 0.358760
Si Si2 0.756757 0.839151 0.878590
Si Si3 0.835924 0.101996 0.862816
Si Si4 0.233262 0.906132 0.542895
Si Si5 0.411740 0.534119 0.526659
Si Si6 0.400552 0.248321 0.099480
Si Si7 0.811080 0.356635 0.668429
O O1 0.122252 0.252804 0.484779
O O2 0.950260 0.095855 0.345119
O O3 0.135433 0.979442 0.504262
O O4 0.981208 0.106735 0.108719
O O5 0.783998 0.004344 0.914631
O O6 0.649723 0.821592 0.610618
O O7 0.711270 0.784160 0.960458
O O8 0.795869 0.031459 0.655649
O O9 0.793829 0.261276 0.784368
O O10 0.217587 0.740968 0.510666
O O11 0.366647 0.955109 0.796810
O O12 0.499193 0.659634 0.680764
O O13 0.471547 0.388525 0.651002
O O14 0.293577 0.531948 0.459160
#
# Coordination Sequence:
#
# PCOD8128312 Si02
#       7
#     4   4   4   4   4   4   4
#     4  12  22  44  77 115 160 203 258 320 406 478
#     4  12  28  51  79 122 159 213 270 329 401 483
#     4  10  25  45  74 116 164 211 249 330 408 481
#     4  10  24  45  75 112 163 208 263 324 405 477
#     4  12  28  55  77 120 151 218 274 339 396 475
#     4  12  32  52  86 111 164 209 279 336 394 476
#     4  10  26  43  79 114 162 203 259 330 404 480
#
# _framework density 27.391013000000001
#
# number of rings (size 3 to 8) (size 9 to 14) (size 15 to 20)
#    0.857    0.000    1.429    3.857    8.000    1.714 
#    0.000    0.000    0.000    0.000    0.000    0.000 
#    0.000    0.000    0.000    0.000    0.000    0.000 
#
# Total GULP energy -346976.409058 kJ/mol
# GULP energy per Si atom -12392.014609 kJ/mol
# Density = 2.732867 g / cm^3
# Si number density = 27.391013 Si / 1000 Ang^3
#
#
#
# Elastic Constant Matrix: (Units=GPa)
#
#
# Indices 1 2 3 4 5 6 
#
# 1 84.0103 -1.3156 -6.4893 0.0000 -5.0394 0.0000
# 2 -1.3156 146.9025 49.8515 0.0000 13.9749 0.0000
# 3 -6.4893 49.8515 137.8585 0.0000 -26.1521 0.0000
# 4 0.0000 0.0000 0.0000 46.9107 0.0000 9.1505
# 5 -5.0394 13.9749 -26.1521 0.0000 32.4300 0.0000
# 6 0.0000 0.0000 0.0000 9.1505 0.0000 26.3380
#
#
#
# Elastic Compliance Matrix: (Units=1/GPa)
#
#
# Indices 1 2 3 4 5 6 
#
# 1 0.012210 -0.000715 0.001478 0.000000 0.003398 0.000000
# 2 -0.000715 0.009226 -0.004894 0.000000 -0.008033 0.000000
# 3 0.001478 -0.004894 0.011259 0.000000 0.011418 0.000000
# 4 0.000000 0.000000 0.000000 0.022867 0.000000 -0.007945
# 5 0.003398 -0.008033 0.011418 0.000000 0.044033 0.000000
# 6 0.000000 0.000000 0.000000 -0.007945 0.000000 0.040728
#
#
# Mechanical properties :
#
#
# Convention : Reuss Voigt Hill
#
# Bulk Modulus (GPa) = 40.92909 50.31828 45.62369
# Shear Modulus (GPa) = 31.90216 42.91738 37.40977
#
# Velocity S-wave (km/s) = 3.41646 3.96263 3.69964
# Velocity P-wave (km/s) = 5.52611 6.27270 5.91121
#
# Compressibility (1/GPa) = 0.02443250
#
# Stress axis : x y z
#
# Youngs Moduli (GPa) = 81.89962 108.39267 88.81746
#
# Poissons Ratio (x) = 0.07755 -0.13127
# Poissons Ratio (y) = 0.05859 0.43465
# Poissons Ratio (z) = -0.12105 0.53044
#
# Static dielectric constant tensor:
#      x y z
#    x 4.849500 0.000000 -0.312830 
#    y 0.000000 5.081070 0.000000 
#    z -0.312830 0.000000 4.924840 
# 
# 
# High freq. dielectric constant tensor:
#      x y z
#    x 2.118710 0.000000 -0.030130 
#    y 0.000000 2.125010 0.000000 
#    z -0.030130 0.000000 2.108090 
# 
# From -- ./inp_files/35211.got.cif
#   From: 2010.03.12/outbox.cif.g09.slc.cpg/sg14_18_cif.got.tgz:35211.got - 2010.03.31 13:35:05.
