data_PCOD8128213
_publ_section_title
;
Structure prediction by ZEFSAII (Michael W. Deem and Ramdas Pophale) SiO2 
 PCOD8128213
Probable space group: P 21/C
;
_chemical_formula_sum "Si O2"
_cell_formula_units_Z 20
_cell_length_a 7.349536
_cell_length_b 22.099975
_cell_length_c 5.014923
_cell_angle_alpha 90.000000
_cell_angle_beta 67.795638
_cell_angle_gamma 90.000000
_cell_volume 754.141370
_symmetry_space_group_name_H-M "P 21/C"
_symmetry_group_IT_number 14
_symmetry_cell_setting 'monoclinic'
loop_
_space_group_symop_operation_xyz
x,y,z
-x,1/2+y,1/2-z
-x,-y,-z
x,1/2-y,1/2+z
loop_
_atom_site_type_symbol
_atom_site_label
_atom_site_fract_x
_atom_site_fract_y
_atom_site_fract_z
Si Si1 0.314848 0.079439 0.721342
Si Si2 0.139085 0.786075 0.091814
Si Si3 0.671293 0.786191 0.372237
Si Si4 0.870167 0.417786 0.562744
Si Si5 0.307669 0.977713 0.328652
O O1 0.406558 0.145656 0.621666
O O2 0.461563 0.041311 0.836362
O O3 0.103807 0.083835 0.978582
O O4 0.294981 0.046437 0.443895
O O5 0.219748 0.760565 0.325172
O O6 0.215038 0.853813 0.993394
O O7 0.905161 0.787462 0.229734
O O8 0.590145 0.759573 0.693378
O O9 0.816648 0.469211 0.373101
O O10 0.774883 0.433000 0.897190
#
# Coordination Sequence:
#
# PCOD8128213 Si02
#       5
#     4   4   4   4   4
#     4  10  24  43  66  91 130 164 203 265 307 364
#     4   9  17  33  57  84 118 160 202 251 306 359
#     4   9  19  35  59  87 116 159 204 245 307 365
#     4  11  23  41  64  92 126 165 210 256 311 371
#     4  11  25  41  64  97 124 164 213 249 313 376
#
# _framework density 26.520229
#
# number of rings (size 3 to 8) (size 9 to 14) (size 15 to 20)
#    0.000    2.000    0.000    2.400    0.000   12.800 
#    0.000    6.000    0.000    0.000    0.000    0.000 
#    0.000    0.000    0.000    0.000    0.000    0.000 
#
# Total GULP energy -248093.076161 kJ/mol
# GULP energy per Si atom -12404.653808 kJ/mol
# Density = 2.645987 g / cm^3
# Si number density = 26.520229 Si / 1000 Ang^3
#
#
#
# Elastic Constant Matrix: (Units=GPa)
#
#
# Indices 1 2 3 4 5 6 
#
# 1 67.8702 -5.0664 -6.2906 0.0000 -5.1887 0.0000
# 2 -5.0664 140.2368 -23.6692 0.0000 -13.0988 0.0000
# 3 -6.2906 -23.6692 64.0462 0.0000 3.5116 0.0000
# 4 0.0000 0.0000 0.0000 30.5796 0.0000 4.8287
# 5 -5.1887 -13.0988 3.5116 0.0000 17.1496 0.0000
# 6 0.0000 0.0000 0.0000 4.8287 0.0000 32.2927
#
#
#
# Elastic Compliance Matrix: (Units=1/GPa)
#
#
# Indices 1 2 3 4 5 6 
#
# 1 0.015401 0.001345 0.001717 0.000000 0.005335 0.000000
# 2 0.001345 0.008229 0.002838 0.000000 0.006111 0.000000
# 3 0.001717 0.002838 0.016873 0.000000 -0.000768 0.000000
# 4 0.000000 0.000000 0.000000 0.033492 0.000000 -0.005008
# 5 0.005335 0.006111 -0.000768 0.000000 0.064749 0.000000
# 6 0.000000 0.000000 0.000000 -0.005008 0.000000 0.031716
#
#
# Mechanical properties :
#
#
# Convention : Reuss Voigt Hill
#
# Bulk Modulus (GPa) = 19.11909 22.45564 20.78737
# Shear Modulus (GPa) = 28.39359 36.48302 32.43831
#
# Velocity S-wave (km/s) = 3.27561 3.71302 3.50116
# Velocity P-wave (km/s) = 4.64016 5.18342 4.91929
#
# Compressibility (1/GPa) = 0.05230374
#
# Stress axis : x y z
#
# Youngs Moduli (GPa) = 64.92917 121.51826 59.26497
#
# Poissons Ratio (x) = -0.16339 -0.10176
# Poissons Ratio (y) = -0.08730 -0.16821
# Poissons Ratio (z) = -0.11149 -0.34490
#
# Static dielectric constant tensor:
#      x y z
#    x 4.668570 0.000000 -0.127580 
#    y 0.000000 5.091060 0.000000 
#    z -0.127580 0.000000 4.743360 
# 
# 
# High freq. dielectric constant tensor:
#      x y z
#    x 2.062470 0.000000 -0.013270 
#    y 0.000000 2.076610 0.000000 
#    z -0.013270 0.000000 2.064890 
# 
# From -- ./inp_files/1390.got.cif
#   From: 2010.03.12/outbox.cif.g09.slc.cpg/sg14_1_cif.got.tgz:1390.got - 2010.03.31 13:35:05.
