data_PCOD8128067
_publ_section_title
;
Structure prediction by ZEFSAII (Michael W. Deem and Ramdas Pophale) SiO2 
 PCOD8128067
Probable space group: P 21/C
;
_chemical_formula_sum "Si O2"
_cell_formula_units_Z 28
_cell_length_a 8.852365
_cell_length_b 21.134844
_cell_length_c 8.717281
_cell_angle_alpha 90.000000
_cell_angle_beta 48.839705
_cell_angle_gamma 90.000000
_cell_volume 1227.891752
_symmetry_space_group_name_H-M "P 21/C"
_symmetry_group_IT_number 14
_symmetry_cell_setting 'monoclinic'
loop_
_space_group_symop_operation_xyz
x,y,z
-x,1/2+y,1/2-z
-x,-y,-z
x,1/2-y,1/2+z
loop_
_atom_site_type_symbol
_atom_site_label
_atom_site_fract_x
_atom_site_fract_y
_atom_site_fract_z
Si Si1 0.835014 0.855627 0.260449
Si Si2 0.149399 0.955283 0.487433
Si Si3 0.546849 0.543064 0.108505
Si Si4 0.155496 0.900043 0.814541
Si Si5 0.633959 0.733448 0.263972
Si Si6 0.652248 0.268537 0.812202
Si Si7 0.972125 0.173259 0.564251
O O1 0.698646 0.901978 0.453619
O O2 0.705921 0.805253 0.249364
O O3 0.986947 0.822845 0.280101
O O4 0.959471 0.894874 0.050326
O O5 0.102523 0.942388 0.699762
O O6 0.147323 0.889541 0.399765
O O7 0.356478 0.995306 0.331100
O O8 0.000000 0.000000 0.500000
O O9 0.332260 0.570895 0.305014
O O10 0.500000 0.500000 0.000000
O O11 0.246883 0.833145 0.694881
O O12 0.431441 0.722805 0.496959
O O13 0.554376 0.721877 0.145297
O O14 0.816523 0.683714 0.168966
O O15 0.828467 0.230670 0.609195
#
# Coordination Sequence:
#
# PCOD8128067 Si02
#       7
#     4   4   4   4   4   4   4
#     4  12  24  45  70 104 138 186 230 292 353 421
#     4  11  25  47  72  99 141 189 233 291 344 411
#     4  10  23  46  70  97 139 185 234 285 340 419
#     4  11  24  45  76  99 137 183 238 289 356 418
#     4  12  25  42  69 104 146 178 227 293 361 418
#     4  12  25  42  70 108 137 184 231 286 365 420
#     4  12  26  45  69 103 148 178 235 295 354 423
#
# _framework density 22.803314
#
# number of rings (size 3 to 8) (size 9 to 14) (size 15 to 20)
#    0.000    0.571    5.714    1.714    6.000    2.286 
#    0.000    2.143    0.000    0.000    0.000    0.000 
#    0.000    0.000    0.000    0.000    0.000    0.000 
#
# Total GULP energy -346885.613252 kJ/mol
# GULP energy per Si atom -12388.771902 kJ/mol
# Density = 2.275141 g / cm^3
# Si number density = 22.803314 Si / 1000 Ang^3
#
#
#
# Elastic Constant Matrix: (Units=GPa)
#
#
# Indices 1 2 3 4 5 6 
#
# 1 119.3215 44.7460 14.4591 0.0000 -9.8995 0.0000
# 2 44.7460 105.5301 0.4403 0.0000 -6.3022 0.0000
# 3 14.4591 0.4403 58.8036 0.0000 -11.0852 0.0000
# 4 0.0000 0.0000 0.0000 28.6536 0.0000 0.9049
# 5 -9.8995 -6.3022 -11.0852 0.0000 27.8478 0.0000
# 6 0.0000 0.0000 0.0000 0.9049 0.0000 55.0049
#
#
#
# Elastic Compliance Matrix: (Units=1/GPa)
#
#
# Indices 1 2 3 4 5 6 
#
# 1 0.010409 -0.004293 -0.002176 0.000000 0.001862 0.000000
# 2 -0.004293 0.011384 0.001263 0.000000 0.001553 0.000000
# 3 -0.002176 0.001263 0.018854 0.000000 0.007017 0.000000
# 4 0.000000 0.000000 0.000000 0.034918 0.000000 -0.000574
# 5 0.001862 0.001553 0.007017 0.000000 0.039716 0.000000
# 6 0.000000 0.000000 0.000000 -0.000574 0.000000 0.018190
#
#
# Mechanical properties :
#
#
# Convention : Reuss Voigt Hill
#
# Bulk Modulus (GPa) = 33.07479 44.77177 38.92328
# Shear Modulus (GPa) = 32.47567 37.23524 34.85545
#
# Velocity S-wave (km/s) = 3.77790 4.04528 3.91388
# Velocity P-wave (km/s) = 5.79361 6.44171 6.12624
#
# Compressibility (1/GPa) = 0.03023450
#
# Stress axis : x y z
#
# Youngs Moduli (GPa) = 96.07160 87.84406 53.03835
#
# Poissons Ratio (x) = 0.37713 0.11542
# Poissons Ratio (y) = 0.41245 -0.06700
# Poissons Ratio (z) = 0.20907 -0.11096
#
# Static dielectric constant tensor:
#      x y z
#    x 14.055910 0.000000 -4.025420 
#    y 0.000000 3.759710 0.000000 
#    z -4.025420 0.000000 5.583760 
# 
# 
# High freq. dielectric constant tensor:
#      x y z
#    x 1.920360 0.000000 -0.016560 
#    y 0.000000 1.905820 0.000000 
#    z -0.016560 0.000000 1.872770 
# 
# From -- ./inp_files/10359.got.cif
#   From: 2010.03.12/outbox.cif.g09.slc.cpg/sg14_6_cif.got.tgz:10359.got - 2010.03.31 13:35:05.
