data_PCOD8128271
_publ_section_title
;
Structure prediction by ZEFSAII (Michael W. Deem and Ramdas Pophale) SiO2 
 PCOD8128271
Probable space group: P 21/C
;
_chemical_formula_sum "Si O2"
_cell_formula_units_Z 28
_cell_length_a 14.868619
_cell_length_b 8.585979
_cell_length_c 11.507040
_cell_angle_alpha 90.000000
_cell_angle_beta 64.633934
_cell_angle_gamma 90.000000
_cell_volume 1327.379473
_symmetry_space_group_name_H-M "P 21/C"
_symmetry_group_IT_number 14
_symmetry_cell_setting 'monoclinic'
loop_
_space_group_symop_operation_xyz
x,y,z
-x,1/2+y,1/2-z
-x,-y,-z
x,1/2-y,1/2+z
loop_
_atom_site_type_symbol
_atom_site_label
_atom_site_fract_x
_atom_site_fract_y
_atom_site_fract_z
Si Si1 0.487608 0.099494 0.393081
Si Si2 0.990261 0.254673 0.006842
Si Si3 0.398572 0.422164 0.523906
Si Si4 0.869697 0.507519 0.959189
Si Si5 0.326269 0.484339 0.326497
Si Si6 0.328427 0.379227 0.807811
Si Si7 0.878198 0.985390 0.184218
O O1 0.430620 0.253964 0.461375
O O2 0.415264 0.029987 0.332019
O O3 0.500000 0.000000 0.500000
O O4 0.598313 0.105944 0.277605
O O5 0.899632 0.333127 0.984162
O O6 0.954955 0.122206 0.114855
O O7 0.037198 0.382476 0.065694
O O8 0.071508 0.181303 0.873212
O O9 0.500000 0.500000 0.500000
O O10 0.336599 0.513172 0.459128
O O11 0.326560 0.429723 0.674753
O O12 0.776011 0.575870 0.078983
O O13 0.845311 0.510720 0.836239
O O14 0.352413 0.304519 0.287927
O O15 0.215911 0.519121 0.345240
#
# Coordination Sequence:
#
# PCOD8128271 Si02
#       7
#     4   4   4   4   4   4   4
#     4  11  22  40  66  91 129 169 215 265 324 389
#     4  10  24  44  68 101 131 171 224 274 340 394
#     4  11  24  43  64  93 134 172 217 272 316 391
#     4  11  23  44  71  97 132 176 220 272 337 400
#     4  11  23  41  65  96 129 176 213 264 331 387
#     4  11  23  41  66  97 129 174 218 264 329 391
#     4  11  23  45  68 101 134 170 222 282 333 394
#
# _framework density 21.094194999999999
#
# number of rings (size 3 to 8) (size 9 to 14) (size 15 to 20)
#    0.000    1.143    4.286    1.714    2.000    1.143 
#   18.000    0.000    0.000    0.000    0.000    0.000 
#    0.000    0.000    0.000    0.000    0.000    0.000 
#
# Total GULP energy -347090.387374 kJ/mol
# GULP energy per Si atom -12396.085263 kJ/mol
# Density = 2.104618 g / cm^3
# Si number density = 21.094195 Si / 1000 Ang^3
#
#
#
# Elastic Constant Matrix: (Units=GPa)
#
#
# Indices 1 2 3 4 5 6 
#
# 1 117.0048 16.6750 46.9317 0.0000 12.1452 0.0000
# 2 16.6750 48.2451 23.6924 0.0000 3.3284 0.0000
# 3 46.9317 23.6924 163.3629 0.0000 16.3838 0.0000
# 4 0.0000 0.0000 0.0000 24.5020 0.0000 -2.6129
# 5 12.1452 3.3284 16.3838 0.0000 42.2239 0.0000
# 6 0.0000 0.0000 0.0000 -2.6129 0.0000 31.0675
#
#
#
# Elastic Compliance Matrix: (Units=1/GPa)
#
#
# Indices 1 2 3 4 5 6 
#
# 1 0.009994 -0.002163 -0.002379 0.000000 -0.001781 0.000000
# 2 -0.002163 0.022796 -0.002671 0.000000 -0.000138 0.000000
# 3 -0.002379 -0.002671 0.007390 0.000000 -0.001973 0.000000
# 4 0.000000 0.000000 0.000000 0.041182 0.000000 0.003464
# 5 -0.001781 -0.000138 -0.001973 0.000000 0.024972 0.000000
# 6 0.000000 0.000000 0.000000 0.003464 0.000000 0.032479
#
#
# Mechanical properties :
#
#
# Convention : Reuss Voigt Hill
#
# Bulk Modulus (GPa) = 38.82788 55.91233 47.37011
# Shear Modulus (GPa) = 30.89777 35.64627 33.27202
#
# Velocity S-wave (km/s) = 3.83136 4.11525 3.97584
# Velocity P-wave (km/s) = 6.16598 7.01028 6.60164
#
# Compressibility (1/GPa) = 0.02575469
#
# Stress axis : x y z
#
# Youngs Moduli (GPa) = 100.06038 43.86684 135.31958
#
# Poissons Ratio (x) = 0.09489 0.32189
# Poissons Ratio (y) = 0.21645 0.36141
# Poissons Ratio (z) = 0.23802 0.11716
#
# Static dielectric constant tensor:
#      x y z
#    x 4.172540 0.000000 0.380290 
#    y 0.000000 3.760370 0.000000 
#    z 0.380290 0.000000 3.826780 
# 
# 
# High freq. dielectric constant tensor:
#      x y z
#    x 1.838490 0.000000 0.010740 
#    y 0.000000 1.812130 0.000000 
#    z 0.010740 0.000000 1.836490 
# 
# From -- ./inp_files/31468.got.cif
#   From: 2010.03.12/outbox.cif.g09.slc.cpg/sg14_16_cif.got.tgz:31468.got - 2010.03.31 13:35:05.
