data_PCOD8128142
_publ_section_title
;
Structure prediction by ZEFSAII (Michael W. Deem and Ramdas Pophale) SiO2 
 PCOD8128142
Probable space group: P 21/C
;
_chemical_formula_sum "Si O2"
_cell_formula_units_Z 24
_cell_length_a 5.114134
_cell_length_b 21.301134
_cell_length_c 8.902322
_cell_angle_alpha 90.000000
_cell_angle_beta 78.980496
_cell_angle_gamma 90.000000
_cell_volume 951.910111
_symmetry_space_group_name_H-M "P 21/C"
_symmetry_group_IT_number 14
_symmetry_cell_setting 'monoclinic'
loop_
_space_group_symop_operation_xyz
x,y,z
-x,1/2+y,1/2-z
-x,-y,-z
x,1/2-y,1/2+z
loop_
_atom_site_type_symbol
_atom_site_label
_atom_site_fract_x
_atom_site_fract_y
_atom_site_fract_z
Si Si1 0.652840 0.901884 0.739724
Si Si2 0.297290 0.052301 0.575875
Si Si3 0.714459 0.212064 0.245548
Si Si4 0.055079 0.244182 0.958051
Si Si5 0.376010 0.314450 0.165845
Si Si6 0.905403 0.031170 0.161838
O O1 0.808719 0.918792 0.568164
O O2 0.549693 0.830481 0.745124
O O3 0.399321 0.945467 0.809520
O O4 0.889376 0.911347 0.833347
O O5 0.430974 0.111071 0.649208
O O6 0.500000 0.000000 0.500000
O O7 0.072184 0.020780 0.706240
O O8 0.931376 0.195845 0.093487
O O9 0.837704 0.208460 0.400591
O O10 0.148191 0.300612 0.313291
O O11 0.640930 0.283412 0.205640
O O12 0.290103 0.284454 0.012781
O O13 0.000000 0.000000 0.000000
#
# Coordination Sequence:
#
# PCOD8128142 Si02
#       6
#     4   4   4   4   4   4
#     4  11  25  45  74  97 146 187 240 299 370 435
#     4  10  24  47  71 101 142 196 250 297 366 452
#     4  11  24  43  69 107 142 181 241 301 378 436
#     4  10  24  41  67 110 137 184 234 303 371 452
#     4  11  23  44  73 100 146 185 239 302 382 436
#     4  11  26  46  70 105 140 191 244 304 359 435
#
# _framework density 25.212465999999999
#
# number of rings (size 3 to 8) (size 9 to 14) (size 15 to 20)
#    0.000    1.333    0.000    4.000    9.333    1.333 
#   15.000    0.000    0.000    0.000    0.000    0.000 
#    0.000    0.000    0.000    0.000    0.000    0.000 
#
# Total GULP energy -297382.369904 kJ/mol
# GULP energy per Si atom -12390.932079 kJ/mol
# Density = 2.515508 g / cm^3
# Si number density = 25.212466 Si / 1000 Ang^3
#
#
#
# Elastic Constant Matrix: (Units=GPa)
#
#
# Indices 1 2 3 4 5 6 
#
# 1 79.1648 13.1016 26.6222 0.0000 9.9036 0.0000
# 2 13.1016 119.1137 32.0544 0.0000 -2.7824 0.0000
# 3 26.6222 32.0544 141.9377 0.0000 -2.1424 0.0000
# 4 0.0000 0.0000 0.0000 34.2463 0.0000 0.7444
# 5 9.9036 -2.7824 -2.1424 0.0000 30.7439 0.0000
# 6 0.0000 0.0000 0.0000 0.7444 0.0000 38.6422
#
#
#
# Elastic Compliance Matrix: (Units=1/GPa)
#
#
# Indices 1 2 3 4 5 6 
#
# 1 0.014253 -0.001003 -0.002520 0.000000 -0.004858 0.000000
# 2 -0.001003 0.009023 -0.001834 0.000000 0.001012 0.000000
# 3 -0.002520 -0.001834 0.007950 0.000000 0.001200 0.000000
# 4 0.000000 0.000000 0.000000 0.029212 0.000000 -0.000563
# 5 -0.004858 0.001012 0.001200 0.000000 0.034267 0.000000
# 6 0.000000 0.000000 0.000000 -0.000563 0.000000 0.025889
#
#
# Mechanical properties :
#
#
# Convention : Reuss Voigt Hill
#
# Bulk Modulus (GPa) = 48.75318 53.75252 51.25285
# Shear Modulus (GPa) = 36.19334 38.62235 37.40785
#
# Velocity S-wave (km/s) = 3.79295 3.91816 3.85607
# Velocity P-wave (km/s) = 6.20974 6.46803 6.34020
#
# Compressibility (1/GPa) = 0.02051148
#
# Stress axis : x y z
#
# Youngs Moduli (GPa) = 70.16032 110.82887 125.78005
#
# Poissons Ratio (x) = 0.11116 0.31698
# Poissons Ratio (y) = 0.07037 0.23072
# Poissons Ratio (z) = 0.17681 0.20329
#
# Static dielectric constant tensor:
#      x y z
#    x 4.285030 0.000000 -0.097680 
#    y 0.000000 4.734900 0.000000 
#    z -0.097680 0.000000 5.059260 
# 
# 
# High freq. dielectric constant tensor:
#      x y z
#    x 1.989430 0.000000 -0.011510 
#    y 0.000000 1.996580 0.000000 
#    z -0.011510 0.000000 2.032360 
# 
# From -- ./inp_files/6157.got.cif
#   From: 2010.03.12/outbox.cif.g09.slc.cpg/sg14_4_cif.got.tgz:6157.got - 2010.03.31 13:35:05.
