data_PCOD8128885
_publ_section_title
;
Structure prediction by ZEFSAII (Michael W. Deem and Ramdas Pophale) SiO2 
 PCOD8128885
Probable space group: P 21/C
;
_chemical_formula_sum "Si O2"
_cell_formula_units_Z 20
_cell_length_a 9.050295
_cell_length_b 4.870020
_cell_length_c 25.961365
_cell_angle_alpha 90.000000
_cell_angle_beta 132.280413
_cell_angle_gamma 90.000000
_cell_volume 846.586254
_symmetry_space_group_name_H-M "P 21/C"
_symmetry_group_IT_number 14
_symmetry_cell_setting 'monoclinic'
loop_
_space_group_symop_operation_xyz
x,y,z
-x,1/2+y,1/2-z
-x,-y,-z
x,1/2-y,1/2+z
loop_
_atom_site_type_symbol
_atom_site_label
_atom_site_fract_x
_atom_site_fract_y
_atom_site_fract_z
Si Si1 0.861351 0.407618 0.216053
Si Si2 0.494397 0.945256 0.284634
Si Si3 0.783624 0.621108 0.940582
Si Si4 0.330923 0.881356 0.028752
Si Si5 0.642071 0.196928 0.567230
O O1 0.699460 0.425189 0.223967
O O2 0.767784 0.474762 0.137933
O O3 0.049984 0.603108 0.267919
O O4 0.520337 0.249786 0.268445
O O5 0.698933 0.869758 0.362932
O O6 0.805430 0.929660 0.967059
O O7 0.630884 0.419221 0.936211
O O8 0.000000 0.500000 0.000000
O O9 0.536682 0.050667 0.072218
O O10 0.226893 0.839384 0.948069
O O11 0.500000 0.000000 0.500000
#
# Coordination Sequence:
#
# PCOD8128885 Si02
#       5
#     4   4   4   4   4
#     4  12  29  47  74 110 150 191 248 305 367 438
#     4  12  27  50  72 102 150 198 237 296 367 439
#     4  12  26  46  73 103 142 188 243 294 358 436
#     4  11  23  42  74 101 137 174 240 290 363 411
#     4  11  24  45  77 103 141 187 233 304 368 424
#
# _framework density 23.624288
#
# number of rings (size 3 to 8) (size 9 to 14) (size 15 to 20)
#    0.000    0.400    4.000    3.000    8.400    4.800 
#    0.000    0.000    0.000    0.000    0.000    0.000 
#    0.000    0.000    0.000    0.000    0.000    0.000 
#
# Total GULP energy -247845.985349 kJ/mol
# GULP energy per Si atom -12392.299267 kJ/mol
# Density = 2.357052 g / cm^3
# Si number density = 23.624288 Si / 1000 Ang^3
#
#
#
# Elastic Constant Matrix: (Units=GPa)
#
#
# Indices 1 2 3 4 5 6 
#
# 1 69.1573 17.8978 62.9484 0.0000 -9.0647 0.0000
# 2 17.8978 92.1652 17.8577 0.0000 -11.3548 0.0000
# 3 62.9484 17.8577 138.6634 0.0000 -10.4558 0.0000
# 4 0.0000 0.0000 0.0000 36.9577 0.0000 -8.6900
# 5 -9.0647 -11.3548 -10.4558 0.0000 33.6087 0.0000
# 6 0.0000 0.0000 0.0000 -8.6900 0.0000 47.6683
#
#
#
# Elastic Compliance Matrix: (Units=1/GPa)
#
#
# Indices 1 2 3 4 5 6 
#
# 1 0.025520 -0.002491 -0.011068 0.000000 0.002598 0.000000
# 2 -0.002491 0.011762 -0.000138 0.000000 0.003259 0.000000
# 3 -0.011068 -0.000138 0.012314 0.000000 0.000799 0.000000
# 4 0.000000 0.000000 0.000000 0.028270 0.000000 0.005154
# 5 0.002598 0.003259 0.000799 0.000000 0.031805 0.000000
# 6 0.000000 0.000000 0.000000 0.005154 0.000000 0.021918
#
#
# Mechanical properties :
#
#
# Convention : Reuss Voigt Hill
#
# Bulk Modulus (GPa) = 45.04304 55.26596 50.15450
# Shear Modulus (GPa) = 30.05100 37.06572 33.55836
#
# Velocity S-wave (km/s) = 3.57043 3.96532 3.77304
# Velocity P-wave (km/s) = 6.00875 6.66404 6.34486
#
# Compressibility (1/GPa) = 0.02220099
#
# Stress axis : x y z
#
# Youngs Moduli (GPa) = 39.18556 85.01876 81.20575
#
# Poissons Ratio (x) = 0.21179 0.89881
# Poissons Ratio (y) = 0.09761 0.01122
# Poissons Ratio (z) = 0.43372 0.01175
#
# Static dielectric constant tensor:
#      x y z
#    x 4.838640 0.000000 -0.510340 
#    y 0.000000 4.859060 0.000000 
#    z -0.510340 0.000000 4.187740 
# 
# 
# High freq. dielectric constant tensor:
#      x y z
#    x 1.938070 0.000000 -0.023310 
#    y 0.000000 1.959250 0.000000 
#    z -0.023310 0.000000 1.926580 
# 
# From -- ./inp_files/75980.got.cif
#   From: 2010.03.12/outbox.cif.g09.slc.cpg/sg14_38_cif.got.tgz:75980.got - 2010.03.31 13:35:05.
