data_PCOD8128549
_publ_section_title
;
Structure prediction by ZEFSAII (Michael W. Deem and Ramdas Pophale) SiO2 
 PCOD8128549
Probable space group: P 21/C
;
_chemical_formula_sum "Si O2"
_cell_formula_units_Z 20
_cell_length_a 12.705173
_cell_length_b 4.958013
_cell_length_c 23.478620
_cell_angle_alpha 90.000000
_cell_angle_beta 139.777641
_cell_angle_gamma 90.000000
_cell_volume 955.056490
_symmetry_space_group_name_H-M "P 21/C"
_symmetry_group_IT_number 14
_symmetry_cell_setting 'monoclinic'
loop_
_space_group_symop_operation_xyz
x,y,z
-x,1/2+y,1/2-z
-x,-y,-z
x,1/2-y,1/2+z
loop_
_atom_site_type_symbol
_atom_site_label
_atom_site_fract_x
_atom_site_fract_y
_atom_site_fract_z
Si Si1 0.222129 0.345730 0.158301
Si Si2 0.319188 0.861291 0.267481
Si Si3 0.312291 0.190047 0.568811
Si Si4 0.028709 0.003345 0.225080
Si Si5 0.870136 0.298043 0.547386
O O1 0.233708 0.610099 0.201726
O O2 0.281260 0.416281 0.119775
O O3 0.035638 0.248198 0.080625
O O4 0.336230 0.109321 0.230503
O O5 0.495961 0.783997 0.364212
O O6 0.208110 0.948513 0.274653
O O7 0.233723 0.481636 0.529194
O O8 0.232852 0.977791 0.492299
O O9 0.905101 0.106961 0.125769
O O10 0.046487 0.231124 0.280433
#
# Coordination Sequence:
#
# PCOD8128549 Si02
#       5
#     4   4   4   4   4
#     4  11  21  39  61  89 127 167 189 222 292 373
#     4  11  23  39  62  91 119 159 203 236 289 359
#     4  12  22  38  60  95 129 150 187 251 295 343
#     4  11  23  44  64  80 111 161 208 249 294 353
#     4  11  23  38  61  91 119 157 201 240 292 354
#
# _framework density 20.94117
#
# number of rings (size 3 to 8) (size 9 to 14) (size 15 to 20)
#    0.000    0.800    0.000   10.800    0.000    0.000 
#    0.000    6.000    0.000    0.000    0.000    0.000 
#    0.000    0.000    0.000    0.000    0.000    0.000 
#
# Total GULP energy -248174.708344 kJ/mol
# GULP energy per Si atom -12408.735417 kJ/mol
# Density = 2.089351 g / cm^3
# Si number density = 20.941170 Si / 1000 Ang^3
#
#
#
# Elastic Constant Matrix: (Units=GPa)
#
#
# Indices 1 2 3 4 5 6 
#
# 1 100.2757 27.2625 61.2814 0.0000 13.2686 0.0000
# 2 27.2625 102.3214 16.3204 0.0000 9.1587 0.0000
# 3 61.2814 16.3204 79.9354 0.0000 17.5240 0.0000
# 4 0.0000 0.0000 0.0000 54.1610 0.0000 -7.2259
# 5 13.2686 9.1587 17.5240 0.0000 21.2639 0.0000
# 6 0.0000 0.0000 0.0000 -7.2259 0.0000 24.2816
#
#
#
# Elastic Compliance Matrix: (Units=1/GPa)
#
#
# Indices 1 2 3 4 5 6 
#
# 1 0.019593 -0.002984 -0.014662 0.000000 0.001142 0.000000
# 2 -0.002984 0.010742 0.000855 0.000000 -0.003470 0.000000
# 3 -0.014662 0.000855 0.026425 0.000000 -0.012997 0.000000
# 4 0.000000 0.000000 0.000000 0.019227 0.000000 0.005722
# 5 0.001142 -0.003470 -0.012997 0.000000 0.058520 0.000000
# 6 0.000000 0.000000 0.000000 0.005722 0.000000 0.042886
#
#
# Mechanical properties :
#
#
# Convention : Reuss Voigt Hill
#
# Bulk Modulus (GPa) = 43.14323 54.69568 48.91945
# Shear Modulus (GPa) = 22.86218 31.78583 27.32401
#
# Velocity S-wave (km/s) = 3.30772 3.90020 3.61612
# Velocity P-wave (km/s) = 5.93590 6.81598 6.39110
#
# Compressibility (1/GPa) = 0.02317861
#
# Stress axis : x y z
#
# Youngs Moduli (GPa) = 51.03887 93.08936 37.84282
#
# Poissons Ratio (x) = 0.27778 0.55485
# Poissons Ratio (y) = 0.15230 -0.03235
# Poissons Ratio (z) = 0.74832 -0.07959
#
# Static dielectric constant tensor:
#      x y z
#    x 3.639120 0.000000 0.011040 
#    y 0.000000 4.028140 0.000000 
#    z 0.011040 0.000000 3.787950 
# 
# 
# High freq. dielectric constant tensor:
#      x y z
#    x 1.808630 0.000000 0.004860 
#    y 0.000000 1.845520 0.000000 
#    z 0.004860 0.000000 1.818860 
# 
# From -- ./inp_files/50871.got.cif
#   From: 2010.03.12/outbox.cif.g09.slc.cpg/sg14_26_cif.got.tgz:50871.got - 2010.03.31 13:35:05.
