data_PCOD8128353
_publ_section_title
;
Structure prediction by ZEFSAII (Michael W. Deem and Ramdas Pophale) SiO2 
 PCOD8128353
Probable space group: P 21/C
;
_chemical_formula_sum "Si O2"
_cell_formula_units_Z 16
_cell_length_a 5.143819
_cell_length_b 7.718545
_cell_length_c 19.797380
_cell_angle_alpha 90.000000
_cell_angle_beta 113.873994
_cell_angle_gamma 90.000000
_cell_volume 718.758485
_symmetry_space_group_name_H-M "P 21/C"
_symmetry_group_IT_number 14
_symmetry_cell_setting 'monoclinic'
loop_
_space_group_symop_operation_xyz
x,y,z
-x,1/2+y,1/2-z
-x,-y,-z
x,1/2-y,1/2+z
loop_
_atom_site_type_symbol
_atom_site_label
_atom_site_fract_x
_atom_site_fract_y
_atom_site_fract_z
Si Si1 0.732459 0.115834 0.487575
Si Si2 0.319953 0.694316 0.652635
Si Si3 0.645641 0.129770 0.206717
Si Si4 0.975884 0.856404 0.878384
O O1 0.608035 0.191626 0.405174
O O2 0.825443 0.277284 0.543345
O O3 0.500000 0.000000 0.500000
O O4 0.000000 0.000000 0.500000
O O5 0.249215 0.819285 0.707772
O O6 0.596970 0.577927 0.699289
O O7 0.049693 0.565102 0.611796
O O8 0.886129 0.185552 0.179534
O O9 0.344142 0.223582 0.155855
#
# Coordination Sequence:
#
# PCOD8128353 Si02
#       4
#     4   4   4   4
#     4  12  28  43  71  99 139 181 231 281 344 412
#     4  10  27  43  71 100 140 178 232 285 347 405
#     4  10  25  41  72  98 137 179 228 282 348 403
#     4  10  25  44  68  98 139 177 229 282 348 402
#
# _framework density 22.260605000000002
#
# number of rings (size 3 to 8) (size 9 to 14) (size 15 to 20)
#    1.500    0.000    0.000    2.250   14.000    1.000 
#    0.000    0.000    0.000    0.000    0.000    0.000 
#    0.000    0.000    0.000    0.000    0.000    0.000 
#
# Total GULP energy -198320.829702 kJ/mol
# GULP energy per Si atom -12395.051856 kJ/mol
# Density = 2.220994 g / cm^3
# Si number density = 22.260605 Si / 1000 Ang^3
#
#
#
# Elastic Constant Matrix: (Units=GPa)
#
#
# Indices 1 2 3 4 5 6 
#
# 1 144.0338 42.4326 33.8724 0.0000 -19.6653 0.0000
# 2 42.4326 116.3081 73.2555 0.0000 -7.7607 0.0000
# 3 33.8724 73.2555 132.9202 0.0000 -30.8490 0.0000
# 4 0.0000 0.0000 0.0000 58.6858 0.0000 3.3447
# 5 -19.6653 -7.7607 -30.8490 0.0000 36.6709 0.0000
# 6 0.0000 0.0000 0.0000 3.3447 0.0000 30.6589
#
#
#
# Elastic Compliance Matrix: (Units=1/GPa)
#
#
# Indices 1 2 3 4 5 6 
#
# 1 0.008309 -0.003124 0.000603 0.000000 0.004301 0.000000
# 2 -0.003124 0.014865 -0.008767 0.000000 -0.005904 0.000000
# 3 0.000603 -0.008767 0.014720 0.000000 0.010851 0.000000
# 4 0.000000 0.000000 0.000000 0.017147 0.000000 -0.001871
# 5 0.004301 -0.005904 0.010851 0.000000 0.037455 0.000000
# 6 0.000000 0.000000 0.000000 -0.001871 0.000000 0.032821
#
#
# Mechanical properties :
#
#
# Convention : Reuss Voigt Hill
#
# Bulk Modulus (GPa) = 65.28488 76.93145 71.10817
# Shear Modulus (GPa) = 32.68026 41.44989 37.06508
#
# Velocity S-wave (km/s) = 3.83570 4.31980 4.08493
# Velocity P-wave (km/s) = 7.00057 7.71462 7.36626
#
# Compressibility (1/GPa) = 0.01531748
#
# Stress axis : x y z
#
# Youngs Moduli (GPa) = 120.35642 67.27112 67.93653
#
# Poissons Ratio (x) = 0.21014 -0.04094
# Poissons Ratio (y) = 0.37596 0.59559
# Poissons Ratio (z) = -0.07252 0.58975
#
# Static dielectric constant tensor:
#      x y z
#    x 3.872930 0.000000 -0.137240 
#    y 0.000000 3.912930 0.000000 
#    z -0.137240 0.000000 3.853470 
# 
# 
# High freq. dielectric constant tensor:
#      x y z
#    x 1.876580 0.000000 -0.015400 
#    y 0.000000 1.870000 0.000000 
#    z -0.015400 0.000000 1.873250 
# 
# From -- ./inp_files/52448.got.cif
#   From: 2010.03.12/outbox.cif.g09.slc.cpg/sg14_27_cif.got.tgz:52448.got - 2010.03.31 13:35:05.
