data_PCOD8128788
_publ_section_title
;
Structure prediction by ZEFSAII (Michael W. Deem and Ramdas Pophale) SiO2 
 PCOD8128788
Probable space group: P 21/C
;
_chemical_formula_sum "Si O2"
_cell_formula_units_Z 20
_cell_length_a 20.358343
_cell_length_b 5.708471
_cell_length_c 13.249204
_cell_angle_alpha 90.000000
_cell_angle_beta 145.419240
_cell_angle_gamma 90.000000
_cell_volume 873.915378
_symmetry_space_group_name_H-M "P 21/C"
_symmetry_group_IT_number 14
_symmetry_cell_setting 'monoclinic'
loop_
_space_group_symop_operation_xyz
x,y,z
-x,1/2+y,1/2-z
-x,-y,-z
x,1/2-y,1/2+z
loop_
_atom_site_type_symbol
_atom_site_label
_atom_site_fract_x
_atom_site_fract_y
_atom_site_fract_z
Si Si1 0.001087 0.748877 0.441928
Si Si2 0.239516 0.811877 0.643838
Si Si3 0.599585 0.006960 0.782257
Si Si4 0.632177 0.298646 0.010756
Si Si5 0.767871 0.630188 0.055079
O O1 0.888192 0.760060 0.228293
O O2 0.000000 0.500000 0.500000
O O3 0.110738 0.733870 0.507740
O O4 0.000000 0.000000 0.500000
O O5 0.310423 0.592950 0.688484
O O6 0.230140 0.022136 0.554291
O O7 0.313119 0.882259 0.838044
O O8 0.476133 0.938116 0.576398
O O9 0.575075 0.197390 0.837372
O O10 0.659773 0.800662 0.919944
O O11 0.743353 0.450126 0.115582
#
# Coordination Sequence:
#
# PCOD8128788 Si02
#       5
#     4   4   4   4   4
#     4  12  28  50  78 105 149 201 246 310 377 440
#     4  11  27  43  72 107 141 193 251 308 374 444
#     4  11  24  43  71 102 142 193 248 307 371 456
#     4  11  22  47  68 104 146 191 246 304 385 436
#     4  11  26  44  72 105 144 192 247 307 368 456
#
# _framework density 22.88551
#
# number of rings (size 3 to 8) (size 9 to 14) (size 15 to 20)
#    0.000    0.800    4.000    1.800    8.400    2.400 
#    0.000    0.000    0.000    0.000    0.000    0.000 
#    0.000    0.000    0.000    0.000    0.000    0.000 
#
# Total GULP energy -247832.247352 kJ/mol
# GULP energy per Si atom -12391.612368 kJ/mol
# Density = 2.283342 g / cm^3
# Si number density = 22.885510 Si / 1000 Ang^3
#
#
#
# Elastic Constant Matrix: (Units=GPa)
#
#
# Indices 1 2 3 4 5 6 
#
# 1 118.9259 26.5056 56.4088 0.0000 27.7532 0.0000
# 2 26.5056 85.2107 26.7760 0.0000 10.3592 0.0000
# 3 56.4088 26.7760 169.0893 0.0000 18.0273 0.0000
# 4 0.0000 0.0000 0.0000 42.0836 0.0000 -2.2186
# 5 27.7532 10.3592 18.0273 0.0000 37.3769 0.0000
# 6 0.0000 0.0000 0.0000 -2.2186 0.0000 19.6729
#
#
#
# Elastic Compliance Matrix: (Units=1/GPa)
#
#
# Indices 1 2 3 4 5 6 
#
# 1 0.011812 -0.001930 -0.002906 0.000000 -0.006834 0.000000
# 2 -0.001930 0.012913 -0.001236 0.000000 -0.001550 0.000000
# 3 -0.002906 -0.001236 0.007182 0.000000 -0.000963 0.000000
# 4 0.000000 0.000000 0.000000 0.023904 0.000000 0.002696
# 5 -0.006834 -0.001550 -0.000963 0.000000 0.032723 0.000000
# 6 0.000000 0.000000 0.000000 0.002696 0.000000 0.051135
#
#
# Mechanical properties :
#
#
# Convention : Reuss Voigt Hill
#
# Bulk Modulus (GPa) = 50.60082 65.84518 58.22300
# Shear Modulus (GPa) = 31.56539 37.39573 34.48056
#
# Velocity S-wave (km/s) = 3.71789 4.04671 3.88578
# Velocity P-wave (km/s) = 6.37092 7.11818 6.75489
#
# Compressibility (1/GPa) = 0.01976252
#
# Stress axis : x y z
#
# Youngs Moduli (GPa) = 84.65864 77.44321 139.23738
#
# Poissons Ratio (x) = 0.14948 0.40467
# Poissons Ratio (y) = 0.16341 0.17205
# Poissons Ratio (z) = 0.24604 0.09569
#
# Static dielectric constant tensor:
#      x y z
#    x 4.153030 0.000000 0.090960 
#    y 0.000000 4.251160 0.000000 
#    z 0.090960 0.000000 4.168320 
# 
# 
# High freq. dielectric constant tensor:
#      x y z
#    x 1.914090 0.000000 0.012420 
#    y 0.000000 1.888140 0.000000 
#    z 0.012420 0.000000 1.923980 
# 
# From -- ./inp_files/42562.got.cif
#   From: 2010.03.12/outbox.cif.g09.slc.cpg/sg14_22_cif.got.tgz:42562.got - 2010.03.31 13:35:05.
