data_PCOD8128196
_publ_section_title
;
Structure prediction by ZEFSAII (Michael W. Deem and Ramdas Pophale) SiO2 
 PCOD8128196
Probable space group: P 21/C
;
_chemical_formula_sum "Si O2"
_cell_formula_units_Z 32
_cell_length_a 31.241092
_cell_length_b 5.272702
_cell_length_c 8.943294
_cell_angle_alpha 90.000000
_cell_angle_beta 68.353682
_cell_angle_gamma 90.000000
_cell_volume 1369.292820
_symmetry_space_group_name_H-M "P 21/C"
_symmetry_group_IT_number 14
_symmetry_cell_setting 'monoclinic'
loop_
_space_group_symop_operation_xyz
x,y,z
-x,1/2+y,1/2-z
-x,-y,-z
x,1/2-y,1/2+z
loop_
_atom_site_type_symbol
_atom_site_label
_atom_site_fract_x
_atom_site_fract_y
_atom_site_fract_z
Si Si1 0.978105 0.215200 0.126923
Si Si2 0.657590 0.747182 0.718000
Si Si3 0.484872 0.571000 0.352091
Si Si4 0.618534 0.060163 0.007519
Si Si5 0.697773 0.058788 0.405754
Si Si6 0.198344 0.931044 0.706504
Si Si7 0.832345 0.934214 0.588687
Si Si8 0.064220 0.464129 0.071509
O O1 0.934461 0.154908 0.290365
O O2 0.022457 0.278414 0.175149
O O3 0.954621 0.433899 0.060839
O O4 0.000000 0.000000 0.000000
O O5 0.632154 0.538040 0.652846
O O6 0.698625 0.645987 0.771230
O O7 0.617322 0.849528 0.878731
O O8 0.682263 0.954534 0.585288
O O9 0.512832 0.812737 0.250735
O O10 0.500000 0.500000 0.500000
O O11 0.432382 0.675817 0.418203
O O12 0.658939 0.245935 0.902210
O O13 0.748906 0.168253 0.356326
O O14 0.170184 0.689423 0.806189
O O15 0.185432 0.996755 0.553238
O O16 0.193562 0.189037 0.810218
O O17 0.885553 0.844217 0.513905
#
# Coordination Sequence:
#
# PCOD8128196 Si02
#       8
#     4   4   4   4   4   4   4   4
#     4  11  23  42  66 101 134 178 239 288 350 412
#     4  10  24  42  70 106 136 183 236 304 351 427
#     4  12  29  49  76 108 155 198 246 300 369 449
#     4  11  25  43  74 103 143 188 240 298 361 425
#     4  11  25  43  75 100 144 180 250 295 363 423
#     4  12  29  50  75 109 147 199 244 308 369 448
#     4  12  29  49  76 107 154 195 246 298 383 443
#     4  11  25  41  72  98 139 183 234 296 351 433
#
# _framework density 23.369729
#
# number of rings (size 3 to 8) (size 9 to 14) (size 15 to 20)
#    0.000    0.750    1.250    4.125   17.500    0.000 
#    0.000    0.000    0.000    0.000    0.000    0.000 
#    0.000    0.000    0.000    0.000    0.000    0.000 
#
# Total GULP energy -396523.233401 kJ/mol
# GULP energy per Si atom -12391.351044 kJ/mol
# Density = 2.331654 g / cm^3
# Si number density = 23.369729 Si / 1000 Ang^3
#
#
#
# Elastic Constant Matrix: (Units=GPa)
#
#
# Indices 1 2 3 4 5 6 
#
# 1 132.8485 16.4280 41.6423 0.0000 -20.7800 0.0000
# 2 16.4280 90.5746 26.7211 0.0000 0.3093 0.0000
# 3 41.6423 26.7211 114.5892 0.0000 18.7335 0.0000
# 4 0.0000 0.0000 0.0000 4.6718 0.0000 -16.5117
# 5 -20.7800 0.3093 18.7335 0.0000 36.0132 0.0000
# 6 0.0000 0.0000 0.0000 -16.5117 0.0000 26.3149
#
#
#
# Elastic Compliance Matrix: (Units=1/GPa)
#
#
# Indices 1 2 3 4 5 6 
#
# 1 0.010584 -0.000419 -0.005189 0.000000 0.008809 0.000000
# 2 -0.000419 0.011944 -0.002816 0.000000 0.001121 0.000000
# 3 -0.005189 -0.002816 0.012847 0.000000 -0.009653 0.000000
# 4 0.000000 0.000000 0.000000 -0.175788 0.000000 -0.110301
# 5 0.008809 0.001121 -0.009653 0.000000 0.037862 0.000000
# 6 0.000000 0.000000 0.000000 -0.110301 0.000000 -0.031209
#
#
# Mechanical properties :
#
#
# Convention : Reuss Voigt Hill
#
# Bulk Modulus (GPa) = 53.97543 56.39948 55.18745
# Shear Modulus (GPa) = -45.15188 30.28137 -7.43525
#
# Velocity S-wave (km/s) = -4.40030 3.60356 -1.78563
# Velocity P-wave (km/s) = 1.63413 6.44206 4.40623
#
# Compressibility (1/GPa) = 0.01852695
#
# Stress axis : x y z
#
# Youngs Moduli (GPa) = 94.48618 83.72705 77.83844
#
# Poissons Ratio (x) = 0.03508 0.40388
# Poissons Ratio (y) = 0.03958 0.21920
# Poissons Ratio (z) = 0.49025 0.23578
#
# Static dielectric constant tensor:
#      x y z
#    x 4.262720 0.000000 -0.109530 
#    y 0.000000 5.356090 0.000000 
#    z -0.109530 0.000000 4.314260 
# 
# 
# High freq. dielectric constant tensor:
#      x y z
#    x 1.927220 0.000000 0.007980 
#    y 0.000000 1.918330 0.000000 
#    z 0.007980 0.000000 1.950620 
# 
# From -- ./inp_files/19891.got.cif
#   From: 2010.03.12/outbox.cif.g09.slc.cpg/sg14_10_cif.got.tgz:19891.got - 2010.03.31 13:35:05.
