data_PCOD8128529
_publ_section_title
;
Structure prediction by ZEFSAII (Michael W. Deem and Ramdas Pophale) SiO2 
 PCOD8128529
Probable space group: P 21/C
;
_chemical_formula_sum "Si O2"
_cell_formula_units_Z 24
_cell_length_a 29.211782
_cell_length_b 4.881949
_cell_length_c 28.049688
_cell_angle_alpha 90.000000
_cell_angle_beta 163.016071
_cell_angle_gamma 90.000000
_cell_volume 1168.465843
_symmetry_space_group_name_H-M "P 21/C"
_symmetry_group_IT_number 14
_symmetry_cell_setting 'monoclinic'
loop_
_space_group_symop_operation_xyz
x,y,z
-x,1/2+y,1/2-z
-x,-y,-z
x,1/2-y,1/2+z
loop_
_atom_site_type_symbol
_atom_site_label
_atom_site_fract_x
_atom_site_fract_y
_atom_site_fract_z
Si Si1 0.604467 0.805087 0.801875
Si Si2 0.828927 0.428355 0.385360
Si Si3 0.680279 0.626717 0.581328
Si Si4 0.824611 0.120408 0.771683
Si Si5 0.325543 0.424651 0.224936
Si Si6 0.391423 0.310748 0.590858
O O1 0.710810 0.705284 0.863646
O O2 0.448054 0.623575 0.648037
O O3 0.691889 0.760874 0.940523
O O4 0.543729 0.115569 0.734186
O O5 0.811555 0.315350 0.314575
O O6 0.717484 0.692643 0.279499
O O7 0.006231 0.506413 0.574052
O O8 0.781970 0.189753 0.375129
O O9 0.693473 0.898939 0.626321
O O10 0.505647 0.507454 0.411314
O O11 0.722211 0.713206 0.568239
O O12 0.802502 0.402685 0.721502
#
# Coordination Sequence:
#
# PCOD8128529 Si02
#       6
#     4   4   4   4   4   4
#     4   9  17  31  53  83 115 142 174 224 283 335
#     4  11  24  40  56  78 115 158 189 222 282 346
#     4  11  21  36  60  88 111 140 190 241 276 317
#     4  11  24  40  56  78 115 158 189 222 282 346
#     4  11  21  36  60  88 111 140 190 241 276 317
#     4   9  17  31  53  83 115 142 174 224 283 335
#
# _framework density 20.539753999999999
#
# number of rings (size 3 to 8) (size 9 to 14) (size 15 to 20)
#    0.000    1.667    0.000    7.000    0.000    6.667 
#    0.000    0.000    0.000    4.000    0.000    2.333 
#    0.000    0.000    0.000    0.000    0.000    0.000 
#
# Total GULP energy -297508.214844 kJ/mol
# GULP energy per Si atom -12396.175619 kJ/mol
# Density = 2.049300 g / cm^3
# Si number density = 20.539754 Si / 1000 Ang^3
#
#
#
# Elastic Constant Matrix: (Units=GPa)
#
#
# Indices 1 2 3 4 5 6 
#
# 1 103.1051 16.2428 44.5314 0.0000 -12.2255 0.0000
# 2 16.2428 80.9256 6.3182 0.0000 -3.6185 0.0000
# 3 44.5314 6.3182 42.2262 0.0000 -2.7756 0.0000
# 4 0.0000 0.0000 0.0000 25.6325 0.0000 -3.7666
# 5 -12.2255 -3.6185 -2.7756 0.0000 12.6946 0.0000
# 6 0.0000 0.0000 0.0000 -3.7666 0.0000 36.5937
#
#
#
# Elastic Compliance Matrix: (Units=1/GPa)
#
#
# Indices 1 2 3 4 5 6 
#
# 1 0.020586 -0.001872 -0.020455 0.000000 0.014819 0.000000
# 2 -0.001872 0.012803 0.000183 0.000000 0.001886 0.000000
# 3 -0.020455 0.000183 0.044576 0.000000 -0.009901 0.000000
# 4 0.000000 0.000000 0.000000 0.039612 0.000000 0.004077
# 5 0.014819 0.001886 -0.009901 0.000000 0.091418 0.000000
# 6 0.000000 0.000000 0.000000 0.004077 0.000000 0.027747
#
#
# Mechanical properties :
#
#
# Convention : Reuss Voigt Hill
#
# Bulk Modulus (GPa) = 29.69577 40.04906 34.87241
# Shear Modulus (GPa) = 17.10834 25.59512 21.35173
#
# Velocity S-wave (km/s) = 2.88920 3.53388 3.22768
# Velocity P-wave (km/s) = 5.06153 6.01596 5.55926
#
# Compressibility (1/GPa) = 0.03367484
#
# Stress axis : x y z
#
# Youngs Moduli (GPa) = 48.57783 78.10750 22.43380
#
# Poissons Ratio (x) = 0.14623 0.45889
# Poissons Ratio (y) = 0.09095 -0.00410
# Poissons Ratio (z) = 0.99366 -0.01427
#
# Static dielectric constant tensor:
#      x y z
#    x 4.192210 0.000000 -0.240880 
#    y 0.000000 3.913770 0.000000 
#    z -0.240880 0.000000 3.311110 
# 
# 
# High freq. dielectric constant tensor:
#      x y z
#    x 1.816220 0.000000 -0.019930 
#    y 0.000000 1.828860 0.000000 
#    z -0.019930 0.000000 1.748370 
# 
# From -- ./inp_files/74812.got.cif
#   From: 2010.03.12/outbox.cif.g09.slc.cpg/sg14_38_cif.got.tgz:74812.got - 2010.03.31 13:35:05.
