data_PCOD8128320
_publ_section_title
;
Structure prediction by ZEFSAII (Michael W. Deem and Ramdas Pophale) SiO2 
 PCOD8128320
Probable space group: P 21/C
;
_chemical_formula_sum "Si O2"
_cell_formula_units_Z 16
_cell_length_a 5.202495
_cell_length_b 15.251494
_cell_length_c 7.684672
_cell_angle_alpha 90.000000
_cell_angle_beta 95.065303
_cell_angle_gamma 90.000000
_cell_volume 607.365377
_symmetry_space_group_name_H-M "P 21/C"
_symmetry_group_IT_number 14
_symmetry_cell_setting 'monoclinic'
loop_
_space_group_symop_operation_xyz
x,y,z
-x,1/2+y,1/2-z
-x,-y,-z
x,1/2-y,1/2+z
loop_
_atom_site_type_symbol
_atom_site_label
_atom_site_fract_x
_atom_site_fract_y
_atom_site_fract_z
Si Si1 0.311973 0.419948 0.678524
Si Si2 0.948618 0.848340 0.529210
Si Si3 0.658002 0.919623 0.209201
Si Si4 0.528879 0.264306 0.863552
O O1 0.066100 0.408306 0.794991
O O2 0.222516 0.437267 0.475635
O O3 0.484880 0.499571 0.762334
O O4 0.490693 0.331888 0.698250
O O5 0.899654 0.907059 0.354257
O O6 0.713786 0.778105 0.520421
O O7 0.207432 0.792268 0.523810
O O8 0.465697 0.835829 0.197737
#
# Coordination Sequence:
#
# PCOD8128320 Si02
#       4
#     4   4   4   4
#     4   9  24  45  70 110 135 181 238 275 355 416
#     4  10  24  47  66 101 140 182 232 279 349 407
#     4  11  21  47  72 103 143 184 224 299 336 412
#     4  10  24  46  67 101 142 180 232 282 342 414
#
# _framework density 26.343288000000001
#
# number of rings (size 3 to 8) (size 9 to 14) (size 15 to 20)
#    1.500    0.500    0.000    2.250    0.000    5.000 
#    9.000    2.500    0.000    0.000    0.000    0.000 
#    0.000    0.000    0.000    0.000    0.000    0.000 
#
# Total GULP energy -198300.912726 kJ/mol
# GULP energy per Si atom -12393.807045 kJ/mol
# Density = 2.628333 g / cm^3
# Si number density = 26.343288 Si / 1000 Ang^3
#
#
#
# Elastic Constant Matrix: (Units=GPa)
#
#
# Indices 1 2 3 4 5 6 
#
# 1 94.9498 -12.0202 6.3058 0.0000 10.3009 0.0000
# 2 -12.0202 94.0592 -20.9546 0.0000 -16.8219 0.0000
# 3 6.3058 -20.9546 109.9474 0.0000 -15.7872 0.0000
# 4 0.0000 0.0000 0.0000 33.8690 0.0000 7.7318
# 5 10.3009 -16.8219 -15.7872 0.0000 9.0780 0.0000
# 6 0.0000 0.0000 0.0000 7.7318 0.0000 12.5913
#
#
#
# Elastic Compliance Matrix: (Units=1/GPa)
#
#
# Indices 1 2 3 4 5 6 
#
# 1 0.016277 -0.010981 -0.011462 0.000000 -0.058751 0.000000
# 2 -0.010981 0.038341 0.026560 0.000000 0.129696 0.000000
# 3 -0.011462 0.026560 0.031653 0.000000 0.117270 0.000000
# 4 0.000000 0.000000 0.000000 0.034339 0.000000 -0.021086
# 5 -0.058751 0.129696 0.117270 0.000000 0.621095 0.000000
# 6 0.000000 0.000000 0.000000 -0.021086 0.000000 0.092368
#
#
# Mechanical properties :
#
#
# Convention : Reuss Voigt Hill
#
# Bulk Modulus (GPa) = 10.58147 27.29094 18.93620
# Shear Modulus (GPa) = 5.83199 32.81601 19.32400
#
# Velocity S-wave (km/s) = 1.48951 3.53329 2.71134
# Velocity P-wave (km/s) = 2.64267 5.19882 4.12380
#
# Compressibility (1/GPa) = 0.09450484
#
# Stress axis : x y z
#
# Youngs Moduli (GPa) = 61.43738 26.08196 31.59234
#
# Poissons Ratio (x) = 0.28640 0.36212
# Poissons Ratio (y) = 0.67462 -0.83909
# Poissons Ratio (z) = 0.70421 -0.69273
#
# Static dielectric constant tensor:
#      x y z
#    x 4.073700 0.000000 -0.082360 
#    y 0.000000 4.761190 0.000000 
#    z -0.082360 0.000000 4.596750 
# 
# 
# High freq. dielectric constant tensor:
#      x y z
#    x 2.017870 0.000000 -0.006200 
#    y 0.000000 2.067120 0.000000 
#    z -0.006200 0.000000 2.061340 
# 
# From -- ./inp_files/5007.got.cif
#   From: 2010.03.12/outbox.cif.g09.slc.cpg/sg14_3_cif.got.tgz:5007.got - 2010.03.31 13:35:05.
