data_PCOD8128842
_publ_section_title
;
Structure prediction by ZEFSAII (Michael W. Deem and Ramdas Pophale) SiO2 
 PCOD8128842
Probable space group: P 21/C
;
_chemical_formula_sum "Si O2"
_cell_formula_units_Z 28
_cell_length_a 29.248610
_cell_length_b 7.574669
_cell_length_c 9.632082
_cell_angle_alpha 90.000000
_cell_angle_beta 144.322421
_cell_angle_gamma 90.000000
_cell_volume 1244.583358
_symmetry_space_group_name_H-M "P 21/C"
_symmetry_group_IT_number 14
_symmetry_cell_setting 'monoclinic'
loop_
_space_group_symop_operation_xyz
x,y,z
-x,1/2+y,1/2-z
-x,-y,-z
x,1/2-y,1/2+z
loop_
_atom_site_type_symbol
_atom_site_label
_atom_site_fract_x
_atom_site_fract_y
_atom_site_fract_z
Si Si1 0.047685 0.438202 0.251576
Si Si2 0.787400 0.640085 0.405320
Si Si3 0.898957 0.208614 0.501744
Si Si4 0.798514 0.251413 0.492121
Si Si5 0.362377 0.598968 0.327810
Si Si6 0.585247 0.420262 0.227172
Si Si7 0.690738 0.742060 0.413967
O O1 0.120226 0.308885 0.390016
O O2 0.095247 0.587588 0.447790
O O3 0.000000 0.500000 0.000000
O O4 0.987699 0.362739 0.217697
O O5 0.767222 0.431008 0.345459
O O6 0.765616 0.720610 0.499947
O O7 0.726325 0.729187 0.151974
O O8 0.843529 0.128515 0.487844
O O9 0.860770 0.180466 0.258614
O O10 0.730109 0.141246 0.393957
O O11 0.406723 0.734777 0.334900
O O12 0.399205 0.610932 0.571560
O O13 0.367498 0.401194 0.277351
O O14 0.644097 0.558687 0.302599
O O15 0.500000 0.500000 0.000000
#
# Coordination Sequence:
#
# PCOD8128842 Si02
#       7
#     4   4   4   4   4   4   4
#     4  11  24  42  61 100 140 186 238 311 361 424
#     4  11  24  43  70  99 148 184 253 302 353 444
#     4  11  23  41  66  93 142 183 240 298 369 422
#     4  11  23  44  69  99 137 194 241 301 360 431
#     4  12  26  49  80 106 153 194 237 306 366 435
#     4  12  30  50  79 116 151 191 239 301 375 453
#     4  12  26  48  75 113 140 197 253 294 367 448
#
# _framework density 22.497488000000001
#
# number of rings (size 3 to 8) (size 9 to 14) (size 15 to 20)
#    0.000    0.571    5.714    3.429    4.000    2.286 
#    0.000    0.000    0.000    0.000    0.000    0.000 
#    0.000    0.000    0.000    0.000    0.000    0.000 
#
# Total GULP energy -347153.025343 kJ/mol
# GULP energy per Si atom -12398.322334 kJ/mol
# Density = 2.244628 g / cm^3
# Si number density = 22.497488 Si / 1000 Ang^3
#
#
#
# Elastic Constant Matrix: (Units=GPa)
#
#
# Indices 1 2 3 4 5 6 
#
# 1 93.5058 12.6320 30.4724 0.0000 0.9439 0.0000
# 2 12.6320 73.6423 10.3245 0.0000 -1.0522 0.0000
# 3 30.4724 10.3245 90.7474 0.0000 2.0927 0.0000
# 4 0.0000 0.0000 0.0000 28.6598 0.0000 -2.1102
# 5 0.9439 -1.0522 2.0927 0.0000 37.6293 0.0000
# 6 0.0000 0.0000 0.0000 -2.1102 0.0000 36.6056
#
#
#
# Elastic Compliance Matrix: (Units=1/GPa)
#
#
# Indices 1 2 3 4 5 6 
#
# 1 0.012179 -0.001543 -0.003911 0.000000 -0.000131 0.000000
# 2 -0.001543 0.014003 -0.001086 0.000000 0.000491 0.000000
# 3 -0.003911 -0.001086 0.012471 0.000000 -0.000626 0.000000
# 4 0.000000 0.000000 0.000000 0.035041 0.000000 0.002020
# 5 -0.000131 0.000491 -0.000626 0.000000 0.026627 0.000000
# 6 0.000000 0.000000 0.000000 0.002020 0.000000 0.027435
#
#
# Mechanical properties :
#
#
# Convention : Reuss Voigt Hill
#
# Bulk Modulus (GPa) = 39.10434 40.52813 39.81624
# Shear Modulus (GPa) = 33.47623 34.21002 33.84313
#
# Velocity S-wave (km/s) = 3.86164 3.90374 3.88275
# Velocity P-wave (km/s) = 6.10757 6.19455 6.15122
#
# Compressibility (1/GPa) = 0.02557261
#
# Stress axis : x y z
#
# Youngs Moduli (GPa) = 82.10991 71.41279 80.18639
#
# Poissons Ratio (x) = 0.11016 0.31361
# Poissons Ratio (y) = 0.12666 0.08712
# Poissons Ratio (z) = 0.32113 0.07759
#
# Static dielectric constant tensor:
#      x y z
#    x -6.473410 0.000000 2.297890 
#    y 0.000000 4.167730 0.000000 
#    z 2.297890 0.000000 3.435610 
# 
# 
# High freq. dielectric constant tensor:
#      x y z
#    x 1.904290 0.000000 -0.002670 
#    y 0.000000 1.879380 0.000000 
#    z -0.002670 0.000000 1.884050 
# 
# From -- ./inp_files/19680.got.cif
#   From: 2010.03.12/outbox.cif.g09.slc.cpg/sg14_10_cif.got.tgz:19680.got - 2010.03.31 13:35:05.
