data_PCOD8128980
_publ_section_title
;
Structure prediction by ZEFSAII (Michael W. Deem and Ramdas Pophale) SiO2 
 PCOD8128980
Probable space group: P 21/C
;
_chemical_formula_sum "Si O2"
_cell_formula_units_Z 28
_cell_length_a 20.080011
_cell_length_b 6.835997
_cell_length_c 13.353321
_cell_angle_alpha 90.000000
_cell_angle_beta 133.414142
_cell_angle_gamma 90.000000
_cell_volume 1331.477890
_symmetry_space_group_name_H-M "P 21/C"
_symmetry_group_IT_number 14
_symmetry_cell_setting 'monoclinic'
loop_
_space_group_symop_operation_xyz
x,y,z
-x,1/2+y,1/2-z
-x,-y,-z
x,1/2-y,1/2+z
loop_
_atom_site_type_symbol
_atom_site_label
_atom_site_fract_x
_atom_site_fract_y
_atom_site_fract_z
Si Si1 0.875929 0.165770 0.423047
Si Si2 0.576407 0.223156 0.720693
Si Si3 0.977203 0.796704 0.581720
Si Si4 0.612349 0.544415 0.921177
Si Si5 0.895048 0.051393 0.116292
Si Si6 0.676656 0.216240 0.127065
Si Si7 0.304321 0.447162 0.530818
O O1 0.877173 0.250804 0.536456
O O2 0.776614 0.197292 0.275696
O O3 0.950396 0.270007 0.428110
O O4 0.899541 0.935789 0.453435
O O5 0.579099 0.410485 0.795458
O O6 0.475258 0.134632 0.614339
O O7 0.600058 0.293059 0.633586
O O8 0.648467 0.055448 0.826874
O O9 0.926681 0.607705 0.569353
O O10 0.027712 0.916161 0.721403
O O11 0.676406 0.716289 0.944249
O O12 0.671029 0.420390 0.061171
O O13 0.804167 0.980891 0.078720
O O14 0.655577 0.036532 0.030724
#
# Coordination Sequence:
#
# PCOD8128980 Si02
#       7
#     4   4   4   4   4   4   4
#     4  11  24  45  62  98 134 168 222 272 324 386
#     4  11  23  46  68  97 135 172 214 275 329 388
#     4  11  25  41  67  96 129 176 217 271 327 384
#     4  11  25  44  70  97 131 172 221 268 330 403
#     4  12  23  42  69  92 132 174 222 264 329 386
#     4  11  25  42  70  98 136 171 218 277 324 396
#     4  11  25  42  65 102 131 176 221 268 329 392
#
# _framework density 21.029264999999999
#
# number of rings (size 3 to 8) (size 9 to 14) (size 15 to 20)
#    0.000    0.857    5.714    0.857    2.000    4.000 
#    0.000    0.000    0.000    0.000    0.000    0.000 
#    0.000    0.000    0.000    0.000    0.000    0.000 
#
# Total GULP energy -347396.913506 kJ/mol
# GULP energy per Si atom -12407.032625 kJ/mol
# Density = 2.098140 g / cm^3
# Si number density = 21.029265 Si / 1000 Ang^3
#
#
#
# Elastic Constant Matrix: (Units=GPa)
#
#
# Indices 1 2 3 4 5 6 
#
# 1 70.3250 12.1298 1.5145 0.0000 -7.1033 0.0000
# 2 12.1298 78.1235 18.7090 0.0000 7.3376 0.0000
# 3 1.5145 18.7090 68.3703 0.0000 -5.2826 0.0000
# 4 0.0000 0.0000 0.0000 19.8376 0.0000 -3.0072
# 5 -7.1033 7.3376 -5.2826 0.0000 28.2199 0.0000
# 6 0.0000 0.0000 0.0000 -3.0072 0.0000 34.4415
#
#
#
# Elastic Compliance Matrix: (Units=1/GPa)
#
#
# Indices 1 2 3 4 5 6 
#
# 1 0.015203 -0.003014 0.000857 0.000000 0.004771 0.000000
# 2 -0.003014 0.014836 -0.004414 0.000000 -0.005442 0.000000
# 3 0.000857 -0.004414 0.016154 0.000000 0.004387 0.000000
# 4 0.000000 0.000000 0.000000 0.051085 0.000000 0.004460
# 5 0.004771 -0.005442 0.004387 0.000000 0.038873 0.000000
# 6 0.000000 0.000000 0.000000 0.004460 0.000000 0.029424
#
#
# Mechanical properties :
#
#
# Convention : Reuss Voigt Hill
#
# Bulk Modulus (GPa) = 30.25564 31.28060 30.76812
# Shear Modulus (GPa) = 26.35257 28.79750 27.57504
#
# Velocity S-wave (km/s) = 3.54381 3.70456 3.62507
# Velocity P-wave (km/s) = 5.58242 5.76241 5.67313
#
# Compressibility (1/GPa) = 0.03305169
#
# Stress axis : x y z
#
# Youngs Moduli (GPa) = 65.77677 67.40220 61.90431
#
# Poissons Ratio (x) = 0.20313 -0.05302
# Poissons Ratio (y) = 0.19823 0.27322
# Poissons Ratio (z) = -0.05634 0.29749
#
# Static dielectric constant tensor:
#      x y z
#    x 3.910590 0.000000 -0.099560 
#    y 0.000000 3.783520 0.000000 
#    z -0.099560 0.000000 3.785560 
# 
# 
# High freq. dielectric constant tensor:
#      x y z
#    x 1.834250 0.000000 -0.001540 
#    y 0.000000 1.823810 0.000000 
#    z -0.001540 0.000000 1.828860 
# 
# From -- ./inp_files/49718.got.cif
#   From: 2010.03.12/outbox.cif.g09.slc.cpg/sg14_25_cif.got.tgz:49718.got - 2010.03.31 13:35:05.
