data_PCOD8128692
_publ_section_title
;
Structure prediction by ZEFSAII (Michael W. Deem and Ramdas Pophale) SiO2 
 PCOD8128692
Probable space group: P 21/C
;
_chemical_formula_sum "Si O2"
_cell_formula_units_Z 24
_cell_length_a 9.067218
_cell_length_b 13.480034
_cell_length_c 8.921345
_cell_angle_alpha 90.000000
_cell_angle_beta 83.918568
_cell_angle_gamma 90.000000
_cell_volume 1084.287397
_symmetry_space_group_name_H-M "P 21/C"
_symmetry_group_IT_number 14
_symmetry_cell_setting 'monoclinic'
loop_
_space_group_symop_operation_xyz
x,y,z
-x,1/2+y,1/2-z
-x,-y,-z
x,1/2-y,1/2+z
loop_
_atom_site_type_symbol
_atom_site_label
_atom_site_fract_x
_atom_site_fract_y
_atom_site_fract_z
Si Si1 0.746987 0.757132 0.179521
Si Si2 0.037802 0.258437 0.098939
Si Si3 0.163313 0.583038 0.403705
Si Si4 0.379535 0.037986 0.722318
Si Si5 0.926293 0.049990 0.768524
Si Si6 0.318054 0.450768 0.892141
O O1 0.653370 0.859427 0.184792
O O2 0.643247 0.665737 0.137917
O O3 0.804417 0.734459 0.340176
O O4 0.908192 0.759519 0.077388
O O5 0.901057 0.186108 0.151381
O O6 0.981994 0.367593 0.145911
O O7 0.326841 0.557738 0.324223
O O8 0.175872 0.587924 0.583045
O O9 0.065775 0.494760 0.342063
O O10 0.295274 0.035091 0.571818
O O11 0.555285 0.024983 0.680655
O O12 0.835303 0.972569 0.677206
#
# Coordination Sequence:
#
# PCOD8128692 Si02
#       6
#     4   4   4   4   4   4
#     4  12  22  43  66  95 131 176 213 268 338 385
#     4  12  23  39  67 101 131 169 220 272 324 389
#     4  11  22  40  64  98 129 160 224 269 314 386
#     4  11  26  45  65  97 135 174 219 271 318 398
#     4  11  23  40  66  98 125 169 215 271 322 379
#     4  11  26  44  67  95 135 176 217 265 332 388
#
# _framework density 22.134353000000001
#
# number of rings (size 3 to 8) (size 9 to 14) (size 15 to 20)
#    0.000    0.667    6.667    1.000    2.333    3.333 
#    0.000    3.333    0.000    0.000    0.000    0.000 
#    0.000    0.000    0.000    0.000    0.000    0.000 
#
# Total GULP energy -297486.122926 kJ/mol
# GULP energy per Si atom -12395.255122 kJ/mol
# Density = 2.208397 g / cm^3
# Si number density = 22.134353 Si / 1000 Ang^3
#
#
#
# Elastic Constant Matrix: (Units=GPa)
#
#
# Indices 1 2 3 4 5 6 
#
# 1 35.9216 32.3845 27.1592 0.0000 -13.6558 0.0000
# 2 32.3845 132.2486 31.5138 0.0000 -21.1727 0.0000
# 3 27.1592 31.5138 65.4247 0.0000 -21.0352 0.0000
# 4 0.0000 0.0000 0.0000 36.3774 0.0000 -10.5369
# 5 -13.6558 -21.1727 -21.0352 0.0000 30.2402 0.0000
# 6 0.0000 0.0000 0.0000 -10.5369 0.0000 38.1118
#
#
#
# Elastic Compliance Matrix: (Units=1/GPa)
#
#
# Indices 1 2 3 4 5 6 
#
# 1 0.047539 -0.007218 -0.014143 0.000000 0.006576 0.000000
# 2 -0.007218 0.010034 -0.000806 0.000000 0.003205 0.000000
# 3 -0.014143 -0.000806 0.024872 0.000000 0.010349 0.000000
# 4 0.000000 0.000000 0.000000 0.029883 0.000000 0.008262
# 5 0.006576 0.003205 0.010349 0.000000 0.045481 0.000000
# 6 0.000000 0.000000 0.000000 0.008262 0.000000 0.028523
#
#
# Mechanical properties :
#
#
# Convention : Reuss Voigt Hill
#
# Bulk Modulus (GPa) = 26.24039 46.18999 36.21519
# Shear Modulus (GPa) = 20.54478 30.44838 25.49658
#
# Velocity S-wave (km/s) = 3.04992 3.71295 3.39765
# Velocity P-wave (km/s) = 4.92782 6.26855 5.63818
#
# Compressibility (1/GPa) = 0.03810919
#
# Stress axis : x y z
#
# Youngs Moduli (GPa) = 21.03537 99.65761 40.20588
#
# Poissons Ratio (x) = 0.71934 0.56865
# Poissons Ratio (y) = 0.15184 0.03243
# Poissons Ratio (z) = 0.29751 0.08037
#
# Static dielectric constant tensor:
#      x y z
#    x 3.589470 0.000000 -0.114030 
#    y 0.000000 3.897120 0.000000 
#    z -0.114030 0.000000 4.199400 
# 
# 
# High freq. dielectric constant tensor:
#      x y z
#    x 1.838360 0.000000 -0.007680 
#    y 0.000000 1.871040 0.000000 
#    z -0.007680 0.000000 1.889570 
# 
# From -- ./inp_files/8521.got.cif
#   From: 2010.03.12/outbox.cif.g09.slc.cpg/sg14_5_cif.got.tgz:8521.got - 2010.03.31 13:35:05.
