data_PCOD8128773
_publ_section_title
;
Structure prediction by ZEFSAII (Michael W. Deem and Ramdas Pophale) SiO2 
 PCOD8128773
Probable space group: P 21/C
;
_chemical_formula_sum "Si O2"
_cell_formula_units_Z 28
_cell_length_a 20.043928
_cell_length_b 10.081017
_cell_length_c 8.717073
_cell_angle_alpha 90.000000
_cell_angle_beta 48.328849
_cell_angle_gamma 90.000000
_cell_volume 1315.717921
_symmetry_space_group_name_H-M "P 21/C"
_symmetry_group_IT_number 14
_symmetry_cell_setting 'monoclinic'
loop_
_space_group_symop_operation_xyz
x,y,z
-x,1/2+y,1/2-z
-x,-y,-z
x,1/2-y,1/2+z
loop_
_atom_site_type_symbol
_atom_site_label
_atom_site_fract_x
_atom_site_fract_y
_atom_site_fract_z
Si Si1 0.851383 0.330735 0.083163
Si Si2 0.087439 0.923650 0.815701
Si Si3 0.260508 0.015436 0.661578
Si Si4 0.249989 0.519527 0.528657
Si Si5 0.633507 0.768207 0.082236
Si Si6 0.678076 0.285520 0.139866
Si Si7 0.512722 0.651960 0.514693
O O1 0.889015 0.201500 0.111936
O O2 0.836650 0.448202 0.232095
O O3 0.758457 0.301507 0.137544
O O4 0.923109 0.377497 0.845518
O O5 0.169810 0.027930 0.700249
O O6 0.000000 0.000000 0.000000
O O7 0.227062 0.983417 0.884166
O O8 0.316860 0.149613 0.581645
O O9 0.320599 0.899288 0.493521
O O10 0.294924 0.384425 0.512605
O O11 0.315117 0.644932 0.457283
O O12 0.597020 0.713824 0.297693
O O13 0.543764 0.823164 0.140684
O O14 0.582892 0.281532 0.371219
O O15 0.500000 0.500000 0.500000
#
# Coordination Sequence:
#
# PCOD8128773 Si02
#       7
#     4   4   4   4   4   4   4
#     4  11  22  45  74 103 135 183 228 278 359 423
#     4  11  24  47  77 106 139 171 237 288 350 432
#     4  11  23  47  67  99 138 183 232 285 356 424
#     4  12  23  43  71  96 133 191 232 273 350 422
#     4  12  28  43  64 102 142 187 241 295 348 402
#     4  11  23  40  74  94 137 190 232 285 343 422
#     4  12  27  42  64 100 144 183 245 295 339 400
#
# _framework density 21.281157
#
# number of rings (size 3 to 8) (size 9 to 14) (size 15 to 20)
#    0.000    0.571    7.143    0.857    8.000    0.571 
#    5.143    1.429    0.000    0.000    0.000    0.000 
#    0.000    0.000    0.000    0.000    0.000    0.000 
#
# Total GULP energy -347033.872285 kJ/mol
# GULP energy per Si atom -12394.066867 kJ/mol
# Density = 2.123272 g / cm^3
# Si number density = 21.281157 Si / 1000 Ang^3
#
#
#
# Elastic Constant Matrix: (Units=GPa)
#
#
# Indices 1 2 3 4 5 6 
#
# 1 62.1615 37.5691 38.0630 0.0000 1.9337 0.0000
# 2 37.5691 142.6447 52.8683 0.0000 2.4401 0.0000
# 3 38.0630 52.8683 146.6264 0.0000 4.8954 0.0000
# 4 0.0000 0.0000 0.0000 41.8860 0.0000 -8.1813
# 5 1.9337 2.4401 4.8954 0.0000 36.8230 0.0000
# 6 0.0000 0.0000 0.0000 -8.1813 0.0000 31.9357
#
#
#
# Elastic Compliance Matrix: (Units=1/GPa)
#
#
# Indices 1 2 3 4 5 6 
#
# 1 0.020977 -0.004046 -0.003976 0.000000 -0.000305 0.000000
# 2 -0.004046 0.008873 -0.002146 0.000000 -0.000090 0.000000
# 3 -0.003976 -0.002146 0.008653 0.000000 -0.000799 0.000000
# 4 0.000000 0.000000 0.000000 0.025132 0.000000 0.006438
# 5 -0.000305 -0.000090 -0.000799 0.000000 0.027285 0.000000
# 6 0.000000 0.000000 0.000000 0.006438 0.000000 0.032962
#
#
# Mechanical properties :
#
#
# Convention : Reuss Voigt Hill
#
# Bulk Modulus (GPa) = 55.04808 67.60373 61.32590
# Shear Modulus (GPa) = 33.27271 36.99108 35.13189
#
# Velocity S-wave (km/s) = 3.95838 4.17371 4.06747
# Velocity P-wave (km/s) = 6.84214 7.42040 7.13713
#
# Compressibility (1/GPa) = 0.01816594
#
# Stress axis : x y z
#
# Youngs Moduli (GPa) = 47.67212 112.70286 115.56999
#
# Poissons Ratio (x) = 0.45597 0.45956
# Poissons Ratio (y) = 0.19287 0.24801
# Poissons Ratio (z) = 0.18957 0.24186
#
# Static dielectric constant tensor:
#      x y z
#    x 3.646570 0.000000 0.221210 
#    y 0.000000 3.899150 0.000000 
#    z 0.221210 0.000000 4.252820 
# 
# 
# High freq. dielectric constant tensor:
#      x y z
#    x 1.816030 0.000000 0.020660 
#    y 0.000000 1.836510 0.000000 
#    z 0.020660 0.000000 1.845600 
# 
# From -- ./inp_files/18720.got.cif
#   From: 2010.03.12/outbox.cif.g09.slc.cpg/sg14_10_cif.got.tgz:18720.got - 2010.03.31 13:35:05.
