data_PCOD8128989
_publ_section_title
;
Structure prediction by ZEFSAII (Michael W. Deem and Ramdas Pophale) SiO2 
 PCOD8128989
Probable space group: P 21/C
;
_chemical_formula_sum "Si O2"
_cell_formula_units_Z 24
_cell_length_a 10.758539
_cell_length_b 8.850149
_cell_length_c 11.990777
_cell_angle_alpha 90.000000
_cell_angle_beta 82.429668
_cell_angle_gamma 90.000000
_cell_volume 1131.746749
_symmetry_space_group_name_H-M "P 21/C"
_symmetry_group_IT_number 14
_symmetry_cell_setting 'monoclinic'
loop_
_space_group_symop_operation_xyz
x,y,z
-x,1/2+y,1/2-z
-x,-y,-z
x,1/2-y,1/2+z
loop_
_atom_site_type_symbol
_atom_site_label
_atom_site_fract_x
_atom_site_fract_y
_atom_site_fract_z
Si Si1 0.364479 0.437669 0.042626
Si Si2 0.745525 0.920510 0.211253
Si Si3 0.815288 0.602238 0.280772
Si Si4 0.872209 0.429745 0.061844
Si Si5 0.369159 0.082687 0.009811
Si Si6 0.954753 0.391018 0.602293
O O1 0.342614 0.468289 0.176065
O O2 0.372607 0.262600 0.012905
O O3 0.500000 0.500000 0.000000
O O4 0.251795 0.516869 0.988716
O O5 0.765514 0.740643 0.212315
O O6 0.874001 0.015069 0.201950
O O7 0.687764 0.969448 0.100434
O O8 0.860256 0.471687 0.193183
O O9 0.711759 0.527805 0.374498
O O10 0.925370 0.670573 0.344781
O O11 0.880765 0.248507 0.055419
O O12 0.000000 0.500000 0.000000
O O13 0.500000 0.000000 0.000000
O O14 0.000000 0.500000 0.500000
#
# Coordination Sequence:
#
# PCOD8128989 Si02
#       6
#     4   4   4   4   4   4
#     4  11  27  45  69 104 140 180 231 286 348 420
#     4  11  24  46  68  99 138 176 230 286 342 416
#     4  11  23  46  70  99 139 182 228 293 350 413
#     4  12  25  45  70 101 144 183 229 291 353 410
#     4  11  25  44  72  99 138 183 228 284 348 415
#     4  12  24  41  73 104 136 179 236 287 347 422
#
# _framework density 21.206157999999999
#
# number of rings (size 3 to 8) (size 9 to 14) (size 15 to 20)
#    0.000    0.667    3.333    5.000    4.667    2.667 
#    0.000    0.000    0.000    0.000    0.000    0.000 
#    0.000    0.000    0.000    0.000    0.000    0.000 
#
# Total GULP energy -297637.283186 kJ/mol
# GULP energy per Si atom -12401.553466 kJ/mol
# Density = 2.115789 g / cm^3
# Si number density = 21.206158 Si / 1000 Ang^3
#
#
#
# Elastic Constant Matrix: (Units=GPa)
#
#
# Indices 1 2 3 4 5 6 
#
# 1 159.2336 52.5096 68.1513 0.0000 -17.0929 0.0000
# 2 52.5096 108.4413 61.6541 0.0000 -14.2984 0.0000
# 3 68.1513 61.6541 139.2102 0.0000 -21.2395 0.0000
# 4 0.0000 0.0000 0.0000 30.9139 0.0000 -4.6126
# 5 -17.0929 -14.2984 -21.2395 0.0000 46.9672 0.0000
# 6 0.0000 0.0000 0.0000 -4.6126 0.0000 41.4849
#
#
#
# Elastic Compliance Matrix: (Units=1/GPa)
#
#
# Indices 1 2 3 4 5 6 
#
# 1 0.008399 -0.002249 -0.002958 0.000000 0.001034 0.000000
# 2 -0.002249 0.013011 -0.004492 0.000000 0.001111 0.000000
# 3 -0.002958 -0.004492 0.011007 0.000000 0.002534 0.000000
# 4 0.000000 0.000000 0.000000 0.032894 0.000000 0.003657
# 5 0.001034 0.001111 0.002534 0.000000 0.023152 0.000000
# 6 0.000000 0.000000 0.000000 0.003657 0.000000 0.024512
#
#
# Mechanical properties :
#
#
# Convention : Reuss Voigt Hill
#
# Bulk Modulus (GPa) = 76.80543 85.72390 81.26466
# Shear Modulus (GPa) = 36.57346 38.84454 37.70900
#
# Velocity S-wave (km/s) = 4.15741 4.28455 4.22146
# Velocity P-wave (km/s) = 7.70341 8.06153 7.88450
#
# Compressibility (1/GPa) = 0.01301991
#
# Stress axis : x y z
#
# Youngs Moduli (GPa) = 119.06726 76.85911 90.84806
#
# Poissons Ratio (x) = 0.17283 0.26872
# Poissons Ratio (y) = 0.26775 0.40808
# Poissons Ratio (z) = 0.35218 0.34524
#
# Static dielectric constant tensor:
#      x y z
#    x 4.056110 0.000000 -0.035290 
#    y 0.000000 3.835030 0.000000 
#    z -0.035290 0.000000 3.997600 
# 
# 
# High freq. dielectric constant tensor:
#      x y z
#    x 1.838910 0.000000 -0.007630 
#    y 0.000000 1.829390 0.000000 
#    z -0.007630 0.000000 1.850310 
# 
# From -- ./inp_files/28099.got.cif
#   From: 2010.03.12/outbox.cif.g09.slc.cpg/sg14_15_cif.got.tgz:28099.got - 2010.03.31 13:35:05.
