data_PCOD8128840
_publ_section_title
;
Structure prediction by ZEFSAII (Michael W. Deem and Ramdas Pophale) SiO2 
 PCOD8128840
Probable space group: P 21/C
;
_chemical_formula_sum "Si O2"
_cell_formula_units_Z 20
_cell_length_a 12.044178
_cell_length_b 15.705625
_cell_length_c 13.814189
_cell_angle_alpha 90.000000
_cell_angle_beta 159.451331
_cell_angle_gamma 90.000000
_cell_volume 917.209370
_symmetry_space_group_name_H-M "P 21/C"
_symmetry_group_IT_number 14
_symmetry_cell_setting 'monoclinic'
loop_
_space_group_symop_operation_xyz
x,y,z
-x,1/2+y,1/2-z
-x,-y,-z
x,1/2-y,1/2+z
loop_
_atom_site_type_symbol
_atom_site_label
_atom_site_fract_x
_atom_site_fract_y
_atom_site_fract_z
Si Si1 0.255906 0.342155 0.357674
Si Si2 0.366431 0.983589 0.287916
Si Si3 0.481654 0.869478 0.130707
Si Si4 0.232073 0.169708 0.446700
Si Si5 0.634273 0.054079 0.318451
O O1 0.469949 0.331773 0.436849
O O2 0.168792 0.249053 0.325137
O O3 0.420732 0.385397 0.581575
O O4 0.971191 0.402040 0.094554
O O5 0.472355 0.887910 0.347108
O O6 0.500000 0.000000 0.500000
O O7 0.500789 0.049091 0.318261
O O8 0.000000 0.000000 0.000000
O O9 0.656651 0.807149 0.352097
O O10 0.646946 0.961285 0.279397
O O11 0.101874 0.880715 0.831815
#
# Coordination Sequence:
#
# PCOD8128840 Si02
#       5
#     4   4   4   4   4
#     4  12  24  41  68  98 129 171 216 270 329 381
#     4  11  23  42  66  90 128 175 213 259 316 381
#     4  11  23  44  66  91 134 170 209 273 327 380
#     4  11  25  42  62  98 131 164 216 270 321 383
#     4  11  23  41  65  97 126 168 226 262 316 401
#
# _framework density 21.805271999999999
#
# number of rings (size 3 to 8) (size 9 to 14) (size 15 to 20)
#    0.000    0.800    0.000    9.600    0.000    4.800 
#    0.000    2.000    0.000    0.000    0.000    0.000 
#    0.000    0.000    0.000    0.000    0.000    0.000 
#
# Total GULP energy -247914.871634 kJ/mol
# GULP energy per Si atom -12395.743582 kJ/mol
# Density = 2.175564 g / cm^3
# Si number density = 21.805272 Si / 1000 Ang^3
#
#
#
# Elastic Constant Matrix: (Units=GPa)
#
#
# Indices 1 2 3 4 5 6 
#
# 1 157.4603 49.5082 39.7935 0.0000 -13.4703 0.0000
# 2 49.5082 108.4373 44.6341 0.0000 4.3725 0.0000
# 3 39.7935 44.6341 151.6059 0.0000 -5.9563 0.0000
# 4 0.0000 0.0000 0.0000 32.5756 0.0000 -12.8453
# 5 -13.4703 4.3725 -5.9563 0.0000 41.4723 0.0000
# 6 0.0000 0.0000 0.0000 -12.8453 0.0000 31.7337
#
#
#
# Elastic Compliance Matrix: (Units=1/GPa)
#
#
# Indices 1 2 3 4 5 6 
#
# 1 0.007874 -0.003300 -0.000987 0.000000 0.002764 0.000000
# 2 -0.003300 0.011978 -0.002768 0.000000 -0.002732 0.000000
# 3 -0.000987 -0.002768 0.007712 0.000000 0.001079 0.000000
# 4 0.000000 0.000000 0.000000 0.036528 0.000000 0.014786
# 5 0.002764 -0.002732 0.001079 0.000000 0.025453 0.000000
# 6 0.000000 0.000000 0.000000 0.014786 0.000000 0.037497
#
#
# Mechanical properties :
#
#
# Convention : Reuss Voigt Hill
#
# Bulk Modulus (GPa) = 74.31907 76.15280 75.23594
# Shear Modulus (GPa) = 34.33178 40.06083 37.19631
#
# Velocity S-wave (km/s) = 3.97227 4.29092 4.13466
# Velocity P-wave (km/s) = 7.42937 7.71681 7.57445
#
# Compressibility (1/GPa) = 0.01345550
#
# Stress axis : x y z
#
# Youngs Moduli (GPa) = 126.99554 83.48575 129.66512
#
# Poissons Ratio (x) = 0.27554 0.12792
# Poissons Ratio (y) = 0.41914 0.35885
# Poissons Ratio (z) = 0.12529 0.23105
#
# Static dielectric constant tensor:
#      x y z
#    x 3.529620 0.000000 -0.072240 
#    y 0.000000 3.733130 0.000000 
#    z -0.072240 0.000000 3.955510 
# 
# 
# High freq. dielectric constant tensor:
#      x y z
#    x 1.878300 0.000000 -0.015530 
#    y 0.000000 1.839850 0.000000 
#    z -0.015530 0.000000 1.876650 
# 
# From -- ./inp_files/45409.got.cif
#   From: 2010.03.12/outbox.cif.g09.slc.cpg/sg14_23_cif.got.tgz:45409.got - 2010.03.31 13:35:05.
