data_PCOD8128506
_publ_section_title
;
Structure prediction by ZEFSAII (Michael W. Deem and Ramdas Pophale) SiO2 
 PCOD8128506
Probable space group: P 21/C
;
_chemical_formula_sum "Si O2"
_cell_formula_units_Z 32
_cell_length_a 11.613244
_cell_length_b 14.516354
_cell_length_c 16.429024
_cell_angle_alpha 90.000000
_cell_angle_beta 148.782110
_cell_angle_gamma 90.000000
_cell_volume 1435.486456
_symmetry_space_group_name_H-M "P 21/C"
_symmetry_group_IT_number 14
_symmetry_cell_setting 'monoclinic'
loop_
_space_group_symop_operation_xyz
x,y,z
-x,1/2+y,1/2-z
-x,-y,-z
x,1/2-y,1/2+z
loop_
_atom_site_type_symbol
_atom_site_label
_atom_site_fract_x
_atom_site_fract_y
_atom_site_fract_z
Si Si1 0.589772 0.274054 0.323424
Si Si2 0.548194 0.556751 0.859232
Si Si3 0.007553 0.826807 0.825068
Si Si4 0.619851 0.166596 0.181758
Si Si5 0.862262 0.642094 0.657634
Si Si6 0.329465 0.653909 0.878020
Si Si7 0.946143 0.038686 0.295660
Si Si8 0.373599 0.371330 0.790671
O O1 0.500741 0.373425 0.243389
O O2 0.688726 0.217535 0.306744
O O3 0.386088 0.217035 0.239258
O O4 0.772937 0.284572 0.503417
O O5 0.467808 0.597120 0.896274
O O6 0.411973 0.463080 0.759796
O O7 0.809404 0.538623 0.019092
O O8 0.868141 0.744163 0.700110
O O9 0.863531 0.873924 0.809110
O O10 0.066919 0.904271 0.795716
O O11 0.652727 0.237053 0.126562
O O12 0.780361 0.080142 0.263341
O O13 0.364024 0.133809 0.030712
O O14 0.866129 0.565348 0.730653
O O15 0.068986 0.626440 0.721103
O O16 0.425251 0.629130 0.023548
#
# Coordination Sequence:
#
# PCOD8128506 Si02
#       8
#     4   4   4   4   4   4   4   4
#     4  11  27  42  61  99 138 175 210 266 341 396
#     4  11  24  43  70 102 125 179 224 273 328 386
#     4  12  24  42  68  98 128 175 219 276 330 384
#     4  11  25  42  63  98 136 172 213 267 334 396
#     4  12  23  42  70  99 126 172 224 273 328 387
#     4  11  20  41  72  95 127 168 228 276 314 386
#     4  12  23  43  71  98 130 169 226 271 327 396
#     4  12  22  44  69  95 134 169 227 275 328 387
#
# _framework density 22.292093999999999
#
# number of rings (size 3 to 8) (size 9 to 14) (size 15 to 20)
#    0.000    0.500    6.250    2.250    1.750    2.500 
#    2.250    1.250    0.000    0.000    0.000    0.000 
#    0.000    0.000    0.000    0.000    0.000    0.000 
#
# Total GULP energy -396986.235758 kJ/mol
# GULP energy per Si atom -12405.819867 kJ/mol
# Density = 2.224136 g / cm^3
# Si number density = 22.292094 Si / 1000 Ang^3
#
#
#
# Elastic Constant Matrix: (Units=GPa)
#
#
# Indices 1 2 3 4 5 6 
#
# 1 42.3517 4.0483 2.3215 0.0000 2.6485 0.0000
# 2 4.0483 85.4290 2.0106 0.0000 -1.5447 0.0000
# 3 2.3215 2.0106 41.7875 0.0000 12.4395 0.0000
# 4 0.0000 0.0000 0.0000 29.6494 0.0000 5.5960
# 5 2.6485 -1.5447 12.4395 0.0000 29.5650 0.0000
# 6 0.0000 0.0000 0.0000 5.5960 0.0000 28.3689
#
#
#
# Elastic Compliance Matrix: (Units=1/GPa)
#
#
# Indices 1 2 3 4 5 6 
#
# 1 0.023879 -0.001149 -0.000705 0.000000 -0.001903 0.000000
# 2 -0.001149 0.011799 -0.000821 0.000000 0.001065 0.000000
# 3 -0.000705 -0.000821 0.027440 0.000000 -0.011525 0.000000
# 4 0.000000 0.000000 0.000000 0.035032 0.000000 -0.006910
# 5 -0.001903 0.001065 -0.011525 0.000000 0.038899 0.000000
# 6 0.000000 0.000000 0.000000 -0.006910 0.000000 0.036613
#
#
# Mechanical properties :
#
#
# Convention : Reuss Voigt Hill
#
# Bulk Modulus (GPa) = 17.31066 20.70321 19.00694
# Shear Modulus (GPa) = 25.21838 28.26252 26.74045
#
# Velocity S-wave (km/s) = 3.36708 3.56452 3.46721
# Velocity P-wave (km/s) = 4.78525 5.12333 4.95717
#
# Compressibility (1/GPa) = 0.05776787
#
# Stress axis : x y z
#
# Youngs Moduli (GPa) = 41.87727 84.75534 36.44294
#
# Poissons Ratio (x) = 0.09742 0.02569
# Poissons Ratio (y) = 0.04813 0.02991
# Poissons Ratio (z) = 0.02952 0.06957
#
# Static dielectric constant tensor:
#      x y z
#    x 3.920120 0.000000 0.145360 
#    y 0.000000 4.265900 0.000000 
#    z 0.145360 0.000000 3.826820 
# 
# 
# High freq. dielectric constant tensor:
#      x y z
#    x 1.874160 0.000000 0.013480 
#    y 0.000000 1.890390 0.000000 
#    z 0.013480 0.000000 1.867290 
# 
# From -- ./inp_files/34165.got.cif
#   From: 2010.03.12/outbox.cif.g09.slc.cpg/sg14_18_cif.got.tgz:34165.got - 2010.03.31 13:35:05.
