data_PCOD8128929
_publ_section_title
;
Structure prediction by ZEFSAII (Michael W. Deem and Ramdas Pophale) SiO2 
 PCOD8128929
Probable space group: P 21/C
;
_chemical_formula_sum "Si O2"
_cell_formula_units_Z 20
_cell_length_a 14.286621
_cell_length_b 11.607675
_cell_length_c 11.474873
_cell_angle_alpha 90.000000
_cell_angle_beta 31.583726
_cell_angle_gamma 90.000000
_cell_volume 996.647732
_symmetry_space_group_name_H-M "P 21/C"
_symmetry_group_IT_number 14
_symmetry_cell_setting 'monoclinic'
loop_
_space_group_symop_operation_xyz
x,y,z
-x,1/2+y,1/2-z
-x,-y,-z
x,1/2-y,1/2+z
loop_
_atom_site_type_symbol
_atom_site_label
_atom_site_fract_x
_atom_site_fract_y
_atom_site_fract_z
Si Si1 0.266890 0.398212 0.499100
Si Si2 0.546690 0.160584 0.901787
Si Si3 0.089012 0.528549 0.025536
Si Si4 0.542623 0.419013 0.846497
Si Si5 0.328644 0.348105 0.858453
O O1 0.390006 0.382900 0.482604
O O2 0.305792 0.516871 0.389661
O O3 0.301810 0.288828 0.380180
O O4 0.056036 0.399287 0.748610
O O5 0.729219 0.098473 0.677946
O O6 0.599183 0.294871 0.835124
O O7 0.483418 0.125938 0.098775
O O8 0.139455 0.407036 0.030846
O O9 0.000000 0.500000 0.000000
O O10 0.377580 0.396901 0.934083
O O11 0.500000 0.500000 0.000000
#
# Coordination Sequence:
#
# PCOD8128929 Si02
#       5
#     4   4   4   4   4
#     4  11  24  43  66  98 134 171 220 278 322 391
#     4  11  23  45  69  96 128 180 219 267 338 388
#     4  12  24  41  70  98 130 172 224 271 329 393
#     4  11  23  44  69  94 135 176 216 273 333 388
#     4  11  23  44  67  96 136 167 225 273 324 401
#
# _framework density 20.067271000000002
#
# number of rings (size 3 to 8) (size 9 to 14) (size 15 to 20)
#    0.000    0.800    6.000    1.800    2.800    0.000 
#    3.600    1.000    0.000    0.000    0.000    0.000 
#    0.000    0.000    0.000    0.000    0.000    0.000 
#
# Total GULP energy -247929.436752 kJ/mol
# GULP energy per Si atom -12396.471838 kJ/mol
# Density = 2.002160 g / cm^3
# Si number density = 20.067271 Si / 1000 Ang^3
#
#
#
# Elastic Constant Matrix: (Units=GPa)
#
#
# Indices 1 2 3 4 5 6 
#
# 1 93.1944 42.2813 33.9622 0.0000 -3.1370 0.0000
# 2 42.2813 112.8873 38.2767 0.0000 -6.3555 0.0000
# 3 33.9622 38.2767 124.3851 0.0000 -12.3796 0.0000
# 4 0.0000 0.0000 0.0000 34.4603 0.0000 7.5100
# 5 -3.1370 -6.3555 -12.3796 0.0000 36.7195 0.0000
# 6 0.0000 0.0000 0.0000 7.5100 0.0000 32.7547
#
#
#
# Elastic Compliance Matrix: (Units=1/GPa)
#
#
# Indices 1 2 3 4 5 6 
#
# 1 0.013537 -0.004272 -0.002421 0.000000 -0.000399 0.000000
# 2 -0.004272 0.011256 -0.002214 0.000000 0.000837 0.000000
# 3 -0.002421 -0.002214 0.009647 0.000000 0.002662 0.000000
# 4 0.000000 0.000000 0.000000 0.030545 0.000000 -0.007003
# 5 -0.000399 0.000837 0.002662 0.000000 0.028242 0.000000
# 6 0.000000 0.000000 0.000000 -0.007003 0.000000 0.032136
#
#
# Mechanical properties :
#
#
# Convention : Reuss Voigt Hill
#
# Bulk Modulus (GPa) = 60.14752 62.16747 61.15750
# Shear Modulus (GPa) = 33.62024 35.18335 34.40179
#
# Velocity S-wave (km/s) = 4.09758 4.19175 4.14493
# Velocity P-wave (km/s) = 7.24050 7.38068 7.31093
#
# Compressibility (1/GPa) = 0.01662579
#
# Stress axis : x y z
#
# Youngs Moduli (GPa) = 73.87004 88.83965 103.65878
#
# Poissons Ratio (x) = 0.37950 0.25100
# Poissons Ratio (y) = 0.31555 0.22952
# Poissons Ratio (z) = 0.17887 0.19671
#
# Static dielectric constant tensor:
#      x y z
#    x 3.704030 0.000000 -0.000950 
#    y 0.000000 4.090690 0.000000 
#    z -0.000950 0.000000 3.971720 
# 
# 
# High freq. dielectric constant tensor:
#      x y z
#    x 1.783170 0.000000 0.011130 
#    y 0.000000 1.807940 0.000000 
#    z 0.011130 0.000000 1.774450 
# 
# From -- ./inp_files/23514.got.cif
#   From: 2010.03.12/outbox.cif.g09.slc.cpg/sg14_12_cif.got.tgz:23514.got - 2010.03.31 13:35:05.
