data_PCOD8128716
_publ_section_title
;
Structure prediction by ZEFSAII (Michael W. Deem and Ramdas Pophale) SiO2 
 PCOD8128716
Probable space group: P 21/C
;
_chemical_formula_sum "Si O2"
_cell_formula_units_Z 32
_cell_length_a 8.967084
_cell_length_b 11.654304
_cell_length_c 13.720691
_cell_angle_alpha 90.000000
_cell_angle_beta 84.449348
_cell_angle_gamma 90.000000
_cell_volume 1427.159136
_symmetry_space_group_name_H-M "P 21/C"
_symmetry_group_IT_number 14
_symmetry_cell_setting 'monoclinic'
loop_
_space_group_symop_operation_xyz
x,y,z
-x,1/2+y,1/2-z
-x,-y,-z
x,1/2-y,1/2+z
loop_
_atom_site_type_symbol
_atom_site_label
_atom_site_fract_x
_atom_site_fract_y
_atom_site_fract_z
Si Si1 0.606543 0.989964 0.402508
Si Si2 0.534712 0.549274 0.284076
Si Si3 0.134397 0.913556 0.497251
Si Si4 0.741534 0.750880 0.346271
Si Si5 0.759004 0.366714 0.221932
Si Si6 0.225274 0.608727 0.331871
Si Si7 0.976529 0.682690 0.491348
Si Si8 0.066101 0.398243 0.297396
O O1 0.628144 0.854910 0.376072
O O2 0.500000 0.000000 0.500000
O O3 0.534249 0.064066 0.319864
O O4 0.762750 0.048997 0.420229
O O5 0.653625 0.646275 0.303168
O O6 0.612279 0.423337 0.281959
O O7 0.387822 0.564453 0.363073
O O8 0.227829 0.909325 0.390330
O O9 0.060572 0.793069 0.527711
O O10 0.000000 0.000000 0.500000
O O11 0.866896 0.787547 0.260349
O O12 0.829769 0.711702 0.437206
O O13 0.751820 0.229118 0.225703
O O14 0.896775 0.415374 0.274933
O O15 0.101600 0.613106 0.424023
O O16 0.164243 0.510578 0.261065
O O17 0.921251 0.611049 0.586957
#
# Coordination Sequence:
#
# PCOD8128716 Si02
#       8
#     4   4   4   4   4   4   4   4
#     4  12  25  45  72 109 151 193 255 312 377 447
#     4  12  27  44  75 103 156 192 234 310 391 437
#     4  11  22  41  71 105 140 184 253 312 359 424
#     4  12  26  48  71 114 152 194 257 312 363 462
#     4  11  25  46  71 109 145 193 247 307 372 451
#     4  11  25  48  67 106 152 185 248 308 369 454
#     4  11  26  46  74 108 146 196 249 316 368 450
#     4  12  25  46  79 103 148 201 249 306 384 430
#
# _framework density 22.422167999999999
#
# number of rings (size 3 to 8) (size 9 to 14) (size 15 to 20)
#    0.000    0.500    6.250    1.875    7.000    0.000 
#    0.000    2.500    0.000    0.000    0.000    0.000 
#    0.000    0.000    0.000    0.000    0.000    0.000 
#
# Total GULP energy -396761.922033 kJ/mol
# GULP energy per Si atom -12398.810064 kJ/mol
# Density = 2.237113 g / cm^3
# Si number density = 22.422168 Si / 1000 Ang^3
#
#
#
# Elastic Constant Matrix: (Units=GPa)
#
#
# Indices 1 2 3 4 5 6 
#
# 1 127.9291 49.6582 32.7740 0.0000 20.0283 0.0000
# 2 49.6582 126.8780 39.3863 0.0000 15.1314 0.0000
# 3 32.7740 39.3863 91.1848 0.0000 18.8127 0.0000
# 4 0.0000 0.0000 0.0000 27.1709 0.0000 -1.4502
# 5 20.0283 15.1314 18.8127 0.0000 40.5252 0.0000
# 6 0.0000 0.0000 0.0000 -1.4502 0.0000 47.0419
#
#
#
# Elastic Compliance Matrix: (Units=1/GPa)
#
#
# Indices 1 2 3 4 5 6 
#
# 1 0.009868 -0.002998 -0.001633 0.000000 -0.003000 0.000000
# 2 -0.002998 0.010125 -0.003120 0.000000 -0.000850 0.000000
# 3 -0.001633 -0.003120 0.013818 0.000000 -0.004442 0.000000
# 4 0.000000 0.000000 0.000000 0.036865 0.000000 0.001136
# 5 -0.003000 -0.000850 -0.004442 0.000000 0.028538 0.000000
# 6 0.000000 0.000000 0.000000 0.001136 0.000000 0.021293
#
#
# Mechanical properties :
#
#
# Convention : Reuss Voigt Hill
#
# Bulk Modulus (GPa) = 54.61870 65.51431 60.06650
# Shear Modulus (GPa) = 35.18331 37.89251 36.53791
#
# Velocity S-wave (km/s) = 3.96552 4.11537 4.04114
# Velocity P-wave (km/s) = 6.73641 7.20164 6.97291
#
# Compressibility (1/GPa) = 0.01830875
#
# Stress axis : x y z
#
# Youngs Moduli (GPa) = 101.33280 98.76640 72.36853
#
# Poissons Ratio (x) = 0.29606 0.11820
# Poissons Ratio (y) = 0.30376 0.22582
# Poissons Ratio (z) = 0.16551 0.30820
#
# Static dielectric constant tensor:
#      x y z
#    x 4.245560 0.000000 -0.200380 
#    y 0.000000 4.085390 0.000000 
#    z -0.200380 0.000000 3.632160 
# 
# 
# High freq. dielectric constant tensor:
#      x y z
#    x 1.904410 0.000000 -0.000100 
#    y 0.000000 1.892700 0.000000 
#    z -0.000100 0.000000 1.869960 
# 
# From -- ./inp_files/40064.got.cif
#   From: 2010.03.12/outbox.cif.g09.slc.cpg/sg14_21_cif.got.tgz:40064.got - 2010.03.31 13:35:05.
