data_PCOD8129599
_publ_section_title
;
Structure prediction by ZEFSAII (Michael W. Deem and Ramdas Pophale) SiO2 
 PCOD8129599
Probable space group: C 2/C
;
_chemical_formula_sum "Si O2"
_cell_formula_units_Z 28
_cell_length_a 15.000000
_cell_length_b 12.000000
_cell_length_c 30.000000
_cell_angle_alpha 90.000000
_cell_angle_beta 30.000000
_cell_angle_gamma 90.000000
_cell_volume 2700.000000
_symmetry_space_group_name_H-M "C 2/C"
_symmetry_group_IT_number 15
_symmetry_cell_setting 'monoclinic'
loop_
_space_group_symop_operation_xyz
x,y,z
-x,y,1/2-z
-x,-y,-z
x,-y,1/2+z
1/2+x,1/2+y,z
1/2-x,1/2+y,1/2-z
1/2-x,1/2-y,-z
1/2+x,1/2-y,1/2+z
loop_
_atom_site_type_symbol
_atom_site_label
_atom_site_fract_x
_atom_site_fract_y
_atom_site_fract_z
Si Si1 0.894860 0.024760 0.410732
Si Si2 0.609232 0.300718 0.406827
Si Si3 0.097751 0.189571 0.814046
Si Si4 0.597944 0.112221 0.475744
Si Si5 0.115141 0.201013 0.374249
Si Si6 0.279605 0.863477 0.945726
Si Si7 0.192200 0.512773 0.151652
O O1 0.778810 0.079094 0.422237
O O2 0.980527 0.125582 0.402807
O O3 0.762106 0.943737 0.494903
O O4 0.045604 0.939771 0.325566
O O5 0.693172 0.308940 0.321080
O O6 0.664553 0.183598 0.404578
O O7 0.395902 0.304369 0.497320
O O8 0.674802 0.407492 0.406801
O O9 0.237428 0.235273 0.718545
O O10 0.921525 0.267025 0.895248
O O11 0.481901 0.199128 0.556363
O O12 0.500000 0.000000 0.500000
O O13 0.222175 0.116630 0.359266
O O14 0.355678 0.947865 0.876800
O O15 0.000000 0.470822 0.250000
#
# Coordination Sequence:
#
# PCOD8129599 Si02
#       7
#     8   8   8   8   8   8   8
#     4  11  25  44  67 102 136 184 230 280 349 414
#     4  11  23  43  66  98 135 176 229 280 336 411
#     4  11  24  42  70  99 139 183 231 281 346 410
#     4  12  26  45  71 102 138 179 228 283 351 411
#     4  12  25  46  68 101 140 180 230 289 345 409
#     4  11  20  40  70  94 133 181 230 273 330 415
#     4  12  23  40  70 100 132 176 233 282 336 396
#
# _framework density 10.370369999999999
#
# number of rings (size 3 to 8) (size 9 to 14) (size 15 to 20)
#    0.000    0.571    5.714    5.143    0.000    4.571 
#    0.000    1.429    0.000    0.000    0.000    0.000 
#    0.000    0.000    0.000    0.000    0.000    0.000 
#
# Total GULP energy -347026.436384 kJ/mol
# GULP energy per Si atom -12393.801299 kJ/mol
# Density = 1.034677 g / cm^3
# Si number density = 10.370370 Si / 1000 Ang^3
#
#
#
# Elastic Constant Matrix: (Units=GPa)
#
#
# Indices 1 2 3 4 5 6 
#
# 1 97.2354 60.5634 20.0281 0.0011 -13.0825 -0.0002
# 2 60.5634 184.8474 41.6271 -0.0008 -1.8180 0.0002
# 3 20.0281 41.6271 71.0409 -0.0079 -3.9004 0.0001
# 4 0.0011 -0.0008 -0.0079 32.6441 -0.0005 1.4336
# 5 -13.0825 -1.8180 -3.9004 -0.0005 21.8659 0.0001
# 6 -0.0002 0.0002 0.0001 1.4336 0.0001 58.1611
#
#
#
# Elastic Compliance Matrix: (Units=1/GPa)
#
#
# Indices 1 2 3 4 5 6 
#
# 1 0.014298 -0.004374 -0.001028 -0.000001 0.008007 0.000000
# 2 -0.004374 0.007571 -0.003345 -0.000001 -0.002584 0.000000
# 3 -0.001028 -0.003345 0.016438 0.000004 0.002039 0.000000
# 4 -0.000001 -0.000001 0.000004 0.030667 0.000001 -0.000756
# 5 0.008007 -0.002584 0.002039 0.000001 0.050673 0.000000
# 6 0.000000 0.000000 0.000000 -0.000756 0.000000 0.017212
#
#
# Mechanical properties :
#
#
# Convention : Reuss Voigt Hill
#
# Bulk Modulus (GPa) = 48.04834 66.39566 57.22200
# Shear Modulus (GPa) = 30.99983 37.92790 34.46386
#
# Velocity S-wave (km/s) = 3.87024 4.28093 4.08076
# Velocity P-wave (km/s) = 6.57177 7.51777 7.06063
#
# Compressibility (1/GPa) = 0.02081238
#
# Stress axis : x y z
#
# Youngs Moduli (GPa) = 69.93983 132.08440 60.83390
#
# Poissons Ratio (x) = 0.57778 0.06255
# Poissons Ratio (y) = 0.30594 0.20348
# Poissons Ratio (z) = 0.07191 0.44181
#
# Static dielectric constant tensor:
#      x y z
#    x 4.076270 0.000000 0.092300 
#    y 0.000000 4.224960 0.000000 
#    z 0.092300 0.000000 3.729180 
# 
# 
# High freq. dielectric constant tensor:
#      x y z
#    x 1.825040 0.000000 0.000160 
#    y 0.000000 1.845850 0.000000 
#    z 0.000160 0.000000 1.804130 
# 
# From -- ./inp_files/181923.got.cif
#   From: 2010.06.25/outbox.ucp.g09.slc.cvg/sg15_91_cif.got.tgz:181923.got - 2010.06.28 14:40:10.
