data_PCOD8129604
_publ_section_title
;
Structure prediction by ZEFSAII (Michael W. Deem and Ramdas Pophale) SiO2 
 PCOD8129604
Probable space group: C 2/C
;
_chemical_formula_sum "Si O2"
_cell_formula_units_Z 28
_cell_length_a 24.000000
_cell_length_b 15.000000
_cell_length_c 24.000000
_cell_angle_alpha 90.000000
_cell_angle_beta 160.000000
_cell_angle_gamma 90.000000
_cell_volume 2955.054038
_symmetry_space_group_name_H-M "C 2/C"
_symmetry_group_IT_number 15
_symmetry_cell_setting 'monoclinic'
loop_
_space_group_symop_operation_xyz
x,y,z
-x,y,1/2-z
-x,-y,-z
x,-y,1/2+z
1/2+x,1/2+y,z
1/2-x,1/2+y,1/2-z
1/2-x,1/2-y,-z
1/2+x,1/2-y,1/2+z
loop_
_atom_site_type_symbol
_atom_site_label
_atom_site_fract_x
_atom_site_fract_y
_atom_site_fract_z
Si Si1 0.655853 0.076907 0.095508
Si Si2 0.143060 0.905577 0.513634
Si Si3 0.198451 0.766458 0.181820
Si Si4 0.777436 0.462932 0.234066
Si Si5 0.809115 0.351823 0.560111
Si Si6 0.905692 0.268545 0.472028
Si Si7 0.231386 0.073392 0.867433
O O1 0.689362 0.184304 0.128974
O O2 0.739948 0.026043 0.227557
O O3 0.732756 0.030679 0.112682
O O4 0.465163 0.062416 0.908000
O O5 0.230932 0.908209 0.536717
O O6 0.181525 0.808298 0.574673
O O7 0.951138 0.909837 0.323658
O O8 0.212527 0.982947 0.619146
O O9 0.172630 0.869088 0.135831
O O10 0.376591 0.764557 0.377350
O O11 0.099442 0.746805 0.147354
O O12 0.750000 0.250000 0.500000
O O13 0.758457 0.406282 0.457603
O O14 0.000000 0.350026 0.750000
O O15 0.859057 0.365270 0.452456
#
# Coordination Sequence:
#
# PCOD8129604 Si02
#       7
#     8   8   8   8   8   8   8
#     4  11  22  38  59  88 125 164 203 252 305 365
#     4  12  25  39  62  90 124 162 207 254 303 367
#     4  12  23  38  57  90 128 165 204 242 307 363
#     4  11  23  38  60  88 123 165 205 250 307 362
#     4  12  26  42  64  89 122 162 205 252 307 364
#     4  12  22  35  58  89 127 162 199 248 296 368
#     4  12  25  40  61  91 123 163 206 254 306 362
#
# _framework density 9.4752919999999996
#
# number of rings (size 3 to 8) (size 9 to 14) (size 15 to 20)
#    0.000    0.286    7.143    3.000    4.000    1.143 
#    0.000    0.000    0.000    0.857    0.000    0.000 
#    0.000    0.000    0.000    0.000    0.000    0.000 
#
# Total GULP energy -346924.218325 kJ/mol
# GULP energy per Si atom -12390.150654 kJ/mol
# Density = 0.945373 g / cm^3
# Si number density = 9.475292 Si / 1000 Ang^3
#
#
#
# Elastic Constant Matrix: (Units=GPa)
#
#
# Indices 1 2 3 4 5 6 
#
# 1 110.6853 58.8893 37.1268 -0.0184 -12.8849 0.0030
# 2 58.8893 149.7347 37.2235 -0.0663 -9.9438 -0.0182
# 3 37.1268 37.2235 77.6747 -0.1006 -14.6932 -0.0321
# 4 -0.0184 -0.0663 -0.1006 27.9731 -0.0311 -2.5293
# 5 -12.8849 -9.9438 -14.6932 -0.0311 35.2740 -0.0052
# 6 0.0030 -0.0182 -0.0321 -2.5293 -0.0052 38.4976
#
#
#
# Elastic Compliance Matrix: (Units=1/GPa)
#
#
# Indices 1 2 3 4 5 6 
#
# 1 0.012598 -0.003883 -0.003797 -0.000013 0.001926 -0.000007
# 2 -0.003883 0.008794 -0.002342 0.000010 0.000085 0.000003
# 3 -0.003797 -0.002342 0.016743 0.000059 0.004927 0.000018
# 4 -0.000013 0.000010 0.000059 0.035963 0.000055 0.002363
# 5 0.001926 0.000085 0.004927 0.000055 0.031129 0.000012
# 6 -0.000007 0.000003 0.000018 0.002363 0.000012 0.026131
#
#
# Mechanical properties :
#
#
# Convention : Reuss Voigt Hill
#
# Bulk Modulus (GPa) = 55.27315 67.17489 61.22402
# Shear Modulus (GPa) = 31.75981 34.00596 32.88288
#
# Velocity S-wave (km/s) = 4.09825 4.24070 4.17008
# Velocity P-wave (km/s) = 7.18502 7.71378 7.45409
#
# Compressibility (1/GPa) = 0.01809197
#
# Stress axis : x y z
#
# Youngs Moduli (GPa) = 79.37621 113.72030 59.72520
#
# Poissons Ratio (x) = 0.44159 0.22675
# Poissons Ratio (y) = 0.30822 0.13987
# Poissons Ratio (z) = 0.30135 0.26633
#
# Static dielectric constant tensor:
#      x y z
#    x 3.576810 -0.000040 -0.045470 
#    y -0.000040 3.814950 -0.000020 
#    z -0.045470 -0.000020 3.727440 
# 
# 
# High freq. dielectric constant tensor:
#      x y z
#    x 1.711550 0.000000 0.002090 
#    y 0.000000 1.744500 0.000000 
#    z 0.002090 0.000000 1.770040 
# 
# From -- ./inp_files/61616.got.cif
#   From: 2010.06.25/outbox.ucp.g09.slc.cvg/sg15_31_cif.got.tgz:61616.got - 2010.06.28 14:40:10.
