data_PCOD8129913
_publ_section_title
;
Structure prediction by ZEFSAII (Michael W. Deem and Ramdas Pophale) SiO2 
 PCOD8129913
Probable space group: C 2/C
;
_chemical_formula_sum "Si O2"
_cell_formula_units_Z 60
_cell_length_a 15.681609
_cell_length_b 10.922242
_cell_length_c 18.970784
_cell_angle_alpha 90.000000
_cell_angle_beta 79.561002
_cell_angle_gamma 90.000000
_cell_volume 3195.503236
_symmetry_space_group_name_H-M "C 2/C"
_symmetry_group_IT_number 15
_symmetry_cell_setting 'monoclinic'
loop_
_space_group_symop_operation_xyz
x,y,z
-x,y,1/2-z
-x,-y,-z
x,-y,1/2+z
1/2+x,1/2+y,z
1/2-x,1/2+y,1/2-z
1/2-x,1/2-y,-z
1/2+x,1/2-y,1/2+z
loop_
_atom_site_type_symbol
_atom_site_label
_atom_site_fract_x
_atom_site_fract_y
_atom_site_fract_z
Si Si1 0.368732 0.045269 0.037195
Si Si2 0.063567 0.048365 0.805211
Si Si3 0.991507 0.382726 0.096971
Si Si4 0.000000 0.354559 0.250000
Si Si5 0.552836 0.384271 0.592975
Si Si6 0.178633 0.235731 0.855131
Si Si7 0.647853 0.334114 0.719352
Si Si8 0.786242 0.118254 0.517144
O O1 0.365919 0.163545 0.088164
O O2 0.398950 0.930740 0.080884
O O3 0.433512 0.063374 0.962713
O O4 0.275763 0.019178 0.012868
O O5 0.105411 0.178787 0.816101
O O6 0.000000 0.069005 0.750000
O O7 0.137172 0.950259 0.772258
O O8 0.009822 0.998123 0.880834
O O9 0.009257 0.430468 0.175367
O O10 0.993103 0.235742 0.093705
O O11 0.083771 0.271948 0.254753
O O12 0.624035 0.367050 0.643192
O O13 0.612639 0.407578 0.515888
O O14 0.252387 0.292440 0.793986
O O15 0.217770 0.123337 0.896942
O O16 0.750000 0.250000 0.500000
#
# Coordination Sequence:
#
# PCOD8129913 Si02
#       8
#     8   8   8   4   8   8   8   8
#     4  10  20  33  55  85 112 145 181 236 281 321
#     4  10  22  38  55  78 116 148 183 232 280 337
#     4  10  18  33  56  83 112 142 185 234 274 325
#     4  10  18  34  58  86 106 142 198 230 264 334
#     4  10  16  35  58  77 101 144 187 225 269 324
#     4  11  21  34  58  85 109 144 191 232 277 333
#     4  10  17  33  56  79 104 142 187 227 266 319
#     4  10  16  32  57  80 103 134 194 231 260 324
#
# _framework density 18.776385999999999
#
# number of rings (size 3 to 8) (size 9 to 14) (size 15 to 20)
#    0.000    1.867    8.667    0.800    0.000    1.600 
#    1.200    0.000    2.933    0.800    0.000    0.000 
#    0.000    0.000    0.000    0.000    0.000    0.000 
#
# Total GULP energy -371735.322453 kJ/mol
# GULP energy per Si atom -12391.177415 kJ/mol
# Density = 1.873365 g / cm^3
# Si number density = 18.776386 Si / 1000 Ang^3
#
#
#
# Elastic Constant Matrix: (Units=GPa)
#
#
# Indices 1 2 3 4 5 6 
#
# 1 96.4155 42.6758 40.1773 0.0000 -10.9487 0.0000
# 2 42.6758 45.3233 23.0628 0.0000 -0.4150 0.0000
# 3 40.1773 23.0628 86.5956 0.0000 -13.1369 0.0000
# 4 0.0000 0.0000 0.0000 18.8524 0.0000 1.1025
# 5 -10.9487 -0.4150 -13.1369 0.0000 26.2445 0.0000
# 6 0.0000 0.0000 0.0000 1.1025 0.0000 27.8643
#
#
#
# Elastic Compliance Matrix: (Units=1/GPa)
#
#
# Indices 1 2 3 4 5 6 
#
# 1 0.020236 -0.017003 -0.003918 0.000000 0.006212 0.000000
# 2 -0.017003 0.040068 -0.004071 0.000000 -0.008498 0.000000
# 3 -0.003918 -0.004071 0.015359 0.000000 0.005989 0.000000
# 4 0.000000 0.000000 0.000000 0.053167 0.000000 -0.002104
# 5 0.006212 -0.008498 0.005989 0.000000 0.043558 0.000000
# 6 0.000000 0.000000 0.000000 -0.002104 0.000000 0.035971
#
#
# Mechanical properties :
#
#
# Convention : Reuss Voigt Hill
#
# Bulk Modulus (GPa) = 38.94532 48.90736 43.92634
# Shear Modulus (GPa) = 18.73341 22.75348 20.74345
#
# Velocity S-wave (km/s) = 3.16208 3.48489 3.32740
# Velocity P-wave (km/s) = 5.84109 6.50357 6.18121
#
# Compressibility (1/GPa) = 0.02567703
#
# Stress axis : x y z
#
# Youngs Moduli (GPa) = 49.41700 24.95771 65.11038
#
# Poissons Ratio (x) = 0.42437 0.25510
# Poissons Ratio (y) = 0.84026 0.26508
# Poissons Ratio (z) = 0.19361 0.10161
#
# Static dielectric constant tensor:
#      x y z
#    x 3.602760 0.000000 0.018610 
#    y 0.000000 3.144500 0.000000 
#    z 0.018610 0.000000 3.725320 
# 
# 
# High freq. dielectric constant tensor:
#      x y z
#    x 1.720490 0.000000 -0.012880 
#    y 0.000000 1.678150 0.000000 
#    z -0.012880 0.000000 1.741060 
# 
# From -- ./inp_files/243357.got.cif
#   From: 2010.06.25/outbox.cif.g09.slc.cpg/sg15_122_cif.got.tgz:243357.got - 2010.06.28 07:06:18.
