data_PCOD8129140
_publ_section_title
;
Structure prediction by ZEFSAII (Michael W. Deem and Ramdas Pophale) SiO2 
 PCOD8129140
Probable space group: P 21/C
;
_chemical_formula_sum "Si O2"
_cell_formula_units_Z 32
_cell_length_a 8.027927
_cell_length_b 12.181190
_cell_length_c 17.874209
_cell_angle_alpha 90.000000
_cell_angle_beta 59.409974
_cell_angle_gamma 90.000000
_cell_volume 1504.657569
_symmetry_space_group_name_H-M "P 21/C"
_symmetry_group_IT_number 14
_symmetry_cell_setting 'monoclinic'
loop_
_space_group_symop_operation_xyz
x,y,z
-x,1/2+y,1/2-z
-x,-y,-z
x,1/2-y,1/2+z
loop_
_atom_site_type_symbol
_atom_site_label
_atom_site_fract_x
_atom_site_fract_y
_atom_site_fract_z
Si Si1 0.072018 0.884483 0.393660
Si Si2 0.946976 0.818465 0.827003
Si Si3 0.860287 0.761024 0.187800
Si Si4 0.243356 0.004362 0.744988
Si Si5 0.721108 0.480753 0.933392
Si Si6 0.619211 0.548842 0.241151
Si Si7 0.530910 0.589282 0.427731
Si Si8 0.800898 0.230790 0.488452
O O1 0.175470 0.849741 0.446448
O O2 0.031185 0.771010 0.362528
O O3 0.219226 0.957786 0.311931
O O4 0.871579 0.952332 0.452741
O O5 0.975155 0.774816 0.736267
O O6 0.723985 0.840895 0.899092
O O7 0.064095 0.931005 0.813476
O O8 0.754503 0.876002 0.219969
O O9 0.701878 0.669376 0.207519
O O10 0.996514 0.781173 0.084702
O O11 0.226565 0.021281 0.660717
O O12 0.444830 0.951625 0.722703
O O13 0.500000 0.500000 0.000000
O O14 0.742502 0.350009 0.934301
O O15 0.549194 0.530377 0.342774
O O16 0.500000 0.500000 0.500000
O O17 0.352417 0.673179 0.464122
#
# Coordination Sequence:
#
# PCOD8129140 Si02
#       8
#     4   4   4   4   4   4   4   4
#     4  12  25  45  72 105 147 185 238 308 358 437
#     4  11  24  45  72 100 140 190 236 286 365 433
#     4  11  25  46  68 104 145 185 235 296 357 434
#     4  12  25  45  73 101 141 194 240 289 368 441
#     4  12  24  40  68 104 141 185 233 301 364 423
#     4  11  27  45  71 103 143 192 237 295 368 431
#     4  11  26  48  72 104 146 192 245 302 361 437
#     4  12  25  44  72 108 144 180 243 307 359 423
#
# _framework density 21.267296000000002
#
# number of rings (size 3 to 8) (size 9 to 14) (size 15 to 20)
#    0.000    0.500    3.750    4.125   10.500    1.000 
#    0.000    2.500    0.000    0.000    0.000    0.000 
#    0.000    0.000    0.000    0.000    0.000    0.000 
#
# Total GULP energy -396848.182725 kJ/mol
# GULP energy per Si atom -12401.505710 kJ/mol
# Density = 2.121889 g / cm^3
# Si number density = 21.267296 Si / 1000 Ang^3
#
#
#
# Elastic Constant Matrix: (Units=GPa)
#
#
# Indices 1 2 3 4 5 6 
#
# 1 106.6572 46.9809 38.1013 0.0000 -16.6526 0.0000
# 2 46.9809 133.8201 62.9493 0.0000 -9.7850 0.0000
# 3 38.1013 62.9493 113.7608 0.0000 -21.3226 0.0000
# 4 0.0000 0.0000 0.0000 39.7528 0.0000 -0.7935
# 5 -16.6526 -9.7850 -21.3226 0.0000 27.5590 0.0000
# 6 0.0000 0.0000 0.0000 -0.7935 0.0000 44.7604
#
#
#
# Elastic Compliance Matrix: (Units=1/GPa)
#
#
# Indices 1 2 3 4 5 6 
#
# 1 0.012072 -0.003263 -0.001272 0.000000 0.005152 0.000000
# 2 -0.003263 0.011002 -0.005418 0.000000 -0.002258 0.000000
# 3 -0.001272 -0.005418 0.013696 0.000000 0.007904 0.000000
# 4 0.000000 0.000000 0.000000 0.025164 0.000000 0.000446
# 5 0.005152 -0.002258 0.007904 0.000000 0.044713 0.000000
# 6 0.000000 0.000000 0.000000 0.000446 0.000000 0.022349
#
#
# Mechanical properties :
#
#
# Convention : Reuss Voigt Hill
#
# Bulk Modulus (GPa) = 59.29951 72.25570 65.77760
# Shear Modulus (GPa) = 32.35745 36.16155 34.25950
#
# Velocity S-wave (km/s) = 3.90483 4.12799 4.01796
# Velocity P-wave (km/s) = 6.94793 7.53453 7.24717
#
# Compressibility (1/GPa) = 0.01686355
#
# Stress axis : x y z
#
# Youngs Moduli (GPa) = 82.83684 90.89281 73.01380
#
# Poissons Ratio (x) = 0.29660 0.09287
# Poissons Ratio (y) = 0.27031 0.39560
# Poissons Ratio (z) = 0.10536 0.49247
#
# Static dielectric constant tensor:
#      x y z
#    x 3.906290 0.000000 -0.025500 
#    y 0.000000 3.967590 0.000000 
#    z -0.025500 0.000000 4.083490 
# 
# 
# High freq. dielectric constant tensor:
#      x y z
#    x 1.841690 0.000000 -0.005960 
#    y 0.000000 1.846330 0.000000 
#    z -0.005960 0.000000 1.838020 
# 
# From -- ./inp_files/55586.got.cif
#   From: 2010.03.12/outbox.cif.g09.slc.cpg/sg14_28_cif.got.tgz:55586.got - 2010.03.31 13:35:05.
