data_PCOD8129152
_publ_section_title
;
Structure prediction by ZEFSAII (Michael W. Deem and Ramdas Pophale) SiO2 
 PCOD8129152
Probable space group: P 21/C
;
_chemical_formula_sum "Si O2"
_cell_formula_units_Z 28
_cell_length_a 7.006678
_cell_length_b 16.499083
_cell_length_c 14.234282
_cell_angle_alpha 90.000000
_cell_angle_beta 54.248959
_cell_angle_gamma 90.000000
_cell_volume 1335.457180
_symmetry_space_group_name_H-M "P 21/C"
_symmetry_group_IT_number 14
_symmetry_cell_setting 'monoclinic'
loop_
_space_group_symop_operation_xyz
x,y,z
-x,1/2+y,1/2-z
-x,-y,-z
x,1/2-y,1/2+z
loop_
_atom_site_type_symbol
_atom_site_label
_atom_site_fract_x
_atom_site_fract_y
_atom_site_fract_z
Si Si1 0.648781 0.165608 0.451126
Si Si2 0.512986 0.847780 0.714302
Si Si3 0.129221 0.832504 0.115158
Si Si4 0.962912 0.548519 0.105076
Si Si5 0.586917 0.821097 0.292196
Si Si6 0.746983 0.041293 0.072351
Si Si7 0.656480 0.424709 0.284939
O O1 0.545106 0.169406 0.377103
O O2 0.825566 0.239214 0.420133
O O3 0.439679 0.173373 0.587499
O O4 0.792467 0.083105 0.426122
O O5 0.776989 0.880328 0.641653
O O6 0.507096 0.766101 0.776781
O O7 0.326387 0.913512 0.809203
O O8 0.245326 0.851137 0.182045
O O9 0.851248 0.845309 0.190615
O O10 0.260739 0.890806 0.004960
O O11 0.867799 0.488031 0.211834
O O12 0.000000 0.500000 0.000000
O O13 0.421286 0.888907 0.293071
O O14 0.560870 0.970538 0.102382
O O15 0.000000 0.000000 0.000000
#
# Coordination Sequence:
#
# PCOD8129152 Si02
#       7
#     4   4   4   4   4   4   4
#     4  12  26  44  71 101 136 183 229 278 349 414
#     4  11  26  46  68 100 138 180 230 282 343 413
#     4  12  25  45  70  99 134 182 231 279 346 404
#     4  11  25  44  67 100 142 176 221 286 342 405
#     4  12  24  45  69 102 135 175 234 279 337 415
#     4  11  24  46  69  99 139 179 230 290 337 409
#     4  11  25  44  69 101 136 176 226 285 345 397
#
# _framework density 20.966605000000001
#
# number of rings (size 3 to 8) (size 9 to 14) (size 15 to 20)
#    0.000    0.571    7.143    0.429    4.000    0.571 
#    5.143    0.000    0.000    0.000    0.000    0.000 
#    0.000    0.000    0.000    0.000    0.000    0.000 
#
# Total GULP energy -347285.615780 kJ/mol
# GULP energy per Si atom -12403.057706 kJ/mol
# Density = 2.091888 g / cm^3
# Si number density = 20.966605 Si / 1000 Ang^3
#
#
#
# Elastic Constant Matrix: (Units=GPa)
#
#
# Indices 1 2 3 4 5 6 
#
# 1 53.8436 15.8934 27.1758 0.0000 10.1399 0.0000
# 2 15.8934 87.4453 23.9580 0.0000 -5.1217 0.0000
# 3 27.1758 23.9580 98.8917 0.0000 5.3241 0.0000
# 4 0.0000 0.0000 0.0000 39.7483 0.0000 -0.6080
# 5 10.1399 -5.1217 5.3241 0.0000 29.8541 0.0000
# 6 0.0000 0.0000 0.0000 -0.6080 0.0000 38.4978
#
#
#
# Elastic Compliance Matrix: (Units=1/GPa)
#
#
# Indices 1 2 3 4 5 6 
#
# 1 0.023658 -0.003299 -0.005290 0.000000 -0.007658 0.000000
# 2 -0.003299 0.012921 -0.002427 0.000000 0.003770 0.000000
# 3 -0.005290 -0.002427 0.012196 0.000000 -0.000795 0.000000
# 4 0.000000 0.000000 0.000000 0.025164 0.000000 0.000397
# 5 -0.007658 0.003770 -0.000795 0.000000 0.036886 0.000000
# 6 0.000000 0.000000 0.000000 0.000397 0.000000 0.025982
#
#
# Mechanical properties :
#
#
# Convention : Reuss Voigt Hill
#
# Bulk Modulus (GPa) = 37.39108 41.58167 39.48637
# Shear Modulus (GPa) = 29.80563 33.16361 31.48462
#
# Velocity S-wave (km/s) = 3.77447 3.98142 3.87932
# Velocity P-wave (km/s) = 6.07189 6.40398 6.24015
#
# Compressibility (1/GPa) = 0.02674434
#
# Stress axis : x y z
#
# Youngs Moduli (GPa) = 42.26871 77.39328 81.99138
#
# Poissons Ratio (x) = 0.25533 0.43372
# Poissons Ratio (y) = 0.13945 0.19896
# Poissons Ratio (z) = 0.22359 0.18781
#
# Static dielectric constant tensor:
#      x y z
#    x 3.574810 0.000000 -0.099300 
#    y 0.000000 3.928980 0.000000 
#    z -0.099300 0.000000 3.885850 
# 
# 
# High freq. dielectric constant tensor:
#      x y z
#    x 1.810350 0.000000 -0.004370 
#    y 0.000000 1.840690 0.000000 
#    z -0.004370 0.000000 1.831320 
# 
# From -- ./inp_files/37814.got.cif
#   From: 2010.03.12/outbox.cif.g09.slc.cpg/sg14_19_cif.got.tgz:37814.got - 2010.03.31 13:35:05.
