data_PCOD8129671
_publ_section_title
;
Structure prediction by ZEFSAII (Michael W. Deem and Ramdas Pophale) SiO2 
 PCOD8129671
Probable space group: C 2/C
;
_chemical_formula_sum "Si O2"
_cell_formula_units_Z 32
_cell_length_a 9.913364
_cell_length_b 14.554571
_cell_length_c 26.891896
_cell_angle_alpha 90.000000
_cell_angle_beta 27.045764
_cell_angle_gamma 90.000000
_cell_volume 1764.285150
_symmetry_space_group_name_H-M "C 2/C"
_symmetry_group_IT_number 15
_symmetry_cell_setting 'monoclinic'
loop_
_space_group_symop_operation_xyz
x,y,z
-x,y,1/2-z
-x,-y,-z
x,-y,1/2+z
1/2+x,1/2+y,z
1/2-x,1/2+y,1/2-z
1/2-x,1/2-y,-z
1/2+x,1/2-y,1/2+z
loop_
_atom_site_type_symbol
_atom_site_label
_atom_site_fract_x
_atom_site_fract_y
_atom_site_fract_z
Si Si1 0.464235 0.229834 0.203704
Si Si2 0.633511 0.742015 0.152024
Si Si3 0.581148 0.597682 0.494499
Si Si4 0.215050 0.660678 0.976954
O O1 0.500000 0.244408 0.250000
O O2 0.644368 0.140371 0.126452
O O3 0.579559 0.323757 0.138892
O O4 0.117970 0.216108 0.305020
O O5 0.500000 0.757685 0.250000
O O6 0.798313 0.835517 0.081603
O O7 0.867989 0.656267 0.075461
O O8 0.500000 0.500000 0.500000
O O9 0.675043 0.580061 0.522136
O O10 0.250000 0.750000 0.000000
#
# Coordination Sequence:
#
# PCOD8129671 Si02
#       4
#     8   8   8   8
#     4  10  19  33  56  85 105 146 198 221 262 338
#     4  10  15  33  61  74 103 156 184 215 268 337
#     4  10  20  32  53  88 114 134 183 241 278 317
#     4   8  16  30  52  80 103 142 186 218 267 330
#
# _framework density 18.137657999999998
#
# number of rings (size 3 to 8) (size 9 to 14) (size 15 to 20)
#    0.000    3.000    7.500    0.000    0.000    5.000 
#    0.000    0.000    5.500    3.000    0.000    0.000 
#    0.000    0.000    0.000    0.000    0.000    0.000 
#
# Total GULP energy -198223.740927 kJ/mol
# GULP energy per Si atom -12388.983808 kJ/mol
# Density = 1.809638 g / cm^3
# Si number density = 18.137658 Si / 1000 Ang^3
#
#
#
# Elastic Constant Matrix: (Units=GPa)
#
#
# Indices 1 2 3 4 5 6 
#
# 1 176.1326 46.6398 74.5432 0.0082 -6.4213 -0.0267
# 2 46.6398 73.4327 28.5207 -0.0530 -4.6703 0.0007
# 3 74.5432 28.5207 102.9909 0.0030 -16.3943 -0.0747
# 4 0.0082 -0.0530 0.0030 15.7007 0.0206 0.1930
# 5 -6.4213 -4.6703 -16.3943 0.0206 45.1184 0.0201
# 6 -0.0267 0.0007 -0.0747 0.1930 0.0201 31.2690
#
#
#
# Elastic Compliance Matrix: (Units=1/GPa)
#
#
# Indices 1 2 3 4 5 6 
#
# 1 0.008996 -0.003571 -0.005708 -0.000014 -0.001163 -0.000005
# 2 -0.003571 0.016677 -0.001953 0.000058 0.000509 -0.000009
# 3 -0.005708 -0.001953 0.015093 -0.000013 0.004470 0.000028
# 4 -0.000014 0.000058 -0.000013 0.063696 -0.000029 -0.000393
# 5 -0.001163 0.000509 0.004470 -0.000029 0.023675 -0.000005
# 6 -0.000005 -0.000009 0.000028 -0.000393 -0.000005 0.031983
#
#
# Mechanical properties :
#
#
# Convention : Reuss Voigt Hill
#
# Bulk Modulus (GPa) = 54.63453 72.44039 63.53746
# Shear Modulus (GPa) = 26.49926 31.94114 29.22020
#
# Velocity S-wave (km/s) = 3.82646 4.20103 4.01811
# Velocity P-wave (km/s) = 7.05053 7.97229 7.52554
#
# Compressibility (1/GPa) = 0.01830344
#
# Stress axis : x y z
#
# Youngs Moduli (GPa) = 111.15586 59.96360 66.25603
#
# Poissons Ratio (x) = 0.21414 0.37817
# Poissons Ratio (y) = 0.39695 0.12937
# Poissons Ratio (z) = 0.63444 0.11708
#
# Static dielectric constant tensor:
#      x y z
#    x 4.083520 -0.000150 -0.213670 
#    y -0.000150 2.987750 0.001300 
#    z -0.213670 0.001300 3.827020 
# 
# 
# High freq. dielectric constant tensor:
#      x y z
#    x 1.714200 0.000010 -0.009920 
#    y 0.000010 1.636710 -0.000020 
#    z -0.009920 -0.000020 1.717360 
# 
# From -- ./inp_files/84962.got.cif
#   From: 2010.06.25/outbox.cif.g09.slc.cpg/sg15_43_cif.got.tgz:84962.got - 2010.06.28 07:06:18.
