data_PCOD8129798
_publ_section_title
;
Structure prediction by ZEFSAII (Michael W. Deem and Ramdas Pophale) SiO2 
 PCOD8129798
Probable space group: C 2/C
;
_chemical_formula_sum "Si O2"
_cell_formula_units_Z 40
_cell_length_a 19.764891
_cell_length_b 14.841216
_cell_length_c 8.967582
_cell_angle_alpha 90.000000
_cell_angle_beta 106.099851
_cell_angle_gamma 90.000000
_cell_volume 2527.337048
_symmetry_space_group_name_H-M "C 2/C"
_symmetry_group_IT_number 15
_symmetry_cell_setting 'monoclinic'
loop_
_space_group_symop_operation_xyz
x,y,z
-x,y,1/2-z
-x,-y,-z
x,-y,1/2+z
1/2+x,1/2+y,z
1/2-x,1/2+y,1/2-z
1/2-x,1/2-y,-z
1/2+x,1/2-y,1/2+z
loop_
_atom_site_type_symbol
_atom_site_label
_atom_site_fract_x
_atom_site_fract_y
_atom_site_fract_z
Si Si1 0.740539 0.422990 0.342161
Si Si2 0.291875 0.230521 0.675421
Si Si3 0.274686 0.593786 0.334104
Si Si4 0.422769 0.110268 0.672082
Si Si5 0.633405 0.032957 0.149555
O O1 0.742013 0.331913 0.247004
O O2 0.697646 0.500277 0.223972
O O3 0.704200 0.404528 0.478895
O O4 0.820294 0.459994 0.416448
O O5 0.250000 0.250000 0.500000
O O6 0.310347 0.322086 0.773586
O O7 0.365264 0.183033 0.684368
O O8 0.189303 0.599875 0.265023
O O9 0.500000 0.150808 0.750000
O O10 0.415593 0.089095 0.492167
O O11 0.414879 0.017642 0.759857
#
# Coordination Sequence:
#
# PCOD8129798 Si02
#       5
#     8   8   8   8   8
#     4   9  17  29  48  73  96 122 161 201 248 284
#     4  11  19  30  48  70  99 131 163 203 238 286
#     4  10  16  30  48  69 100 122 160 204 240 289
#     4  11  20  31  47  71 101 133 160 194 245 297
#     4   9  16  31  47  66  99 124 158 191 241 291
#
# _framework density 15.826935000000001
#
# number of rings (size 3 to 8) (size 9 to 14) (size 15 to 20)
#    1.200    0.800    4.000    2.400    0.000    0.000 
#    0.000    0.000    0.000    0.000    0.000    5.600 
#    0.000    0.000    0.000    0.000    0.000    0.000 
#
# Total GULP energy -247856.462721 kJ/mol
# GULP energy per Si atom -12392.823136 kJ/mol
# Density = 1.579091 g / cm^3
# Si number density = 15.826935 Si / 1000 Ang^3
#
#
#
# Elastic Constant Matrix: (Units=GPa)
#
#
# Indices 1 2 3 4 5 6 
#
# 1 49.9869 21.3918 28.1109 0.0000 1.0368 0.0000
# 2 21.3918 87.0784 40.1776 0.0000 -9.5275 0.0000
# 3 28.1109 40.1776 108.2635 0.0000 -17.0463 0.0000
# 4 0.0000 0.0000 0.0000 30.0549 0.0000 -4.1439
# 5 1.0368 -9.5275 -17.0463 0.0000 20.3355 0.0000
# 6 0.0000 0.0000 0.0000 -4.1439 0.0000 17.2387
#
#
#
# Elastic Compliance Matrix: (Units=1/GPa)
#
#
# Indices 1 2 3 4 5 6 
#
# 1 0.025640 -0.004280 -0.006441 0.000000 -0.008711 0.000000
# 2 -0.004280 0.014683 -0.003710 0.000000 0.003988 0.000000
# 3 -0.006441 -0.003710 0.013898 0.000000 0.010240 0.000000
# 4 0.000000 0.000000 0.000000 0.034413 0.000000 0.008272
# 5 -0.008711 0.003988 0.010240 0.000000 0.060072 0.000000
# 6 0.000000 0.000000 0.000000 0.008272 0.000000 0.059997
#
#
# Mechanical properties :
#
#
# Convention : Reuss Voigt Hill
#
# Bulk Modulus (GPa) = 39.43235 47.18770 43.31002
# Shear Modulus (GPa) = 20.32372 23.90237 22.11305
#
# Velocity S-wave (km/s) = 3.58735 3.89039 3.74194
# Velocity P-wave (km/s) = 6.49058 7.07529 6.78923
#
# Compressibility (1/GPa) = 0.02535989
#
# Stress axis : x y z
#
# Youngs Moduli (GPa) = 39.00220 68.10395 71.95175
#
# Poissons Ratio (x) = 0.29149 0.46341
# Poissons Ratio (y) = 0.16693 0.26694
# Poissons Ratio (z) = 0.25120 0.25266
#
# Static dielectric constant tensor:
#      x y z
#    x 2.562660 0.000000 -0.134200 
#    y 0.000000 2.956960 0.000000 
#    z -0.134200 0.000000 2.975880 
# 
# 
# High freq. dielectric constant tensor:
#      x y z
#    x 1.553140 0.000000 -0.021180 
#    y 0.000000 1.600120 0.000000 
#    z -0.021180 0.000000 1.619010 
# 
# From -- ./inp_files/54741.got.cif
#   From: 2010.06.25/outbox.cif.g09.slc.cpg/sg15_28_cif.got.tgz:54741.got - 2010.06.28 07:06:18.
