data_PCOD8129607
_publ_section_title
;
Structure prediction by ZEFSAII (Michael W. Deem and Ramdas Pophale) SiO2 
 PCOD8129607
Probable space group: C 2/C
;
_chemical_formula_sum "Si O2"
_cell_formula_units_Z 24
_cell_length_a 21.000000
_cell_length_b 18.000000
_cell_length_c 18.000000
_cell_angle_alpha 90.000000
_cell_angle_beta 20.000000
_cell_angle_gamma 90.000000
_cell_volume 2327.105055
_symmetry_space_group_name_H-M "C 2/C"
_symmetry_group_IT_number 15
_symmetry_cell_setting 'monoclinic'
loop_
_space_group_symop_operation_xyz
x,y,z
-x,y,1/2-z
-x,-y,-z
x,-y,1/2+z
1/2+x,1/2+y,z
1/2-x,1/2+y,1/2-z
1/2-x,1/2-y,-z
1/2+x,1/2-y,1/2+z
loop_
_atom_site_type_symbol
_atom_site_label
_atom_site_fract_x
_atom_site_fract_y
_atom_site_fract_z
Si Si1 0.099300 0.319478 0.062410
Si Si2 0.731804 0.168420 0.682876
Si Si3 0.708972 0.330615 0.951298
Si Si4 0.443828 0.417730 0.730306
Si Si5 0.363898 0.409577 0.311627
Si Si6 0.125782 0.675497 0.968884
O O1 0.000000 0.311804 0.250000
O O2 0.958433 0.349948 0.153213
O O3 0.171683 0.239118 0.960059
O O4 0.270698 0.375650 0.883137
O O5 0.699051 0.188177 0.805279
O O6 0.873729 0.098032 0.520927
O O7 0.658499 0.244408 0.989649
O O8 0.911223 0.345626 0.697868
O O9 0.564112 0.380282 0.063396
O O10 0.693501 0.358146 0.054164
O O11 0.500000 0.386900 0.750000
O O12 0.382298 0.503384 0.807571
O O13 0.220700 0.396536 0.401845
#
# Coordination Sequence:
#
# PCOD8129607 Si02
#       6
#     8   8   8   8   8   8
#     4  12  24  42  73 100 132 179 238 288 338 405
#     4  12  26  43  68 107 137 182 227 288 353 412
#     4  11  23  42  72 102 138 178 234 282 337 411
#     4  12  25  47  72 100 141 178 234 293 347 411
#     4  11  26  44  71 104 138 184 229 291 346 405
#     4  12  25  42  71 104 143 178 230 284 347 417
#
# _framework density 10.313243
#
# number of rings (size 3 to 8) (size 9 to 14) (size 15 to 20)
#    0.000    0.333    6.667    3.000    2.333    4.667 
#    0.000    1.667    0.000    0.000    0.000    0.000 
#    0.000    0.000    0.000    0.000    0.000    0.000 
#
# Total GULP energy -297492.698917 kJ/mol
# GULP energy per Si atom -12395.529122 kJ/mol
# Density = 1.028977 g / cm^3
# Si number density = 10.313243 Si / 1000 Ang^3
#
#
#
# Elastic Constant Matrix: (Units=GPa)
#
#
# Indices 1 2 3 4 5 6 
#
# 1 108.9628 41.3637 48.7184 -0.0912 4.5034 0.0483
# 2 41.3637 93.8951 36.6616 -0.0941 6.0679 0.0231
# 3 48.7184 36.6616 130.7269 -0.1206 -13.8474 0.0689
# 4 -0.0912 -0.0941 -0.1206 30.2699 0.0862 -7.2888
# 5 4.5034 6.0679 -13.8474 0.0862 31.8475 -0.0387
# 6 0.0483 0.0231 0.0689 -7.2888 -0.0387 27.2613
#
#
#
# Elastic Compliance Matrix: (Units=1/GPa)
#
#
# Indices 1 2 3 4 5 6 
#
# 1 0.012462 -0.003805 -0.003865 0.000016 -0.002718 -0.000009
# 2 -0.003805 0.013607 -0.002742 0.000031 -0.003247 0.000006
# 3 -0.003865 -0.002742 0.010454 0.000003 0.005614 -0.000008
# 4 0.000016 0.000031 0.000003 0.035310 -0.000091 0.009441
# 5 -0.002718 -0.003247 0.005614 -0.000091 0.034844 0.000019
# 6 -0.000009 0.000006 -0.000008 0.009441 0.000019 0.039206
#
#
# Mechanical properties :
#
#
# Convention : Reuss Voigt Hill
#
# Bulk Modulus (GPa) = 63.69983 65.23025 64.46504
# Shear Modulus (GPa) = 29.07991 31.66513 30.37252
#
# Velocity S-wave (km/s) = 3.75885 3.92237 3.84148
# Velocity P-wave (km/s) = 7.05607 7.22541 7.14124
#
# Compressibility (1/GPa) = 0.01569863
#
# Stress axis : x y z
#
# Youngs Moduli (GPa) = 80.24087 73.49214 95.66117
#
# Poissons Ratio (x) = 0.27966 0.36974
# Poissons Ratio (y) = 0.30534 0.26228
# Poissons Ratio (z) = 0.31014 0.20150
#
# Static dielectric constant tensor:
#      x y z
#    x 3.983760 -0.000650 -0.292640 
#    y -0.000650 3.718210 0.000520 
#    z -0.292640 0.000520 4.126950 
# 
# 
# High freq. dielectric constant tensor:
#      x y z
#    x 1.822840 -0.000020 -0.017410 
#    y -0.000020 1.801650 0.000030 
#    z -0.017410 0.000030 1.823760 
# 
# From -- ./inp_files/216262.got.cif
#   From: 2010.06.25/outbox.ucp.g09.slc.cvg/sg15_109_cif.got.tgz:216262.got - 2010.06.28 14:40:10.
