data_PCOD8129536
_publ_section_title
;
Structure prediction by ZEFSAII (Michael W. Deem and Ramdas Pophale) SiO2 
 PCOD8129536
Probable space group: C 2/C
;
_chemical_formula_sum "Si O2"
_cell_formula_units_Z 24
_cell_length_a 24.000000
_cell_length_b 12.000000
_cell_length_c 27.000000
_cell_angle_alpha 90.000000
_cell_angle_beta 160.000000
_cell_angle_gamma 90.000000
_cell_volume 2659.548635
_symmetry_space_group_name_H-M "C 2/C"
_symmetry_group_IT_number 15
_symmetry_cell_setting 'monoclinic'
loop_
_space_group_symop_operation_xyz
x,y,z
-x,y,1/2-z
-x,-y,-z
x,-y,1/2+z
1/2+x,1/2+y,z
1/2-x,1/2+y,1/2-z
1/2-x,1/2-y,-z
1/2+x,1/2-y,1/2+z
loop_
_atom_site_type_symbol
_atom_site_label
_atom_site_fract_x
_atom_site_fract_y
_atom_site_fract_z
Si Si1 0.143065 0.010524 0.335589
Si Si2 0.133144 0.586608 0.399412
Si Si3 0.963839 0.182326 0.637586
Si Si4 0.649566 0.636672 0.694544
Si Si5 0.696624 0.607572 0.272427
Si Si6 0.486283 0.738153 0.463773
O O1 0.155139 0.085579 0.295923
O O2 0.000000 0.063942 0.250000
O O3 0.308072 0.998932 0.507434
O O4 0.095936 0.883514 0.281427
O O5 0.043441 0.691323 0.349846
O O6 0.289065 0.622460 0.497092
O O7 0.000000 0.531862 0.250000
O O8 0.021025 0.178560 0.628357
O O9 0.703656 0.508595 0.748196
O O10 0.556577 0.651226 0.563791
O O11 0.815309 0.708280 0.838150
O O12 0.556829 0.679436 0.125829
O O13 0.873092 0.667404 0.422571
#
# Coordination Sequence:
#
# PCOD8129536 Si02
#       6
#     8   8   8   8   8   8
#     4   9  19  36  55  78 111 146 183 233 286 332
#     4  10  18  29  49  82 116 148 186 217 280 343
#     4   9  18  30  50  78 118 153 176 219 276 345
#     4  10  21  35  58  85 116 149 188 226 281 338
#     4  10  21  41  59  79 112 148 187 245 281 326
#     4  10  22  38  58  83 112 149 197 229 282 328
#
# _framework density 9.0240880000000008
#
# number of rings (size 3 to 8) (size 9 to 14) (size 15 to 20)
#    0.000    2.333    0.000    3.500    7.000    0.000 
#    0.000   10.833    0.000    0.000    0.000    0.000 
#    0.000    0.000    0.000    0.000    0.000    0.000 
#
# Total GULP energy -297363.848087 kJ/mol
# GULP energy per Si atom -12390.160337 kJ/mol
# Density = 0.900355 g / cm^3
# Si number density = 9.024088 Si / 1000 Ang^3
#
#
#
# Elastic Constant Matrix: (Units=GPa)
#
#
# Indices 1 2 3 4 5 6 
#
# 1 143.7501 45.4025 61.3654 -0.0032 -15.6205 -0.0018
# 2 45.4025 81.0632 42.4647 -0.0055 -5.6187 -0.0061
# 3 61.3654 42.4647 159.5787 -0.0151 -30.2721 -0.0070
# 4 -0.0032 -0.0055 -0.0151 34.3599 -0.0060 -5.2001
# 5 -15.6205 -5.6187 -30.2721 -0.0060 40.3247 -0.0038
# 6 -0.0018 -0.0061 -0.0070 -5.2001 -0.0038 32.2718
#
#
#
# Elastic Compliance Matrix: (Units=1/GPa)
#
#
# Indices 1 2 3 4 5 6 
#
# 1 0.009319 -0.003931 -0.002282 -0.000001 0.001349 -0.000001
# 2 -0.003931 0.016027 -0.003054 0.000001 -0.001582 0.000002
# 3 -0.002282 -0.003054 0.008988 0.000005 0.005438 0.000003
# 4 -0.000001 0.000001 0.000005 0.029831 0.000008 0.004807
# 5 0.001349 -0.001582 0.005438 0.000008 0.029183 0.000006
# 6 -0.000001 0.000002 0.000003 0.004807 0.000006 0.031761
#
#
# Mechanical properties :
#
#
# Convention : Reuss Voigt Hill
#
# Bulk Modulus (GPa) = 63.27982 75.87302 69.57642
# Shear Modulus (GPa) = 33.57763 37.06858 35.32311
#
# Velocity S-wave (km/s) = 4.31797 4.53688 4.42878
# Velocity P-wave (km/s) = 7.74581 8.34115 8.04898
#
# Compressibility (1/GPa) = 0.01580283
#
# Stress axis : x y z
#
# Youngs Moduli (GPa) = 107.31328 62.39295 111.25909
#
# Poissons Ratio (x) = 0.24524 0.25384
# Poissons Ratio (y) = 0.42179 0.33974
# Poissons Ratio (z) = 0.24484 0.19052
#
# Static dielectric constant tensor:
#      x y z
#    x 3.638950 0.000000 -0.207900 
#    y 0.000000 3.252180 -0.000020 
#    z -0.207900 -0.000020 3.782880 
# 
# 
# High freq. dielectric constant tensor:
#      x y z
#    x 1.718300 0.000000 -0.016670 
#    y 0.000000 1.677120 0.000000 
#    z -0.016670 0.000000 1.733980 
# 
# From -- ./inp_files/60600.got.cif
#   From: 2010.06.25/outbox.ucp.g09.slc.cvg/sg15_31_cif.got.tgz:60600.got - 2010.06.28 14:40:10.
