data_PCOD8129184
_publ_section_title
;
Structure prediction by ZEFSAII (Michael W. Deem and Ramdas Pophale) SiO2 
 PCOD8129184
Probable space group: P 21/C
;
_chemical_formula_sum "Si O2"
_cell_formula_units_Z 24
_cell_length_a 15.187471
_cell_length_b 4.901209
_cell_length_c 13.249844
_cell_angle_alpha 90.000000
_cell_angle_beta 91.251808
_cell_angle_gamma 90.000000
_cell_volume 986.042847
_symmetry_space_group_name_H-M "P 21/C"
_symmetry_group_IT_number 14
_symmetry_cell_setting 'monoclinic'
loop_
_space_group_symop_operation_xyz
x,y,z
-x,1/2+y,1/2-z
-x,-y,-z
x,1/2-y,1/2+z
loop_
_atom_site_type_symbol
_atom_site_label
_atom_site_fract_x
_atom_site_fract_y
_atom_site_fract_z
Si Si1 0.419158 0.291625 0.497999
Si Si2 0.121373 0.926757 0.132549
Si Si3 0.759324 0.441471 0.553590
Si Si4 0.189404 0.447855 0.828733
Si Si5 0.499863 0.498290 0.821846
Si Si6 0.992669 0.936065 0.383740
O O1 0.500000 0.500000 0.500000
O O2 0.330727 0.466809 0.501113
O O3 0.422060 0.111992 0.394125
O O4 0.423389 0.101028 0.598910
O O5 0.083304 0.632381 0.162542
O O6 0.202572 0.005250 0.209439
O O7 0.038190 0.128951 0.135839
O O8 0.160663 0.933277 0.021977
O O9 0.787062 0.640280 0.644503
O O10 0.748858 0.141265 0.601007
O O11 0.086284 0.516236 0.835691
O O12 0.467122 0.751994 0.750842
O O13 0.000000 0.000000 0.500000
#
# Coordination Sequence:
#
# PCOD8129184 Si02
#       6
#     4   4   4   4   4   4
#     4  11  27  49  76 106 147 192 245 299 369 440
#     4  12  24  45  68 101 138 186 231 285 348 418
#     4  12  27  46  68 101 145 179 230 300 348 412
#     4  12  26  43  70 105 138 184 235 287 351 416
#     4  11  24  47  78 108 137 184 248 298 361 443
#     4  12  21  43  73  94 142 188 228 284 348 417
#
# _framework density 24.339715999999999
#
# number of rings (size 3 to 8) (size 9 to 14) (size 15 to 20)
#    0.000    0.333    5.000    3.500    4.667    1.333 
#    3.000    0.000    0.000    0.000    0.000    0.000 
#    0.000    0.000    0.000    0.000    0.000    0.000 
#
# Total GULP energy -297595.604886 kJ/mol
# GULP energy per Si atom -12399.816870 kJ/mol
# Density = 2.428432 g / cm^3
# Si number density = 24.339716 Si / 1000 Ang^3
#
#
#
# Elastic Constant Matrix: (Units=GPa)
#
#
# Indices 1 2 3 4 5 6 
#
# 1 76.1481 18.1104 -7.0824 0.0000 11.2327 0.0000
# 2 18.1104 99.1014 27.9779 0.0000 -5.4831 0.0000
# 3 -7.0824 27.9779 118.5870 0.0000 4.7545 0.0000
# 4 0.0000 0.0000 0.0000 44.3185 0.0000 6.6984
# 5 11.2327 -5.4831 4.7545 0.0000 16.1541 0.0000
# 6 0.0000 0.0000 0.0000 6.6984 0.0000 37.1751
#
#
#
# Elastic Compliance Matrix: (Units=1/GPa)
#
#
# Indices 1 2 3 4 5 6 
#
# 1 0.016473 -0.004504 0.002598 0.000000 -0.013748 0.000000
# 2 -0.004504 0.012372 -0.003523 0.000000 0.008368 0.000000
# 3 0.002598 -0.003523 0.009653 0.000000 -0.005843 0.000000
# 4 0.000000 0.000000 0.000000 0.023196 0.000000 -0.004180
# 5 -0.013748 0.008368 -0.005843 0.000000 0.076024 0.000000
# 6 0.000000 0.000000 0.000000 -0.004180 0.000000 0.027653
#
#
# Mechanical properties :
#
#
# Convention : Reuss Voigt Hill
#
# Bulk Modulus (GPa) = 36.18203 41.31649 38.74926
# Shear Modulus (GPa) = 26.96243 36.51826 31.74034
#
# Velocity S-wave (km/s) = 3.33191 3.87765 3.61509
# Velocity P-wave (km/s) = 5.44975 6.08769 5.77753
#
# Compressibility (1/GPa) = 0.02763803
#
# Stress axis : x y z
#
# Youngs Moduli (GPa) = 60.70451 80.83058 103.59148
#
# Poissons Ratio (x) = 0.36410 -0.26911
# Poissons Ratio (y) = 0.27344 0.36499
# Poissons Ratio (z) = -0.15770 0.28479
#
# Static dielectric constant tensor:
#      x y z
#    x 3.978450 0.000000 -0.091700 
#    y 0.000000 4.845120 0.000000 
#    z -0.091700 0.000000 5.130350 
# 
# 
# High freq. dielectric constant tensor:
#      x y z
#    x 1.932540 0.000000 0.005830 
#    y 0.000000 1.984340 0.000000 
#    z 0.005830 0.000000 1.989390 
# 
# From -- ./inp_files/45948.got.cif
#   From: 2010.03.12/outbox.cif.g09.slc.cpg/sg14_23_cif.got.tgz:45948.got - 2010.03.31 13:35:05.
