data_PCOD8129349
_publ_section_title
;
Structure prediction by ZEFSAII (Michael W. Deem and Ramdas Pophale) SiO2 
 PCOD8129349
Probable space group: P 21/C
;
_chemical_formula_sum "Si O2"
_cell_formula_units_Z 24
_cell_length_a 9.621670
_cell_length_b 13.458525
_cell_length_c 19.204966
_cell_angle_alpha 90.000000
_cell_angle_beta 29.161902
_cell_angle_gamma 90.000000
_cell_volume 1211.823201
_symmetry_space_group_name_H-M "P 21/C"
_symmetry_group_IT_number 14
_symmetry_cell_setting 'monoclinic'
loop_
_space_group_symop_operation_xyz
x,y,z
-x,1/2+y,1/2-z
-x,-y,-z
x,1/2-y,1/2+z
loop_
_atom_site_type_symbol
_atom_site_label
_atom_site_fract_x
_atom_site_fract_y
_atom_site_fract_z
Si Si1 0.744207 0.539874 0.942710
Si Si2 0.603300 0.752205 0.072844
Si Si3 0.609541 0.054574 0.883893
Si Si4 0.246880 0.566122 0.922333
Si Si5 0.673124 0.022084 0.133805
Si Si6 0.805104 0.271476 0.622484
O O1 0.046879 0.548361 0.771017
O O2 0.500000 0.500000 0.000000
O O3 0.664491 0.645886 0.011567
O O4 0.750865 0.453268 0.996895
O O5 0.500459 0.831777 0.059998
O O6 0.343546 0.751657 0.239862
O O7 0.870188 0.796498 0.998828
O O8 0.468658 0.007679 0.876753
O O9 0.500000 0.000000 0.000000
O O10 0.537575 0.534910 0.758180
O O11 0.189161 0.681221 0.934141
O O12 0.000000 0.500000 0.000000
O O13 0.637495 0.140419 0.157405
O O14 0.000000 0.000000 0.000000
#
# Coordination Sequence:
#
# PCOD8129349 Si02
#       6
#     4   4   4   4   4   4
#     4  12  28  45  71 100 142 189 229 286 352 422
#     4  12  22  45  70  97 135 183 229 281 359 418
#     4  12  28  46  67 104 146 180 230 292 348 423
#     4  12  21  44  69  99 131 175 239 285 331 412
#     4  12  23  40  69 105 132 174 232 290 340 404
#     4  12  22  39  74 103 130 180 232 290 347 405
#
# _framework density 19.804869
#
# number of rings (size 3 to 8) (size 9 to 14) (size 15 to 20)
#    0.000    0.000   10.000    0.000    4.667    1.333 
#    0.000    0.000    0.000    0.000    0.000    0.000 
#    0.000    0.000    0.000    0.000    0.000    0.000 
#
# Total GULP energy -297597.084497 kJ/mol
# GULP energy per Si atom -12399.878521 kJ/mol
# Density = 1.975979 g / cm^3
# Si number density = 19.804869 Si / 1000 Ang^3
#
#
#
# Elastic Constant Matrix: (Units=GPa)
#
#
# Indices 1 2 3 4 5 6 
#
# 1 105.0324 35.2782 39.3611 0.0000 -8.8943 0.0000
# 2 35.2782 79.0527 22.6867 0.0000 3.6007 0.0000
# 3 39.3611 22.6867 115.1618 0.0000 -7.6151 0.0000
# 4 0.0000 0.0000 0.0000 32.4881 0.0000 0.9650
# 5 -8.8943 3.6007 -7.6151 0.0000 40.1020 0.0000
# 6 0.0000 0.0000 0.0000 0.9650 0.0000 40.7868
#
#
#
# Elastic Compliance Matrix: (Units=1/GPa)
#
#
# Indices 1 2 3 4 5 6 
#
# 1 0.012544 -0.004808 -0.003168 0.000000 0.002612 0.000000
# 2 -0.004808 0.015370 -0.001566 0.000000 -0.002744 0.000000
# 3 -0.003168 -0.001566 0.010165 0.000000 0.001368 0.000000
# 4 0.000000 0.000000 0.000000 0.030802 0.000000 -0.000729
# 5 0.002612 -0.002744 0.001368 0.000000 0.026022 0.000000
# 6 0.000000 0.000000 0.000000 -0.000729 0.000000 0.024535
#
#
# Mechanical properties :
#
#
# Convention : Reuss Voigt Hill
#
# Bulk Modulus (GPa) = 52.64255 54.87768 53.76012
# Shear Modulus (GPa) = 34.51783 36.13677 35.32730
#
# Velocity S-wave (km/s) = 4.17933 4.27622 4.22805
# Velocity P-wave (km/s) = 7.06593 7.22154 7.14416
#
# Compressibility (1/GPa) = 0.01899604
#
# Stress axis : x y z
#
# Youngs Moduli (GPa) = 79.71942 65.06294 98.37647
#
# Poissons Ratio (x) = 0.31281 0.31161
# Poissons Ratio (y) = 0.38328 0.15405
# Poissons Ratio (z) = 0.25251 0.10189
#
# Static dielectric constant tensor:
#      x y z
#    x 3.511440 0.000000 -0.175090 
#    y 0.000000 9.177610 0.000000 
#    z -0.175090 0.000000 3.848330 
# 
# 
# High freq. dielectric constant tensor:
#      x y z
#    x 1.758940 0.000000 -0.012190 
#    y 0.000000 1.789040 0.000000 
#    z -0.012190 0.000000 1.794560 
# 
# From -- ./inp_files/17948.got.cif
#   From: 2010.03.12/outbox.cif.g09.slc.cpg/sg14_9_cif.got.tgz:17948.got - 2010.03.31 13:35:05.
