data_PCOD8129044
_publ_section_title
;
Structure prediction by ZEFSAII (Michael W. Deem and Ramdas Pophale) SiO2 
 PCOD8129044
Probable space group: P 21/C
;
_chemical_formula_sum "Si O2"
_cell_formula_units_Z 16
_cell_length_a 5.054887
_cell_length_b 10.280137
_cell_length_c 13.073519
_cell_angle_alpha 90.000000
_cell_angle_beta 117.637966
_cell_angle_gamma 90.000000
_cell_volume 601.846568
_symmetry_space_group_name_H-M "P 21/C"
_symmetry_group_IT_number 14
_symmetry_cell_setting 'monoclinic'
loop_
_space_group_symop_operation_xyz
x,y,z
-x,1/2+y,1/2-z
-x,-y,-z
x,1/2-y,1/2+z
loop_
_atom_site_type_symbol
_atom_site_label
_atom_site_fract_x
_atom_site_fract_y
_atom_site_fract_z
Si Si1 0.292765 0.380321 0.685120
Si Si2 0.371763 0.852516 0.960170
Si Si3 0.677426 0.605659 0.719205
Si Si4 0.193918 0.929095 0.450825
O O1 0.412945 0.327745 0.597159
O O2 0.470175 0.510637 0.751909
O O3 0.367835 0.259754 0.773714
O O4 0.944358 0.421356 0.624570
O O5 0.261004 0.719041 0.992585
O O6 0.567198 0.929981 0.082641
O O7 0.017940 0.568653 0.809736
O O8 0.500000 0.000000 0.500000
O O9 0.000000 0.000000 0.500000
#
# Coordination Sequence:
#
# PCOD8129044 Si02
#       4
#     4   4   4   4
#     4  11  26  44  70 104 137 182 234 282 341 415
#     4  11  25  44  69 103 138 180 235 281 339 417
#     4  11  25  46  72  99 141 185 222 288 349 396
#     4  11  24  42  66 100 136 175 226 277 333 406
#
# _framework density 26.584845999999999
#
# number of rings (size 3 to 8) (size 9 to 14) (size 15 to 20)
#    0.000    1.000    0.000    6.000    0.000   16.000 
#    0.000    0.000    0.000    0.000    0.000    0.000 
#    0.000    0.000    0.000    0.000    0.000    0.000 
#
# Total GULP energy -198323.006149 kJ/mol
# GULP energy per Si atom -12395.187884 kJ/mol
# Density = 2.652434 g / cm^3
# Si number density = 26.584846 Si / 1000 Ang^3
#
#
#
# Elastic Constant Matrix: (Units=GPa)
#
#
# Indices 1 2 3 4 5 6 
#
# 1 115.1461 -0.7626 50.8213 0.0000 27.7095 0.0000
# 2 -0.7626 95.8856 40.6029 0.0000 41.1585 0.0000
# 3 50.8213 40.6029 198.5273 0.0000 32.8372 0.0000
# 4 0.0000 0.0000 0.0000 47.8666 0.0000 20.0755
# 5 27.7095 41.1585 32.8372 0.0000 47.0449 0.0000
# 6 0.0000 0.0000 0.0000 20.0755 0.0000 37.0292
#
#
#
# Elastic Compliance Matrix: (Units=1/GPa)
#
#
# Indices 1 2 3 4 5 6 
#
# 1 0.012389 0.005690 -0.002606 0.000000 -0.010457 0.000000
# 2 0.005690 0.019542 -0.002341 0.000000 -0.018814 0.000000
# 3 -0.002606 -0.002341 0.006320 0.000000 -0.000828 0.000000
# 4 0.000000 0.000000 0.000000 0.027040 0.000000 -0.014660
# 5 -0.010457 -0.018814 -0.000828 0.000000 0.044453 0.000000
# 6 0.000000 0.000000 0.000000 -0.014660 0.000000 0.034953
#
#
# Mechanical properties :
#
#
# Convention : Reuss Voigt Hill
#
# Bulk Modulus (GPa) = 25.16565 65.65355 45.40960
# Shear Modulus (GPa) = 31.95797 47.64798 39.80297
#
# Velocity S-wave (km/s) = 3.47091 4.23815 3.87357
# Velocity P-wave (km/s) = 5.05467 6.97844 6.09296
#
# Compressibility (1/GPa) = 0.03973671
#
# Stress axis : x y z
#
# Youngs Moduli (GPa) = 80.71892 51.17289 158.22893
#
# Poissons Ratio (x) = -0.29119 0.41229
# Poissons Ratio (y) = -0.45932 0.37049
# Poissons Ratio (z) = 0.21032 0.11982
#
# Static dielectric constant tensor:
#      x y z
#    x 5.172940 0.000000 0.589490 
#    y 0.000000 8.532820 0.000000 
#    z 0.589490 0.000000 5.082080 
# 
# 
# High freq. dielectric constant tensor:
#      x y z
#    x 2.063050 0.000000 0.021220 
#    y 0.000000 2.105960 0.000000 
#    z 0.021220 0.000000 2.079480 
# 
# From -- ./inp_files/20334.got.cif
#   From: 2010.03.12/outbox.cif.g09.slc.cpg/sg14_11_cif.got.tgz:20334.got - 2010.03.31 13:35:05.
