data_PCOD8129560
_publ_section_title
;
Structure prediction by ZEFSAII (Michael W. Deem and Ramdas Pophale) SiO2 
 PCOD8129560
Probable space group: C 2/C
;
_chemical_formula_sum "Si O2"
_cell_formula_units_Z 24
_cell_length_a 9.000000
_cell_length_b 18.000000
_cell_length_c 30.000000
_cell_angle_alpha 90.000000
_cell_angle_beta 150.000000
_cell_angle_gamma 90.000000
_cell_volume 2430.000000
_symmetry_space_group_name_H-M "C 2/C"
_symmetry_group_IT_number 15
_symmetry_cell_setting 'monoclinic'
loop_
_space_group_symop_operation_xyz
x,y,z
-x,y,1/2-z
-x,-y,-z
x,-y,1/2+z
1/2+x,1/2+y,z
1/2-x,1/2+y,1/2-z
1/2-x,1/2-y,-z
1/2+x,1/2-y,1/2+z
loop_
_atom_site_type_symbol
_atom_site_label
_atom_site_fract_x
_atom_site_fract_y
_atom_site_fract_z
Si Si1 0.329425 0.412337 0.251776
Si Si2 0.101882 0.705979 0.049188
Si Si3 0.347421 0.996894 0.584498
Si Si4 0.148266 0.740677 0.742209
Si Si5 0.070118 0.434950 0.051338
Si Si6 0.652956 0.175716 0.422965
O O1 0.500000 0.417208 0.250000
O O2 0.219366 0.329805 0.231036
O O3 0.569633 0.432250 0.352376
O O4 0.043377 0.467621 0.175893
O O5 0.437809 0.710219 0.155150
O O6 0.899107 0.684827 0.038179
O O7 0.067618 0.643204 0.001979
O O8 0.979030 0.786555 0.998977
O O9 0.409506 0.910116 0.601040
O O10 0.426524 0.043605 0.561084
O O11 0.000000 0.000000 0.500000
O O12 0.438558 0.785591 0.831448
O O13 0.000000 0.714987 0.750000
O O14 0.000000 0.500000 0.000000
#
# Coordination Sequence:
#
# PCOD8129560 Si02
#       6
#     8   8   8   8   8   8
#     4  10  23  41  60  88 126 164 199 258 318 372
#     4  10  20  36  64  90 116 157 206 257 307 371
#     4  11  24  41  61  89 127 164 203 257 316 372
#     4  10  21  37  64  89 116 158 207 258 307 368
#     4  11  22  39  64  90 123 162 209 252 312 377
#     4  10  20  37  60  90 121 152 207 257 304 371
#
# _framework density 9.8765429999999999
#
# number of rings (size 3 to 8) (size 9 to 14) (size 15 to 20)
#    0.000    1.667    3.333    1.000    2.333    3.333 
#    3.000    2.500    0.000    0.000    0.000    0.000 
#    0.000    0.000    0.000    0.000    0.000    0.000 
#
# Total GULP energy -297349.179378 kJ/mol
# GULP energy per Si atom -12389.549141 kJ/mol
# Density = 0.985406 g / cm^3
# Si number density = 9.876543 Si / 1000 Ang^3
#
#
#
# Elastic Constant Matrix: (Units=GPa)
#
#
# Indices 1 2 3 4 5 6 
#
# 1 19.5320 21.3994 31.5820 0.0013 3.2213 -0.0002
# 2 21.3994 132.4250 44.6801 0.0017 -9.8922 0.0006
# 3 31.5820 44.6801 153.4154 0.0064 -5.4777 0.0025
# 4 0.0013 0.0017 0.0064 45.3005 0.0033 -10.9581
# 5 3.2213 -9.8922 -5.4777 0.0033 25.8121 0.0007
# 6 -0.0002 0.0006 0.0025 -10.9581 0.0007 30.4399
#
#
#
# Elastic Compliance Matrix: (Units=1/GPa)
#
#
# Indices 1 2 3 4 5 6 
#
# 1 0.093412 -0.010892 -0.016750 0.000002 -0.019386 0.000003
# 2 -0.010892 0.009837 -0.000443 0.000000 0.005035 -0.000001
# 3 -0.016750 -0.000443 0.010242 -0.000002 0.004094 -0.000002
# 4 0.000002 0.000000 -0.000002 0.024180 -0.000004 0.008705
# 5 -0.019386 0.005035 0.004094 -0.000004 0.043959 -0.000003
# 6 0.000003 -0.000001 -0.000002 0.008705 -0.000003 0.035985
#
#
# Mechanical properties :
#
#
# Convention : Reuss Voigt Hill
#
# Bulk Modulus (GPa) = 17.44553 55.63282 36.53918
# Shear Modulus (GPa) = 17.07117 34.15789 25.61453
#
# Velocity S-wave (km/s) = 2.94296 4.16293 3.60493
# Velocity P-wave (km/s) = 4.51653 7.16463 5.98878
#
# Compressibility (1/GPa) = 0.05732128
#
# Stress axis : x y z
#
# Youngs Moduli (GPa) = 10.70531 101.65590 97.64175
#
# Poissons Ratio (x) = 1.10721 1.63547
# Poissons Ratio (y) = 0.11660 0.04325
# Poissons Ratio (z) = 0.17931 0.04503
#
# Static dielectric constant tensor:
#      x y z
#    x 2.899630 0.005390 0.030920 
#    y 0.005390 118.097550 -0.008500 
#    z 0.030920 -0.008500 4.191760 
# 
# 
# High freq. dielectric constant tensor:
#      x y z
#    x 1.735340 0.000000 -0.009670 
#    y 0.000000 1.781620 0.000000 
#    z -0.009670 0.000000 1.804200 
# 
# From -- ./inp_files/182445.got.cif
#   From: 2010.06.25/outbox.ucp.g09.slc.cvg/sg15_92_cif.got.tgz:182445.got - 2010.06.28 14:40:10.
