data_PCOD8129697
_publ_section_title
;
Structure prediction by ZEFSAII (Michael W. Deem and Ramdas Pophale) SiO2 
 PCOD8129697
Probable space group: C 2/C
;
_chemical_formula_sum "Si O2"
_cell_formula_units_Z 64
_cell_length_a 23.931773
_cell_length_b 21.143967
_cell_length_c 12.816699
_cell_angle_alpha 90.000000
_cell_angle_beta 136.222172
_cell_angle_gamma 90.000000
_cell_volume 4487.021517
_symmetry_space_group_name_H-M "C 2/C"
_symmetry_group_IT_number 15
_symmetry_cell_setting 'monoclinic'
loop_
_space_group_symop_operation_xyz
x,y,z
-x,y,1/2-z
-x,-y,-z
x,-y,1/2+z
1/2+x,1/2+y,z
1/2-x,1/2+y,1/2-z
1/2-x,1/2-y,-z
1/2+x,1/2-y,1/2+z
loop_
_atom_site_type_symbol
_atom_site_label
_atom_site_fract_x
_atom_site_fract_y
_atom_site_fract_z
Si Si1 0.507338 0.571027 0.882545
Si Si2 0.685222 0.213174 0.771160
Si Si3 0.695432 0.617633 0.607560
Si Si4 0.556378 0.718581 0.422302
Si Si5 0.673562 0.803855 0.482009
Si Si6 0.305028 0.599805 0.134695
Si Si7 0.629169 0.482886 0.165024
Si Si8 0.068791 0.185480 0.084724
O O1 0.500000 0.563219 0.750000
O O2 0.421249 0.559620 0.821391
O O3 0.569538 0.518494 0.005839
O O4 0.538840 0.641941 0.949441
O O5 0.767136 0.244877 0.923129
O O6 0.629152 0.258938 0.624802
O O7 0.718346 0.152679 0.751625
O O8 0.638597 0.195082 0.816029
O O9 0.619189 0.662189 0.522659
O O10 0.699081 0.592268 0.494486
O O11 0.689455 0.559838 0.679156
O O12 0.500000 0.700040 0.250000
O O13 0.598800 0.787595 0.458921
O O14 0.505649 0.720715 0.460434
O O15 0.722649 0.868718 0.570642
O O16 0.313738 0.531002 0.195994
O O17 0.382834 0.642750 0.266498
#
# Coordination Sequence:
#
# PCOD8129697 Si02
#       8
#     8   8   8   8   8   8   8   8
#     4  10  20  29  39  59  86 108 136 167 195 236
#     4   8  14  24  38  57  83 107 131 159 200 242
#     4  10  17  26  40  61  85 109 134 163 195 241
#     4  11  15  21  41  65  89 102 125 162 202 252
#     4   8  14  23  36  58  85 109 124 161 206 236
#     4   9  17  27  38  57  87 111 135 162 199 239
#     4  10  19  28  41  58  78 114 143 161 194 233
#     4  10  16  26  40  62  83 110 130 159 207 244
#
# _framework density 14.26336
#
# number of rings (size 3 to 8) (size 9 to 14) (size 15 to 20)
#    0.000    2.500    3.750    2.250    0.000    0.500 
#    0.000    0.000    0.000    0.750    3.250    0.875 
#    0.000    0.000    0.000    0.000    0.000    0.000 
#
# Total GULP energy -396504.282913 kJ/mol
# GULP energy per Si atom -12390.758841 kJ/mol
# Density = 1.423090 g / cm^3
# Si number density = 14.263360 Si / 1000 Ang^3
#
#
#
# Elastic Constant Matrix: (Units=GPa)
#
#
# Indices 1 2 3 4 5 6 
#
# 1 77.0981 50.8329 25.0405 0.0000 -5.2895 0.0000
# 2 50.8329 85.8736 32.8662 0.0000 1.0766 0.0000
# 3 25.0405 32.8662 42.4378 0.0000 -7.1818 0.0000
# 4 0.0000 0.0000 0.0000 20.5739 0.0000 0.8783
# 5 -5.2895 1.0766 -7.1818 0.0000 15.5141 0.0000
# 6 0.0000 0.0000 0.0000 0.8783 0.0000 29.2229
#
#
#
# Elastic Compliance Matrix: (Units=1/GPa)
#
#
# Indices 1 2 3 4 5 6 
#
# 1 0.022489 -0.012523 -0.002307 0.000000 0.007468 0.000000
# 2 -0.012523 0.024414 -0.013592 0.000000 -0.012256 0.000000
# 3 -0.002307 -0.013592 0.038494 0.000000 0.017976 0.000000
# 4 0.000000 0.000000 0.000000 0.048668 0.000000 -0.001463
# 5 0.007468 -0.012256 0.017976 0.000000 0.076176 0.000000
# 6 0.000000 0.000000 0.000000 -0.001463 0.000000 0.034264
#
#
# Mechanical properties :
#
#
# Convention : Reuss Voigt Hill
#
# Bulk Modulus (GPa) = 35.02411 46.98763 41.00587
# Shear Modulus (GPa) = 16.08409 19.50685 17.79547
#
# Velocity S-wave (km/s) = 3.36169 3.70215 3.53602
# Velocity P-wave (km/s) = 6.29894 7.16163 6.74409
#
# Compressibility (1/GPa) = 0.02855176
#
# Stress axis : x y z
#
# Youngs Moduli (GPa) = 44.46627 40.96053 25.97801
#
# Poissons Ratio (x) = 0.51294 0.05994
# Poissons Ratio (y) = 0.55685 0.35310
# Poissons Ratio (z) = 0.10260 0.55675
#
# Static dielectric constant tensor:
#      x y z
#    x 2.847680 0.000000 0.105550 
#    y 0.000000 2.787690 0.000000 
#    z 0.105550 0.000000 2.502020 
# 
# 
# High freq. dielectric constant tensor:
#      x y z
#    x 1.537530 0.000000 0.003970 
#    y 0.000000 1.528710 0.000000 
#    z 0.003970 0.000000 1.506120 
# 
# From -- ./inp_files/113475.got.cif
#   From: 2010.06.25/outbox.cif.g09.slc.cpg/sg15_57_cif.got.tgz:113475.got - 2010.06.28 07:06:18.
