data_PCOD8129293
_publ_section_title
;
Structure prediction by ZEFSAII (Michael W. Deem and Ramdas Pophale) SiO2 
 PCOD8129293
Probable space group: P 21/C
;
_chemical_formula_sum "Si O2"
_cell_formula_units_Z 32
_cell_length_a 10.962010
_cell_length_b 11.687758
_cell_length_c 21.669183
_cell_angle_alpha 90.000000
_cell_angle_beta 31.484470
_cell_angle_gamma 90.000000
_cell_volume 1449.962904
_symmetry_space_group_name_H-M "P 21/C"
_symmetry_group_IT_number 14
_symmetry_cell_setting 'monoclinic'
loop_
_space_group_symop_operation_xyz
x,y,z
-x,1/2+y,1/2-z
-x,-y,-z
x,1/2-y,1/2+z
loop_
_atom_site_type_symbol
_atom_site_label
_atom_site_fract_x
_atom_site_fract_y
_atom_site_fract_z
Si Si1 0.650385 0.580620 0.481006
Si Si2 0.972593 0.968021 0.372763
Si Si3 0.640280 0.903079 0.720477
Si Si4 0.155197 0.545169 0.490392
Si Si5 0.043946 0.166403 0.254976
Si Si6 0.787642 0.816348 0.207303
Si Si7 0.269528 0.732639 0.700076
Si Si8 0.501824 0.544780 0.146580
O O1 0.500000 0.500000 0.500000
O O2 0.833978 0.523721 0.449497
O O3 0.798215 0.663592 0.374110
O O4 0.489675 0.651894 0.596428
O O5 0.123711 0.039619 0.356359
O O6 0.986123 0.037867 0.302466
O O7 0.071265 0.839744 0.322045
O O8 0.700847 0.962664 0.508692
O O9 0.642395 0.764708 0.723434
O O10 0.632185 0.942424 0.654413
O O11 0.418369 0.942933 0.855110
O O12 0.000000 0.500000 0.500000
O O13 0.030519 0.661370 0.566598
O O14 0.175938 0.241681 0.247754
O O15 0.809891 0.230886 0.334546
O O16 0.652826 0.930640 0.284533
O O17 0.332990 0.846417 0.710841
#
# Coordination Sequence:
#
# PCOD8129293 Si02
#       8
#     4   4   4   4   4   4   4   4
#     4  12  23  47  75 103 146 193 251 301 359 448
#     4  11  26  50  70 106 148 190 246 304 380 437
#     4  11  26  48  74 105 144 198 239 306 372 450
#     4  12  25  47  78 108 149 193 251 307 362 456
#     4  11  26  44  74 106 142 195 239 310 370 444
#     4  11  27  46  73 109 146 193 248 298 381 444
#     4  12  26  44  72 104 144 192 246 300 367 438
#     4  12  28  44  74 108 150 190 243 315 369 451
#
# _framework density 22.069531000000001
#
# number of rings (size 3 to 8) (size 9 to 14) (size 15 to 20)
#    0.000    0.500    3.750    3.375   10.500    1.500 
#    0.000    0.000    0.000    0.000    0.000    0.000 
#    0.000    0.000    0.000    0.000    0.000    0.000 
#
# Total GULP energy -396728.462539 kJ/mol
# GULP energy per Si atom -12397.764454 kJ/mol
# Density = 2.201930 g / cm^3
# Si number density = 22.069531 Si / 1000 Ang^3
#
#
#
# Elastic Constant Matrix: (Units=GPa)
#
#
# Indices 1 2 3 4 5 6 
#
# 1 104.0937 39.8052 12.8183 0.0000 7.7181 0.0000
# 2 39.8052 132.7000 23.3887 0.0000 -3.5360 0.0000
# 3 12.8183 23.3887 80.6188 0.0000 0.3301 0.0000
# 4 0.0000 0.0000 0.0000 33.3167 0.0000 -4.5251
# 5 7.7181 -3.5360 0.3301 0.0000 32.6534 0.0000
# 6 0.0000 0.0000 0.0000 -4.5251 0.0000 32.2537
#
#
#
# Elastic Compliance Matrix: (Units=1/GPa)
#
#
# Indices 1 2 3 4 5 6 
#
# 1 0.011188 -0.003293 -0.000811 0.000000 -0.002993 0.000000
# 2 -0.003293 0.008937 -0.002076 0.000000 0.001767 0.000000
# 3 -0.000811 -0.002076 0.013136 0.000000 -0.000166 0.000000
# 4 0.000000 0.000000 0.000000 0.030598 0.000000 0.004293
# 5 -0.002993 0.001767 -0.000166 0.000000 0.031525 0.000000
# 6 0.000000 0.000000 0.000000 0.004293 0.000000 0.031606
#
#
# Mechanical properties :
#
#
# Convention : Reuss Voigt Hill
#
# Bulk Modulus (GPa) = 47.84762 52.15966 50.00364
# Shear Modulus (GPa) = 34.17240 35.73812 34.95526
#
# Velocity S-wave (km/s) = 3.93924 4.02847 3.98410
# Velocity P-wave (km/s) = 6.51288 6.73228 6.62349
#
# Compressibility (1/GPa) = 0.02089968
#
# Stress axis : x y z
#
# Youngs Moduli (GPa) = 89.38444 111.90048 76.12607
#
# Poissons Ratio (x) = 0.36845 0.06176
# Poissons Ratio (y) = 0.29431 0.15806
# Poissons Ratio (z) = 0.07252 0.23234
#
# Static dielectric constant tensor:
#      x y z
#    x 4.238790 0.000000 -0.061560 
#    y 0.000000 4.318770 0.000000 
#    z -0.061560 0.000000 3.995020 
# 
# 
# High freq. dielectric constant tensor:
#      x y z
#    x 1.880290 0.000000 -0.001980 
#    y 0.000000 1.876560 0.000000 
#    z -0.001980 0.000000 1.874110 
# 
# From -- ./inp_files/67406.got.cif
#   From: 2010.03.12/outbox.cif.g09.slc.cpg/sg14_34_cif.got.tgz:67406.got - 2010.03.31 13:35:05.
