data_PCOD8129022
_publ_section_title
;
Structure prediction by ZEFSAII (Michael W. Deem and Ramdas Pophale) SiO2 
 PCOD8129022
Probable space group: P 21/C
;
_chemical_formula_sum "Si O2"
_cell_formula_units_Z 16
_cell_length_a 6.743030
_cell_length_b 7.095590
_cell_length_c 18.749428
_cell_angle_alpha 90.000000
_cell_angle_beta 45.220483
_cell_angle_gamma 90.000000
_cell_volume 636.768318
_symmetry_space_group_name_H-M "P 21/C"
_symmetry_group_IT_number 14
_symmetry_cell_setting 'monoclinic'
loop_
_space_group_symop_operation_xyz
x,y,z
-x,1/2+y,1/2-z
-x,-y,-z
x,1/2-y,1/2+z
loop_
_atom_site_type_symbol
_atom_site_label
_atom_site_fract_x
_atom_site_fract_y
_atom_site_fract_z
Si Si1 0.217938 0.042414 0.881188
Si Si2 0.883843 0.109632 0.461290
Si Si3 0.708978 0.614527 0.870640
Si Si4 0.735463 0.284097 0.763288
O O1 0.538016 0.099060 0.819677
O O2 0.100803 0.236336 0.875674
O O3 0.227550 0.863178 0.826642
O O4 0.000000 0.000000 0.000000
O O5 0.588675 0.223233 0.549547
O O6 0.822964 0.952293 0.418082
O O7 0.000000 0.000000 0.500000
O O8 0.612999 0.446333 0.843410
O O9 0.961372 0.741105 0.777772
#
# Coordination Sequence:
#
# PCOD8129022 Si02
#       4
#     4   4   4   4
#     4  12  28  46  80 108 154 203 249 310 385 447
#     4  11  23  48  74 107 149 197 246 316 381 443
#     4  11  26  44  76 106 150 193 255 311 372 453
#     4  12  27  47  74 114 152 202 254 311 379 453
#
# _framework density 25.12688
#
# number of rings (size 3 to 8) (size 9 to 14) (size 15 to 20)
#    0.000    0.500    2.500    4.500   10.500    1.000 
#    0.000    0.000    0.000    0.000    0.000    0.000 
#    0.000    0.000    0.000    0.000    0.000    0.000 
#
# Total GULP energy -198282.361282 kJ/mol
# GULP energy per Si atom -12392.647580 kJ/mol
# Density = 2.506969 g / cm^3
# Si number density = 25.126880 Si / 1000 Ang^3
#
#
#
# Elastic Constant Matrix: (Units=GPa)
#
#
# Indices 1 2 3 4 5 6 
#
# 1 93.0699 12.1407 36.1406 0.0000 -13.6931 0.0000
# 2 12.1407 55.6210 19.2518 0.0000 -9.2007 0.0000
# 3 36.1406 19.2518 109.6507 0.0000 -8.8341 0.0000
# 4 0.0000 0.0000 0.0000 54.6762 0.0000 -11.6782
# 5 -13.6931 -9.2007 -8.8341 0.0000 64.1214 0.0000
# 6 0.0000 0.0000 0.0000 -11.6782 0.0000 42.5330
#
#
#
# Elastic Compliance Matrix: (Units=1/GPa)
#
#
# Indices 1 2 3 4 5 6 
#
# 1 0.012669 -0.001110 -0.003818 0.000000 0.002020 0.000000
# 2 -0.001110 0.019584 -0.002897 0.000000 0.002174 0.000000
# 3 -0.003818 -0.002897 0.010909 0.000000 0.000272 0.000000
# 4 0.000000 0.000000 0.000000 0.019429 0.000000 0.005335
# 5 0.002020 0.002174 0.000272 0.000000 0.016376 0.000000
# 6 0.000000 0.000000 0.000000 0.005335 0.000000 0.024976
#
#
# Mechanical properties :
#
#
# Convention : Reuss Voigt Hill
#
# Bulk Modulus (GPa) = 36.34892 43.71199 40.03046
# Shear Modulus (GPa) = 38.83084 44.98670 41.90877
#
# Velocity S-wave (km/s) = 3.93541 4.23588 4.08841
# Velocity P-wave (km/s) = 5.92853 6.43101 6.18487
#
# Compressibility (1/GPa) = 0.02751114
#
# Stress axis : x y z
#
# Youngs Moduli (GPa) = 78.93124 51.06330 91.66780
#
# Poissons Ratio (x) = 0.05666 0.35000
# Poissons Ratio (y) = 0.08759 0.26561
# Poissons Ratio (z) = 0.30137 0.14796
#
# Static dielectric constant tensor:
#      x y z
#    x 4.613550 0.000000 -0.479580 
#    y 0.000000 4.899070 0.000000 
#    z -0.479580 0.000000 5.007810 
# 
# 
# High freq. dielectric constant tensor:
#      x y z
#    x 2.012330 0.000000 -0.024580 
#    y 0.000000 1.987490 0.000000 
#    z -0.024580 0.000000 2.019230 
# 
# From -- ./inp_files/52602.got.cif
#   From: 2010.03.12/outbox.cif.g09.slc.cpg/sg14_27_cif.got.tgz:52602.got - 2010.03.31 13:35:05.
