data_PCOD8129689
_publ_section_title
;
Structure prediction by ZEFSAII (Michael W. Deem and Ramdas Pophale) SiO2 
 PCOD8129689
Probable space group: C 2/C
;
_chemical_formula_sum "Si O2"
_cell_formula_units_Z 64
_cell_length_a 25.974513
_cell_length_b 24.994869
_cell_length_c 5.298974
_cell_angle_alpha 90.000000
_cell_angle_beta 79.878732
_cell_angle_gamma 90.000000
_cell_volume 3386.713383
_symmetry_space_group_name_H-M "C 2/C"
_symmetry_group_IT_number 15
_symmetry_cell_setting 'monoclinic'
loop_
_space_group_symop_operation_xyz
x,y,z
-x,y,1/2-z
-x,-y,-z
x,-y,1/2+z
1/2+x,1/2+y,z
1/2-x,1/2+y,1/2-z
1/2-x,1/2-y,-z
1/2+x,1/2-y,1/2+z
loop_
_atom_site_type_symbol
_atom_site_label
_atom_site_fract_x
_atom_site_fract_y
_atom_site_fract_z
Si Si1 0.557140 0.746092 0.460209
Si Si2 0.890183 0.211642 0.584970
Si Si3 0.216315 0.743710 0.279206
Si Si4 0.579744 0.142620 0.852452
Si Si5 0.943777 0.524204 0.654795
Si Si6 0.327103 0.979034 0.744655
Si Si7 0.981250 0.144822 0.516496
Si Si8 0.645790 0.858584 0.794046
O O1 0.585981 0.746144 0.705721
O O2 0.539146 0.807741 0.430665
O O3 0.508923 0.704350 0.491001
O O4 0.598861 0.734535 0.202919
O O5 0.827952 0.209347 0.676598
O O6 0.918621 0.153091 0.574947
O O7 0.250000 0.750000 0.500000
O O8 0.189433 0.685995 0.303479
O O9 0.250000 0.750000 0.000000
O O10 0.549923 0.086680 0.915561
O O11 0.602601 0.146557 0.550259
O O12 0.624079 0.147095 0.029363
O O13 0.969247 0.487744 0.409097
O O14 0.883780 0.506378 0.744229
O O15 0.327503 0.916060 0.701338
O O16 0.297478 0.006616 0.532731
O O17 0.000000 0.113183 0.250000
O O18 0.000000 0.113006 0.750000
#
# Coordination Sequence:
#
# PCOD8129689 Si02
#       8
#     8   8   8   8   8   8   8   8
#     4  10  17  28  44  68  83 103 133 167 222 273
#     4  10  18  32  46  58  82 108 136 181 222 249
#     4  12  24  35  44  61  87 119 155 179 210 265
#     4  12  17  26  44  62  86 110 132 170 225 274
#     4  10  16  25  36  60  86 103 130 169 207 275
#     4  10  16  27  42  61  81 102 137 179 219 268
#     4   8  16  27  44  63  82  97 127 175 221 260
#     4  12  20  30  44  59  85 116 142 179 226 259
#
# _framework density 18.897376999999999
#
# number of rings (size 3 to 8) (size 9 to 14) (size 15 to 20)
#    0.000    1.500    7.500    1.500    0.000    0.000 
#    0.000    0.000    0.000    0.000    0.000    0.000 
#    0.000   42.000    0.000    0.000    0.000    0.000 
#
# Total GULP energy -396460.116833 kJ/mol
# GULP energy per Si atom -12389.378651 kJ/mol
# Density = 1.885437 g / cm^3
# Si number density = 18.897377 Si / 1000 Ang^3
#
#
#
# Elastic Constant Matrix: (Units=GPa)
#
#
# Indices 1 2 3 4 5 6 
#
# 1 69.0037 -6.5659 30.9418 0.0000 2.1993 0.0000
# 2 -6.5659 27.5493 -0.5734 0.0000 6.6243 0.0000
# 3 30.9418 -0.5734 162.2308 0.0000 16.7098 0.0000
# 4 0.0000 0.0000 0.0000 17.6741 0.0000 0.9156
# 5 2.1993 6.6243 16.7098 0.0000 29.7716 0.0000
# 6 0.0000 0.0000 0.0000 0.9156 0.0000 15.2040
#
#
#
# Elastic Compliance Matrix: (Units=1/GPa)
#
#
# Indices 1 2 3 4 5 6 
#
# 1 0.016240 0.003893 -0.003047 0.000000 -0.000356 0.000000
# 2 0.003893 0.039461 0.000351 0.000000 -0.009265 0.000000
# 3 -0.003047 0.000351 0.007144 0.000000 -0.003863 0.000000
# 4 0.000000 0.000000 0.000000 0.056757 0.000000 -0.003418
# 5 -0.000356 -0.009265 -0.003863 0.000000 0.037845 0.000000
# 6 0.000000 0.000000 0.000000 -0.003418 0.000000 0.065978
#
#
# Mechanical properties :
#
#
# Convention : Reuss Voigt Hill
#
# Bulk Modulus (GPa) = 15.32811 34.04321 24.68566
# Shear Modulus (GPa) = 20.59492 28.19536 24.39514
#
# Velocity S-wave (km/s) = 3.30484 3.86686 3.59685
# Velocity P-wave (km/s) = 4.76355 6.16366 5.50828
#
# Compressibility (1/GPa) = 0.06523964
#
# Stress axis : x y z
#
# Youngs Moduli (GPa) = 61.57627 25.34123 139.97099
#
# Poissons Ratio (x) = -0.09864 0.42650
# Poissons Ratio (y) = -0.23969 -0.04918
# Poissons Ratio (z) = 0.18762 -0.00890
#
# Static dielectric constant tensor:
#      x y z
#    x 3.292420 0.000000 0.311730 
#    y 0.000000 3.036900 0.000000 
#    z 0.311730 0.000000 4.755890 
# 
# 
# High freq. dielectric constant tensor:
#      x y z
#    x 1.692320 0.000000 0.020310 
#    y 0.000000 1.675180 0.000000 
#    z 0.020310 0.000000 1.785490 
# 
# From -- ./inp_files/16364.got.cif
#   From: 2010.06.25/outbox.cif.g09.slc.cpg/sg15_9_cif.got.tgz:16364.got - 2010.06.28 07:06:18.
