data_PCOD8129962
_publ_section_title
;
Structure prediction by ZEFSAII (Michael W. Deem and Ramdas Pophale) SiO2 
 PCOD8129962
Probable space group: C 2/C
;
_chemical_formula_sum "Si O2"
_cell_formula_units_Z 44
_cell_length_a 11.687361
_cell_length_b 15.086326
_cell_length_c 15.369240
_cell_angle_alpha 90.000000
_cell_angle_beta 80.847051
_cell_angle_gamma 90.000000
_cell_volume 2675.389753
_symmetry_space_group_name_H-M "C 2/C"
_symmetry_group_IT_number 15
_symmetry_cell_setting 'monoclinic'
loop_
_space_group_symop_operation_xyz
x,y,z
-x,y,1/2-z
-x,-y,-z
x,-y,1/2+z
1/2+x,1/2+y,z
1/2-x,1/2+y,1/2-z
1/2-x,1/2-y,-z
1/2+x,1/2-y,1/2+z
loop_
_atom_site_type_symbol
_atom_site_label
_atom_site_fract_x
_atom_site_fract_y
_atom_site_fract_z
Si Si1 0.378039 0.219196 0.218907
Si Si2 0.182485 0.083424 0.253818
Si Si3 0.748616 0.111426 0.716932
Si Si4 0.524819 0.660400 0.128261
Si Si5 0.500000 0.822991 0.250000
Si Si6 0.658233 0.701195 0.950929
O O1 0.500000 0.209833 0.250000
O O2 0.304488 0.132366 0.251460
O O3 0.309229 0.306749 0.261430
O O4 0.394990 0.228483 0.112081
O O5 0.126182 0.110448 0.168867
O O6 0.096864 0.110502 0.343129
O O7 0.201342 0.978868 0.251332
O O8 0.610844 0.114167 0.748655
O O9 0.778981 0.121672 0.610206
O O10 0.518090 0.761230 0.163366
O O11 0.555633 0.660751 0.022559
O O12 0.750000 0.750000 0.000000
#
# Coordination Sequence:
#
# PCOD8129962 Si02
#       6
#     8   8   8   8   4   8
#     4  10  21  36  54  82 117 141 174 234 288 314
#     4  10  20  33  55  86 110 144 185 224 278 329
#     4  10  21  33  57  84 107 146 187 223 278 327
#     4  10  17  36  62  76 106 149 196 221 258 333
#     4  10  16  34  58  80 100 154 190 220 254 344
#     4  10  17  36  61  81 105 147 194 225 263 325
#
# _framework density 16.446202
#
# number of rings (size 3 to 8) (size 9 to 14) (size 15 to 20)
#    1.091    1.091    7.273    0.000    3.818    0.727 
#    0.000    0.909    4.000    3.273    0.000    0.000 
#    0.000    0.000    0.000    0.000    0.000    0.000 
#
# Total GULP energy -272658.176258 kJ/mol
# GULP energy per Si atom -12393.553466 kJ/mol
# Density = 1.640877 g / cm^3
# Si number density = 16.446202 Si / 1000 Ang^3
#
#
#
# Elastic Constant Matrix: (Units=GPa)
#
#
# Indices 1 2 3 4 5 6 
#
# 1 107.1551 19.8346 37.4698 0.0000 0.1615 0.0000
# 2 19.8346 72.0700 20.9273 0.0000 -3.3902 0.0000
# 3 37.4698 20.9273 83.5698 0.0000 -5.2039 0.0000
# 4 0.0000 0.0000 0.0000 10.2437 0.0000 -0.4317
# 5 0.1615 -3.3902 -5.2039 0.0000 23.4294 0.0000
# 6 0.0000 0.0000 0.0000 -0.4317 0.0000 29.4948
#
#
#
# Elastic Compliance Matrix: (Units=1/GPa)
#
#
# Indices 1 2 3 4 5 6 
#
# 1 0.011315 -0.001813 -0.004706 0.000000 -0.001385 0.000000
# 2 -0.001813 0.015296 -0.002919 0.000000 0.001577 0.000000
# 3 -0.004706 -0.002919 0.014990 0.000000 0.002939 0.000000
# 4 0.000000 0.000000 0.000000 0.097681 0.000000 0.001430
# 5 -0.001385 0.001577 0.002939 0.000000 0.043572 0.000000
# 6 0.000000 0.000000 0.000000 0.001430 0.000000 0.033925
#
#
# Mechanical properties :
#
#
# Convention : Reuss Voigt Hill
#
# Bulk Modulus (GPa) = 44.00308 46.58425 45.29366
# Shear Modulus (GPa) = 20.55657 24.93780 22.74719
#
# Velocity S-wave (km/s) = 3.53927 3.89823 3.72308
# Velocity P-wave (km/s) = 6.59665 6.97483 6.78837
#
# Compressibility (1/GPa) = 0.02272568
#
# Stress axis : x y z
#
# Youngs Moduli (GPa) = 88.37500 65.37550 66.71103
#
# Poissons Ratio (x) = 0.11852 0.31392
# Poissons Ratio (y) = 0.16021 0.19475
# Poissons Ratio (z) = 0.41587 0.19086
#
# Static dielectric constant tensor:
#      x y z
#    x 3.070730 0.000000 -0.283930 
#    y 0.000000 2.898160 0.000000 
#    z -0.283930 0.000000 3.107270 
# 
# 
# High freq. dielectric constant tensor:
#      x y z
#    x 1.633710 0.000000 -0.015910 
#    y 0.000000 1.619000 0.000000 
#    z -0.015910 0.000000 1.612570 
# 
# From -- ./inp_files/196848.got.cif
#   From: 2010.06.25/outbox.cif.g09.slc.cpg/sg15_99_cif.got.tgz:196848.got - 2010.06.28 07:06:18.
