data_PCOD8129564
_publ_section_title
;
Structure prediction by ZEFSAII (Michael W. Deem and Ramdas Pophale) SiO2 
 PCOD8129564
Probable space group: C 2/C
;
_chemical_formula_sum "Si O2"
_cell_formula_units_Z 32
_cell_length_a 21.000000
_cell_length_b 24.000000
_cell_length_c 18.000000
_cell_angle_alpha 90.000000
_cell_angle_beta 20.000000
_cell_angle_gamma 90.000000
_cell_volume 3102.806740
_symmetry_space_group_name_H-M "C 2/C"
_symmetry_group_IT_number 15
_symmetry_cell_setting 'monoclinic'
loop_
_space_group_symop_operation_xyz
x,y,z
-x,y,1/2-z
-x,-y,-z
x,-y,1/2+z
1/2+x,1/2+y,z
1/2-x,1/2+y,1/2-z
1/2-x,1/2-y,-z
1/2+x,1/2-y,1/2+z
loop_
_atom_site_type_symbol
_atom_site_label
_atom_site_fract_x
_atom_site_fract_y
_atom_site_fract_z
Si Si1 0.108247 0.308305 0.473936
Si Si2 0.033353 0.815861 0.034990
Si Si3 0.995851 0.580212 0.343557
Si Si4 0.641535 0.817541 0.268234
Si Si5 0.404599 0.422731 0.432699
Si Si6 0.119327 0.392895 0.044336
Si Si7 0.349053 0.496335 0.237216
Si Si8 0.425509 0.692139 0.179682
O O1 0.073449 0.243186 0.532809
O O2 0.317745 0.323618 0.260003
O O3 0.997029 0.353280 0.645638
O O4 0.055165 0.316247 0.445704
O O5 0.102827 0.867801 0.007301
O O6 0.124978 0.817145 0.852258
O O7 0.822688 0.549435 0.577187
O O8 0.000000 0.571750 0.250000
O O9 0.192773 0.555453 0.155982
O O10 0.537185 0.868342 0.340565
O O11 0.597855 0.758051 0.276470
O O12 0.865629 0.827199 0.026357
O O13 0.500000 0.406010 0.250000
O O14 0.519228 0.474719 0.341034
O O15 0.000000 0.409096 0.250000
O O16 0.240568 0.445362 0.876620
O O17 0.273846 0.344720 0.891631
O O18 0.500000 0.500000 0.000000
#
# Coordination Sequence:
#
# PCOD8129564 Si02
#       8
#     8   8   8   8   8   8   8   8
#     4  10  21  37  70 105 149 186 237 287 346 431
#     4  10  20  39  67 111 140 187 240 286 341 432
#     4  12  25  47  72 106 146 190 231 296 367 421
#     4  10  22  42  71 106 144 194 232 292 358 430
#     4  12  25  46  76 100 148 193 229 296 367 419
#     4  12  28  46  71 105 142 183 246 305 361 441
#     4  12  29  52  73 101 138 188 253 303 354 436
#     4  10  21  43  70 102 149 185 235 288 357 429
#
# _framework density 10.313243
#
# number of rings (size 3 to 8) (size 9 to 14) (size 15 to 20)
#    0.000    1.000    3.750    1.875    7.000    3.000 
#    0.000    2.500    0.000    0.000    0.000    0.000 
#    0.000    0.000    0.000    0.000    0.000    0.000 
#
# Total GULP energy -396436.723886 kJ/mol
# GULP energy per Si atom -12388.647621 kJ/mol
# Density = 1.028977 g / cm^3
# Si number density = 10.313243 Si / 1000 Ang^3
#
#
#
# Elastic Constant Matrix: (Units=GPa)
#
#
# Indices 1 2 3 4 5 6 
#
# 1 100.7715 47.6254 50.0462 -0.0018 -9.6810 -0.0038
# 2 47.6254 146.0386 49.9835 0.0290 -1.4818 -0.0132
# 3 50.0462 49.9835 151.6739 0.1988 -2.7031 -0.0392
# 4 -0.0018 0.0290 0.1988 52.8978 -0.0516 -2.2112
# 5 -9.6810 -1.4818 -2.7031 -0.0516 50.9490 0.0244
# 6 -0.0038 -0.0132 -0.0392 -2.2112 0.0244 38.1221
#
#
#
# Elastic Compliance Matrix: (Units=1/GPa)
#
#
# Indices 1 2 3 4 5 6 
#
# 1 0.013279 -0.003180 -0.003293 0.000017 0.002256 -0.000004
# 2 -0.003180 0.008480 -0.001753 0.000001 -0.000451 0.000001
# 3 -0.003293 -0.001753 0.008253 -0.000030 -0.000239 0.000006
# 4 0.000017 0.000001 -0.000030 0.018950 0.000020 0.001099
# 5 0.002256 -0.000451 -0.000239 0.000020 0.020030 -0.000012
# 6 -0.000004 0.000001 0.000006 0.001099 -0.000012 0.026295
#
#
# Mechanical properties :
#
#
# Convention : Reuss Voigt Hill
#
# Bulk Modulus (GPa) = 73.75409 77.08824 75.42117
# Shear Modulus (GPa) = 43.00654 45.11570 44.06112
#
# Velocity S-wave (km/s) = 4.57115 4.68190 4.62686
# Velocity P-wave (km/s) = 7.98093 8.16587 8.07393
#
# Compressibility (1/GPa) = 0.01355857
#
# Stress axis : x y z
#
# Youngs Moduli (GPa) = 75.30842 117.92213 121.16419
#
# Poissons Ratio (x) = 0.37504 0.39901
# Poissons Ratio (y) = 0.23951 0.21243
# Poissons Ratio (z) = 0.24800 0.20675
#
# Static dielectric constant tensor:
#      x y z
#    x 3.939620 -0.000230 0.057810 
#    y -0.000230 4.145450 0.001610 
#    z 0.057810 0.001610 4.484670 
# 
# 
# High freq. dielectric constant tensor:
#      x y z
#    x 1.808500 -0.000030 -0.012920 
#    y -0.000030 1.829460 0.000080 
#    z -0.012920 0.000080 1.850670 
# 
# From -- ./inp_files/216959.got.cif
#   From: 2010.06.25/outbox.ucp.g09.slc.cvg/sg15_109_cif.got.tgz:216959.got - 2010.06.28 14:40:10.
