data_PCOD8129118
_publ_section_title
;
Structure prediction by ZEFSAII (Michael W. Deem and Ramdas Pophale) SiO2 
 PCOD8129118
Probable space group: P 21/C
;
_chemical_formula_sum "Si O2"
_cell_formula_units_Z 32
_cell_length_a 27.888667
_cell_length_b 9.291468
_cell_length_c 12.342255
_cell_angle_alpha 90.000000
_cell_angle_beta 152.265602
_cell_angle_gamma 90.000000
_cell_volume 1488.360964
_symmetry_space_group_name_H-M "P 21/C"
_symmetry_group_IT_number 14
_symmetry_cell_setting 'monoclinic'
loop_
_space_group_symop_operation_xyz
x,y,z
-x,1/2+y,1/2-z
-x,-y,-z
x,1/2-y,1/2+z
loop_
_atom_site_type_symbol
_atom_site_label
_atom_site_fract_x
_atom_site_fract_y
_atom_site_fract_z
Si Si1 0.783047 0.119172 0.976843
Si Si2 0.716953 0.619171 0.844656
Si Si3 0.870817 0.685606 0.968433
Si Si4 0.564028 0.503050 0.370081
Si Si5 0.298015 0.376194 0.538181
Si Si6 0.064029 0.996949 0.886030
Si Si7 0.798013 0.376194 0.153878
Si Si8 0.629182 0.314394 0.985162
O O1 0.709655 0.198363 0.744004
O O2 0.713790 0.012028 0.907908
O O3 0.874781 0.033990 0.102123
O O4 0.833620 0.238953 0.155441
O O5 0.790346 0.698360 0.905387
O O6 0.625221 0.533989 0.602999
O O7 0.666378 0.738953 0.820952
O O8 0.786209 0.512027 0.052747
O O9 0.810437 0.657503 0.736477
O O10 0.946231 0.550824 0.137419
O O11 0.934861 0.833189 0.087238
O O12 0.612722 0.592184 0.368949
O O13 0.446231 0.550824 0.147502
O O14 0.565137 0.333189 0.347787
O O15 0.112724 0.907816 0.081940
O O16 0.689560 0.342499 0.994722
#
# Coordination Sequence:
#
# PCOD8129118 Si02
#       8
#     4   4   4   4   4   4   4   4
#     4  11  24  45  66  91 130 172 213 259 317 378
#     4  11  24  45  66  91 130 172 213 259 317 378
#     4  11  26  42  65  99 129 165 215 263 318 378
#     4  11  26  42  65  97 131 165 213 267 316 378
#     4  11  24  45  66  91 130 172 213 259 317 378
#     4  11  26  42  65  97 131 165 213 267 316 378
#     4  11  24  45  66  91 130 172 213 259 317 378
#     4  11  26  42  65  99 129 165 215 263 318 378
#
# _framework density 21.500160000000001
#
# number of rings (size 3 to 8) (size 9 to 14) (size 15 to 20)
#    0.000    1.000    5.000    0.000    7.000    4.000 
#    0.000    0.000    0.000    0.000    0.000    0.000 
#    0.000    0.000    0.000    0.000    0.000    0.000 
#
# Total GULP energy -397064.970000 kJ/mol
# GULP energy per Si atom -12408.280313 kJ/mol
# Density = 2.145122 g / cm^3
# Si number density = 21.500160 Si / 1000 Ang^3
#
#
#
# Elastic Constant Matrix: (Units=GPa)
#
#
# Indices 1 2 3 4 5 6 
#
# 1 61.6637 3.8265 18.5859 0.0000 -12.4115 0.0000
# 2 3.8265 88.4476 -1.2975 0.0000 -6.4092 0.0000
# 3 18.5859 -1.2975 51.0758 0.0000 -0.8243 0.0000
# 4 0.0000 0.0000 0.0000 39.4811 0.0000 -0.2533
# 5 -12.4115 -6.4092 -0.8243 0.0000 31.0640 0.0000
# 6 0.0000 0.0000 0.0000 -0.2533 0.0000 39.6846
#
#
#
# Elastic Compliance Matrix: (Units=1/GPa)
#
#
# Indices 1 2 3 4 5 6 
#
# 1 0.019944 -0.000410 -0.007144 0.000000 0.007694 0.000000
# 2 -0.000410 0.011492 0.000477 0.000000 0.002220 0.000000
# 3 -0.007144 0.000477 0.022155 0.000000 -0.002168 0.000000
# 4 0.000000 0.000000 0.000000 0.025330 0.000000 0.000162
# 5 0.007694 0.002220 -0.002168 0.000000 0.035666 0.000000
# 6 0.000000 0.000000 0.000000 0.000162 0.000000 0.025200
#
#
# Mechanical properties :
#
#
# Convention : Reuss Voigt Hill
#
# Bulk Modulus (GPa) = 25.35641 27.04632 26.20137
# Shear Modulus (GPa) = 29.92457 34.05075 31.98766
#
# Velocity S-wave (km/s) = 3.73477 3.98395 3.86137
# Velocity P-wave (km/s) = 5.51518 5.81114 5.66509
#
# Compressibility (1/GPa) = 0.03943776
#
# Stress axis : x y z
#
# Youngs Moduli (GPa) = 50.13956 87.01916 45.13574
#
# Poissons Ratio (x) = 0.03568 0.32244
# Poissons Ratio (y) = 0.02056 -0.02153
# Poissons Ratio (z) = 0.35818 -0.04151
#
# Static dielectric constant tensor:
#      x y z
#    x 3.932500 0.000000 -0.251050 
#    y 0.000000 3.968210 0.000000 
#    z -0.251050 0.000000 3.731630 
# 
# 
# High freq. dielectric constant tensor:
#      x y z
#    x 1.849450 0.000000 -0.015860 
#    y 0.000000 1.856370 0.000000 
#    z -0.015860 0.000000 1.836760 
# 
# From -- ./inp_files/36444.got.cif
#   From: 2010.03.12/outbox.cif.g09.slc.cpg/sg14_19_cif.got.tgz:36444.got - 2010.03.31 13:35:05.
