data_PCOD8129209
_publ_section_title
;
Structure prediction by ZEFSAII (Michael W. Deem and Ramdas Pophale) SiO2 
 PCOD8129209
Probable space group: P 21/C
;
_chemical_formula_sum "Si O2"
_cell_formula_units_Z 20
_cell_length_a 8.567763
_cell_length_b 17.518919
_cell_length_c 12.425828
_cell_angle_alpha 90.000000
_cell_angle_beta 32.650331
_cell_angle_gamma 90.000000
_cell_volume 1006.236547
_symmetry_space_group_name_H-M "P 21/C"
_symmetry_group_IT_number 14
_symmetry_cell_setting 'monoclinic'
loop_
_space_group_symop_operation_xyz
x,y,z
-x,1/2+y,1/2-z
-x,-y,-z
x,1/2-y,1/2+z
loop_
_atom_site_type_symbol
_atom_site_label
_atom_site_fract_x
_atom_site_fract_y
_atom_site_fract_z
Si Si1 0.436623 0.832377 0.016698
Si Si2 0.942636 0.094780 0.128064
Si Si3 0.105195 0.812164 0.639871
Si Si4 0.574078 0.116554 0.744406
Si Si5 0.338672 0.538391 0.408756
O O1 0.236337 0.771767 0.073335
O O2 0.321083 0.846588 0.204170
O O3 0.424930 0.912229 0.960930
O O4 0.763332 0.802715 0.828883
O O5 0.800583 0.137208 0.312040
O O6 0.707185 0.092435 0.169245
O O7 0.037802 0.008061 0.106248
O O8 0.235754 0.139287 0.919930
O O9 0.220830 0.852728 0.466609
O O10 0.593412 0.023682 0.739330
#
# Coordination Sequence:
#
# PCOD8129209 Si02
#       5
#     4   4   4   4   4
#     4  11  25  40  62  92 129 161 206 260 308 363
#     4   8  20  41  63  93 125 158 202 257 308 367
#     4  11  25  39  63  91 126 166 208 251 315 375
#     4   9  21  41  62  89 121 165 206 252 303 371
#     4   9  19  43  67  87 131 159 201 267 303 353
#
# _framework density 19.876041000000001
#
# number of rings (size 3 to 8) (size 9 to 14) (size 15 to 20)
#    1.200    1.200    0.000    0.600    5.600    3.200 
#    0.000    0.000    0.000    0.000    0.000    0.000 
#    0.000    0.000    0.000    0.000    0.000    0.000 
#
# Total GULP energy -247900.911465 kJ/mol
# GULP energy per Si atom -12395.045573 kJ/mol
# Density = 1.983080 g / cm^3
# Si number density = 19.876041 Si / 1000 Ang^3
#
#
#
# Elastic Constant Matrix: (Units=GPa)
#
#
# Indices 1 2 3 4 5 6 
#
# 1 63.2966 20.9118 30.8472 0.0000 5.2605 0.0000
# 2 20.9118 69.8433 20.1646 0.0000 3.1833 0.0000
# 3 30.8472 20.1646 80.6919 0.0000 17.5417 0.0000
# 4 0.0000 0.0000 0.0000 24.2353 0.0000 10.0772
# 5 5.2605 3.1833 17.5417 0.0000 25.5911 0.0000
# 6 0.0000 0.0000 0.0000 10.0772 0.0000 17.4277
#
#
#
# Elastic Compliance Matrix: (Units=1/GPa)
#
#
# Indices 1 2 3 4 5 6 
#
# 1 0.020514 -0.004158 -0.007049 0.000000 0.001132 0.000000
# 2 -0.004158 0.016290 -0.002616 0.000000 0.000622 0.000000
# 3 -0.007049 -0.002616 0.018044 0.000000 -0.010594 0.000000
# 4 0.000000 0.000000 0.000000 0.054323 0.000000 -0.031411
# 5 0.001132 0.000622 -0.010594 0.000000 0.046028 0.000000
# 6 0.000000 0.000000 0.000000 -0.031411 0.000000 0.075543
#
#
# Mechanical properties :
#
#
# Convention : Reuss Voigt Hill
#
# Bulk Modulus (GPa) = 36.76401 39.74212 38.25306
# Shear Modulus (GPa) = 18.69468 22.91138 20.80303
#
# Velocity S-wave (km/s) = 3.07019 3.39885 3.23869
# Velocity P-wave (km/s) = 5.57717 5.95326 5.76828
#
# Compressibility (1/GPa) = 0.02720051
#
# Stress axis : x y z
#
# Youngs Moduli (GPa) = 48.74792 61.38790 55.41872
#
# Poissons Ratio (x) = 0.25528 0.39065
# Poissons Ratio (y) = 0.20272 0.14499
# Poissons Ratio (z) = 0.34363 0.16061
#
# Static dielectric constant tensor:
#      x y z
#    x 3.557280 0.000000 0.103830 
#    y 0.000000 3.523910 0.000000 
#    z 0.103830 0.000000 3.250460 
# 
# 
# High freq. dielectric constant tensor:
#      x y z
#    x 1.781780 0.000000 0.012520 
#    y 0.000000 1.770330 0.000000 
#    z 0.012520 0.000000 1.746910 
# 
# From -- ./inp_files/26224.got.cif
#   From: 2010.03.12/outbox.cif.g09.slc.cpg/sg14_14_cif.got.tgz:26224.got - 2010.03.31 13:35:05.
