data_PCOD8129825
_publ_section_title
;
Structure prediction by ZEFSAII (Michael W. Deem and Ramdas Pophale) SiO2 
 PCOD8129825
Probable space group: C 2/C
;
_chemical_formula_sum "Si O2"
_cell_formula_units_Z 56
_cell_length_a 20.781098
_cell_length_b 27.192218
_cell_length_c 5.329970
_cell_angle_alpha 90.000000
_cell_angle_beta 62.590514
_cell_angle_gamma 90.000000
_cell_volume 2673.765263
_symmetry_space_group_name_H-M "C 2/C"
_symmetry_group_IT_number 15
_symmetry_cell_setting 'monoclinic'
loop_
_space_group_symop_operation_xyz
x,y,z
-x,y,1/2-z
-x,-y,-z
x,-y,1/2+z
1/2+x,1/2+y,z
1/2-x,1/2+y,1/2-z
1/2-x,1/2-y,-z
1/2+x,1/2-y,1/2+z
loop_
_atom_site_type_symbol
_atom_site_label
_atom_site_fract_x
_atom_site_fract_y
_atom_site_fract_z
Si Si1 0.588127 0.822569 0.337392
Si Si2 0.453187 0.389954 0.583511
Si Si3 0.077793 0.527593 0.270629
Si Si4 0.046071 0.780281 0.917597
Si Si5 0.745823 0.951889 0.444826
Si Si6 0.928439 0.638117 0.134488
Si Si7 0.304381 0.441823 0.839142
O O1 0.605409 0.763949 0.303551
O O2 0.620074 0.847586 0.533620
O O3 0.500869 0.829523 0.499326
O O4 0.618250 0.849797 0.033125
O O5 0.500000 0.398020 0.750000
O O6 0.419083 0.334723 0.639544
O O7 0.388288 0.428376 0.704510
O O8 0.500000 0.399381 0.250000
O O9 0.051424 0.489224 0.536807
O O10 0.048151 0.581325 0.392028
O O11 0.164353 0.529150 0.116317
O O12 0.000000 0.774915 0.750000
O O13 0.000000 0.772458 0.250000
O O14 0.767843 0.919718 0.649971
O O15 0.797992 0.999259 0.336083
O O16 0.760724 0.921285 0.162234
#
# Coordination Sequence:
#
# PCOD8129825 Si02
#       7
#     8   8   8   8   8   8   8
#     4  10  17  35  47  76 106 137 168 193 263 324
#     4  10  21  32  50  84 112 129 168 207 252 307
#     4  12  21  37  52  79 100 130 185 224 249 284
#     4  10  16  30  53  71 106 136 165 204 237 308
#     4  10  19  35  55  68  97 140 181 213 248 296
#     4  10  20  30  54  74 103 136 172 208 250 308
#     4  10  18  35  53  74 101 138 174 203 258 300
#
# _framework density 20.944247000000001
#
# number of rings (size 3 to 8) (size 9 to 14) (size 15 to 20)
#    0.000    1.714    5.714    1.714    0.000    0.000 
#    0.000   17.143    0.000    0.000    0.000    6.000 
#    0.000    0.000    0.000    0.000    0.000    0.000 
#
# Total GULP energy -346951.050685 kJ/mol
# GULP energy per Si atom -12391.108953 kJ/mol
# Density = 2.089658 g / cm^3
# Si number density = 20.944247 Si / 1000 Ang^3
#
#
#
# Elastic Constant Matrix: (Units=GPa)
#
#
# Indices 1 2 3 4 5 6 
#
# 1 56.4285 22.0017 56.0532 0.0000 26.8358 0.0000
# 2 22.0017 72.1657 19.0753 0.0000 -4.1481 0.0000
# 3 56.0532 19.0753 169.6305 0.0000 49.0344 0.0000
# 4 0.0000 0.0000 0.0000 22.7012 0.0000 8.5301
# 5 26.8358 -4.1481 49.0344 0.0000 46.5344 0.0000
# 6 0.0000 0.0000 0.0000 8.5301 0.0000 7.5016
#
#
#
# Elastic Compliance Matrix: (Units=1/GPa)
#
#
# Indices 1 2 3 4 5 6 
#
# 1 0.034356 -0.009658 -0.006170 0.000000 -0.014172 0.000000
# 2 -0.009658 0.017610 -0.001226 0.000000 0.008432 0.000000
# 3 -0.006170 -0.001226 0.010174 0.000000 -0.007272 0.000000
# 4 0.000000 0.000000 0.000000 0.076914 0.000000 -0.087459
# 5 -0.014172 0.008432 -0.007272 0.000000 0.038076 0.000000
# 6 0.000000 0.000000 0.000000 -0.087459 0.000000 0.232754
#
#
# Mechanical properties :
#
#
# Convention : Reuss Voigt Hill
#
# Bulk Modulus (GPa) = 35.67376 54.72059 45.19717
# Shear Modulus (GPa) = 11.02933 28.75374 19.89153
#
# Velocity S-wave (km/s) = 2.29728 3.70925 3.08512
# Velocity P-wave (km/s) = 4.90982 6.67294 5.85809
#
# Compressibility (1/GPa) = 0.02803181
#
# Stress axis : x y z
#
# Youngs Moduli (GPa) = 29.10682 56.78490 98.29147
#
# Poissons Ratio (x) = 0.54844 0.60646
# Poissons Ratio (y) = 0.28112 0.12051
# Poissons Ratio (z) = 0.17959 0.06962
#
# Static dielectric constant tensor:
#      x y z
#    x 3.730670 0.000000 0.975700 
#    y 0.000000 3.810040 0.000000 
#    z 0.975700 0.000000 5.012810 
# 
# 
# High freq. dielectric constant tensor:
#      x y z
#    x 1.780180 0.000000 0.049530 
#    y 0.000000 1.801570 0.000000 
#    z 0.049530 0.000000 1.846760 
# 
# From -- ./inp_files/16337.got.cif
#   From: 2010.06.25/outbox.cif.g09.slc.cpg/sg15_9_cif.got.tgz:16337.got - 2010.06.28 07:06:18.
