data_PCOD8129887
_publ_section_title
;
Structure prediction by ZEFSAII (Michael W. Deem and Ramdas Pophale) SiO2 
 PCOD8129887
Probable space group: C 2/C
;
_chemical_formula_sum "Si O2"
_cell_formula_units_Z 60
_cell_length_a 8.532862
_cell_length_b 17.271036
_cell_length_c 20.225338
_cell_angle_alpha 90.000000
_cell_angle_beta 115.714179
_cell_angle_gamma 90.000000
_cell_volume 2685.462385
_symmetry_space_group_name_H-M "C 2/C"
_symmetry_group_IT_number 15
_symmetry_cell_setting 'monoclinic'
loop_
_space_group_symop_operation_xyz
x,y,z
-x,y,1/2-z
-x,-y,-z
x,-y,1/2+z
1/2+x,1/2+y,z
1/2-x,1/2+y,1/2-z
1/2-x,1/2-y,-z
1/2+x,1/2-y,1/2+z
loop_
_atom_site_type_symbol
_atom_site_label
_atom_site_fract_x
_atom_site_fract_y
_atom_site_fract_z
Si Si1 0.120935 0.169635 0.711956
Si Si2 0.675175 0.934065 0.170001
Si Si3 0.528494 0.419540 0.611538
Si Si4 0.000000 0.955131 0.750000
Si Si5 0.070880 0.443210 0.835121
Si Si6 0.365741 0.577731 0.579520
Si Si7 0.396285 0.299521 0.971249
Si Si8 0.012070 0.705576 0.397162
O O1 0.303466 0.140279 0.776963
O O2 0.000000 0.194099 0.750000
O O3 0.035206 0.100644 0.653432
O O4 0.135514 0.246044 0.669145
O O5 0.694496 0.913987 0.095554
O O6 0.828968 0.992660 0.217694
O O7 0.489564 0.971845 0.152337
O O8 0.507993 0.402019 0.685821
O O9 0.723097 0.443143 0.626807
O O10 0.397807 0.487964 0.564523
O O11 0.487450 0.338634 0.565344
O O12 0.988970 0.384338 0.875134
O O13 0.000000 0.420696 0.750000
O O14 0.341938 0.631409 0.512044
O O15 0.209290 0.267807 0.910452
O O16 0.501834 0.230231 0.027430
#
# Coordination Sequence:
#
# PCOD8129887 Si02
#       8
#     8   8   8   4   8   8   8   8
#     4   9  14  28  49  74 102 135 173 214 262 309
#     4  10  17  30  52  81 104 134 175 223 271 314
#     4  10  18  30  51  79 107 132 176 223 271 308
#     4  10  16  32  50  76 102 136 172 224 272 312
#     4  11  19  30  49  85 112 133 169 231 278 308
#     4   9  16  30  52  75 102 140 177 221 259 315
#     4   9  18  32  49  75 108 140 186 217 255 312
#     4   9  19  30  46  75 113 137 173 223 258 311
#
# _framework density 22.342521999999999
#
# number of rings (size 3 to 8) (size 9 to 14) (size 15 to 20)
#    0.000    2.400    4.667    0.800    0.000    0.000 
#    0.000    2.667    0.000    3.200    8.667    3.733 
#    0.000    0.000    0.000    0.000    0.000    0.000 
#
# Total GULP energy -371642.906671 kJ/mol
# GULP energy per Si atom -12388.096889 kJ/mol
# Density = 2.229167 g / cm^3
# Si number density = 22.342522 Si / 1000 Ang^3
#
#
#
# Elastic Constant Matrix: (Units=GPa)
#
#
# Indices 1 2 3 4 5 6 
#
# 1 43.9384 18.2439 17.7132 0.0000 -7.6529 0.0000
# 2 18.2439 60.0328 27.4947 0.0000 -6.4440 0.0000
# 3 17.7132 27.4947 87.7708 0.0000 -21.9073 0.0000
# 4 0.0000 0.0000 0.0000 32.3500 0.0000 -4.6455
# 5 -7.6529 -6.4440 -21.9073 0.0000 25.9246 0.0000
# 6 0.0000 0.0000 0.0000 -4.6455 0.0000 24.0031
#
#
#
# Elastic Compliance Matrix: (Units=1/GPa)
#
#
# Indices 1 2 3 4 5 6 
#
# 1 0.027259 -0.006766 -0.002272 0.000000 0.004445 0.000000
# 2 -0.006766 0.021130 -0.005628 0.000000 -0.001501 0.000000
# 3 -0.002272 -0.005628 0.016600 0.000000 0.011957 0.000000
# 4 0.000000 0.000000 0.000000 0.031796 0.000000 0.006154
# 5 0.004445 -0.001501 0.011957 0.000000 0.049617 0.000000
# 6 0.000000 0.000000 0.000000 0.006154 0.000000 0.042852
#
#
# Mechanical properties :
#
#
# Convention : Reuss Voigt Hill
#
# Bulk Modulus (GPa) = 28.04646 35.40507 31.72577
# Shear Modulus (GPa) = 21.69464 25.00824 23.35144
#
# Velocity S-wave (km/s) = 3.11947 3.34924 3.23640
# Velocity P-wave (km/s) = 5.05520 5.55315 5.31001
#
# Compressibility (1/GPa) = 0.03565512
#
# Stress axis : x y z
#
# Youngs Moduli (GPa) = 36.68560 47.32518 60.24266
#
# Poissons Ratio (x) = 0.32021 0.13688
# Poissons Ratio (y) = 0.24822 0.33907
# Poissons Ratio (z) = 0.08336 0.26637
#
# Static dielectric constant tensor:
#      x y z
#    x 3.595570 0.000000 -0.295420 
#    y 0.000000 4.029530 0.000000 
#    z -0.295420 0.000000 4.507470 
# 
# 
# High freq. dielectric constant tensor:
#      x y z
#    x 1.816270 0.000000 -0.015010 
#    y 0.000000 1.863500 0.000000 
#    z -0.015010 0.000000 1.889010 
# 
# From -- ./inp_files/232742.got.cif
#   From: 2010.06.25/outbox.cif.g09.slc.cpg/sg15_117_cif.got.tgz:232742.got - 2010.06.28 07:06:18.
