data_PCOD8129028
_publ_section_title
;
Structure prediction by ZEFSAII (Michael W. Deem and Ramdas Pophale) SiO2 
 PCOD8129028
Probable space group: P 21/C
;
_chemical_formula_sum "Si O2"
_cell_formula_units_Z 28
_cell_length_a 15.224009
_cell_length_b 8.307044
_cell_length_c 22.496505
_cell_angle_alpha 90.000000
_cell_angle_beta 28.314229
_cell_angle_gamma 90.000000
_cell_volume 1349.428867
_symmetry_space_group_name_H-M "P 21/C"
_symmetry_group_IT_number 14
_symmetry_cell_setting 'monoclinic'
loop_
_space_group_symop_operation_xyz
x,y,z
-x,1/2+y,1/2-z
-x,-y,-z
x,1/2-y,1/2+z
loop_
_atom_site_type_symbol
_atom_site_label
_atom_site_fract_x
_atom_site_fract_y
_atom_site_fract_z
Si Si1 0.616365 0.637682 0.786574
Si Si2 0.352162 0.432128 0.542489
Si Si3 0.084333 0.603433 0.895424
Si Si4 0.873834 0.677086 0.218630
Si Si5 0.539215 0.224898 0.329767
Si Si6 0.236918 0.159311 0.928023
Si Si7 0.745014 0.349516 0.502197
O O1 0.738508 0.693894 0.769217
O O2 0.550989 0.459798 0.841563
O O3 0.747585 0.632722 0.651222
O O4 0.445706 0.755080 0.874264
O O5 0.500000 0.500000 0.500000
O O6 0.190158 0.343377 0.675228
O O7 0.452042 0.311557 0.438326
O O8 0.257092 0.575921 0.562430
O O9 0.143074 0.489291 0.806592
O O10 0.268222 0.696570 0.806324
O O11 0.000000 0.500000 0.000000
O O12 0.946363 0.736692 0.951427
O O13 0.086256 0.728087 0.092124
O O14 0.408926 0.238611 0.350021
O O15 0.228030 0.986732 0.964573
#
# Coordination Sequence:
#
# PCOD8129028 Si02
#       7
#     4   4   4   4   4   4   4
#     4  12  24  42  68 104 140 180 222 284 344 408
#     4  11  23  51  67  93 140 182 227 288 336 400
#     4  12  25  42  68 103 136 180 223 280 344 404
#     4  12  25  44  72  97 137 181 228 286 343 400
#     4  11  26  43  70  99 137 183 228 279 341 408
#     4  11  25  42  68 101 143 179 224 277 346 414
#     4  11  26  43  69 101 134 183 232 280 339 403
#
# _framework density 20.749517999999998
#
# number of rings (size 3 to 8) (size 9 to 14) (size 15 to 20)
#    0.000    0.571    4.286    3.429    6.000    5.143 
#    2.571    0.000    0.000    0.000    0.000    0.000 
#    0.000    0.000    0.000    0.000    0.000    0.000 
#
# Total GULP energy -347365.035519 kJ/mol
# GULP energy per Si atom -12405.894126 kJ/mol
# Density = 2.070229 g / cm^3
# Si number density = 20.749518 Si / 1000 Ang^3
#
#
#
# Elastic Constant Matrix: (Units=GPa)
#
#
# Indices 1 2 3 4 5 6 
#
# 1 67.6323 21.1764 31.9593 0.0000 -1.8041 0.0000
# 2 21.1764 88.0147 18.5554 0.0000 5.3956 0.0000
# 3 31.9593 18.5554 87.9175 0.0000 1.0700 0.0000
# 4 0.0000 0.0000 0.0000 36.2613 0.0000 -11.2195
# 5 -1.8041 5.3956 1.0700 0.0000 40.0930 0.0000
# 6 0.0000 0.0000 0.0000 -11.2195 0.0000 38.6850
#
#
#
# Elastic Compliance Matrix: (Units=1/GPa)
#
#
# Indices 1 2 3 4 5 6 
#
# 1 0.018762 -0.003309 -0.006140 0.000000 0.001453 0.000000
# 2 -0.003309 0.012569 -0.001428 0.000000 -0.001802 0.000000
# 3 -0.006140 -0.001428 0.013913 0.000000 -0.000455 0.000000
# 4 0.000000 0.000000 0.000000 0.030296 0.000000 0.008787
# 5 0.001453 -0.001802 -0.000455 0.000000 0.025262 0.000000
# 6 0.000000 0.000000 0.000000 0.008787 0.000000 0.028398
#
#
# Mechanical properties :
#
#
# Convention : Reuss Voigt Hill
#
# Bulk Modulus (GPa) = 42.56887 42.99409 42.78148
# Shear Modulus (GPa) = 31.48926 34.46607 32.97766
#
# Velocity S-wave (km/s) = 3.89985 4.08002 3.99095
# Velocity P-wave (km/s) = 6.39051 6.55446 6.47300
#
# Compressibility (1/GPa) = 0.02349134
#
# Stress axis : x y z
#
# Youngs Moduli (GPa) = 53.29960 79.55822 71.87492
#
# Poissons Ratio (x) = 0.26325 0.44128
# Poissons Ratio (y) = 0.17636 0.10264
# Poissons Ratio (z) = 0.32724 0.11361
#
# Static dielectric constant tensor:
#      x y z
#    x 3.997550 0.000000 0.041130 
#    y 0.000000 3.931050 0.000000 
#    z 0.041130 0.000000 3.896190 
# 
# 
# High freq. dielectric constant tensor:
#      x y z
#    x 1.822470 0.000000 -0.006050 
#    y 0.000000 1.823590 0.000000 
#    z -0.006050 0.000000 1.819430 
# 
# From -- ./inp_files/50138.got.cif
#   From: 2010.03.12/outbox.cif.g09.slc.cpg/sg14_26_cif.got.tgz:50138.got - 2010.03.31 13:35:05.
