data_PCOD8129082
_publ_section_title
;
Structure prediction by ZEFSAII (Michael W. Deem and Ramdas Pophale) SiO2 
 PCOD8129082
Probable space group: P 21/C
;
_chemical_formula_sum "Si O2"
_cell_formula_units_Z 24
_cell_length_a 20.342539
_cell_length_b 12.311714
_cell_length_c 13.632465
_cell_angle_alpha 90.000000
_cell_angle_beta 160.700326
_cell_angle_gamma 90.000000
_cell_volume 1128.447573
_symmetry_space_group_name_H-M "P 21/C"
_symmetry_group_IT_number 14
_symmetry_cell_setting 'monoclinic'
loop_
_space_group_symop_operation_xyz
x,y,z
-x,1/2+y,1/2-z
-x,-y,-z
x,1/2-y,1/2+z
loop_
_atom_site_type_symbol
_atom_site_label
_atom_site_fract_x
_atom_site_fract_y
_atom_site_fract_z
Si Si1 0.023200 0.161041 0.725057
Si Si2 0.285455 0.002169 0.434676
Si Si3 0.724109 0.986794 0.345543
Si Si4 0.364116 0.502653 0.710841
Si Si5 0.023814 0.826557 0.693364
Si Si6 0.013674 0.813382 0.002202
O O1 0.012308 0.268603 0.643544
O O2 0.854250 0.072312 0.465806
O O3 0.965704 0.204013 0.751465
O O4 0.242532 0.109371 0.032045
O O5 0.262497 0.001587 0.518979
O O6 0.508940 0.014537 0.709942
O O7 0.166374 0.105382 0.222912
O O8 0.211521 0.886694 0.287416
O O9 0.811755 0.872685 0.431765
O O10 0.500000 0.000000 0.000000
O O11 0.208686 0.602148 0.492135
O O12 0.500000 0.500000 0.000000
O O13 0.023606 0.800098 0.577317
#
# Coordination Sequence:
#
# PCOD8129082 Si02
#       6
#     4   4   4   4   4   4
#     4  11  24  45  67  97 131 179 214 270 328 390
#     4  11  24  45  68  98 130 179 215 276 327 385
#     4  11  26  43  67  97 138 166 222 272 328 386
#     4  11  26  42  68  99 137 169 221 272 329 390
#     4  11  24  45  67  97 131 179 214 270 328 390
#     4  11  24  43  72  92 136 171 228 265 328 390
#
# _framework density 21.268156999999999
#
# number of rings (size 3 to 8) (size 9 to 14) (size 15 to 20)
#    0.000    1.000    3.333    2.000    9.333    6.667 
#    0.000    0.000    0.000    0.000    0.000    0.000 
#    0.000    0.000    0.000    0.000    0.000    0.000 
#
# Total GULP energy -297520.402211 kJ/mol
# GULP energy per Si atom -12396.683425 kJ/mol
# Density = 2.121975 g / cm^3
# Si number density = 21.268157 Si / 1000 Ang^3
#
#
#
# Elastic Constant Matrix: (Units=GPa)
#
#
# Indices 1 2 3 4 5 6 
#
# 1 76.8402 37.8364 36.9082 0.0000 10.1881 0.0000
# 2 37.8364 100.6194 47.4538 0.0000 -2.0585 0.0000
# 3 36.9082 47.4538 141.0819 0.0000 9.0068 0.0000
# 4 0.0000 0.0000 0.0000 26.1584 0.0000 -7.0399
# 5 10.1881 -2.0585 9.0068 0.0000 36.8564 0.0000
# 6 0.0000 0.0000 0.0000 -7.0399 0.0000 43.0694
#
#
#
# Elastic Compliance Matrix: (Units=1/GPa)
#
#
# Indices 1 2 3 4 5 6 
#
# 1 0.017508 -0.005531 -0.002429 0.000000 -0.004555 0.000000
# 2 -0.005531 0.013660 -0.003346 0.000000 0.003110 0.000000
# 3 -0.002429 -0.003346 0.008958 0.000000 -0.001705 0.000000
# 4 0.000000 0.000000 0.000000 0.039988 0.000000 0.006536
# 5 -0.004555 0.003110 -0.001705 0.000000 0.028982 0.000000
# 6 0.000000 0.000000 0.000000 0.006536 0.000000 0.024287
#
#
# Mechanical properties :
#
#
# Convention : Reuss Voigt Hill
#
# Bulk Modulus (GPa) = 57.09954 62.54869 59.82412
# Shear Modulus (GPa) = 30.89600 34.30638 32.60119
#
# Velocity S-wave (km/s) = 3.81555 4.02062 3.91943
# Velocity P-wave (km/s) = 6.80565 7.14334 6.97654
#
# Compressibility (1/GPa) = 0.01751328
#
# Stress axis : x y z
#
# Youngs Moduli (GPa) = 57.11559 73.20569 111.63400
#
# Poissons Ratio (x) = 0.40493 0.27116
# Poissons Ratio (y) = 0.31593 0.37354
# Poissons Ratio (z) = 0.13873 0.24496
#
# Static dielectric constant tensor:
#      x y z
#    x 3.818390 0.000000 0.020490 
#    y 0.000000 3.852900 0.000000 
#    z 0.020490 0.000000 3.828190 
# 
# 
# High freq. dielectric constant tensor:
#      x y z
#    x 1.845070 0.000000 0.002770 
#    y 0.000000 1.845840 0.000000 
#    z 0.002770 0.000000 1.827400 
# 
# From -- ./inp_files/44287.got.cif
#   From: 2010.03.12/outbox.cif.g09.slc.cpg/sg14_23_cif.got.tgz:44287.got - 2010.03.31 13:35:05.
