data_PCOD8129823
_publ_section_title
;
Structure prediction by ZEFSAII (Michael W. Deem and Ramdas Pophale) SiO2 
 PCOD8129823
Probable space group: C 2/C
;
_chemical_formula_sum "Si O2"
_cell_formula_units_Z 56
_cell_length_a 28.233648
_cell_length_b 10.623558
_cell_length_c 13.073695
_cell_angle_alpha 90.000000
_cell_angle_beta 139.708607
_cell_angle_gamma 90.000000
_cell_volume 2535.838241
_symmetry_space_group_name_H-M "C 2/C"
_symmetry_group_IT_number 15
_symmetry_cell_setting 'monoclinic'
loop_
_space_group_symop_operation_xyz
x,y,z
-x,y,1/2-z
-x,-y,-z
x,-y,1/2+z
1/2+x,1/2+y,z
1/2-x,1/2+y,1/2-z
1/2-x,1/2-y,-z
1/2+x,1/2-y,1/2+z
loop_
_atom_site_type_symbol
_atom_site_label
_atom_site_fract_x
_atom_site_fract_y
_atom_site_fract_z
Si Si1 0.381315 0.882120 0.180823
Si Si2 0.596730 0.390110 0.546231
Si Si3 0.653738 0.855500 0.814743
Si Si4 0.000000 0.066251 0.250000
Si Si5 0.510799 0.150909 0.457270
Si Si6 0.869680 0.109222 0.170537
Si Si7 0.698634 0.635260 0.037589
Si Si8 0.500000 0.029045 0.750000
O O1 0.437152 0.895736 0.367574
O O2 0.334629 0.751565 0.111575
O O3 0.428760 0.884909 0.154438
O O4 0.331972 0.008814 0.105451
O O5 0.558475 0.492931 0.414094
O O6 0.535989 0.283840 0.456000
O O7 0.619884 0.439694 0.696114
O O8 0.670346 0.346132 0.607001
O O9 0.572152 0.840637 0.636069
O O10 0.661982 0.742637 0.908757
O O11 0.713434 0.846406 0.821861
O O12 0.949171 0.138313 0.248619
O O13 0.517116 0.055496 0.375192
O O14 0.821174 0.005653 0.034119
#
# Coordination Sequence:
#
# PCOD8129823 Si02
#       8
#     8   8   8   4   8   8   8   4
#     4  10  21  35  56  85 114 141 183 238 284 327
#     4  10  19  35  58  84 115 150 189 234 284 336
#     4  10  20  38  59  81 113 149 192 234 274 334
#     4  10  18  32  56  84 111 146 191 238 277 332
#     4  10  19  34  59  86 111 143 187 238 281 327
#     4  10  21  36  55  83 116 148 185 233 288 336
#     4  10  22  39  58  81 114 156 193 227 277 343
#     4  10  16  30  52  82 111 140 177 224 279 328
#
# _framework density 22.083425999999999
#
# number of rings (size 3 to 8) (size 9 to 14) (size 15 to 20)
#    0.000    2.000    0.000    6.429    0.000    1.714 
#    0.000   14.286    0.000    0.000    0.000    0.000 
#    0.000    0.000    0.000    0.000    0.000    0.000 
#
# Total GULP energy -346925.644305 kJ/mol
# GULP energy per Si atom -12390.201582 kJ/mol
# Density = 2.203316 g / cm^3
# Si number density = 22.083426 Si / 1000 Ang^3
#
#
#
# Elastic Constant Matrix: (Units=GPa)
#
#
# Indices 1 2 3 4 5 6 
#
# 1 133.0272 7.6636 29.4573 0.0000 13.0217 0.0000
# 2 7.6636 100.4582 22.2940 0.0000 4.9253 0.0000
# 3 29.4573 22.2940 38.1456 0.0000 4.0896 0.0000
# 4 0.0000 0.0000 0.0000 19.1060 0.0000 7.1441
# 5 13.0217 4.9253 4.0896 0.0000 26.3753 0.0000
# 6 0.0000 0.0000 0.0000 7.1441 0.0000 34.4313
#
#
#
# Elastic Compliance Matrix: (Units=1/GPa)
#
#
# Indices 1 2 3 4 5 6 
#
# 1 0.009500 0.001146 -0.007607 0.000000 -0.003725 0.000000
# 2 0.001146 0.011609 -0.007501 0.000000 -0.001570 0.000000
# 3 -0.007607 -0.007501 0.036528 0.000000 -0.000507 0.000000
# 4 0.000000 0.000000 0.000000 0.056742 0.000000 -0.011773
# 5 -0.003725 -0.001570 -0.000507 0.000000 0.040125 0.000000
# 6 0.000000 0.000000 0.000000 -0.011773 0.000000 0.031486
#
#
# Mechanical properties :
#
#
# Convention : Reuss Voigt Hill
#
# Bulk Modulus (GPa) = 33.65547 43.38454 38.52000
# Shear Modulus (GPa) = 22.33947 30.13026 26.23486
#
# Velocity S-wave (km/s) = 3.18401 3.69776 3.45046
# Velocity P-wave (km/s) = 5.36567 6.15789 5.77538
#
# Compressibility (1/GPa) = 0.02971285
#
# Stress axis : x y z
#
# Youngs Moduli (GPa) = 105.25952 86.14255 27.37611
#
# Poissons Ratio (x) = -0.09872 0.20825
# Poissons Ratio (y) = -0.12063 0.20536
# Poissons Ratio (z) = 0.80070 0.64618
#
# Static dielectric constant tensor:
#      x y z
#    x 4.749820 0.000000 0.011570 
#    y 0.000000 4.226870 0.000000 
#    z 0.011570 0.000000 3.509780 
# 
# 
# High freq. dielectric constant tensor:
#      x y z
#    x 1.887070 0.000000 0.002160 
#    y 0.000000 1.885420 0.000000 
#    z 0.002160 0.000000 1.824360 
# 
# From -- ./inp_files/181596.got.cif
#   From: 2010.06.25/outbox.cif.g09.slc.cpg/sg15_91_cif.got.tgz:181596.got - 2010.06.28 07:06:18.
