data_PCOD8129084
_publ_section_title
;
Structure prediction by ZEFSAII (Michael W. Deem and Ramdas Pophale) SiO2 
 PCOD8129084
Probable space group: P 21/C
;
_chemical_formula_sum "Si O2"
_cell_formula_units_Z 28
_cell_length_a 17.303138
_cell_length_b 5.305270
_cell_length_c 25.428797
_cell_angle_alpha 90.000000
_cell_angle_beta 31.226373
_cell_angle_gamma 90.000000
_cell_volume 1210.153582
_symmetry_space_group_name_H-M "P 21/C"
_symmetry_group_IT_number 14
_symmetry_cell_setting 'monoclinic'
loop_
_space_group_symop_operation_xyz
x,y,z
-x,1/2+y,1/2-z
-x,-y,-z
x,1/2-y,1/2+z
loop_
_atom_site_type_symbol
_atom_site_label
_atom_site_fract_x
_atom_site_fract_y
_atom_site_fract_z
Si Si1 0.662459 0.569240 0.886850
Si Si2 0.916349 0.774700 0.314933
Si Si3 0.132416 0.347670 0.447799
Si Si4 0.365862 0.042091 0.262775
Si Si5 0.071176 0.053672 0.581809
Si Si6 0.738097 0.055672 0.784946
Si Si7 0.325234 0.764208 0.892683
O O1 0.760374 0.651007 0.879683
O O2 0.734231 0.319226 0.818745
O O3 0.644354 0.817029 0.860750
O O4 0.500000 0.500000 0.000000
O O5 0.892943 0.751142 0.391725
O O6 0.967378 0.502580 0.264060
O O7 0.226650 0.234198 0.345070
O O8 0.054615 0.153018 0.532071
O O9 0.250104 0.483883 0.416483
O O10 0.000000 0.500000 0.500000
O O11 0.524294 0.179379 0.162848
O O12 0.330598 0.871864 0.232393
O O13 0.367808 0.899458 0.317056
O O14 0.906484 0.942669 0.687642
O O15 0.207870 0.857356 0.501654
#
# Coordination Sequence:
#
# PCOD8129084 Si02
#       7
#     4   4   4   4   4   4   4
#     4  12  28  50  72 110 146 191 242 306 370 433
#     4  12  25  48  76 104 148 189 243 311 360 432
#     4  11  24  43  73 102 150 184 243 296 356 448
#     4  11  25  43  69 104 144 195 231 304 363 433
#     4  11  26  43  72 109 135 196 244 295 370 427
#     4  12  27  47  77 105 147 188 247 299 368 436
#     4  11  24  44  67 103 147 182 244 293 363 440
#
# _framework density 23.137559
#
# number of rings (size 3 to 8) (size 9 to 14) (size 15 to 20)
#    0.000    0.571    4.286    2.143   10.000    3.429 
#    0.000    0.000    0.000    0.000    0.000    0.000 
#    0.000    0.000    0.000    0.000    0.000    0.000 
#
# Total GULP energy -347046.149842 kJ/mol
# GULP energy per Si atom -12394.505352 kJ/mol
# Density = 2.308490 g / cm^3
# Si number density = 23.137559 Si / 1000 Ang^3
#
#
#
# Elastic Constant Matrix: (Units=GPa)
#
#
# Indices 1 2 3 4 5 6 
#
# 1 94.3368 -14.1400 23.2710 0.0000 -13.0236 0.0000
# 2 -14.1400 71.7905 9.4041 0.0000 0.5444 0.0000
# 3 23.2710 9.4041 101.5351 0.0000 -16.5007 0.0000
# 4 0.0000 0.0000 0.0000 24.1537 0.0000 -6.5816
# 5 -13.0236 0.5444 -16.5007 0.0000 33.6681 0.0000
# 6 0.0000 0.0000 0.0000 -6.5816 0.0000 35.0110
#
#
#
# Elastic Compliance Matrix: (Units=1/GPa)
#
#
# Indices 1 2 3 4 5 6 
#
# 1 0.012081 0.002676 -0.002460 0.000000 0.003424 0.000000
# 2 0.002676 0.014721 -0.002007 0.000000 -0.000187 0.000000
# 3 -0.002460 -0.002007 0.011353 0.000000 0.004645 0.000000
# 4 0.000000 0.000000 0.000000 0.043637 0.000000 0.008203
# 5 0.003424 -0.000187 0.004645 0.000000 0.033306 0.000000
# 6 0.000000 0.000000 0.000000 0.008203 0.000000 0.030105
#
#
# Mechanical properties :
#
#
# Convention : Reuss Voigt Hill
#
# Bulk Modulus (GPa) = 28.92487 33.85918 31.39202
# Shear Modulus (GPa) = 31.18969 35.17504 33.18237
#
# Velocity S-wave (km/s) = 3.67551 3.90328 3.79110
# Velocity P-wave (km/s) = 5.52638 5.91437 5.72366
#
# Compressibility (1/GPa) = 0.03457233
#
# Stress axis : x y z
#
# Youngs Moduli (GPa) = 82.77460 67.93127 88.07892
#
# Poissons Ratio (x) = -0.18177 0.21669
# Poissons Ratio (y) = -0.22149 0.17678
# Poissons Ratio (z) = 0.20364 0.13634
#
# Static dielectric constant tensor:
#      x y z
#    x 4.227500 0.000000 0.076500 
#    y 0.000000 4.142090 0.000000 
#    z 0.076500 0.000000 4.474710 
# 
# 
# High freq. dielectric constant tensor:
#      x y z
#    x 1.928240 0.000000 -0.006220 
#    y 0.000000 1.904400 0.000000 
#    z -0.006220 0.000000 1.924350 
# 
# From -- ./inp_files/77701.got.cif
#   From: 2010.03.12/outbox.cif.g09.slc.cpg/sg14_39_cif.got.tgz:77701.got - 2010.03.31 13:35:05.
