data_PCOD8129715
_publ_section_title
;
Structure prediction by ZEFSAII (Michael W. Deem and Ramdas Pophale) SiO2 
 PCOD8129715
Probable space group: C 2/C
;
_chemical_formula_sum "Si O2"
_cell_formula_units_Z 48
_cell_length_a 14.341330
_cell_length_b 25.031484
_cell_length_c 13.677211
_cell_angle_alpha 90.000000
_cell_angle_beta 32.211237
_cell_angle_gamma 90.000000
_cell_volume 2617.189598
_symmetry_space_group_name_H-M "C 2/C"
_symmetry_group_IT_number 15
_symmetry_cell_setting 'monoclinic'
loop_
_space_group_symop_operation_xyz
x,y,z
-x,y,1/2-z
-x,-y,-z
x,-y,1/2+z
1/2+x,1/2+y,z
1/2-x,1/2+y,1/2-z
1/2-x,1/2-y,-z
1/2+x,1/2-y,1/2+z
loop_
_atom_site_type_symbol
_atom_site_label
_atom_site_fract_x
_atom_site_fract_y
_atom_site_fract_z
Si Si1 0.065350 0.918483 0.432506
Si Si2 0.616038 0.497185 0.051144
Si Si3 0.977350 0.706667 0.156178
Si Si4 0.000000 0.471517 0.750000
Si Si5 0.166233 0.400440 0.458908
Si Si6 0.920064 0.815401 0.509850
Si Si7 0.500000 0.375547 0.250000
O O1 0.063044 0.952352 0.531833
O O2 0.263531 0.916791 0.210898
O O3 0.995982 0.858109 0.521859
O O4 0.935528 0.943124 0.463522
O O5 0.500000 0.502721 0.250000
O O6 0.822390 0.505014 0.893077
O O7 0.787773 0.682864 0.304616
O O8 0.000000 0.724100 0.250000
O O9 0.011925 0.754466 0.047948
O O10 0.117164 0.661708 0.004743
O O11 0.010645 0.436377 0.640071
O O12 0.323481 0.411391 0.399376
O O13 0.006548 0.837360 0.335627
#
# Coordination Sequence:
#
# PCOD8129715 Si02
#       7
#     8   8   8   4   8   8   4
#     4  10  23  39  56  82 117 153 188 244 286 331
#     4  11  23  42  60  81 112 152 198 242 293 333
#     4  12  20  29  48  83 112 157 183 213 283 358
#     4  12  20  35  62  84 114 154 194 229 286 338
#     4  11  19  31  51  82 114 148 182 221 277 343
#     4  11  20  31  47  75 115 149 185 222 268 338
#     4  10  16  27  44  66 110 152 174 211 258 318
#
# _framework density 18.340284
#
# number of rings (size 3 to 8) (size 9 to 14) (size 15 to 20)
#    0.000    1.000    5.000    5.500    1.167    0.667 
#    3.000    0.000    0.000    0.000    0.000    4.667 
#    0.000    0.000    0.000    0.000    0.000    0.000 
#
# Total GULP energy -297379.786224 kJ/mol
# GULP energy per Si atom -12390.824426 kJ/mol
# Density = 1.829854 g / cm^3
# Si number density = 18.340284 Si / 1000 Ang^3
#
#
#
# Elastic Constant Matrix: (Units=GPa)
#
#
# Indices 1 2 3 4 5 6 
#
# 1 56.0500 38.5831 39.8892 -0.0034 -0.4964 0.0006
# 2 38.5831 103.6535 40.6533 0.0002 2.3582 -0.0017
# 3 39.8892 40.6533 112.7567 -0.0180 -14.7034 -0.0019
# 4 -0.0034 0.0002 -0.0180 19.3165 0.0069 -4.4432
# 5 -0.4964 2.3582 -14.7034 0.0069 20.7761 -0.0013
# 6 0.0006 -0.0017 -0.0019 -4.4432 -0.0013 7.7021
#
#
#
# Elastic Compliance Matrix: (Units=1/GPa)
#
#
# Indices 1 2 3 4 5 6 
#
# 1 0.028588 -0.007420 -0.007975 -0.000003 -0.004119 -0.000008
# 2 -0.007420 0.013569 -0.002745 -0.000002 -0.003660 0.000001
# 3 -0.007975 -0.002745 0.013986 0.000011 0.010019 0.000011
# 4 -0.000003 -0.000002 0.000011 0.059689 -0.000010 0.034433
# 5 -0.004119 -0.003660 0.010019 -0.000010 0.055540 0.000005
# 6 -0.000008 0.000001 0.000011 0.034433 0.000005 0.149698
#
#
# Mechanical properties :
#
#
# Convention : Reuss Voigt Hill
#
# Bulk Modulus (GPa) = 50.34292 56.74571 53.54431
# Shear Modulus (GPa) = 13.73733 19.78126 16.75929
#
# Velocity S-wave (km/s) = 2.73980 3.28772 3.02619
# Velocity P-wave (km/s) = 6.12516 6.73942 6.43962
#
# Compressibility (1/GPa) = 0.01986377
#
# Stress axis : x y z
#
# Youngs Moduli (GPa) = 34.97959 73.69695 71.49955
#
# Poissons Ratio (x) = 0.54681 0.57024
# Poissons Ratio (y) = 0.25954 0.19624
# Poissons Ratio (z) = 0.27898 0.20227
#
# Static dielectric constant tensor:
#      x y z
#    x 3.207190 0.000000 -0.377900 
#    y 0.000000 3.616480 0.000000 
#    z -0.377900 0.000000 3.749120 
# 
# 
# High freq. dielectric constant tensor:
#      x y z
#    x 1.646270 0.000000 -0.020060 
#    y 0.000000 1.714770 0.000000 
#    z -0.020060 0.000000 1.731270 
# 
# From -- ./inp_files/157073.got.cif
#   From: 2010.06.25/outbox.cif.g09.slc.cpg/sg15_79_cif.got.tgz:157073.got - 2010.06.28 07:06:18.
