data_PCOD8129345
_publ_section_title
;
Structure prediction by ZEFSAII (Michael W. Deem and Ramdas Pophale) SiO2 
 PCOD8129345
Probable space group: P 21/C
;
_chemical_formula_sum "Si O2"
_cell_formula_units_Z 24
_cell_length_a 27.351191
_cell_length_b 7.208750
_cell_length_c 14.623263
_cell_angle_alpha 90.000000
_cell_angle_beta 19.718468
_cell_angle_gamma 90.000000
_cell_volume 972.800771
_symmetry_space_group_name_H-M "P 21/C"
_symmetry_group_IT_number 14
_symmetry_cell_setting 'monoclinic'
loop_
_space_group_symop_operation_xyz
x,y,z
-x,1/2+y,1/2-z
-x,-y,-z
x,1/2-y,1/2+z
loop_
_atom_site_type_symbol
_atom_site_label
_atom_site_fract_x
_atom_site_fract_y
_atom_site_fract_z
Si Si1 0.512676 0.879893 0.611856
Si Si2 0.249560 0.913445 0.325683
Si Si3 0.449568 0.200863 0.243383
Si Si4 0.169549 0.303481 0.459116
Si Si5 0.259495 0.605692 0.012232
Si Si6 0.913321 0.355182 0.508365
O O1 0.539211 0.814734 0.667885
O O2 0.672737 0.873524 0.282075
O O3 0.394663 0.747176 0.773231
O O4 0.450091 0.085994 0.712349
O O5 0.187014 0.902883 0.539658
O O6 0.212939 0.734557 0.330856
O O7 0.194098 0.098740 0.371566
O O8 0.422653 0.917326 0.028713
O O9 0.304870 0.101540 0.462802
O O10 0.086279 0.434056 0.532728
O O11 0.060580 0.263062 0.735916
O O12 0.130864 0.661950 0.308112
#
# Coordination Sequence:
#
# PCOD8129345 Si02
#       6
#     4   4   4   4   4   4
#     4  12  22  40  74 101 137 182 231 282 353 413
#     4  12  25  44  71 105 139 178 232 290 352 410
#     4  12  21  40  70 105 136 177 228 287 347 408
#     4  12  24  44  71  96 137 185 234 277 347 416
#     4  12  27  43  70 108 140 177 232 295 348 412
#     4  12  26  47  71  98 141 190 229 284 349 417
#
# _framework density 24.671032
#
# number of rings (size 3 to 8) (size 9 to 14) (size 15 to 20)
#    0.000    0.000   10.000    0.500    0.000    2.667 
#    0.000    0.833    0.000    0.000    0.000    0.000 
#    0.000    0.000    0.000    0.000    0.000    0.000 
#
# Total GULP energy -297535.182054 kJ/mol
# GULP energy per Si atom -12397.299252 kJ/mol
# Density = 2.461488 g / cm^3
# Si number density = 24.671032 Si / 1000 Ang^3
#
#
#
# Elastic Constant Matrix: (Units=GPa)
#
#
# Indices 1 2 3 4 5 6 
#
# 1 63.4456 28.7647 4.8743 0.0000 18.4754 0.0000
# 2 28.7647 127.1439 27.5786 0.0000 -5.0077 0.0000
# 3 4.8743 27.5786 133.9463 0.0000 14.6012 0.0000
# 4 0.0000 0.0000 0.0000 -107.2484 0.0000 -100.9681
# 5 18.4754 -5.0077 14.6012 0.0000 32.6446 0.0000
# 6 0.0000 0.0000 0.0000 -100.9681 0.0000 -47.9729
#
#
#
# Elastic Compliance Matrix: (Units=1/GPa)
#
#
# Indices 1 2 3 4 5 6 
#
# 1 0.022670 -0.006150 0.002042 0.000000 -0.014687 0.000000
# 2 -0.006150 0.010044 -0.002514 0.000000 0.006146 0.000000
# 3 0.002042 -0.002514 0.008491 0.000000 -0.005339 0.000000
# 4 0.000000 0.000000 0.000000 0.009500 0.000000 -0.019996
# 5 -0.014687 0.006146 -0.005339 0.000000 0.042276 0.000000
# 6 0.000000 0.000000 0.000000 -0.019996 0.000000 0.021239
#
#
# Mechanical properties :
#
#
# Convention : Reuss Voigt Hill
#
# Bulk Modulus (GPa) = 35.76434 49.66344 42.71389
# Shear Modulus (GPa) = 36.55365 -6.96081 14.79642
#
# Velocity S-wave (km/s) = 3.85339 -1.68154 2.45163
# Velocity P-wave (km/s) = 5.85885 4.05017 5.03637
#
# Compressibility (1/GPa) = 0.02796081
#
# Stress axis : x y z
#
# Youngs Moduli (GPa) = 44.11132 99.56268 117.77127
#
# Poissons Ratio (x) = 0.61234 -0.24053
# Poissons Ratio (y) = 0.27130 0.29609
# Poissons Ratio (z) = -0.09009 0.25031
#
# Static dielectric constant tensor:
#      x y z
#    x 3.949620 0.000000 0.032680 
#    y 0.000000 4.667630 0.000000 
#    z 0.032680 0.000000 4.889810 
# 
# 
# High freq. dielectric constant tensor:
#      x y z
#    x 1.942030 0.000000 -0.001920 
#    y 0.000000 1.996200 0.000000 
#    z -0.001920 0.000000 2.000990 
# 
# From -- ./inp_files/52230.got.cif
#   From: 2010.03.12/outbox.cif.g09.slc.cpg/sg14_27_cif.got.tgz:52230.got - 2010.03.31 13:35:05.
