data_PCOD8129435
_publ_section_title
;
Structure prediction by ZEFSAII (Michael W. Deem and Ramdas Pophale) SiO2 
 PCOD8129435
Probable space group: P 21/C
;
_chemical_formula_sum "Si O2"
_cell_formula_units_Z 32
_cell_length_a 14.055702
_cell_length_b 9.397162
_cell_length_c 10.668020
_cell_angle_alpha 90.000000
_cell_angle_beta 106.679866
_cell_angle_gamma 90.000000
_cell_volume 1349.782724
_symmetry_space_group_name_H-M "P 21/C"
_symmetry_group_IT_number 14
_symmetry_cell_setting 'monoclinic'
loop_
_space_group_symop_operation_xyz
x,y,z
-x,1/2+y,1/2-z
-x,-y,-z
x,1/2-y,1/2+z
loop_
_atom_site_type_symbol
_atom_site_label
_atom_site_fract_x
_atom_site_fract_y
_atom_site_fract_z
Si Si1 0.029433 0.119160 0.110997
Si Si2 0.314295 0.522120 0.538740
Si Si3 0.158216 0.637902 0.301406
Si Si4 0.556411 0.234456 0.345148
Si Si5 0.434231 0.248090 0.049954
Si Si6 0.199033 0.941129 0.236647
Si Si7 0.900213 0.925671 0.420735
Si Si8 0.297976 0.506591 0.020315
O O1 0.085832 0.255791 0.074604
O O2 0.930761 0.178376 0.138661
O O3 0.103628 0.038859 0.236158
O O4 0.000000 0.000000 0.000000
O O5 0.262432 0.615146 0.411213
O O6 0.408408 0.602930 0.634139
O O7 0.356499 0.378231 0.493614
O O8 0.234262 0.494881 0.617240
O O9 0.170018 0.773848 0.213951
O O10 0.130127 0.489568 0.225319
O O11 0.505996 0.204234 0.192011
O O12 0.487383 0.206394 0.440600
O O13 0.656529 0.140035 0.388129
O O14 0.373362 0.380951 0.076420
O O15 0.288113 0.958542 0.369342
O O16 0.812124 0.968193 0.479619
O O17 0.000000 0.000000 0.500000
#
# Coordination Sequence:
#
# PCOD8129435 Si02
#       8
#     4   4   4   4   4   4   4   4
#     4  12  25  46  73 107 152 195 250 314 373 459
#     4  12  26  46  75 106 143 194 250 314 381 453
#     4  12  26  45  74 103 151 197 253 307 383 454
#     4  12  26  49  74 109 148 202 252 317 384 459
#     4  12  28  47  76 110 153 195 261 316 389 458
#     4  12  25  48  72 106 149 198 249 310 386 454
#     4  12  28  46  75 114 150 197 252 309 382 462
#     4  12  26  46  77 108 152 197 249 311 384 459
#
# _framework density 23.707518
#
# number of rings (size 3 to 8) (size 9 to 14) (size 15 to 20)
#    0.000    0.000    2.500    7.500    5.250    0.000 
#    0.000    0.000    0.000    0.000    0.000    0.000 
#    0.000    0.000    0.000    0.000    0.000    0.000 
#
# Total GULP energy -396885.113420 kJ/mol
# GULP energy per Si atom -12402.659794 kJ/mol
# Density = 2.365356 g / cm^3
# Si number density = 23.707518 Si / 1000 Ang^3
#
#
#
# Elastic Constant Matrix: (Units=GPa)
#
#
# Indices 1 2 3 4 5 6 
#
# 1 104.0980 28.7401 26.9986 0.0000 0.9383 0.0000
# 2 28.7401 132.8930 23.3595 0.0000 7.9068 0.0000
# 3 26.9986 23.3595 90.8309 0.0000 16.1500 0.0000
# 4 0.0000 0.0000 0.0000 38.6909 0.0000 7.9388
# 5 0.9383 7.9068 16.1500 0.0000 39.1066 0.0000
# 6 0.0000 0.0000 0.0000 7.9388 0.0000 48.6281
#
#
#
# Elastic Compliance Matrix: (Units=1/GPa)
#
#
# Indices 1 2 3 4 5 6 
#
# 1 0.010897 -0.001912 -0.002989 0.000000 0.001360 0.000000
# 2 -0.001912 0.008241 -0.001363 0.000000 -0.001057 0.000000
# 3 -0.002989 -0.001363 0.013152 0.000000 -0.005084 0.000000
# 4 0.000000 0.000000 0.000000 0.026742 0.000000 -0.004366
# 5 0.001360 -0.001057 -0.005084 0.000000 0.027852 0.000000
# 6 0.000000 0.000000 0.000000 -0.004366 0.000000 0.021277
#
#
# Mechanical properties :
#
#
# Convention : Reuss Voigt Hill
#
# Bulk Modulus (GPa) = 50.60169 54.00203 52.30186
# Shear Modulus (GPa) = 39.28440 41.86671 40.57555
#
# Velocity S-wave (km/s) = 4.07510 4.20690 4.14152
# Velocity P-wave (km/s) = 6.59791 6.81361 6.70662
#
# Compressibility (1/GPa) = 0.01976219
#
# Stress axis : x y z
#
# Youngs Moduli (GPa) = 91.76634 121.34624 76.03137
#
# Poissons Ratio (x) = 0.23204 0.22726
# Poissons Ratio (y) = 0.17547 0.10363
# Poissons Ratio (z) = 0.27430 0.16539
#
# Static dielectric constant tensor:
#      x y z
#    x 4.545120 0.000000 0.119760 
#    y 0.000000 4.696330 0.000000 
#    z 0.119760 0.000000 4.294430 
# 
# 
# High freq. dielectric constant tensor:
#      x y z
#    x 1.952950 0.000000 0.011310 
#    y 0.000000 1.949610 0.000000 
#    z 0.011310 0.000000 1.938210 
# 
# From -- ./inp_files/31849.got.cif
#   From: 2010.03.12/outbox.cif.g09.slc.cpg/sg14_16_cif.got.tgz:31849.got - 2010.03.31 13:35:05.
