data_PCOD8129863
_publ_section_title
;
Structure prediction by ZEFSAII (Michael W. Deem and Ramdas Pophale) SiO2 
 PCOD8129863
Probable space group: C 2/C
;
_chemical_formula_sum "Si O2"
_cell_formula_units_Z 44
_cell_length_a 26.059776
_cell_length_b 13.903891
_cell_length_c 5.260499
_cell_angle_alpha 90.000000
_cell_angle_beta 93.034301
_cell_angle_gamma 90.000000
_cell_volume 1903.376389
_symmetry_space_group_name_H-M "C 2/C"
_symmetry_group_IT_number 15
_symmetry_cell_setting 'monoclinic'
loop_
_space_group_symop_operation_xyz
x,y,z
-x,y,1/2-z
-x,-y,-z
x,-y,1/2+z
1/2+x,1/2+y,z
1/2-x,1/2+y,1/2-z
1/2-x,1/2-y,-z
1/2+x,1/2-y,1/2+z
loop_
_atom_site_type_symbol
_atom_site_label
_atom_site_fract_x
_atom_site_fract_y
_atom_site_fract_z
Si Si1 0.472240 0.828030 0.489141
Si Si2 0.350291 0.617091 0.563343
Si Si3 0.370893 0.937812 0.436125
Si Si4 0.258658 0.939337 0.472343
Si Si5 0.107546 0.902874 0.924082
Si Si6 0.500000 0.356452 0.750000
O O1 0.500000 0.877033 0.250000
O O2 0.412469 0.854661 0.483317
O O3 0.477227 0.712179 0.467227
O O4 0.500000 0.865902 0.750000
O O5 0.289059 0.633571 0.580266
O O6 0.363484 0.503394 0.532167
O O7 0.370389 0.661728 0.303287
O O8 0.380679 0.658680 0.816262
O O9 0.314257 0.888672 0.449644
O O10 0.377303 0.982551 0.157745
O O11 0.254147 0.977668 0.758881
O O12 0.046327 0.921428 0.872803
#
# Coordination Sequence:
#
# PCOD8129863 Si02
#       6
#     8   8   8   8   8   4
#     4  10  23  40  55  77 112 144 184 220 261 323
#     4  10  18  32  53  86 104 137 173 238 260 320
#     4  10  21  34  60  89 106 137 173 224 278 321
#     4  10  16  31  52  84 114 131 162 218 286 318
#     4  10  20  32  55  75 111 141 183 215 275 302
#     4  10  26  38  54  74 108 160 182 218 256 322
#
# _framework density 23.116816
#
# number of rings (size 3 to 8) (size 9 to 14) (size 15 to 20)
#    0.545    1.455    3.636    1.091    2.545    5.091 
#    0.000    0.000    0.000    2.182    0.000    0.000 
#    0.000    0.000    0.000    0.000    0.000    0.000 
#
# Total GULP energy -272559.179288 kJ/mol
# GULP energy per Si atom -12389.053604 kJ/mol
# Density = 2.306420 g / cm^3
# Si number density = 23.116816 Si / 1000 Ang^3
#
#
#
# Elastic Constant Matrix: (Units=GPa)
#
#
# Indices 1 2 3 4 5 6 
#
# 1 127.8833 6.9098 29.6335 0.0000 28.6891 0.0000
# 2 6.9098 12.1903 -3.8742 0.0000 2.8595 0.0000
# 3 29.6335 -3.8742 171.4184 0.0000 -1.7366 0.0000
# 4 0.0000 0.0000 0.0000 2.6987 0.0000 6.6495
# 5 28.6891 2.8595 -1.7366 0.0000 45.9321 0.0000
# 6 0.0000 0.0000 0.0000 6.6495 0.0000 9.8636
#
#
#
# Elastic Compliance Matrix: (Units=1/GPa)
#
#
# Indices 1 2 3 4 5 6 
#
# 1 0.009839 -0.004783 -0.001869 0.000000 -0.005918 0.000000
# 2 -0.004783 0.086151 0.002751 0.000000 -0.002272 0.000000
# 3 -0.001869 0.002751 0.006231 0.000000 0.001232 0.000000
# 4 0.000000 0.000000 0.000000 -0.560529 0.000000 0.377880
# 5 -0.005918 -0.002272 0.001232 0.000000 0.025656 0.000000
# 6 0.000000 0.000000 0.000000 0.377880 0.000000 -0.153364
#
#
# Mechanical properties :
#
#
# Convention : Reuss Voigt Hill
#
# Bulk Modulus (GPa) = 10.59101 41.87003 26.23052
# Shear Modulus (GPa) = -9.14510 30.28707 10.57099
#
# Velocity S-wave (km/s) = -1.99114 3.62356 2.14074
# Velocity P-wave (km/s) = 0.83349 5.97148 4.18114
#
# Compressibility (1/GPa) = 0.09441971
#
# Stress axis : x y z
#
# Youngs Moduli (GPa) = 101.63852 11.60754 160.47734
#
# Poissons Ratio (x) = 0.05552 0.29992
# Poissons Ratio (y) = 0.48610 -0.44145
# Poissons Ratio (z) = 0.18995 -0.03193
#
# Static dielectric constant tensor:
#      x y z
#    x 4.521590 0.000000 -0.194990 
#    y 0.000000 3.125280 0.000000 
#    z -0.194990 0.000000 5.127550 
# 
# 
# High freq. dielectric constant tensor:
#      x y z
#    x 1.936030 0.000000 0.000540 
#    y 0.000000 1.819010 0.000000 
#    z 0.000540 0.000000 1.945220 
# 
# From -- ./inp_files/15369.got.cif
#   From: 2010.06.25/outbox.cif.g09.slc.cpg/sg15_8_cif.got.tgz:15369.got - 2010.06.28 07:06:18.
