data_PCOD8129274
_publ_section_title
;
Structure prediction by ZEFSAII (Michael W. Deem and Ramdas Pophale) SiO2 
 PCOD8129274
Probable space group: P 21/C
;
_chemical_formula_sum "Si O2"
_cell_formula_units_Z 16
_cell_length_a 11.935456
_cell_length_b 4.769664
_cell_length_c 23.487914
_cell_angle_alpha 90.000000
_cell_angle_beta 158.422391
_cell_angle_gamma 90.000000
_cell_volume 491.741797
_symmetry_space_group_name_H-M "P 21/C"
_symmetry_group_IT_number 14
_symmetry_cell_setting 'monoclinic'
loop_
_space_group_symop_operation_xyz
x,y,z
-x,1/2+y,1/2-z
-x,-y,-z
x,1/2-y,1/2+z
loop_
_atom_site_type_symbol
_atom_site_label
_atom_site_fract_x
_atom_site_fract_y
_atom_site_fract_z
Si Si1 0.618246 0.966153 0.656245
Si Si2 0.030713 0.020403 0.304906
Si Si3 0.727067 0.388449 0.789208
Si Si4 0.791909 0.238139 0.946780
O O1 0.842013 0.228998 0.784337
O O2 0.775575 0.668238 0.716659
O O3 0.448430 0.955335 0.638172
O O4 0.361735 0.038227 0.488808
O O5 0.085491 0.839583 0.270533
O O6 0.832322 0.241241 0.897482
O O7 0.359959 0.435236 0.611959
O O8 0.890453 0.699124 0.870835
#
# Coordination Sequence:
#
# PCOD8129274 Si02
#       4
#     4   4   4   4
#     4  12  28  53  86 120 168 223 276 351 434 499
#     4  12  31  57  86 124 166 222 294 365 422 499
#     4  11  26  49  80 126 172 225 279 338 422 521
#     4  11  25  47  80 122 172 223 276 337 420 518
#
# _framework density 32.537399999999998
#
# number of rings (size 3 to 8) (size 9 to 14) (size 15 to 20)
#    0.000    0.500    2.500    3.000   10.500    3.000 
#    0.000    0.000    0.000    0.000    0.000    0.000 
#    0.000    0.000    0.000    0.000    0.000    0.000 
#
# Total GULP energy -198233.983012 kJ/mol
# GULP energy per Si atom -12389.623938 kJ/mol
# Density = 3.246334 g / cm^3
# Si number density = 32.537400 Si / 1000 Ang^3
#
#
#
# Elastic Constant Matrix: (Units=GPa)
#
#
# Indices 1 2 3 4 5 6 
#
# 1 164.3383 13.2054 66.0889 0.0000 -29.1818 0.0000
# 2 13.2054 172.7631 62.2033 0.0000 -11.8165 0.0000
# 3 66.0889 62.2033 182.4271 0.0000 -35.6303 0.0000
# 4 0.0000 0.0000 0.0000 62.8401 0.0000 -8.3093
# 5 -29.1818 -11.8165 -35.6303 0.0000 55.7676 0.0000
# 6 0.0000 0.0000 0.0000 -8.3093 0.0000 38.4983
#
#
#
# Elastic Compliance Matrix: (Units=1/GPa)
#
#
# Indices 1 2 3 4 5 6 
#
# 1 0.007440 0.000453 -0.002366 0.000000 0.002478 0.000000
# 2 0.000453 0.006626 -0.002403 0.000000 0.000106 0.000000
# 3 -0.002366 -0.002403 0.007789 0.000000 0.003229 0.000000
# 4 0.000000 0.000000 0.000000 0.016381 0.000000 0.003536
# 5 0.002478 0.000106 0.003229 0.000000 0.021314 0.000000
# 6 0.000000 0.000000 0.000000 0.003536 0.000000 0.026738
#
#
# Mechanical properties :
#
#
# Convention : Reuss Voigt Hill
#
# Bulk Modulus (GPa) = 75.62573 89.16930 82.39752
# Shear Modulus (GPa) = 50.33901 56.62326 53.48114
#
# Velocity S-wave (km/s) = 3.93760 4.17616 4.05863
# Velocity P-wave (km/s) = 6.63069 7.12168 6.88057
#
# Compressibility (1/GPa) = 0.01322301
#
# Stress axis : x y z
#
# Youngs Moduli (GPa) = 134.40909 150.92140 128.39245
#
# Poissons Ratio (x) = -0.06830 0.30374
# Poissons Ratio (y) = -0.06083 0.30847
# Poissons Ratio (z) = 0.31798 0.36260
#
# Static dielectric constant tensor:
#      x y z
#    x 8.155970 0.000000 -0.050980 
#    y 0.000000 6.386600 0.000000 
#    z -0.050980 0.000000 5.781430 
# 
# 
# High freq. dielectric constant tensor:
#      x y z
#    x 2.444250 0.000000 -0.013790 
#    y 0.000000 2.386690 0.000000 
#    z -0.013790 0.000000 2.350760 
# 
# From -- ./inp_files/77334.got.cif
#   From: 2010.03.12/outbox.cif.g09.slc.cpg/sg14_39_cif.got.tgz:77334.got - 2010.03.31 13:35:05.
