data_PCOD8129478
_publ_section_title
;
Structure prediction by ZEFSAII (Michael W. Deem and Ramdas Pophale) SiO2 
 PCOD8129478
Probable space group: P 21/C
;
_chemical_formula_sum "Si O2"
_cell_formula_units_Z 16
_cell_length_a 4.664368
_cell_length_b 13.339963
_cell_length_c 10.390404
_cell_angle_alpha 90.000000
_cell_angle_beta 94.498782
_cell_angle_gamma 90.000000
_cell_volume 644.524959
_symmetry_space_group_name_H-M "P 21/C"
_symmetry_group_IT_number 14
_symmetry_cell_setting 'monoclinic'
loop_
_space_group_symop_operation_xyz
x,y,z
-x,1/2+y,1/2-z
-x,-y,-z
x,1/2-y,1/2+z
loop_
_atom_site_type_symbol
_atom_site_label
_atom_site_fract_x
_atom_site_fract_y
_atom_site_fract_z
Si Si1 0.917986 0.971888 0.140131
Si Si2 0.231034 0.410500 0.993890
Si Si3 0.268554 0.863267 0.669664
Si Si4 0.461811 0.854437 0.236051
O O1 0.823919 0.072006 0.211069
O O2 0.648171 0.896001 0.122803
O O3 0.169076 0.917638 0.230117
O O4 0.000000 0.000000 0.000000
O O5 0.493362 0.568579 0.091058
O O6 0.346497 0.368549 0.130671
O O7 0.000000 0.500000 0.000000
O O8 0.018038 0.328977 0.919019
O O9 0.420828 0.763361 0.721285
#
# Coordination Sequence:
#
# PCOD8129478 Si02
#       4
#     4   4   4   4
#     4  12  28  52  79 116 163 208 256 322 400 471
#     4  12  26  51  83 112 153 206 274 326 383 463
#     4  12  28  50  81 117 157 208 259 329 392 463
#     4  12  28  52  80 119 156 209 265 322 396 466
#
# _framework density 24.824484000000002
#
# number of rings (size 3 to 8) (size 9 to 14) (size 15 to 20)
#    0.000    0.000    2.500    6.000    3.500    0.000 
#    9.000    0.000    0.000    0.000    0.000    0.000 
#    0.000    0.000    0.000    0.000    0.000    0.000 
#
# Total GULP energy -198371.914437 kJ/mol
# GULP energy per Si atom -12398.244652 kJ/mol
# Density = 2.476798 g / cm^3
# Si number density = 24.824484 Si / 1000 Ang^3
#
#
#
# Elastic Constant Matrix: (Units=GPa)
#
#
# Indices 1 2 3 4 5 6 
#
# 1 176.9395 70.8986 56.9732 0.0000 -12.8173 0.0000
# 2 70.8986 147.4852 81.0506 0.0000 -18.3639 0.0000
# 3 56.9732 81.0506 139.2550 0.0000 -19.7565 0.0000
# 4 0.0000 0.0000 0.0000 13.1516 0.0000 0.9116
# 5 -12.8173 -18.3639 -19.7565 0.0000 54.1951 0.0000
# 6 0.0000 0.0000 0.0000 0.9116 0.0000 45.1943
#
#
#
# Elastic Compliance Matrix: (Units=1/GPa)
#
#
# Indices 1 2 3 4 5 6 
#
# 1 0.007177 -0.002679 -0.001334 0.000000 0.000303 0.000000
# 2 -0.002679 0.011061 -0.005167 0.000000 0.001231 0.000000
# 3 -0.001334 -0.005167 0.011010 0.000000 0.001947 0.000000
# 4 0.000000 0.000000 0.000000 0.076143 0.000000 -0.001536
# 5 0.000303 0.001231 0.001947 0.000000 0.019651 0.000000
# 6 0.000000 0.000000 0.000000 -0.001536 0.000000 0.022158
#
#
# Mechanical properties :
#
#
# Convention : Reuss Voigt Hill
#
# Bulk Modulus (GPa) = 91.84431 97.94717 94.89574
# Shear Modulus (GPa) = 29.55274 39.49200 34.52237
#
# Velocity S-wave (km/s) = 3.45406 3.99287 3.73320
# Velocity P-wave (km/s) = 7.27909 7.79736 7.54268
#
# Compressibility (1/GPa) = 0.01088799
#
# Stress axis : x y z
#
# Youngs Moduli (GPa) = 139.34145 90.40660 90.82244
#
# Poissons Ratio (x) = 0.24222 0.12114
# Poissons Ratio (y) = 0.37332 0.46930
# Poissons Ratio (z) = 0.18585 0.46715
#
# Static dielectric constant tensor:
#      x y z
#    x 6.124370 0.000000 0.686170 
#    y 0.000000 4.419350 0.000000 
#    z 0.686170 0.000000 4.994080 
# 
# 
# High freq. dielectric constant tensor:
#      x y z
#    x 2.035240 0.000000 0.004410 
#    y 0.000000 1.983540 0.000000 
#    z 0.004410 0.000000 1.989070 
# 
# From -- ./inp_files/20473.got.cif
#   From: 2010.03.12/outbox.cif.g09.slc.cpg/sg14_11_cif.got.tgz:20473.got - 2010.03.31 13:35:05.
