data_PCOD8129169
_publ_section_title
;
Structure prediction by ZEFSAII (Michael W. Deem and Ramdas Pophale) SiO2 
 PCOD8129169
Probable space group: P 21/C
;
_chemical_formula_sum "Si O2"
_cell_formula_units_Z 20
_cell_length_a 11.421493
_cell_length_b 8.563332
_cell_length_c 7.993960
_cell_angle_alpha 90.000000
_cell_angle_beta 104.369680
_cell_angle_gamma 90.000000
_cell_volume 757.396840
_symmetry_space_group_name_H-M "P 21/C"
_symmetry_group_IT_number 14
_symmetry_cell_setting 'monoclinic'
loop_
_space_group_symop_operation_xyz
x,y,z
-x,1/2+y,1/2-z
-x,-y,-z
x,1/2-y,1/2+z
loop_
_atom_site_type_symbol
_atom_site_label
_atom_site_fract_x
_atom_site_fract_y
_atom_site_fract_z
Si Si1 0.560226 0.368059 0.405572
Si Si2 0.161437 0.354018 0.361980
Si Si3 0.690513 0.086186 0.625604
Si Si4 0.051846 0.017745 0.331537
Si Si5 0.329116 0.319784 0.136432
O O1 0.500000 0.500000 0.500000
O O2 0.633111 0.247766 0.544517
O O3 0.652094 0.441818 0.303950
O O4 0.453505 0.273779 0.270794
O O5 0.238833 0.408935 0.229182
O O6 0.257413 0.336259 0.547784
O O7 0.054009 0.479479 0.342114
O O8 0.097126 0.189204 0.304867
O O9 0.835502 0.099553 0.658137
O O10 0.641367 0.936247 0.505642
O O11 0.000000 0.000000 0.500000
#
# Coordination Sequence:
#
# PCOD8129169 Si02
#       5
#     4   4   4   4   4
#     4  12  27  49  79 111 154 204 257 324 395 470
#     4  11  24  46  77 105 158 202 261 328 387 469
#     4  11  26  47  76 112 158 199 262 318 394 474
#     4  11  25  49  75 114 155 203 263 331 390 464
#     4  11  25  46  71 113 153 203 256 318 394 466
#
# _framework density 26.406238999999999
#
# number of rings (size 3 to 8) (size 9 to 14) (size 15 to 20)
#    0.000    0.800    4.000    3.000    2.800   10.400 
#    0.000    0.000    0.000    0.000    0.000    0.000 
#    0.000    0.000    0.000    0.000    0.000    0.000 
#
# Total GULP energy -247901.902663 kJ/mol
# GULP energy per Si atom -12395.095133 kJ/mol
# Density = 2.634614 g / cm^3
# Si number density = 26.406239 Si / 1000 Ang^3
#
#
#
# Elastic Constant Matrix: (Units=GPa)
#
#
# Indices 1 2 3 4 5 6 
#
# 1 193.8710 47.5478 72.8314 0.0000 -9.9662 0.0000
# 2 47.5478 50.9831 3.3285 0.0000 15.5983 0.0000
# 3 72.8314 3.3285 79.6568 0.0000 -9.9261 0.0000
# 4 0.0000 0.0000 0.0000 24.2767 0.0000 -3.4532
# 5 -9.9662 15.5983 -9.9261 0.0000 57.9453 0.0000
# 6 0.0000 0.0000 0.0000 -3.4532 0.0000 46.3333
#
#
#
# Elastic Compliance Matrix: (Units=1/GPa)
#
#
# Indices 1 2 3 4 5 6 
#
# 1 0.011901 -0.011499 -0.009973 0.000000 0.003434 0.000000
# 2 -0.011499 0.032698 0.007974 0.000000 -0.009414 0.000000
# 3 -0.009973 0.007974 0.021313 0.000000 -0.000211 0.000000
# 4 0.000000 0.000000 0.000000 0.041633 0.000000 0.003103
# 5 0.003434 -0.009414 -0.000211 0.000000 0.020346 0.000000
# 6 0.000000 0.000000 0.000000 0.003103 0.000000 0.021814
#
#
# Mechanical properties :
#
#
# Convention : Reuss Voigt Hill
#
# Bulk Modulus (GPa) = 25.69592 63.54737 44.62165
# Shear Modulus (GPa) = 26.36105 39.09795 32.72950
#
# Velocity S-wave (km/s) = 3.16300 3.85207 3.52442
# Velocity P-wave (km/s) = 4.80537 6.62587 5.78765
#
# Compressibility (1/GPa) = 0.03891669
#
# Stress axis : x y z
#
# Youngs Moduli (GPa) = 84.02357 30.58290 46.91964
#
# Poissons Ratio (x) = 0.35167 0.46794
# Poissons Ratio (y) = 0.96619 -0.37415
# Poissons Ratio (z) = 0.83799 -0.24388
#
# Static dielectric constant tensor:
#      x y z
#    x 5.692620 0.000000 0.175760 
#    y 0.000000 4.421200 0.000000 
#    z 0.175760 0.000000 5.196750 
# 
# 
# High freq. dielectric constant tensor:
#      x y z
#    x 2.091350 0.000000 -0.004840 
#    y 0.000000 2.038890 0.000000 
#    z -0.004840 0.000000 2.065670 
# 
# From -- ./inp_files/11859.got.cif
#   From: 2010.03.12/outbox.cif.g09.slc.cpg/sg14_6_cif.got.tgz:11859.got - 2010.03.31 13:35:05.
