data_PCOD8129347
_publ_section_title
;
Structure prediction by ZEFSAII (Michael W. Deem and Ramdas Pophale) SiO2 
 PCOD8129347
Probable space group: P 21/C
;
_chemical_formula_sum "Si O2"
_cell_formula_units_Z 32
_cell_length_a 8.633355
_cell_length_b 23.857186
_cell_length_c 12.420480
_cell_angle_alpha 90.000000
_cell_angle_beta 144.942927
_cell_angle_gamma 90.000000
_cell_volume 1469.419057
_symmetry_space_group_name_H-M "P 21/C"
_symmetry_group_IT_number 14
_symmetry_cell_setting 'monoclinic'
loop_
_space_group_symop_operation_xyz
x,y,z
-x,1/2+y,1/2-z
-x,-y,-z
x,1/2-y,1/2+z
loop_
_atom_site_type_symbol
_atom_site_label
_atom_site_fract_x
_atom_site_fract_y
_atom_site_fract_z
Si Si1 0.363723 0.937069 0.642109
Si Si2 0.423590 0.940154 0.913446
Si Si3 0.959009 0.712091 0.660695
Si Si4 0.713197 0.671776 0.302024
Si Si5 0.748995 0.464548 0.317412
Si Si6 0.023797 0.592856 0.756975
Si Si7 0.775639 0.127340 0.010282
Si Si8 0.459183 0.767351 0.029127
O O1 0.270396 0.944818 0.712352
O O2 0.568893 0.884863 0.757452
O O3 0.099497 0.926019 0.420519
O O4 0.494224 0.994455 0.673103
O O5 0.220537 0.910704 0.880377
O O6 0.703490 0.907309 0.057047
O O7 0.500000 0.000000 0.000000
O O8 0.870129 0.703395 0.487206
O O9 0.703445 0.727441 0.586530
O O10 0.111383 0.656631 0.789289
O O11 0.185094 0.760482 0.802594
O O12 0.500053 0.714751 0.131146
O O13 0.929793 0.653804 0.335565
O O14 0.810144 0.445482 0.231217
O O15 0.693389 0.410266 0.360565
O O16 0.000000 0.500000 0.500000
O O17 0.561170 0.177397 0.907116
#
# Coordination Sequence:
#
# PCOD8129347 Si02
#       8
#     4   4   4   4   4   4   4   4
#     4  12  24  44  72 101 137 186 231 289 356 429
#     4  12  24  45  68  97 143 177 227 291 354 415
#     4  12  25  46  70 100 140 184 236 294 352 421
#     4  12  25  45  72 100 138 185 236 289 360 420
#     4  12  21  43  72 101 141 185 230 289 357 423
#     4  12  24  43  69  99 137 184 231 285 351 427
#     4  12  23  44  72 101 138 188 232 294 357 421
#     4  12  27  45  69 103 139 184 243 291 351 428
#
# _framework density 21.777315000000002
#
# number of rings (size 3 to 8) (size 9 to 14) (size 15 to 20)
#    0.000    0.000   10.000    0.375    1.750    0.500 
#    2.250    1.250    0.000    0.000    0.000    0.000 
#    0.000    0.000    0.000    0.000    0.000    0.000 
#
# Total GULP energy -396878.382537 kJ/mol
# GULP energy per Si atom -12402.449454 kJ/mol
# Density = 2.172775 g / cm^3
# Si number density = 21.777315 Si / 1000 Ang^3
#
#
#
# Elastic Constant Matrix: (Units=GPa)
#
#
# Indices 1 2 3 4 5 6 
#
# 1 106.3506 31.9304 39.8007 0.0000 -22.0180 0.0000
# 2 31.9304 105.9454 27.0905 0.0000 -7.0123 0.0000
# 3 39.8007 27.0905 102.5126 0.0000 -22.5636 0.0000
# 4 0.0000 0.0000 0.0000 19.5571 0.0000 -8.0375
# 5 -22.0180 -7.0123 -22.5636 0.0000 36.3248 0.0000
# 6 0.0000 0.0000 0.0000 -8.0375 0.0000 41.7466
#
#
#
# Elastic Compliance Matrix: (Units=1/GPa)
#
#
# Indices 1 2 3 4 5 6 
#
# 1 0.012370 -0.002627 -0.002977 0.000000 0.005142 0.000000
# 2 -0.002627 0.010684 -0.001969 0.000000 -0.000753 0.000000
# 3 -0.002977 -0.001969 0.012685 0.000000 0.005695 0.000000
# 4 0.000000 0.000000 0.000000 0.055526 0.000000 0.010690
# 5 0.005142 -0.000753 0.005695 0.000000 0.034038 0.000000
# 6 0.000000 0.000000 0.000000 0.010690 0.000000 0.026012
#
#
# Mechanical properties :
#
#
# Convention : Reuss Voigt Hill
#
# Bulk Modulus (GPa) = 48.55994 56.93907 52.74951
# Shear Modulus (GPa) = 28.84755 33.92482 31.38619
#
# Velocity S-wave (km/s) = 3.64354 3.95119 3.80048
# Velocity P-wave (km/s) = 6.32829 6.85701 6.59795
#
# Compressibility (1/GPa) = 0.02059311
#
# Stress axis : x y z
#
# Youngs Moduli (GPa) = 80.84037 93.59617 78.83632
#
# Poissons Ratio (x) = 0.24584 0.23468
# Poissons Ratio (y) = 0.21234 0.15526
# Poissons Ratio (z) = 0.24065 0.18433
#
# Static dielectric constant tensor:
#      x y z
#    x 3.946180 0.000000 -0.170400 
#    y 0.000000 4.546990 0.000000 
#    z -0.170400 0.000000 3.781290 
# 
# 
# High freq. dielectric constant tensor:
#      x y z
#    x 1.860820 0.000000 -0.010060 
#    y 0.000000 1.876120 0.000000 
#    z -0.010060 0.000000 1.839830 
# 
# From -- ./inp_files/27028.got.cif
#   From: 2010.03.12/outbox.cif.g09.slc.cpg/sg14_14_cif.got.tgz:27028.got - 2010.03.31 13:35:05.
