data_PCOD8129365
_publ_section_title
;
Structure prediction by ZEFSAII (Michael W. Deem and Ramdas Pophale) SiO2 
 PCOD8129365
Probable space group: P 21/C
;
_chemical_formula_sum "Si O2"
_cell_formula_units_Z 20
_cell_length_a 25.063548
_cell_length_b 6.783443
_cell_length_c 10.212672
_cell_angle_alpha 90.000000
_cell_angle_beta 148.805762
_cell_angle_gamma 90.000000
_cell_volume 899.316151
_symmetry_space_group_name_H-M "P 21/C"
_symmetry_group_IT_number 14
_symmetry_cell_setting 'monoclinic'
loop_
_space_group_symop_operation_xyz
x,y,z
-x,1/2+y,1/2-z
-x,-y,-z
x,1/2-y,1/2+z
loop_
_atom_site_type_symbol
_atom_site_label
_atom_site_fract_x
_atom_site_fract_y
_atom_site_fract_z
Si Si1 0.861167 0.073134 0.412210
Si Si2 0.381405 0.949493 0.753696
Si Si3 0.034973 0.176851 0.161511
Si Si4 0.300803 0.674547 0.808385
Si Si5 0.245679 0.337025 0.511776
O O1 0.812667 0.228161 0.414009
O O2 0.937070 0.182785 0.472472
O O3 0.925351 0.900969 0.615900
O O4 0.761244 0.980954 0.128506
O O5 0.365905 0.807302 0.845078
O O6 0.354494 0.839083 0.562435
O O7 0.313174 0.145402 0.626155
O O8 0.500000 0.000000 0.000000
O O9 0.126432 0.288628 0.282470
O O10 0.000000 0.000000 0.000000
O O11 0.291435 0.453592 0.731872
#
# Coordination Sequence:
#
# PCOD8129365 Si02
#       5
#     4   4   4   4   4
#     4  12  23  43  69 108 146 197 243 299 368 443
#     4  12  30  49  80 109 145 198 248 313 375 436
#     4  12  23  40  68 104 146 194 244 296 365 439
#     4  12  26  51  74 110 152 188 248 307 371 446
#     4  12  25  47  72 106 151 193 247 305 370 439
#
# _framework density 22.239121000000001
#
# number of rings (size 3 to 8) (size 9 to 14) (size 15 to 20)
#    0.000    0.000    4.000    6.600    2.800    0.800 
#    0.000    0.000    0.000    0.000    0.000    0.000 
#    0.000    0.000    0.000    0.000    0.000    0.000 
#
# Total GULP energy -248090.863872 kJ/mol
# GULP energy per Si atom -12404.543194 kJ/mol
# Density = 2.218850 g / cm^3
# Si number density = 22.239121 Si / 1000 Ang^3
#
#
#
# Elastic Constant Matrix: (Units=GPa)
#
#
# Indices 1 2 3 4 5 6 
#
# 1 131.0117 62.1744 60.2365 0.0000 3.7783 0.0000
# 2 62.1744 123.2341 52.9195 0.0000 0.7899 0.0000
# 3 60.2365 52.9195 99.6701 0.0000 6.1576 0.0000
# 4 0.0000 0.0000 0.0000 35.9132 0.0000 -3.6002
# 5 3.7783 0.7899 6.1576 0.0000 44.7414 0.0000
# 6 0.0000 0.0000 0.0000 -3.6002 0.0000 51.6893
#
#
#
# Elastic Compliance Matrix: (Units=1/GPa)
#
#
# Indices 1 2 3 4 5 6 
#
# 1 0.011763 -0.003739 -0.005110 0.000000 -0.000224 0.000000
# 2 -0.003739 0.011715 -0.004001 0.000000 0.000660 0.000000
# 3 -0.005110 -0.004001 0.015345 0.000000 -0.001610 0.000000
# 4 0.000000 0.000000 0.000000 0.028041 0.000000 0.001953
# 5 -0.000224 0.000660 -0.001610 0.000000 0.022579 0.000000
# 6 0.000000 0.000000 0.000000 0.001953 0.000000 0.019482
#
#
# Mechanical properties :
#
#
# Convention : Reuss Voigt Hill
#
# Bulk Modulus (GPa) = 76.20189 78.28629 77.24409
# Shear Modulus (GPa) = 35.97092 38.37451 37.17271
#
# Velocity S-wave (km/s) = 4.02613 4.15847 4.09283
# Velocity P-wave (km/s) = 7.48012 7.63778 7.55936
#
# Compressibility (1/GPa) = 0.01312303
#
# Stress axis : x y z
#
# Youngs Moduli (GPa) = 85.00965 85.36093 65.16643
#
# Poissons Ratio (x) = 0.31916 0.33302
# Poissons Ratio (y) = 0.31785 0.26074
# Poissons Ratio (z) = 0.43442 0.34154
#
# Static dielectric constant tensor:
#      x y z
#    x 4.052180 0.000000 -0.065030 
#    y 0.000000 4.461140 0.000000 
#    z -0.065030 0.000000 3.849910 
# 
# 
# High freq. dielectric constant tensor:
#      x y z
#    x 1.888140 0.000000 -0.009960 
#    y 0.000000 1.895700 0.000000 
#    z -0.009960 0.000000 1.871740 
# 
# From -- ./inp_files/33315.got.cif
#   From: 2010.03.12/outbox.cif.g09.slc.cpg/sg14_17_cif.got.tgz:33315.got - 2010.03.31 13:35:05.
