data_PCOD8129238
_publ_section_title
;
Structure prediction by ZEFSAII (Michael W. Deem and Ramdas Pophale) SiO2 
 PCOD8129238
Probable space group: P 21/C
;
_chemical_formula_sum "Si O2"
_cell_formula_units_Z 32
_cell_length_a 17.196080
_cell_length_b 14.098377
_cell_length_c 17.579792
_cell_angle_alpha 90.000000
_cell_angle_beta 17.600278
_cell_angle_gamma 90.000000
_cell_volume 1288.716813
_symmetry_space_group_name_H-M "P 21/C"
_symmetry_group_IT_number 14
_symmetry_cell_setting 'monoclinic'
loop_
_space_group_symop_operation_xyz
x,y,z
-x,1/2+y,1/2-z
-x,-y,-z
x,1/2-y,1/2+z
loop_
_atom_site_type_symbol
_atom_site_label
_atom_site_fract_x
_atom_site_fract_y
_atom_site_fract_z
Si Si1 0.533259 0.395403 0.999774
Si Si2 0.509076 0.856770 0.295702
Si Si3 0.019266 0.848132 0.027133
Si Si4 0.484418 0.635498 0.332130
Si Si5 0.843599 0.478779 0.968799
Si Si6 0.925492 0.648274 0.129976
Si Si7 0.615736 0.101629 0.911015
Si Si8 0.136067 0.521757 0.552220
O O1 0.635506 0.388604 0.991369
O O2 0.250525 0.348794 0.265870
O O3 0.500000 0.500000 0.000000
O O4 0.741316 0.342281 0.753758
O O5 0.559703 0.744186 0.245239
O O6 0.349678 0.891622 0.370422
O O7 0.778186 0.913431 0.041253
O O8 0.024017 0.749753 0.070250
O O9 0.027740 0.939268 0.073856
O O10 0.725500 0.566506 0.126297
O O11 0.305938 0.623217 0.573764
O O12 0.362969 0.591919 0.368503
O O13 0.070894 0.432555 0.807615
O O14 0.924535 0.524717 0.814139
O O15 0.632358 0.667672 0.376193
O O16 0.125221 0.618107 0.877764
O O17 0.500000 0.000000 0.000000
#
# Coordination Sequence:
#
# PCOD8129238 Si02
#       8
#     4   4   4   4   4   4   4   4
#     4  12  25  48  73 106 142 186 235 297 354 415
#     4  11  25  45  70 101 139 183 235 289 352 421
#     4  12  26  46  74 106 143 187 237 289 352 422
#     4  11  25  45  70 101 139 183 235 289 352 421
#     4  11  26  46  68 101 139 188 231 290 351 415
#     4  12  26  46  74 106 143 187 237 289 352 422
#     4  12  25  48  73 106 142 186 235 297 354 415
#     4  11  26  46  68 101 139 188 231 290 351 415
#
# _framework density 24.830901000000001
#
# number of rings (size 3 to 8) (size 9 to 14) (size 15 to 20)
#    0.000    0.500    2.500    5.250    7.000    2.000 
#    0.000    0.000    0.000    0.000    0.000    0.000 
#    0.000    0.000    0.000    0.000    0.000    0.000 
#
# Total GULP energy -396672.425099 kJ/mol
# GULP energy per Si atom -12396.013284 kJ/mol
# Density = 2.477438 g / cm^3
# Si number density = 24.830901 Si / 1000 Ang^3
#
#
#
# Elastic Constant Matrix: (Units=GPa)
#
#
# Indices 1 2 3 4 5 6 
#
# 1 81.3049 11.8093 25.7126 0.0000 10.8743 0.0000
# 2 11.8093 151.7702 2.3551 0.0000 2.3921 0.0000
# 3 25.7126 2.3551 119.4815 0.0000 4.2128 0.0000
# 4 0.0000 0.0000 0.0000 26.1917 0.0000 4.6375
# 5 10.8743 2.3921 4.2128 0.0000 30.3367 0.0000
# 6 0.0000 0.0000 0.0000 4.6375 0.0000 34.7097
#
#
#
# Elastic Compliance Matrix: (Units=1/GPa)
#
#
# Indices 1 2 3 4 5 6 
#
# 1 0.013938 -0.000969 -0.002821 0.000000 -0.004528 0.000000
# 2 -0.000969 0.006666 0.000084 0.000000 -0.000190 0.000000
# 3 -0.002821 0.000084 0.008983 0.000000 -0.000243 0.000000
# 4 0.000000 0.000000 0.000000 0.039105 0.000000 -0.005225
# 5 -0.004528 -0.000190 -0.000243 0.000000 0.034635 0.000000
# 6 0.000000 0.000000 0.000000 -0.005225 0.000000 0.029508
#
#
# Mechanical properties :
#
#
# Convention : Reuss Voigt Hill
#
# Bulk Modulus (GPa) = 45.09589 48.03452 46.56520
# Shear Modulus (GPa) = 33.86618 39.09293 36.47955
#
# Velocity S-wave (km/s) = 3.69707 3.97213 3.83707
# Velocity P-wave (km/s) = 6.03532 6.35797 6.19874
#
# Compressibility (1/GPa) = 0.02217497
#
# Stress axis : x y z
#
# Youngs Moduli (GPa) = 71.74731 150.01448 111.31613
#
# Poissons Ratio (x) = 0.14542 0.31399
# Poissons Ratio (y) = 0.06955 -0.00934
# Poissons Ratio (z) = 0.20238 -0.01259
#
# Static dielectric constant tensor:
#      x y z
#    x 4.551740 0.000000 -0.175670 
#    y 0.000000 4.617110 0.000000 
#    z -0.175670 0.000000 4.613340 
# 
# 
# High freq. dielectric constant tensor:
#      x y z
#    x 1.986520 0.000000 -0.001370 
#    y 0.000000 2.004570 0.000000 
#    z -0.001370 0.000000 1.986160 
# 
# From -- ./inp_files/60720.got.cif
#   From: 2010.03.12/outbox.cif.g09.slc.cpg/sg14_31_cif.got.tgz:60720.got - 2010.03.31 13:35:05.
