data_PCOD8129089
_publ_section_title
;
Structure prediction by ZEFSAII (Michael W. Deem and Ramdas Pophale) SiO2 
 PCOD8129089
Probable space group: P 21/C
;
_chemical_formula_sum "Si O2"
_cell_formula_units_Z 20
_cell_length_a 16.786841
_cell_length_b 5.527778
_cell_length_c 17.623532
_cell_angle_alpha 90.000000
_cell_angle_beta 25.913350
_cell_angle_gamma 90.000000
_cell_volume 714.669524
_symmetry_space_group_name_H-M "P 21/C"
_symmetry_group_IT_number 14
_symmetry_cell_setting 'monoclinic'
loop_
_space_group_symop_operation_xyz
x,y,z
-x,1/2+y,1/2-z
-x,-y,-z
x,1/2-y,1/2+z
loop_
_atom_site_type_symbol
_atom_site_label
_atom_site_fract_x
_atom_site_fract_y
_atom_site_fract_z
Si Si1 0.089294 0.333933 0.107866
Si Si2 0.586186 0.952721 0.151186
Si Si3 0.508270 0.183229 0.924429
Si Si4 0.897950 0.183873 0.533057
Si Si5 0.834150 0.519966 0.787505
O O1 0.101165 0.368816 0.187544
O O2 0.211218 0.090543 0.988911
O O3 0.164395 0.553900 0.992847
O O4 0.882623 0.266222 0.256593
O O5 0.489823 0.687954 0.243502
O O6 0.573343 0.985579 0.072125
O O7 0.714660 0.278982 0.732384
O O8 0.378036 0.421911 0.047085
O O9 0.500000 0.000000 0.000000
O O10 0.000000 0.000000 0.500000
O O11 0.043632 0.390661 0.388099
#
# Coordination Sequence:
#
# PCOD8129089 Si02
#       5
#     4   4   4   4   4
#     4  11  24  43  76 109 148 199 265 318 397 468
#     4  11  24  46  79 114 151 201 266 327 384 477
#     4  11  24  47  69 109 154 202 255 320 401 468
#     4  12  24  47  71 103 156 193 250 328 389 469
#     4  11  24  45  73 104 147 195 257 327 381 476
#
# _framework density 27.984963
#
# number of rings (size 3 to 8) (size 9 to 14) (size 15 to 20)
#    0.000    0.800    6.000    1.200    0.000    0.800 
#    0.000    2.000    0.000    0.000    0.000    0.000 
#    0.000    0.000    0.000    0.000    0.000    0.000 
#
# Total GULP energy -247817.661902 kJ/mol
# GULP energy per Si atom -12390.883095 kJ/mol
# Density = 2.792127 g / cm^3
# Si number density = 27.984963 Si / 1000 Ang^3
#
#
#
# Elastic Constant Matrix: (Units=GPa)
#
#
# Indices 1 2 3 4 5 6 
#
# 1 54.5400 -19.2817 15.0937 0.0000 -7.5643 0.0000
# 2 -19.2817 61.4274 23.7496 0.0000 -9.4770 0.0000
# 3 15.0937 23.7496 191.3752 0.0000 -16.2094 0.0000
# 4 0.0000 0.0000 0.0000 45.7640 0.0000 -21.4039
# 5 -7.5643 -9.4770 -16.2094 0.0000 49.8876 0.0000
# 6 0.0000 0.0000 0.0000 -21.4039 0.0000 28.2558
#
#
#
# Elastic Compliance Matrix: (Units=1/GPa)
#
#
# Indices 1 2 3 4 5 6 
#
# 1 0.022728 0.008770 -0.002517 0.000000 0.004294 0.000000
# 2 0.008770 0.020826 -0.002909 0.000000 0.004341 0.000000
# 3 -0.002517 -0.002909 0.005867 0.000000 0.000972 0.000000
# 4 0.000000 0.000000 0.000000 0.033840 0.000000 0.025634
# 5 0.004294 0.004341 0.000972 0.000000 0.021837 0.000000
# 6 0.000000 0.000000 0.000000 0.025634 0.000000 0.054809
#
#
# Mechanical properties :
#
#
# Convention : Reuss Voigt Hill
#
# Bulk Modulus (GPa) = 17.82225 38.49620 28.15923
# Shear Modulus (GPa) = 29.08287 43.96687 36.52487
#
# Velocity S-wave (km/s) = 3.22721 3.96800 3.61662
# Velocity P-wave (km/s) = 4.50209 5.89739 5.24634
#
# Compressibility (1/GPa) = 0.05610963
#
# Stress axis : x y z
#
# Youngs Moduli (GPa) = 43.99903 48.01589 170.44035
#
# Poissons Ratio (x) = -0.42109 0.42902
# Poissons Ratio (y) = -0.38586 0.49573
# Poissons Ratio (z) = 0.11075 0.13966
#
# Static dielectric constant tensor:
#      x y z
#    x 5.525230 0.000000 -0.185130 
#    y 0.000000 4.953320 0.000000 
#    z -0.185130 0.000000 5.891360 
# 
# 
# High freq. dielectric constant tensor:
#      x y z
#    x 2.154710 0.000000 -0.000220 
#    y 0.000000 2.113660 0.000000 
#    z -0.000220 0.000000 2.145410 
# 
# From -- ./inp_files/54018.got.cif
#   From: 2010.03.12/outbox.cif.g09.slc.cpg/sg14_28_cif.got.tgz:54018.got - 2010.03.31 13:35:05.
