data_PCOD8129115
_publ_section_title
;
Structure prediction by ZEFSAII (Michael W. Deem and Ramdas Pophale) SiO2 
 PCOD8129115
Probable space group: P 21/C
;
_chemical_formula_sum "Si O2"
_cell_formula_units_Z 32
_cell_length_a 8.679411
_cell_length_b 11.885249
_cell_length_c 14.618524
_cell_angle_alpha 90.000000
_cell_angle_beta 116.187604
_cell_angle_gamma 90.000000
_cell_volume 1353.211886
_symmetry_space_group_name_H-M "P 21/C"
_symmetry_group_IT_number 14
_symmetry_cell_setting 'monoclinic'
loop_
_space_group_symop_operation_xyz
x,y,z
-x,1/2+y,1/2-z
-x,-y,-z
x,1/2-y,1/2+z
loop_
_atom_site_type_symbol
_atom_site_label
_atom_site_fract_x
_atom_site_fract_y
_atom_site_fract_z
Si Si1 0.678411 0.323458 0.782560
Si Si2 0.437107 0.713513 0.578879
Si Si3 0.359283 0.401604 0.948373
Si Si4 0.907211 0.564399 0.395250
Si Si5 0.919460 0.038866 0.716161
Si Si6 0.169375 0.781149 0.858656
Si Si7 0.328668 0.241189 0.620534
Si Si8 0.704304 0.934919 0.242457
O O1 0.708952 0.256391 0.886101
O O2 0.832157 0.315654 0.749020
O O3 0.526262 0.256131 0.694540
O O4 0.643283 0.456945 0.786488
O O5 0.569183 0.817864 0.610549
O O6 0.348366 0.690419 0.458076
O O7 0.543845 0.602523 0.636177
O O8 0.173097 0.442535 0.867023
O O9 0.500000 0.500000 0.000000
O O10 0.314944 0.325470 0.023362
O O11 0.850322 0.472442 0.303319
O O12 0.755435 0.634826 0.403017
O O13 0.000000 0.500000 0.500000
O O14 0.022188 0.653134 0.371482
O O15 0.859559 0.149006 0.647255
O O16 0.127581 0.032356 0.773120
O O17 0.241010 0.164756 0.675531
#
# Coordination Sequence:
#
# PCOD8129115 Si02
#       8
#     4   4   4   4   4   4   4   4
#     4  11  24  44  75 101 141 193 249 304 375 444
#     4  11  26  45  72 105 145 190 249 312 368 447
#     4  12  24  46  75 108 148 192 247 311 374 445
#     4  12  30  47  72 111 154 200 247 318 390 448
#     4  12  26  47  73 104 152 194 250 306 378 452
#     4  12  26  48  72 112 143 196 258 305 378 458
#     4  11  25  46  71 111 148 191 249 310 377 457
#     4  11  25  44  71 102 146 191 243 308 375 444
#
# _framework density 23.647442000000002
#
# number of rings (size 3 to 8) (size 9 to 14) (size 15 to 20)
#    0.000    0.500    5.000    2.250    5.250    4.000 
#    0.000    0.000    0.000    0.000    0.000    0.000 
#    0.000    0.000    0.000    0.000    0.000    0.000 
#
# Total GULP energy -396644.577861 kJ/mol
# GULP energy per Si atom -12395.143058 kJ/mol
# Density = 2.359362 g / cm^3
# Si number density = 23.647442 Si / 1000 Ang^3
#
#
#
# Elastic Constant Matrix: (Units=GPa)
#
#
# Indices 1 2 3 4 5 6 
#
# 1 64.6626 16.1501 19.4263 0.0000 -10.2721 0.0000
# 2 16.1501 57.0477 10.9904 0.0000 -6.3415 0.0000
# 3 19.4263 10.9904 95.2779 0.0000 -13.3066 0.0000
# 4 0.0000 0.0000 0.0000 40.4105 0.0000 -5.9511
# 5 -10.2721 -6.3415 -13.3066 0.0000 36.3396 0.0000
# 6 0.0000 0.0000 0.0000 -5.9511 0.0000 45.8498
#
#
#
# Elastic Compliance Matrix: (Units=1/GPa)
#
#
# Indices 1 2 3 4 5 6 
#
# 1 0.017843 -0.004162 -0.002693 0.000000 0.003331 0.000000
# 2 -0.004162 0.019116 -0.001112 0.000000 0.001752 0.000000
# 3 -0.002693 -0.001112 0.011634 0.000000 0.003305 0.000000
# 4 0.000000 0.000000 0.000000 0.025228 0.000000 0.003275
# 5 0.003331 0.001752 0.003305 0.000000 0.029976 0.000000
# 6 0.000000 0.000000 0.000000 0.003275 0.000000 0.022235
#
#
# Mechanical properties :
#
#
# Convention : Reuss Voigt Hill
#
# Bulk Modulus (GPa) = 30.61804 34.45798 32.53801
# Shear Modulus (GPa) = 32.71125 35.88143 34.29634
#
# Velocity S-wave (km/s) = 3.72329 3.89954 3.81244
# Velocity P-wave (km/s) = 5.60890 5.90580 5.75926
#
# Compressibility (1/GPa) = 0.03266048
#
# Stress axis : x y z
#
# Youngs Moduli (GPa) = 56.04588 52.31099 85.95171
#
# Poissons Ratio (x) = 0.21773 0.23143
# Poissons Ratio (y) = 0.23327 0.09556
# Poissons Ratio (z) = 0.15091 0.05816
#
# Static dielectric constant tensor:
#      x y z
#    x 4.226820 0.000000 -0.238310 
#    y 0.000000 4.604260 0.000000 
#    z -0.238310 0.000000 4.303240 
# 
# 
# High freq. dielectric constant tensor:
#      x y z
#    x 1.930200 0.000000 -0.011420 
#    y 0.000000 1.956840 0.000000 
#    z -0.011420 0.000000 1.932650 
# 
# From -- ./inp_files/40284.got.cif
#   From: 2010.03.12/outbox.cif.g09.slc.cpg/sg14_21_cif.got.tgz:40284.got - 2010.03.31 13:35:05.
