data_PCOD8129104
_publ_section_title
;
Structure prediction by ZEFSAII (Michael W. Deem and Ramdas Pophale) SiO2 
 PCOD8129104
Probable space group: P 21/C
;
_chemical_formula_sum "Si O2"
_cell_formula_units_Z 28
_cell_length_a 15.720685
_cell_length_b 16.649475
_cell_length_c 9.601425
_cell_angle_alpha 90.000000
_cell_angle_beta 147.881131
_cell_angle_gamma 90.000000
_cell_volume 1336.152442
_symmetry_space_group_name_H-M "P 21/C"
_symmetry_group_IT_number 14
_symmetry_cell_setting 'monoclinic'
loop_
_space_group_symop_operation_xyz
x,y,z
-x,1/2+y,1/2-z
-x,-y,-z
x,1/2-y,1/2+z
loop_
_atom_site_type_symbol
_atom_site_label
_atom_site_fract_x
_atom_site_fract_y
_atom_site_fract_z
Si Si1 0.936019 0.419810 0.975572
Si Si2 0.584105 0.748612 0.219936
Si Si3 0.377500 0.701964 0.183559
Si Si4 0.830862 0.618774 0.150768
Si Si5 0.149111 0.147762 0.013357
Si Si6 0.667813 0.032042 0.285260
Si Si7 0.058315 0.701394 0.265994
O O1 0.753639 0.433658 0.766861
O O2 0.935021 0.348368 0.865632
O O3 0.000000 0.500000 0.000000
O O4 0.043110 0.400449 0.257763
O O5 0.434163 0.730486 0.111108
O O6 0.700861 0.811104 0.456984
O O7 0.675887 0.665168 0.310192
O O8 0.520937 0.788186 0.991255
O O9 0.342121 0.606780 0.121510
O O10 0.226605 0.754551 0.027875
O O11 0.847866 0.598303 0.338088
O O12 0.000783 0.646644 0.317416
O O13 0.773209 0.537778 0.998147
O O14 0.077448 0.234020 0.952432
O O15 0.500000 0.000000 0.000000
#
# Coordination Sequence:
#
# PCOD8129104 Si02
#       7
#     4   4   4   4   4   4   4
#     4  12  26  47  70 103 141 188 231 287 358 425
#     4  11  24  44  71 101 137 182 232 286 348 413
#     4  12  25  44  71 105 137 179 237 290 346 422
#     4  11  24  46  69 100 139 187 227 290 352 422
#     4  11  25  44  71 101 137 186 237 286 347 417
#     4  12  26  45  71 100 144 183 227 287 364 418
#     4  11  24  44  74 101 136 182 243 287 340 423
#
# _framework density 20.955691000000002
#
# number of rings (size 3 to 8) (size 9 to 14) (size 15 to 20)
#    0.000    0.571    5.714    2.571    6.000    0.571 
#    2.571    0.714    0.000    0.000    0.000    0.000 
#    0.000    0.000    0.000    0.000    0.000    0.000 
#
# Total GULP energy -347278.463330 kJ/mol
# GULP energy per Si atom -12402.802262 kJ/mol
# Density = 2.090800 g / cm^3
# Si number density = 20.955691 Si / 1000 Ang^3
#
#
#
# Elastic Constant Matrix: (Units=GPa)
#
#
# Indices 1 2 3 4 5 6 
#
# 1 124.3289 53.4790 39.0719 0.0000 6.5278 0.0000
# 2 53.4790 118.3312 40.6374 0.0000 -1.1467 0.0000
# 3 39.0719 40.6374 92.6609 0.0000 -2.1375 0.0000
# 4 0.0000 0.0000 0.0000 40.6581 0.0000 -0.4788
# 5 6.5278 -1.1467 -2.1375 0.0000 40.8351 0.0000
# 6 0.0000 0.0000 0.0000 -0.4788 0.0000 37.9180
#
#
#
# Elastic Compliance Matrix: (Units=1/GPa)
#
#
# Indices 1 2 3 4 5 6 
#
# 1 0.010715 -0.003878 -0.002863 0.000000 -0.001972 0.000000
# 2 -0.003878 0.011353 -0.003326 0.000000 0.000765 0.000000
# 3 -0.002863 -0.003326 0.013482 0.000000 0.001070 0.000000
# 4 0.000000 0.000000 0.000000 0.024599 0.000000 0.000311
# 5 -0.001972 0.000765 0.001070 0.000000 0.024881 0.000000
# 6 0.000000 0.000000 0.000000 0.000311 0.000000 0.026377
#
#
# Mechanical properties :
#
#
# Convention : Reuss Voigt Hill
#
# Bulk Modulus (GPa) = 64.86652 66.85529 65.86090
# Shear Modulus (GPa) = 36.58175 37.35775 36.96975
#
# Velocity S-wave (km/s) = 4.18266 4.22679 4.20478
# Velocity P-wave (km/s) = 7.37207 7.46950 7.42095
#
# Compressibility (1/GPa) = 0.01541627
#
# Stress axis : x y z
#
# Youngs Moduli (GPa) = 93.33102 88.07974 74.17055
#
# Poissons Ratio (x) = 0.34161 0.21231
# Poissons Ratio (y) = 0.36198 0.24670
# Poissons Ratio (z) = 0.26716 0.29296
#
# Static dielectric constant tensor:
#      x y z
#    x 4.092290 0.000000 0.112450 
#    y 0.000000 3.880650 0.000000 
#    z 0.112450 0.000000 3.662580 
# 
# 
# High freq. dielectric constant tensor:
#      x y z
#    x 1.838630 0.000000 0.005340 
#    y 0.000000 1.822280 0.000000 
#    z 0.005340 0.000000 1.815380 
# 
# From -- ./inp_files/16435.got.cif
#   From: 2010.03.12/outbox.cif.g09.slc.cpg/sg14_9_cif.got.tgz:16435.got - 2010.03.31 13:35:05.
