data_PCOD8129359
_publ_section_title
;
Structure prediction by ZEFSAII (Michael W. Deem and Ramdas Pophale) SiO2 
 PCOD8129359
Probable space group: P 21/C
;
_chemical_formula_sum "Si O2"
_cell_formula_units_Z 32
_cell_length_a 23.952095
_cell_length_b 12.194294
_cell_length_c 30.323062
_cell_angle_alpha 90.000000
_cell_angle_beta 170.435602
_cell_angle_gamma 90.000000
_cell_volume 1471.598596
_symmetry_space_group_name_H-M "P 21/C"
_symmetry_group_IT_number 14
_symmetry_cell_setting 'monoclinic'
loop_
_space_group_symop_operation_xyz
x,y,z
-x,1/2+y,1/2-z
-x,-y,-z
x,1/2-y,1/2+z
loop_
_atom_site_type_symbol
_atom_site_label
_atom_site_fract_x
_atom_site_fract_y
_atom_site_fract_z
Si Si1 0.782296 0.609832 0.125768
Si Si2 0.739462 0.296963 0.433088
Si Si3 0.699167 0.537856 0.965164
Si Si4 0.781537 0.280535 0.803626
Si Si5 0.650515 0.419571 0.081726
Si Si6 0.255255 0.162850 0.109305
Si Si7 0.437713 0.997373 0.002936
Si Si8 0.175111 0.277876 0.195518
O O1 0.740841 0.484751 0.108017
O O2 0.116513 0.654548 0.409113
O O3 0.806864 0.608392 0.091920
O O4 0.482233 0.684345 0.910918
O O5 0.555702 0.392318 0.262915
O O6 0.472917 0.210536 0.239950
O O7 0.017227 0.228452 0.621561
O O8 0.475064 0.431833 0.804506
O O9 0.041552 0.503925 0.206386
O O10 0.624180 0.399124 0.670313
O O11 0.116273 0.252620 0.035931
O O12 0.867771 0.273290 0.922207
O O13 0.960563 0.374222 0.348842
O O14 0.500000 0.500000 0.000000
O O15 0.410513 0.326968 0.875685
O O16 0.613252 0.884429 0.153851
O O17 0.500000 0.000000 0.000000
#
# Coordination Sequence:
#
# PCOD8129359 Si02
#       8
#     4   4   4   4   4   4   4   4
#     4  12  25  45  74 106 148 183 245 305 364 431
#     4  12  25  46  72 108 146 191 241 309 363 433
#     4  12  26  47  72 112 143 188 249 310 363 432
#     4  12  26  46  74 107 147 196 243 301 367 444
#     4  12  22  43  74 103 138 190 241 300 370 429
#     4  12  25  44  74 104 142 189 242 299 370 428
#     4  12  27  51  73 103 153 203 245 295 376 451
#     4  12  25  46  73 107 147 193 247 297 364 444
#
# _framework density 21.745059999999999
#
# number of rings (size 3 to 8) (size 9 to 14) (size 15 to 20)
#    0.000    0.000    5.000    5.625    1.750    2.000 
#    6.750    0.000    0.000    0.000    0.000    0.000 
#    0.000    0.000    0.000    0.000    0.000    0.000 
#
# Total GULP energy -396659.761078 kJ/mol
# GULP energy per Si atom -12395.617534 kJ/mol
# Density = 2.169557 g / cm^3
# Si number density = 21.745060 Si / 1000 Ang^3
#
#
#
# Elastic Constant Matrix: (Units=GPa)
#
#
# Indices 1 2 3 4 5 6 
#
# 1 134.2204 103.4055 113.2025 0.0000 -16.1059 0.0000
# 2 103.4055 237.2726 153.2774 0.0000 -18.4540 0.0000
# 3 113.2025 153.2774 218.4704 0.0000 -18.9542 0.0000
# 4 0.0000 0.0000 0.0000 -40.8672 0.0000 9.1803
# 5 -16.1059 -18.4540 -18.9542 0.0000 73.5341 0.0000
# 6 0.0000 0.0000 0.0000 9.1803 0.0000 33.0641
#
#
#
# Elastic Compliance Matrix: (Units=1/GPa)
#
#
# Indices 1 2 3 4 5 6 
#
# 1 0.014138 -0.002572 -0.005430 0.000000 0.001051 0.000000
# 2 -0.002572 0.008198 -0.004388 0.000000 0.000363 0.000000
# 3 -0.005430 -0.004388 0.010505 0.000000 0.000417 0.000000
# 4 0.000000 0.000000 0.000000 -0.023033 0.000000 0.006395
# 5 0.001051 0.000363 0.000417 0.000000 0.014028 0.000000
# 6 0.000000 0.000000 0.000000 0.006395 0.000000 0.028469
#
#
# Mechanical properties :
#
#
# Convention : Reuss Voigt Hill
#
# Bulk Modulus (GPa) = 124.03323 147.74825 135.89074
# Shear Modulus (GPa) = 62.67958 27.81808 45.24883
#
# Velocity S-wave (km/s) = 5.37469 3.58059 4.56661
# Velocity P-wave (km/s) = 9.78161 9.22970 9.50966
#
# Compressibility (1/GPa) = 0.00806236
#
# Stress axis : x y z
#
# Youngs Moduli (GPa) = 70.73323 121.98188 95.18955
#
# Poissons Ratio (x) = 0.31371 0.51688
# Poissons Ratio (y) = 0.18191 0.41765
# Poissons Ratio (z) = 0.38408 0.53520
#
# Static dielectric constant tensor:
#      x y z
#    x 3.878550 0.000000 -0.031810 
#    y 0.000000 4.170720 0.000000 
#    z -0.031810 0.000000 4.281190 
# 
# 
# High freq. dielectric constant tensor:
#      x y z
#    x 1.857100 0.000000 -0.006270 
#    y 0.000000 1.867330 0.000000 
#    z -0.006270 0.000000 1.872050 
# 
# From -- ./inp_files/80689.got.cif
#   From: 2010.03.12/outbox.cif.g09.slc.cpg/sg14_41_cif.got.tgz:80689.got - 2010.03.31 13:35:05.
