data_PCOD8129295
_publ_section_title
;
Structure prediction by ZEFSAII (Michael W. Deem and Ramdas Pophale) SiO2 
 PCOD8129295
Probable space group: P 21/C
;
_chemical_formula_sum "Si O2"
_cell_formula_units_Z 20
_cell_length_a 5.287186
_cell_length_b 10.860832
_cell_length_c 13.846506
_cell_angle_alpha 90.000000
_cell_angle_beta 90.348152
_cell_angle_gamma 90.000000
_cell_volume 795.096543
_symmetry_space_group_name_H-M "P 21/C"
_symmetry_group_IT_number 14
_symmetry_cell_setting 'monoclinic'
loop_
_space_group_symop_operation_xyz
x,y,z
-x,1/2+y,1/2-z
-x,-y,-z
x,1/2-y,1/2+z
loop_
_atom_site_type_symbol
_atom_site_label
_atom_site_fract_x
_atom_site_fract_y
_atom_site_fract_z
Si Si1 0.750648 0.288842 0.499203
Si Si2 0.745443 0.633364 0.000940
Si Si3 0.008731 0.498676 0.161553
Si Si4 0.646685 0.131648 0.209796
Si Si5 0.654025 0.118532 0.793870
O O1 0.537000 0.184235 0.492877
O O2 0.714563 0.364562 0.597234
O O3 0.713784 0.377753 0.407671
O O4 0.033393 0.235845 0.496923
O O5 0.782079 0.542676 0.091434
O O6 0.763914 0.557293 0.901715
O O7 0.101837 0.615361 0.224576
O O8 0.912037 0.390760 0.232434
O O9 0.515559 0.257308 0.251476
O O10 0.489815 0.008011 0.227903
#
# Coordination Sequence:
#
# PCOD8129295 Si02
#       5
#     4   4   4   4   4
#     4  12  27  50  77 117 162 205 262 339 404 464
#     4  11  26  50  79 115 158 214 271 322 391 486
#     4  11  26  45  82 108 162 213 272 317 396 482
#     4  12  27  48  78 116 158 212 262 333 396 477
#     4  12  27  48  78 116 158 212 262 333 396 477
#
# _framework density 25.154178999999999
#
# number of rings (size 3 to 8) (size 9 to 14) (size 15 to 20)
#    0.000    0.400    4.000    3.000    5.600    4.000 
#    0.000    0.000    0.000    0.000    0.000    0.000 
#    0.000    0.000    0.000    0.000    0.000    0.000 
#
# Total GULP energy -247955.951928 kJ/mol
# GULP energy per Si atom -12397.797596 kJ/mol
# Density = 2.509693 g / cm^3
# Si number density = 25.154179 Si / 1000 Ang^3
#
#
#
# Elastic Constant Matrix: (Units=GPa)
#
#
# Indices 1 2 3 4 5 6 
#
# 1 53.0372 22.2751 10.2207 0.0000 -1.8521 0.0000
# 2 22.2751 130.1708 34.6155 0.0000 -9.1032 0.0000
# 3 10.2207 34.6155 182.1956 0.0000 -15.1834 0.0000
# 4 0.0000 0.0000 0.0000 -18.6189 0.0000 7.0035
# 5 -1.8521 -9.1032 -15.1834 0.0000 17.6835 0.0000
# 6 0.0000 0.0000 0.0000 7.0035 0.0000 38.4882
#
#
#
# Elastic Compliance Matrix: (Units=1/GPa)
#
#
# Indices 1 2 3 4 5 6 
#
# 1 0.020359 -0.003351 -0.000508 0.000000 -0.000029 0.000000
# 2 -0.003351 0.008800 -0.001223 0.000000 0.003129 0.000000
# 3 -0.000508 -0.001223 0.006131 0.000000 0.004582 0.000000
# 4 0.000000 0.000000 0.000000 -0.050268 0.000000 0.009147
# 5 -0.000029 0.003129 0.004582 0.000000 0.062092 0.000000
# 6 0.000000 0.000000 0.000000 0.009147 0.000000 0.024318
#
#
# Mechanical properties :
#
#
# Convention : Reuss Voigt Hill
#
# Bulk Modulus (GPa) = 39.79906 55.51403 47.65654
# Shear Modulus (GPa) = 55.57430 27.39672 41.48551
#
# Velocity S-wave (km/s) = 4.70547 3.30381 4.06550
# Velocity P-wave (km/s) = 6.73634 6.05566 6.40505
#
# Compressibility (1/GPa) = 0.02512622
#
# Stress axis : x y z
#
# Youngs Moduli (GPa) = 49.11868 113.64045 163.09768
#
# Poissons Ratio (x) = 0.38079 0.08283
# Poissons Ratio (y) = 0.16459 0.19949
# Poissons Ratio (z) = 0.02494 0.13900
#
# Static dielectric constant tensor:
#      x y z
#    x 4.222360 0.000000 -0.000200 
#    y 0.000000 4.567010 0.000000 
#    z -0.000200 0.000000 4.952500 
# 
# 
# High freq. dielectric constant tensor:
#      x y z
#    x 1.983620 0.000000 -0.001070 
#    y 0.000000 2.003420 0.000000 
#    z -0.001070 0.000000 2.038450 
# 
# From -- ./inp_files/37023.got.cif
#   From: 2010.03.12/outbox.cif.g09.slc.cpg/sg14_19_cif.got.tgz:37023.got - 2010.03.31 13:35:05.
