data_PCOD8129437
_publ_section_title
;
Structure prediction by ZEFSAII (Michael W. Deem and Ramdas Pophale) SiO2 
 PCOD8129437
Probable space group: P 21/C
;
_chemical_formula_sum "Si O2"
_cell_formula_units_Z 24
_cell_length_a 6.751730
_cell_length_b 15.311788
_cell_length_c 10.980122
_cell_angle_alpha 90.000000
_cell_angle_beta 111.733905
_cell_angle_gamma 90.000000
_cell_volume 1054.443868
_symmetry_space_group_name_H-M "P 21/C"
_symmetry_group_IT_number 14
_symmetry_cell_setting 'monoclinic'
loop_
_space_group_symop_operation_xyz
x,y,z
-x,1/2+y,1/2-z
-x,-y,-z
x,1/2-y,1/2+z
loop_
_atom_site_type_symbol
_atom_site_label
_atom_site_fract_x
_atom_site_fract_y
_atom_site_fract_z
Si Si1 0.482109 0.079271 0.711560
Si Si2 0.176481 0.933584 0.593063
Si Si3 0.931213 0.321906 0.705033
Si Si4 0.263496 0.193248 0.852958
Si Si5 0.929347 0.094887 0.945853
Si Si6 0.622997 0.196682 0.545875
O O1 0.308633 0.122343 0.760104
O O2 0.472484 0.127270 0.578939
O O3 0.719774 0.081213 0.817243
O O4 0.402208 0.981117 0.668457
O O5 0.094041 0.898496 0.703416
O O6 0.221007 0.851665 0.514769
O O7 0.000000 0.000000 0.500000
O O8 0.765441 0.241727 0.684921
O O9 0.164753 0.280782 0.772129
O O10 0.882339 0.353284 0.557937
O O11 0.113648 0.147196 0.917824
O O12 0.486671 0.225202 0.957633
O O13 0.000000 0.000000 0.000000
#
# Coordination Sequence:
#
# PCOD8129437 Si02
#       6
#     4   4   4   4   4   4
#     4  12  26  47  73 105 147 189 241 296 366 432
#     4  12  28  47  76 108 146 193 242 303 366 434
#     4  12  25  47  74 105 143 186 244 297 357 431
#     4  12  25  48  74 105 144 190 243 301 358 431
#     4  12  28  44  73 107 146 187 238 298 365 430
#     4  12  25  47  74 106 142 193 243 295 365 428
#
# _framework density 22.760812999999999
#
# number of rings (size 3 to 8) (size 9 to 14) (size 15 to 20)
#    0.000    0.000    3.333    6.500    7.000    1.333 
#    0.000    0.000    0.000    0.000    0.000    0.000 
#    0.000    0.000    0.000    0.000    0.000    0.000 
#
# Total GULP energy -297677.891335 kJ/mol
# GULP energy per Si atom -12403.245472 kJ/mol
# Density = 2.270901 g / cm^3
# Si number density = 22.760813 Si / 1000 Ang^3
#
#
#
# Elastic Constant Matrix: (Units=GPa)
#
#
# Indices 1 2 3 4 5 6 
#
# 1 103.7494 37.9302 40.7629 0.0000 0.9062 0.0000
# 2 37.9302 97.5583 30.3806 0.0000 4.6966 0.0000
# 3 40.7629 30.3806 93.5939 0.0000 -2.8878 0.0000
# 4 0.0000 0.0000 0.0000 53.6762 0.0000 3.7363
# 5 0.9062 4.6966 -2.8878 0.0000 30.7688 0.0000
# 6 0.0000 0.0000 0.0000 3.7363 0.0000 50.9147
#
#
#
# Elastic Compliance Matrix: (Units=1/GPa)
#
#
# Indices 1 2 3 4 5 6 
#
# 1 0.012654 -0.003548 -0.004367 0.000000 -0.000241 0.000000
# 2 -0.003548 0.012534 -0.002587 0.000000 -0.002051 0.000000
# 3 -0.004367 -0.002587 0.013481 0.000000 0.001789 0.000000
# 4 0.000000 0.000000 0.000000 0.018726 0.000000 -0.001374
# 5 -0.000241 -0.002051 0.001789 0.000000 0.032989 0.000000
# 6 0.000000 0.000000 0.000000 -0.001374 0.000000 0.019742
#
#
# Mechanical properties :
#
#
# Convention : Reuss Voigt Hill
#
# Bulk Modulus (GPa) = 56.60638 57.00545 56.80591
# Shear Modulus (GPa) = 36.49207 39.46047 37.97627
#
# Velocity S-wave (km/s) = 4.00845 4.16829 4.08915
# Velocity P-wave (km/s) = 6.80791 6.94738 6.87800
#
# Compressibility (1/GPa) = 0.01766585
#
# Stress axis : x y z
#
# Youngs Moduli (GPa) = 79.02902 79.78272 74.17819
#
# Poissons Ratio (x) = 0.28309 0.32391
# Poissons Ratio (y) = 0.28041 0.19186
# Poissons Ratio (z) = 0.34509 0.20636
#
# Static dielectric constant tensor:
#      x y z
#    x 3.973310 0.000000 0.039830 
#    y 0.000000 4.446530 0.000000 
#    z 0.039830 0.000000 4.103500 
# 
# 
# High freq. dielectric constant tensor:
#      x y z
#    x 1.904330 0.000000 0.003900 
#    y 0.000000 1.916430 0.000000 
#    z 0.003900 0.000000 1.910640 
# 
# From -- ./inp_files/21295.got.cif
#   From: 2010.03.12/outbox.cif.g09.slc.cpg/sg14_11_cif.got.tgz:21295.got - 2010.03.31 13:35:05.
