data_PCOD8129793
_publ_section_title
;
Structure prediction by ZEFSAII (Michael W. Deem and Ramdas Pophale) SiO2 
 PCOD8129793
Probable space group: C 2/C
;
_chemical_formula_sum "Si O2"
_cell_formula_units_Z 56
_cell_length_a 23.903059
_cell_length_b 24.764835
_cell_length_c 5.136453
_cell_angle_alpha 90.000000
_cell_angle_beta 97.876099
_cell_angle_gamma 90.000000
_cell_volume 3011.868250
_symmetry_space_group_name_H-M "C 2/C"
_symmetry_group_IT_number 15
_symmetry_cell_setting 'monoclinic'
loop_
_space_group_symop_operation_xyz
x,y,z
-x,y,1/2-z
-x,-y,-z
x,-y,1/2+z
1/2+x,1/2+y,z
1/2-x,1/2+y,1/2-z
1/2-x,1/2-y,-z
1/2+x,1/2-y,1/2+z
loop_
_atom_site_type_symbol
_atom_site_label
_atom_site_fract_x
_atom_site_fract_y
_atom_site_fract_z
Si Si1 0.665028 0.295420 0.400059
Si Si2 0.206929 0.685637 0.488622
Si Si3 0.975532 0.438845 0.985850
Si Si4 0.854690 0.861085 0.594854
Si Si5 0.647783 0.033003 0.013405
Si Si6 0.433839 0.464750 0.699775
Si Si7 0.226635 0.375652 0.486511
O O1 0.731446 0.295890 0.369635
O O2 0.657548 0.231624 0.463279
O O3 0.645633 0.331027 0.630406
O O4 0.630567 0.318091 0.126848
O O5 0.213475 0.669120 0.193812
O O6 0.193486 0.639175 0.695430
O O7 0.000000 0.408195 0.750000
O O8 0.908533 0.434282 0.952994
O O9 0.000000 0.407552 0.250000
O O10 0.000000 0.500000 0.000000
O O11 0.899872 0.909223 0.637353
O O12 0.793259 0.885907 0.491089
O O13 0.649121 0.016563 0.712486
O O14 0.702247 0.069479 0.091102
O O15 0.500000 0.449852 0.750000
O O16 0.417628 0.506048 0.458777
#
# Coordination Sequence:
#
# PCOD8129793 Si02
#       7
#     8   8   8   8   8   8   8
#     4   9  17  30  55  75  96 129 163 213 236 298
#     4   9  17  33  48  72 103 129 163 196 258 295
#     4  10  16  30  47  63  81 110 158 215 229 251
#     4  10  19  33  51  78 102 129 175 198 251 300
#     4  12  21  31  46  68  97 127 166 201 245 289
#     4  10  21  36  54  75 106 141 175 215 251 299
#     4  10  21  31  46  73 107 135 158 207 252 319
#
# _framework density 18.593109999999999
#
# number of rings (size 3 to 8) (size 9 to 14) (size 15 to 20)
#    0.000    2.000    2.857    2.571    0.000    4.571 
#    0.000    0.000    0.000    0.000    0.000   10.000 
#    0.000    0.000    0.000    0.000    0.000    0.000 
#
# Total GULP energy -346929.700613 kJ/mol
# GULP energy per Si atom -12390.346450 kJ/mol
# Density = 1.855079 g / cm^3
# Si number density = 18.593110 Si / 1000 Ang^3
#
#
#
# Elastic Constant Matrix: (Units=GPa)
#
#
# Indices 1 2 3 4 5 6 
#
# 1 64.2246 38.3470 27.5801 0.0000 0.3926 0.0000
# 2 38.3470 67.3416 30.0914 0.0000 3.8874 0.0000
# 3 27.5801 30.0914 128.1828 0.0000 -9.5351 0.0000
# 4 0.0000 0.0000 0.0000 9.4747 0.0000 0.8046
# 5 0.3926 3.8874 -9.5351 0.0000 21.7543 0.0000
# 6 0.0000 0.0000 0.0000 0.8046 0.0000 21.3227
#
#
#
# Elastic Compliance Matrix: (Units=1/GPa)
#
#
# Indices 1 2 3 4 5 6 
#
# 1 0.024151 -0.012866 -0.002106 0.000000 0.000940 0.000000
# 2 -0.012866 0.023949 -0.003261 0.000000 -0.005477 0.000000
# 3 -0.002106 -0.003261 0.009372 0.000000 0.004729 0.000000
# 4 0.000000 0.000000 0.000000 0.105884 0.000000 -0.003995
# 5 0.000940 -0.005477 0.004729 0.000000 0.049002 0.000000
# 6 0.000000 0.000000 0.000000 -0.003995 0.000000 0.047049
#
#
# Mechanical properties :
#
#
# Convention : Reuss Voigt Hill
#
# Bulk Modulus (GPa) = 47.60609 50.19846 48.90228
# Shear Modulus (GPa) = 16.50842 21.42569 18.96706
#
# Velocity S-wave (km/s) = 2.98296 3.39830 3.19738
# Velocity P-wave (km/s) = 6.12567 6.51575 6.32372
#
# Compressibility (1/GPa) = 0.02100571
#
# Stress axis : x y z
#
# Youngs Moduli (GPa) = 41.40652 41.75479 106.70194
#
# Poissons Ratio (x) = 0.53720 0.22473
# Poissons Ratio (y) = 0.53272 0.34800
# Poissons Ratio (z) = 0.08721 0.13618
#
# Static dielectric constant tensor:
#      x y z
#    x 3.197120 0.000000 -0.008170 
#    y 0.000000 3.191600 0.000000 
#    z -0.008170 0.000000 3.992970 
# 
# 
# High freq. dielectric constant tensor:
#      x y z
#    x 1.687160 0.000000 -0.013180 
#    y 0.000000 1.689900 0.000000 
#    z -0.013180 0.000000 1.750660 
# 
# From -- ./inp_files/15705.got.cif
#   From: 2010.06.25/outbox.cif.g09.slc.cpg/sg15_8_cif.got.tgz:15705.got - 2010.06.28 07:06:18.
