data_PCOD8129574
_publ_section_title
;
Structure prediction by ZEFSAII (Michael W. Deem and Ramdas Pophale) SiO2 
 PCOD8129574
Probable space group: C 2/C
;
_chemical_formula_sum "Si O2"
_cell_formula_units_Z 24
_cell_length_a 9.000000
_cell_length_b 15.000000
_cell_length_c 27.000000
_cell_angle_alpha 90.000000
_cell_angle_beta 40.000000
_cell_angle_gamma 90.000000
_cell_volume 2342.960837
_symmetry_space_group_name_H-M "C 2/C"
_symmetry_group_IT_number 15
_symmetry_cell_setting 'monoclinic'
loop_
_space_group_symop_operation_xyz
x,y,z
-x,y,1/2-z
-x,-y,-z
x,-y,1/2+z
1/2+x,1/2+y,z
1/2-x,1/2+y,1/2-z
1/2-x,1/2-y,-z
1/2+x,1/2-y,1/2+z
loop_
_atom_site_type_symbol
_atom_site_label
_atom_site_fract_x
_atom_site_fract_y
_atom_site_fract_z
Si Si1 0.638523 0.319851 0.087255
Si Si2 0.767757 0.009362 0.420834
Si Si3 0.483035 0.655536 0.310230
Si Si4 0.599072 0.726934 0.948475
Si Si5 0.500621 0.835018 0.694551
Si Si6 0.970443 0.074562 0.049390
O O1 0.624634 0.413351 0.118939
O O2 0.480696 0.329681 0.078811
O O3 0.528691 0.244985 0.149381
O O4 0.907185 0.304405 0.004169
O O5 0.818836 0.069236 0.359432
O O6 0.894039 0.052170 0.435725
O O7 0.500000 0.000000 0.500000
O O8 0.500000 0.688692 0.250000
O O9 0.358242 0.733511 0.374722
O O10 0.741602 0.625964 0.258390
O O11 0.593447 0.664314 0.998032
O O12 0.500000 0.796510 0.750000
O O13 0.698127 0.908743 0.631860
O O14 0.000000 0.000000 0.000000
#
# Coordination Sequence:
#
# PCOD8129574 Si02
#       6
#     8   8   8   8   8   8
#     4  10  21  41  67  93 131 173 218 263 328 404
#     4  12  25  42  68 104 133 167 225 282 330 391
#     4  12  25  43  66  98 134 173 220 278 337 384
#     4  10  21  41  69  91 126 181 219 257 326 410
#     4  11  24  44  66  96 136 177 221 279 333 393
#     4  11  24  43  70  97 133 180 223 265 332 407
#
# _framework density 10.243449
#
# number of rings (size 3 to 8) (size 9 to 14) (size 15 to 20)
#    0.000    1.000    6.667    0.000    2.333    2.667 
#    3.000    2.500    0.000    0.000    0.000    0.000 
#    0.000    0.000    0.000    0.000    0.000    0.000 
#
# Total GULP energy -297455.199238 kJ/mol
# GULP energy per Si atom -12393.966635 kJ/mol
# Density = 1.022013 g / cm^3
# Si number density = 10.243449 Si / 1000 Ang^3
#
#
#
# Elastic Constant Matrix: (Units=GPa)
#
#
# Indices 1 2 3 4 5 6 
#
# 1 64.8036 8.3775 33.9584 0.0010 -19.8705 -0.0003
# 2 8.3775 81.1674 35.9132 0.0026 -15.4608 -0.0011
# 3 33.9584 35.9132 152.1456 0.0045 -27.5988 -0.0033
# 4 0.0010 0.0026 0.0045 27.2344 -0.0026 2.3413
# 5 -19.8705 -15.4608 -27.5988 -0.0026 42.8684 0.0007
# 6 -0.0003 -0.0011 -0.0033 2.3413 0.0007 23.4875
#
#
#
# Elastic Compliance Matrix: (Units=1/GPa)
#
#
# Indices 1 2 3 4 5 6 
#
# 1 0.019178 0.000782 -0.003172 0.000000 0.007130 0.000000
# 2 0.000782 0.014201 -0.002867 -0.000001 0.003639 0.000000
# 3 -0.003172 -0.002867 0.008495 -0.000001 0.002965 0.000001
# 4 0.000000 -0.000001 -0.000001 0.037036 0.000002 -0.003692
# 5 0.007130 0.003639 0.002965 0.000002 0.029853 0.000000
# 6 0.000000 0.000000 0.000001 -0.003692 0.000000 0.042944
#
#
# Mechanical properties :
#
#
# Convention : Reuss Voigt Hill
#
# Bulk Modulus (GPa) = 31.88612 50.51274 41.19943
# Shear Modulus (GPa) = 28.95632 33.37588 31.16610
#
# Velocity S-wave (km/s) = 3.76361 4.04063 3.90458
# Velocity P-wave (km/s) = 5.87233 6.81752 6.36250
#
# Compressibility (1/GPa) = 0.03136161
#
# Stress axis : x y z
#
# Youngs Moduli (GPa) = 52.14202 70.41793 117.71500
#
# Poissons Ratio (x) = -0.05507 0.37337
# Poissons Ratio (y) = -0.04078 0.33744
# Poissons Ratio (z) = 0.16539 0.20186
#
# Static dielectric constant tensor:
#      x y z
#    x 3.954240 -0.000010 -0.038140 
#    y -0.000010 3.722630 0.000010 
#    z -0.038140 0.000010 4.100610 
# 
# 
# High freq. dielectric constant tensor:
#      x y z
#    x 1.797100 0.000000 -0.003210 
#    y 0.000000 1.788430 0.000000 
#    z -0.003210 0.000000 1.820680 
# 
# From -- ./inp_files/182437.got.cif
#   From: 2010.06.25/outbox.ucp.g09.slc.cvg/sg15_92_cif.got.tgz:182437.got - 2010.06.28 14:40:10.
