data_PCOD8129439
_publ_section_title
;
Structure prediction by ZEFSAII (Michael W. Deem and Ramdas Pophale) SiO2 
 PCOD8129439
Probable space group: P 21/C
;
_chemical_formula_sum "Si O2"
_cell_formula_units_Z 24
_cell_length_a 14.350759
_cell_length_b 8.543694
_cell_length_c 14.666029
_cell_angle_alpha 90.000000
_cell_angle_beta 36.650322
_cell_angle_gamma 90.000000
_cell_volume 1073.386967
_symmetry_space_group_name_H-M "P 21/C"
_symmetry_group_IT_number 14
_symmetry_cell_setting 'monoclinic'
loop_
_space_group_symop_operation_xyz
x,y,z
-x,1/2+y,1/2-z
-x,-y,-z
x,1/2-y,1/2+z
loop_
_atom_site_type_symbol
_atom_site_label
_atom_site_fract_x
_atom_site_fract_y
_atom_site_fract_z
Si Si1 0.048844 0.367624 0.776874
Si Si2 0.422803 0.649998 0.234725
Si Si3 0.581553 0.789252 0.268167
Si Si4 0.602302 0.647298 0.446358
Si Si5 0.088485 0.309553 0.067311
Si Si6 0.934227 0.168068 0.024273
O O1 0.226698 0.414551 0.660314
O O2 0.028743 0.313828 0.688811
O O3 0.930117 0.511661 0.885092
O O4 0.002660 0.217904 0.873553
O O5 0.439337 0.702276 0.327842
O O6 0.464576 0.469230 0.200156
O O7 0.250174 0.670951 0.333813
O O8 0.536025 0.753125 0.082513
O O9 0.605668 0.754918 0.354884
O O10 0.733998 0.734019 0.093567
O O11 0.500000 0.500000 0.500000
O O12 0.983023 0.295196 0.060608
O O13 0.000000 0.000000 0.000000
#
# Coordination Sequence:
#
# PCOD8129439 Si02
#       6
#     4   4   4   4   4   4
#     4  12  27  45  73 107 143 188 245 297 363 434
#     4  12  27  46  75 108 144 189 245 299 365 435
#     4  12  27  47  74 103 149 190 238 304 367 431
#     4  12  26  47  74 106 143 188 244 298 367 435
#     4  12  26  47  73 106 146 190 243 299 365 436
#     4  12  25  47  75 104 145 190 241 300 362 433
#
# _framework density 22.359131000000001
#
# number of rings (size 3 to 8) (size 9 to 14) (size 15 to 20)
#    0.000    0.000    5.000    4.000    4.667    1.333 
#    0.000    0.000    0.000    0.000    0.000    0.000 
#    0.000    0.000    0.000    0.000    0.000    0.000 
#
# Total GULP energy -297697.039321 kJ/mol
# GULP energy per Si atom -12404.043305 kJ/mol
# Density = 2.230824 g / cm^3
# Si number density = 22.359131 Si / 1000 Ang^3
#
#
#
# Elastic Constant Matrix: (Units=GPa)
#
#
# Indices 1 2 3 4 5 6 
#
# 1 84.3521 10.9432 3.6464 0.0000 11.4064 0.0000
# 2 10.9432 104.1839 19.6666 0.0000 -18.0013 0.0000
# 3 3.6464 19.6666 68.5631 0.0000 2.1860 0.0000
# 4 0.0000 0.0000 0.0000 38.1223 0.0000 4.9520
# 5 11.4064 -18.0013 2.1860 0.0000 19.2890 0.0000
# 6 0.0000 0.0000 0.0000 4.9520 0.0000 44.9211
#
#
#
# Elastic Compliance Matrix: (Units=1/GPa)
#
#
# Indices 1 2 3 4 5 6 
#
# 1 0.013864 -0.003590 0.000663 0.000000 -0.011624 0.000000
# 2 -0.003590 0.013354 -0.004119 0.000000 0.015052 0.000000
# 3 0.000663 -0.004119 0.015924 0.000000 -0.006041 0.000000
# 4 0.000000 0.000000 0.000000 0.026612 0.000000 -0.002934
# 5 -0.011624 0.015052 -0.006041 0.000000 0.073448 0.000000
# 6 0.000000 0.000000 0.000000 -0.002934 0.000000 0.022585
#
#
# Mechanical properties :
#
#
# Convention : Reuss Voigt Hill
#
# Bulk Modulus (GPa) = 34.42409 36.17905 35.30157
# Shear Modulus (GPa) = 26.37651 35.32269 30.84960
#
# Velocity S-wave (km/s) = 3.43837 3.97897 3.71850
# Velocity P-wave (km/s) = 5.58503 6.10947 5.85312
#
# Compressibility (1/GPa) = 0.02904943
#
# Stress axis : x y z
#
# Youngs Moduli (GPa) = 72.12982 74.88496 62.79808
#
# Poissons Ratio (x) = 0.26882 -0.04163
# Poissons Ratio (y) = 0.25893 0.25869
# Poissons Ratio (z) = -0.04782 0.30848
#
# Static dielectric constant tensor:
#      x y z
#    x 4.744960 0.000000 0.206680 
#    y 0.000000 3.970330 0.000000 
#    z 0.206680 0.000000 4.291590 
# 
# 
# High freq. dielectric constant tensor:
#      x y z
#    x 1.907140 0.000000 0.006180 
#    y 0.000000 1.891190 0.000000 
#    z 0.006180 0.000000 1.881040 
# 
# From -- ./inp_files/46338.got.cif
#   From: 2010.03.12/outbox.cif.g09.slc.cpg/sg14_24_cif.got.tgz:46338.got - 2010.03.31 13:35:05.
