data_PCOD8129571
_publ_section_title
;
Structure prediction by ZEFSAII (Michael W. Deem and Ramdas Pophale) SiO2 
 PCOD8129571
Probable space group: C 2/C
;
_chemical_formula_sum "Si O2"
_cell_formula_units_Z 20
_cell_length_a 21.000000
_cell_length_b 9.000000
_cell_length_c 30.000000
_cell_angle_alpha 90.000000
_cell_angle_beta 20.000000
_cell_angle_gamma 90.000000
_cell_volume 1939.254213
_symmetry_space_group_name_H-M "C 2/C"
_symmetry_group_IT_number 15
_symmetry_cell_setting 'monoclinic'
loop_
_space_group_symop_operation_xyz
x,y,z
-x,y,1/2-z
-x,-y,-z
x,-y,1/2+z
1/2+x,1/2+y,z
1/2-x,1/2+y,1/2-z
1/2-x,1/2-y,-z
1/2+x,1/2-y,1/2+z
loop_
_atom_site_type_symbol
_atom_site_label
_atom_site_fract_x
_atom_site_fract_y
_atom_site_fract_z
Si Si1 0.708890 0.413064 0.733374
Si Si2 0.215017 0.875743 0.488308
Si Si3 0.771430 0.750998 0.689918
Si Si4 0.188880 0.816569 0.407501
Si Si5 0.457374 0.916315 0.727123
O O1 0.489746 0.443039 0.880240
O O2 0.807141 0.573871 0.669292
O O3 0.787900 0.315928 0.722766
O O4 0.744121 0.324369 0.664790
O O5 0.250000 0.750000 0.500000
O O6 0.258844 0.796680 0.412306
O O7 0.349610 0.009651 0.414624
O O8 0.606111 0.779117 0.762404
O O9 0.966084 0.828550 0.548333
O O10 0.288127 0.969579 0.328235
O O11 0.500000 0.865136 0.750000
#
# Coordination Sequence:
#
# PCOD8129571 Si02
#       5
#     8   8   8   8   8
#     4  11  23  40  63  91 120 162 201 251 298 359
#     4  10  21  39  64  89 120 161 199 245 304 357
#     4  11  24  40  62  92 124 158 204 249 302 354
#     4  10  21  40  64  88 118 163 203 244 302 360
#     4  10  21  40  61  88 125 161 199 248 300 358
#
# _framework density 10.313243
#
# number of rings (size 3 to 8) (size 9 to 14) (size 15 to 20)
#    0.000    1.600    2.000    2.400    2.800    4.000 
#    3.600    0.000    0.000    0.000    0.000    0.000 
#    0.000    0.000    0.000    0.000    0.000    0.000 
#
# Total GULP energy -247884.684988 kJ/mol
# GULP energy per Si atom -12394.234249 kJ/mol
# Density = 1.028977 g / cm^3
# Si number density = 10.313243 Si / 1000 Ang^3
#
#
#
# Elastic Constant Matrix: (Units=GPa)
#
#
# Indices 1 2 3 4 5 6 
#
# 1 109.3117 46.4941 30.5830 0.0636 -15.9432 0.0391
# 2 46.4941 85.8749 4.4884 0.0678 3.5951 -0.0223
# 3 30.5830 4.4884 65.3591 0.0120 -6.5880 -0.1101
# 4 0.0636 0.0678 0.0120 21.5342 0.0204 -8.5541
# 5 -15.9432 3.5951 -6.5880 0.0204 28.1787 0.1498
# 6 0.0391 -0.0223 -0.1101 -8.5541 0.1498 42.8715
#
#
#
# Elastic Compliance Matrix: (Units=1/GPa)
#
#
# Indices 1 2 3 4 5 6 
#
# 1 0.015680 -0.008541 -0.005885 -0.000054 0.008586 -0.000075
# 2 -0.008541 0.016421 0.002223 -0.000004 -0.006408 0.000044
# 3 -0.005885 0.002223 0.017960 0.000022 0.000585 0.000055
# 4 -0.000054 -0.000004 0.000022 0.050436 -0.000115 0.010064
# 5 0.008586 -0.006408 0.000585 -0.000115 0.041301 -0.000177
# 6 -0.000075 0.000044 0.000055 0.010064 -0.000177 0.025334
#
#
# Mechanical properties :
#
#
# Convention : Reuss Voigt Hill
#
# Bulk Modulus (GPa) = 38.97879 47.07519 43.02699
# Shear Modulus (GPa) = 24.98871 30.44889 27.71880
#
# Velocity S-wave (km/s) = 3.48442 3.84631 3.66983
# Velocity P-wave (km/s) = 5.92678 6.52669 6.23395
#
# Compressibility (1/GPa) = 0.02565498
#
# Stress axis : x y z
#
# Youngs Moduli (GPa) = 63.77635 60.89675 55.67848
#
# Poissons Ratio (x) = 0.52013 0.32767
# Poissons Ratio (y) = 0.54472 -0.12378
# Poissons Ratio (z) = 0.37533 -0.13538
#
# Static dielectric constant tensor:
#      x y z
#    x 3.932710 0.000000 0.046480 
#    y 0.000000 3.441650 0.000220 
#    z 0.046480 0.000220 4.014090 
# 
# 
# High freq. dielectric constant tensor:
#      x y z
#    x 1.827180 0.000000 -0.012230 
#    y 0.000000 1.791410 0.000020 
#    z -0.012230 0.000020 1.804400 
# 
# From -- ./inp_files/166026.got.cif
#   From: 2010.06.25/outbox.ucp.g09.slc.cvg/sg15_84_cif.got.tgz:166026.got - 2010.06.28 14:40:10.
