data_PCOD8129813
_publ_section_title
;
Structure prediction by ZEFSAII (Michael W. Deem and Ramdas Pophale) SiO2 
 PCOD8129813
Probable space group: C 2/C
;
_chemical_formula_sum "Si O2"
_cell_formula_units_Z 64
_cell_length_a 19.749901
_cell_length_b 31.170074
_cell_length_c 5.426213
_cell_angle_alpha 90.000000
_cell_angle_beta 75.033937
_cell_angle_gamma 90.000000
_cell_volume 3227.098467
_symmetry_space_group_name_H-M "C 2/C"
_symmetry_group_IT_number 15
_symmetry_cell_setting 'monoclinic'
loop_
_space_group_symop_operation_xyz
x,y,z
-x,y,1/2-z
-x,-y,-z
x,-y,1/2+z
1/2+x,1/2+y,z
1/2-x,1/2+y,1/2-z
1/2-x,1/2-y,-z
1/2+x,1/2-y,1/2+z
loop_
_atom_site_type_symbol
_atom_site_label
_atom_site_fract_x
_atom_site_fract_y
_atom_site_fract_z
Si Si1 0.223144 0.611910 0.431776
Si Si2 0.758522 0.984610 0.880322
Si Si3 0.136296 0.385496 0.517510
Si Si4 0.432355 0.187667 0.681270
Si Si5 0.929773 0.770728 0.419213
Si Si6 0.167258 0.268679 0.875792
Si Si7 0.100954 0.519216 0.045419
Si Si8 0.693250 0.307385 0.707678
O O1 0.255638 0.565898 0.350005
O O2 0.184906 0.611217 0.730049
O O3 0.288742 0.644464 0.387991
O O4 0.174959 0.623142 0.240164
O O5 0.798025 0.003264 0.599673
O O6 0.682600 0.006974 0.969944
O O7 0.085663 0.344522 0.525937
O O8 0.092011 0.429482 0.572661
O O9 0.500000 0.166858 0.750000
O O10 0.456091 0.236226 0.593372
O O11 0.362174 0.194042 0.913797
O O12 0.888734 0.738222 0.281700
O O13 0.877713 0.807722 0.563227
O O14 0.000000 0.793566 0.250000
O O15 0.241227 0.286722 0.702482
O O16 0.180035 0.222250 0.984251
O O17 0.065460 0.501317 0.825537
#
# Coordination Sequence:
#
# PCOD8129813 Si02
#       8
#     8   8   8   8   8   8   8   8
#     4  12  21  34  54  86 116 146 183 236 290 338
#     4  10  16  30  50  77 109 147 183 216 279 349
#     4  12  22  33  56  81 112 147 188 244 287 330
#     4  11  23  37  55  78 104 147 200 243 285 337
#     4  11  22  39  61  75 110 154 192 233 287 353
#     4  10  20  40  54  78 110 146 187 235 289 343
#     4  10  16  31  49  76 103 147 187 221 285 346
#     4  10  23  33  56  86 112 143 186 240 289 337
#
# _framework density 19.832059000000001
#
# number of rings (size 3 to 8) (size 9 to 14) (size 15 to 20)
#    0.000    1.250    7.500    1.125    1.750    0.000 
#    0.000    0.000    0.000    0.750    0.000    0.000 
#    0.000    1.000    0.000    0.000    0.000    0.000 
#
# Total GULP energy -396556.673773 kJ/mol
# GULP energy per Si atom -12392.396055 kJ/mol
# Density = 1.978692 g / cm^3
# Si number density = 19.832059 Si / 1000 Ang^3
#
#
#
# Elastic Constant Matrix: (Units=GPa)
#
#
# Indices 1 2 3 4 5 6 
#
# 1 60.5977 21.0336 31.3810 0.0000 -12.2985 0.0000
# 2 21.0336 98.1093 15.1668 0.0000 0.1036 0.0000
# 3 31.3810 15.1668 107.3909 0.0000 9.5261 0.0000
# 4 0.0000 0.0000 0.0000 20.8827 0.0000 6.2160
# 5 -12.2985 0.1036 9.5261 0.0000 28.7753 0.0000
# 6 0.0000 0.0000 0.0000 6.2160 0.0000 7.7389
#
#
#
# Elastic Compliance Matrix: (Units=1/GPa)
#
#
# Indices 1 2 3 4 5 6 
#
# 1 0.024608 -0.004087 -0.007776 0.000000 0.013106 0.000000
# 2 -0.004087 0.011105 -0.000222 0.000000 -0.001713 0.000000
# 3 -0.007776 -0.000222 0.012270 0.000000 -0.007385 0.000000
# 4 0.000000 0.000000 0.000000 0.062933 0.000000 -0.050548
# 5 0.013106 -0.001713 -0.007385 0.000000 0.042805 0.000000
# 6 0.000000 0.000000 0.000000 -0.050548 0.000000 0.169818
#
#
# Mechanical properties :
#
#
# Convention : Reuss Voigt Hill
#
# Bulk Modulus (GPa) = 41.99464 44.58451 43.28957
# Shear Modulus (GPa) = 14.05888 24.71382 19.38635
#
# Velocity S-wave (km/s) = 2.66540 3.53392 3.12993
# Velocity P-wave (km/s) = 5.54018 6.25950 5.91079
#
# Compressibility (1/GPa) = 0.02381256
#
# Stress axis : x y z
#
# Youngs Moduli (GPa) = 40.63730 90.04847 81.49639
#
# Poissons Ratio (x) = 0.36806 0.63372
# Poissons Ratio (y) = 0.16610 0.01809
# Poissons Ratio (z) = 0.31600 0.01999
#
# Static dielectric constant tensor:
#      x y z
#    x 3.323660 0.000000 0.269490 
#    y 0.000000 3.624020 0.000000 
#    z 0.269490 0.000000 4.244900 
# 
# 
# High freq. dielectric constant tensor:
#      x y z
#    x 1.725880 0.000000 0.022500 
#    y 0.000000 1.766340 0.000000 
#    z 0.022500 0.000000 1.785480 
# 
# From -- ./inp_files/14641.got.cif
#   From: 2010.06.25/outbox.cif.g09.slc.cpg/sg15_8_cif.got.tgz:14641.got - 2010.06.28 07:06:18.
