data_PCOD8129915
_publ_section_title
;
Structure prediction by ZEFSAII (Michael W. Deem and Ramdas Pophale) SiO2 
 PCOD8129915
Probable space group: C 2/C
;
_chemical_formula_sum "Si O2"
_cell_formula_units_Z 28
_cell_length_a 7.369519
_cell_length_b 30.759699
_cell_length_c 5.409833
_cell_angle_alpha 90.000000
_cell_angle_beta 99.095558
_cell_angle_gamma 90.000000
_cell_volume 1210.903879
_symmetry_space_group_name_H-M "C 2/C"
_symmetry_group_IT_number 15
_symmetry_cell_setting 'monoclinic'
loop_
_space_group_symop_operation_xyz
x,y,z
-x,y,1/2-z
-x,-y,-z
x,-y,1/2+z
1/2+x,1/2+y,z
1/2-x,1/2+y,1/2-z
1/2-x,1/2-y,-z
1/2+x,1/2-y,1/2+z
loop_
_atom_site_type_symbol
_atom_site_label
_atom_site_fract_x
_atom_site_fract_y
_atom_site_fract_z
Si Si1 0.000000 0.239021 0.250000
Si Si2 0.383698 0.384383 0.472101
Si Si3 0.841243 0.310944 0.878894
Si Si4 0.292489 0.482264 0.449713
O O1 0.835547 0.207343 0.309524
O O2 0.063295 0.268699 0.486912
O O3 0.500000 0.376679 0.250000
O O4 0.227947 0.346916 0.440358
O O5 0.283399 0.430472 0.435612
O O6 0.500000 0.382420 0.750000
O O7 0.000000 0.333618 0.750000
O O8 0.500000 0.500000 0.500000
O O9 0.193443 0.499082 0.680347
#
# Coordination Sequence:
#
# PCOD8129915 Si02
#       4
#     4   8   8   8
#     4  10  24  46  68  94 132 178 228 270 342 406
#     4  12  23  38  65 102 135 172 225 277 331 393
#     4  11  25  43  69  98 134 175 225 279 338 403
#     4  10  16  32  57  93 126 171 224 262 317 397
#
# _framework density 23.123222999999999
#
# number of rings (size 3 to 8) (size 9 to 14) (size 15 to 20)
#    0.000    1.143    7.143    0.857    4.000    4.571 
#    0.000    0.000    0.000    1.714    0.000    0.000 
#    0.000    0.000    0.000    0.000    0.000    0.000 
#
# Total GULP energy -173511.287941 kJ/mol
# GULP energy per Si atom -12393.663424 kJ/mol
# Density = 2.307059 g / cm^3
# Si number density = 23.123223 Si / 1000 Ang^3
#
#
#
# Elastic Constant Matrix: (Units=GPa)
#
#
# Indices 1 2 3 4 5 6 
#
# 1 114.6319 69.2995 58.7149 0.0000 -21.8609 0.0000
# 2 69.2995 182.0620 47.5108 0.0000 -23.7555 0.0000
# 3 58.7149 47.5108 172.5661 0.0000 -35.4420 0.0000
# 4 0.0000 0.0000 0.0000 16.4917 0.0000 -16.8672
# 5 -21.8609 -23.7555 -35.4420 0.0000 34.3300 0.0000
# 6 0.0000 0.0000 0.0000 -16.8672 0.0000 1.5447
#
#
#
# Elastic Compliance Matrix: (Units=1/GPa)
#
#
# Indices 1 2 3 4 5 6 
#
# 1 0.013017 -0.003868 -0.002806 0.000000 0.002715 0.000000
# 2 -0.003868 0.007332 -0.000211 0.000000 0.002393 0.000000
# 3 -0.002806 -0.000211 0.008136 0.000000 0.006466 0.000000
# 4 0.000000 0.000000 0.000000 -0.005963 0.000000 -0.065117
# 5 0.002715 0.002393 0.006466 0.000000 0.039189 0.000000
# 6 0.000000 0.000000 0.000000 -0.065117 0.000000 -0.063668
#
#
# Mechanical properties :
#
#
# Convention : Reuss Voigt Hill
#
# Bulk Modulus (GPa) = 67.96309 91.14561 79.55435
# Shear Modulus (GPa) = 299.03618 30.05558 164.54588
#
# Velocity S-wave (km/s) = 11.38436 3.60919 8.44482
# Velocity P-wave (km/s) = 14.22183 7.54130 11.38270
#
# Compressibility (1/GPa) = 0.01471387
#
# Stress axis : x y z
#
# Youngs Moduli (GPa) = 76.82058 136.38255 122.91106
#
# Poissons Ratio (x) = 0.52756 0.34494
# Poissons Ratio (y) = 0.29716 0.02596
# Poissons Ratio (z) = 0.21559 0.02880
#
# Static dielectric constant tensor:
#      x y z
#    x 4.240550 0.000000 -0.159000 
#    y 0.000000 4.394180 0.000000 
#    z -0.159000 0.000000 5.051280 
# 
# 
# High freq. dielectric constant tensor:
#      x y z
#    x 1.890260 0.000000 -0.009040 
#    y 0.000000 1.929000 0.000000 
#    z -0.009040 0.000000 1.909880 
# 
# From -- ./inp_files/2201.got.cif
#   From: 2010.06.25/outbox.cif.g09.slc.cpg/sg15_2_cif.got.tgz:2201.got - 2010.06.28 07:06:18.
