data_PCOD8129958
_publ_section_title
;
Structure prediction by ZEFSAII (Michael W. Deem and Ramdas Pophale) SiO2 
 PCOD8129958
Probable space group: C 2/C
;
_chemical_formula_sum "Si O2"
_cell_formula_units_Z 60
_cell_length_a 11.176767
_cell_length_b 17.042148
_cell_length_c 16.230998
_cell_angle_alpha 90.000000
_cell_angle_beta 105.730416
_cell_angle_gamma 90.000000
_cell_volume 2975.830099
_symmetry_space_group_name_H-M "C 2/C"
_symmetry_group_IT_number 15
_symmetry_cell_setting 'monoclinic'
loop_
_space_group_symop_operation_xyz
x,y,z
-x,y,1/2-z
-x,-y,-z
x,-y,1/2+z
1/2+x,1/2+y,z
1/2-x,1/2+y,1/2-z
1/2-x,1/2-y,-z
1/2+x,1/2-y,1/2+z
loop_
_atom_site_type_symbol
_atom_site_label
_atom_site_fract_x
_atom_site_fract_y
_atom_site_fract_z
Si Si1 0.138109 0.142010 0.032981
Si Si2 0.331966 0.265791 0.646055
Si Si3 0.605213 0.337832 0.109785
Si Si4 0.895515 0.266710 0.344533
Si Si5 0.500000 0.340027 0.250000
Si Si6 0.330565 0.556662 0.154628
Si Si7 0.740943 0.601991 0.883536
Si Si8 0.100992 0.015818 0.152923
O O1 0.174436 0.211498 0.102344
O O2 0.152205 0.059331 0.081741
O O3 0.229839 0.140507 0.972024
O O4 0.996118 0.157566 0.979978
O O5 0.223418 0.207647 0.595185
O O6 0.455955 0.240636 0.620510
O O7 0.351910 0.258266 0.746758
O O8 0.294466 0.355713 0.619196
O O9 0.556088 0.290474 0.183394
O O10 0.637355 0.424758 0.149688
O O11 0.851280 0.355197 0.354879
O O12 0.391355 0.394199 0.189975
O O13 0.228347 0.491472 0.106862
O O14 0.454542 0.531132 0.129749
O O15 0.339519 0.554657 0.255097
#
# Coordination Sequence:
#
# PCOD8129958 Si02
#       8
#     8   8   8   8   4   8   8   8
#     4  11  22  34  59  92 120 147 201 255 298 330
#     4  11  22  37  62  86 120 157 198 239 293 354
#     4  11  21  34  59  92 117 155 190 252 294 346
#     4  11  21  39  56  88 122 158 195 237 297 361
#     4  10  16  34  56  84 112 142 200 232 276 348
#     4  11  18  35  61  86 115 150 200 247 283 341
#     4  11  21  35  61  86 119 157 192 240 298 352
#     4  11  17  35  58  89 116 143 198 251 291 336
#
# _framework density 20.162441999999999
#
# number of rings (size 3 to 8) (size 9 to 14) (size 15 to 20)
#    0.000    1.067    8.000    1.600    0.000    0.533 
#    0.000    0.000    0.000    9.600    0.000    0.000 
#    0.000    0.000    0.000    0.000    0.000    0.000 
#
# Total GULP energy -371819.486168 kJ/mol
# GULP energy per Si atom -12393.982872 kJ/mol
# Density = 2.011655 g / cm^3
# Si number density = 20.162442 Si / 1000 Ang^3
#
#
#
# Elastic Constant Matrix: (Units=GPa)
#
#
# Indices 1 2 3 4 5 6 
#
# 1 63.8458 58.2031 11.8693 0.0000 -13.4371 0.0000
# 2 58.2031 137.9805 11.0179 0.0000 -7.5425 0.0000
# 3 11.8693 11.0179 44.0241 0.0000 -17.7882 0.0000
# 4 0.0000 0.0000 0.0000 26.6389 0.0000 -2.5793
# 5 -13.4371 -7.5425 -17.7882 0.0000 22.6885 0.0000
# 6 0.0000 0.0000 0.0000 -2.5793 0.0000 23.0897
#
#
#
# Elastic Compliance Matrix: (Units=1/GPa)
#
#
# Indices 1 2 3 4 5 6 
#
# 1 0.028938 -0.011503 0.000668 0.000000 0.013838 0.000000
# 2 -0.011503 0.012002 -0.001526 0.000000 -0.004020 0.000000
# 3 0.000668 -0.001526 0.033476 0.000000 0.026135 0.000000
# 4 0.000000 0.000000 0.000000 0.037950 0.000000 0.004239
# 5 0.013838 -0.004020 0.026135 0.000000 0.071424 0.000000
# 6 0.000000 0.000000 0.000000 0.004239 0.000000 0.043783
#
#
# Mechanical properties :
#
#
# Convention : Reuss Voigt Hill
#
# Bulk Modulus (GPa) = 20.12358 45.33679 32.73019
# Shear Modulus (GPa) = 18.59703 25.46741 22.03222
#
# Velocity S-wave (km/s) = 3.04033 3.55788 3.30924
# Velocity P-wave (km/s) = 4.72517 6.27795 5.55607
#
# Compressibility (1/GPa) = 0.04969295
#
# Stress axis : x y z
#
# Youngs Moduli (GPa) = 34.55715 83.31980 29.87177
#
# Poissons Ratio (x) = 0.95846 -0.01997
# Poissons Ratio (y) = 0.39753 0.04560
# Poissons Ratio (z) = -0.02310 0.12719
#
# Static dielectric constant tensor:
#      x y z
#    x 3.478890 0.000000 -0.316520 
#    y 0.000000 3.690780 0.000000 
#    z -0.316520 0.000000 3.714630 
# 
# 
# High freq. dielectric constant tensor:
#      x y z
#    x 1.744860 0.000000 -0.034040 
#    y 0.000000 1.780320 0.000000 
#    z -0.034040 0.000000 1.794150 
# 
# From -- ./inp_files/199254.got.cif
#   From: 2010.06.25/outbox.cif.g09.slc.cpg/sg15_100_cif.got.tgz:199254.got - 2010.06.28 07:06:18.
