data_PCOD8129714
_publ_section_title
;
Structure prediction by ZEFSAII (Michael W. Deem and Ramdas Pophale) SiO2 
 PCOD8129714
Probable space group: C 2/C
;
_chemical_formula_sum "Si O2"
_cell_formula_units_Z 40
_cell_length_a 14.847490
_cell_length_b 21.731157
_cell_length_c 9.358534
_cell_angle_alpha 90.000000
_cell_angle_beta 122.771371
_cell_angle_gamma 90.000000
_cell_volume 2538.958588
_symmetry_space_group_name_H-M "C 2/C"
_symmetry_group_IT_number 15
_symmetry_cell_setting 'monoclinic'
loop_
_space_group_symop_operation_xyz
x,y,z
-x,y,1/2-z
-x,-y,-z
x,-y,1/2+z
1/2+x,1/2+y,z
1/2-x,1/2+y,1/2-z
1/2-x,1/2-y,-z
1/2+x,1/2-y,1/2+z
loop_
_atom_site_type_symbol
_atom_site_label
_atom_site_fract_x
_atom_site_fract_y
_atom_site_fract_z
Si Si1 0.126142 0.448841 0.363289
Si Si2 0.101495 0.755954 0.748405
Si Si3 0.998666 0.316587 0.910254
Si Si4 0.303406 0.831416 0.937141
Si Si5 0.910337 0.549123 0.969251
O O1 0.191997 0.403629 0.522982
O O2 0.145469 0.518124 0.440362
O O3 0.168647 0.444877 0.235997
O O4 0.000000 0.428572 0.250000
O O5 0.182719 0.812434 0.793516
O O6 0.000000 0.781292 0.750000
O O7 0.070893 0.728334 0.568456
O O8 0.157538 0.702190 0.886059
O O9 0.878003 0.315784 0.866273
O O10 0.000000 0.290763 0.750000
O O11 0.043879 0.385522 0.946776
O O12 0.000000 0.500000 0.000000
#
# Coordination Sequence:
#
# PCOD8129714 Si02
#       5
#     8   8   8   8   8
#     4  10  16  27  43  69  99 120 144 182 229 285
#     4   9  19  33  48  65  87 125 164 194 220 264
#     4  11  19  29  44  69 102 121 146 190 232 279
#     4  10  17  31  49  64  92 126 157 188 226 271
#     4  10  17  25  42  67  99 121 141 176 232 280
#
# _framework density 15.754491
#
# number of rings (size 3 to 8) (size 9 to 14) (size 15 to 20)
#    0.000    2.000    6.000    2.400    0.000    0.800 
#    0.000    0.000    0.000    0.000    0.000    1.400 
#    0.000    0.000    0.000    0.000    0.000    0.000 
#
# Total GULP energy -247879.524022 kJ/mol
# GULP energy per Si atom -12393.976201 kJ/mol
# Density = 1.571863 g / cm^3
# Si number density = 15.754491 Si / 1000 Ang^3
#
#
#
# Elastic Constant Matrix: (Units=GPa)
#
#
# Indices 1 2 3 4 5 6 
#
# 1 64.7330 38.6481 51.7276 0.0000 1.3939 0.0000
# 2 38.6481 73.5719 39.9581 0.0000 9.2487 0.0000
# 3 51.7276 39.9581 106.6970 0.0000 -16.1309 0.0000
# 4 0.0000 0.0000 0.0000 19.4403 0.0000 -4.8472
# 5 1.3939 9.2487 -16.1309 0.0000 25.0668 0.0000
# 6 0.0000 0.0000 0.0000 -4.8472 0.0000 14.6363
#
#
#
# Elastic Compliance Matrix: (Units=1/GPa)
#
#
# Indices 1 2 3 4 5 6 
#
# 1 0.030888 -0.008350 -0.012896 0.000000 -0.006936 0.000000
# 2 -0.008350 0.022971 -0.006387 0.000000 -0.012122 0.000000
# 3 -0.012896 -0.006387 0.020473 0.000000 0.016249 0.000000
# 4 0.000000 0.000000 0.000000 0.056069 0.000000 0.018569
# 5 -0.006936 -0.012122 0.016249 0.000000 0.055208 0.000000
# 6 0.000000 0.000000 0.000000 0.018569 0.000000 0.074473
#
#
# Mechanical properties :
#
#
# Convention : Reuss Voigt Hill
#
# Bulk Modulus (GPa) = 52.45048 56.18551 54.31800
# Shear Modulus (GPa) = 15.54226 19.47324 17.50775
#
# Velocity S-wave (km/s) = 3.14431 3.51956 3.33721
# Velocity P-wave (km/s) = 6.82253 7.22890 7.02865
#
# Compressibility (1/GPa) = 0.01906560
#
# Stress axis : x y z
#
# Youngs Moduli (GPa) = 32.37520 43.53286 48.84436
#
# Poissons Ratio (x) = 0.36348 0.62991
# Poissons Ratio (y) = 0.27032 0.31199
# Poissons Ratio (z) = 0.41752 0.27806
#
# Static dielectric constant tensor:
#      x y z
#    x 2.931690 0.000000 -0.399190 
#    y 0.000000 2.979370 0.000000 
#    z -0.399190 0.000000 3.424280 
# 
# 
# High freq. dielectric constant tensor:
#      x y z
#    x 1.558930 0.000000 -0.031710 
#    y 0.000000 1.593890 0.000000 
#    z -0.031710 0.000000 1.607110 
# 
# From -- ./inp_files/40153.got.cif
#   From: 2010.06.25/outbox.cif.g09.slc.cpg/sg15_21_cif.got.tgz:40153.got - 2010.06.28 07:06:18.
