data_PCOD8129857
_publ_section_title
;
Structure prediction by ZEFSAII (Michael W. Deem and Ramdas Pophale) SiO2 
 PCOD8129857
Probable space group: C 2/C
;
_chemical_formula_sum "Si O2"
_cell_formula_units_Z 44
_cell_length_a 28.149478
_cell_length_b 14.452553
_cell_length_c 5.294940
_cell_angle_alpha 90.000000
_cell_angle_beta 114.498803
_cell_angle_gamma 90.000000
_cell_volume 1960.211817
_symmetry_space_group_name_H-M "C 2/C"
_symmetry_group_IT_number 15
_symmetry_cell_setting 'monoclinic'
loop_
_space_group_symop_operation_xyz
x,y,z
-x,y,1/2-z
-x,-y,-z
x,-y,1/2+z
1/2+x,1/2+y,z
1/2-x,1/2+y,1/2-z
1/2-x,1/2-y,-z
1/2+x,1/2-y,1/2+z
loop_
_atom_site_type_symbol
_atom_site_label
_atom_site_fract_x
_atom_site_fract_y
_atom_site_fract_z
Si Si1 0.192154 0.388872 0.417430
Si Si2 0.351066 0.095859 0.177798
Si Si3 0.418387 0.560577 0.418668
Si Si4 0.697645 0.440718 0.839251
Si Si5 0.000000 0.204519 0.750000
Si Si6 0.470341 0.880935 0.928067
O O1 0.179761 0.498945 0.390448
O O2 0.165920 0.345529 0.611238
O O3 0.254468 0.367741 0.554805
O O4 0.165767 0.345692 0.108011
O O5 0.412606 0.077604 0.315729
O O6 0.427918 0.499378 0.191502
O O7 0.359984 0.604548 0.288426
O O8 0.458957 0.643970 0.502908
O O9 0.704510 0.500402 0.605179
O O10 0.969131 0.269425 0.883066
O O11 0.500000 0.926968 0.750000
O O12 0.500000 0.905900 0.250000
#
# Coordination Sequence:
#
# PCOD8129857 Si02
#       6
#     8   8   8   8   4   8
#     4  10  17  30  54  79 111 134 177 227 271 305
#     4  10  18  32  53  79 103 148 178 220 267 312
#     4  10  22  34  61  87 111 130 176 223 279 320
#     4  10  16  31  49  86 110 138 158 219 279 325
#     4  10  24  40  58  76 112 146 182 220 266 320
#     4  10  23  38  55  72 108 151 187 217 261 317
#
# _framework density 22.446550999999999
#
# number of rings (size 3 to 8) (size 9 to 14) (size 15 to 20)
#    0.545    1.455    3.636    1.636    2.545    0.000 
#    0.000   10.909    0.000    2.182    0.000    0.000 
#    0.000    0.000    0.000    0.000    0.000    0.000 
#
# Total GULP energy -272599.644729 kJ/mol
# GULP energy per Si atom -12390.892942 kJ/mol
# Density = 2.239546 g / cm^3
# Si number density = 22.446551 Si / 1000 Ang^3
#
#
#
# Elastic Constant Matrix: (Units=GPa)
#
#
# Indices 1 2 3 4 5 6 
#
# 1 95.5043 10.7281 52.2512 0.0000 5.3323 0.0000
# 2 10.7281 39.7810 10.4011 0.0000 9.3309 0.0000
# 3 52.2512 10.4011 187.3753 0.0000 -18.8614 0.0000
# 4 0.0000 0.0000 0.0000 11.1844 0.0000 -4.7813
# 5 5.3323 9.3309 -18.8614 0.0000 65.8798 0.0000
# 6 0.0000 0.0000 0.0000 -4.7813 0.0000 2.2675
#
#
#
# Elastic Compliance Matrix: (Units=1/GPa)
#
#
# Indices 1 2 3 4 5 6 
#
# 1 0.012790 -0.002083 -0.003630 0.000000 -0.001780 0.000000
# 2 -0.002083 0.026991 -0.001324 0.000000 -0.004033 0.000000
# 3 -0.003630 -0.001324 0.006663 0.000000 0.002389 0.000000
# 4 0.000000 0.000000 0.000000 0.907110 0.000000 1.912754
# 5 -0.001780 -0.004033 0.002389 0.000000 0.016578 0.000000
# 6 0.000000 0.000000 0.000000 1.912754 0.000000 4.474294
#
#
# Mechanical properties :
#
#
# Convention : Reuss Voigt Hill
#
# Bulk Modulus (GPa) = 30.89093 52.15793 41.52443
# Shear Modulus (GPa) = 0.91420 32.48500 16.69960
#
# Velocity S-wave (km/s) = 0.63887 3.80836 2.73054
# Velocity P-wave (km/s) = 3.78630 6.52879 5.33672
#
# Compressibility (1/GPa) = 0.03237197
#
# Stress axis : x y z
#
# Youngs Moduli (GPa) = 78.18529 37.04887 150.07967
#
# Poissons Ratio (x) = 0.07716 0.54481
# Poissons Ratio (y) = 0.16283 0.19863
# Poissons Ratio (z) = 0.28383 0.04903
#
# Static dielectric constant tensor:
#      x y z
#    x 4.565330 0.000000 -0.440440 
#    y 0.000000 3.249970 0.000000 
#    z -0.440440 0.000000 5.188980 
# 
# 
# High freq. dielectric constant tensor:
#      x y z
#    x 1.902720 0.000000 -0.003340 
#    y 0.000000 1.807770 0.000000 
#    z -0.003340 0.000000 1.917770 
# 
# From -- ./inp_files/17285.got.cif
#   From: 2010.06.25/outbox.cif.g09.slc.cpg/sg15_9_cif.got.tgz:17285.got - 2010.06.28 07:06:18.
