data_PCOD8129079
_publ_section_title
;
Structure prediction by ZEFSAII (Michael W. Deem and Ramdas Pophale) SiO2 
 PCOD8129079
Probable space group: P 21/C
;
_chemical_formula_sum "Si O2"
_cell_formula_units_Z 24
_cell_length_a 5.400242
_cell_length_b 9.162536
_cell_length_c 21.596424
_cell_angle_alpha 90.000000
_cell_angle_beta 73.286022
_cell_angle_gamma 90.000000
_cell_volume 1023.443785
_symmetry_space_group_name_H-M "P 21/C"
_symmetry_group_IT_number 14
_symmetry_cell_setting 'monoclinic'
loop_
_space_group_symop_operation_xyz
x,y,z
-x,1/2+y,1/2-z
-x,-y,-z
x,1/2-y,1/2+z
loop_
_atom_site_type_symbol
_atom_site_label
_atom_site_fract_x
_atom_site_fract_y
_atom_site_fract_z
Si Si1 0.978977 0.319123 0.857292
Si Si2 0.367890 0.181299 0.070295
Si Si3 0.002271 0.579690 0.935161
Si Si4 0.575743 0.140515 0.283760
Si Si5 0.517345 0.173547 0.674795
Si Si6 0.835747 0.401057 0.466455
O O1 0.763845 0.282792 0.820583
O O2 0.003549 0.197644 0.908747
O O3 0.876857 0.471459 0.893259
O O4 0.269937 0.327898 0.810833
O O5 0.329513 0.228765 0.144921
O O6 0.162694 0.273119 0.044782
O O7 0.323848 0.008432 0.067374
O O8 0.653460 0.206657 0.020288
O O9 0.288272 0.610274 0.890219
O O10 0.000000 0.500000 0.000000
O O11 0.655133 0.216448 0.213234
O O12 0.621112 0.964115 0.280708
O O13 0.000000 0.500000 0.500000
#
# Coordination Sequence:
#
# PCOD8129079 Si02
#       6
#     4   4   4   4   4   4
#     4  11  26  47  72 104 145 190 243 297 369 435
#     4  11  24  43  72 101 144 186 241 304 371 432
#     4  11  24  45  75 106 146 187 248 314 374 446
#     4  11  28  46  73 103 145 192 242 298 364 446
#     4  11  26  46  70 108 143 194 245 302 373 441
#     4  11  26  43  68 107 144 190 243 301 371 433
#
# _framework density 23.450237999999999
#
# number of rings (size 3 to 8) (size 9 to 14) (size 15 to 20)
#    0.000    1.000    1.667    3.000   14.000    2.667 
#    0.000    0.000    0.000    0.000    0.000    0.000 
#    0.000    0.000    0.000    0.000    0.000    0.000 
#
# Total GULP energy -297512.555776 kJ/mol
# GULP energy per Si atom -12396.356491 kJ/mol
# Density = 2.339686 g / cm^3
# Si number density = 23.450238 Si / 1000 Ang^3
#
#
#
# Elastic Constant Matrix: (Units=GPa)
#
#
# Indices 1 2 3 4 5 6 
#
# 1 87.5821 4.4770 13.3774 0.0000 7.8024 0.0000
# 2 4.4770 99.7219 42.2667 0.0000 15.4363 0.0000
# 3 13.3774 42.2667 89.8940 0.0000 19.3451 0.0000
# 4 0.0000 0.0000 0.0000 49.4742 0.0000 4.8321
# 5 7.8024 15.4363 19.3451 0.0000 36.9803 0.0000
# 6 0.0000 0.0000 0.0000 4.8321 0.0000 37.0739
#
#
#
# Elastic Compliance Matrix: (Units=1/GPa)
#
#
# Indices 1 2 3 4 5 6 
#
# 1 0.011799 0.000415 -0.001553 0.000000 -0.001850 0.000000
# 2 0.000415 0.012733 -0.005506 0.000000 -0.002522 0.000000
# 3 -0.001553 -0.005506 0.015076 0.000000 -0.005261 0.000000
# 4 0.000000 0.000000 0.000000 0.020473 0.000000 -0.002668
# 5 -0.001850 -0.002522 -0.005261 0.000000 0.031237 0.000000
# 6 0.000000 0.000000 0.000000 -0.002668 0.000000 0.027321
#
#
# Mechanical properties :
#
#
# Convention : Reuss Voigt Hill
#
# Bulk Modulus (GPa) = 37.99297 44.16002 41.07650
# Shear Modulus (GPa) = 35.53656 39.17747 37.35702
#
# Velocity S-wave (km/s) = 3.89704 4.09181 3.99561
# Velocity P-wave (km/s) = 6.04036 6.41842 6.23226
#
# Compressibility (1/GPa) = 0.02632066
#
# Stress axis : x y z
#
# Youngs Moduli (GPa) = 84.75548 78.53373 66.32984
#
# Poissons Ratio (x) = -0.03258 0.10299
# Poissons Ratio (y) = -0.03516 0.36521
# Poissons Ratio (z) = 0.13160 0.43240
#
# Static dielectric constant tensor:
#      x y z
#    x 4.011110 0.000000 0.131460 
#    y 0.000000 4.648050 0.000000 
#    z 0.131460 0.000000 4.238240 
# 
# 
# High freq. dielectric constant tensor:
#      x y z
#    x 1.923260 0.000000 0.015290 
#    y 0.000000 1.942620 0.000000 
#    z 0.015290 0.000000 1.924100 
# 
# From -- ./inp_files/70985.got.cif
#   From: 2010.03.12/outbox.cif.g09.slc.cpg/sg14_36_cif.got.tgz:70985.got - 2010.03.31 13:35:05.
