data_PCOD8129918
_publ_section_title
;
Structure prediction by ZEFSAII (Michael W. Deem and Ramdas Pophale) SiO2 
 PCOD8129918
Probable space group: C 2/C
;
_chemical_formula_sum "Si O2"
_cell_formula_units_Z 40
_cell_length_a 12.079878
_cell_length_b 29.284567
_cell_length_c 5.113606
_cell_angle_alpha 90.000000
_cell_angle_beta 82.756195
_cell_angle_gamma 90.000000
_cell_volume 1794.520518
_symmetry_space_group_name_H-M "C 2/C"
_symmetry_group_IT_number 15
_symmetry_cell_setting 'monoclinic'
loop_
_space_group_symop_operation_xyz
x,y,z
-x,y,1/2-z
-x,-y,-z
x,-y,1/2+z
1/2+x,1/2+y,z
1/2-x,1/2+y,1/2-z
1/2-x,1/2-y,-z
1/2+x,1/2-y,1/2+z
loop_
_atom_site_type_symbol
_atom_site_label
_atom_site_fract_x
_atom_site_fract_y
_atom_site_fract_z
Si Si1 0.254978 0.690829 0.241847
Si Si2 0.549978 0.949083 0.485723
Si Si3 0.371047 0.214197 0.725660
Si Si4 0.570446 0.382062 0.988444
Si Si5 0.804157 0.029714 0.895770
O O1 0.340809 0.732497 0.248854
O O2 0.198210 0.684138 0.542380
O O3 0.323062 0.647239 0.125312
O O4 0.157515 0.698283 0.058528
O O5 0.500000 0.922642 0.250000
O O6 0.682063 0.948678 0.456395
O O7 0.500000 0.000000 0.500000
O O8 0.500000 0.922450 0.750000
O O9 0.500000 0.207899 0.750000
O O10 0.500000 0.389436 0.750000
O O11 0.500000 0.359015 0.250000
O O12 0.606889 0.431029 0.086260
O O13 0.821417 0.010340 0.600565
#
# Coordination Sequence:
#
# PCOD8129918 Si02
#       5
#     8   8   8   8   8
#     4  10  22  40  64  96 129 171 209 250 316 390
#     4  10  16  32  58  84 109 147 195 262 308 384
#     4  10  20  38  69  98 130 163 207 258 308 380
#     4  12  27  45  63  88 129 173 217 269 324 377
#     4  12  23  39  64  89 119 160 222 270 307 377
#
# _framework density 22.290078000000001
#
# number of rings (size 3 to 8) (size 9 to 14) (size 15 to 20)
#    0.000    1.200    4.000    3.600    0.000    5.600 
#    0.000    3.000    0.000    0.000    0.000    0.000 
#    0.000    0.000    0.000    0.000    0.000    0.000 
#
# Total GULP energy -247977.564178 kJ/mol
# GULP energy per Si atom -12398.878209 kJ/mol
# Density = 2.223935 g / cm^3
# Si number density = 22.290078 Si / 1000 Ang^3
#
#
#
# Elastic Constant Matrix: (Units=GPa)
#
#
# Indices 1 2 3 4 5 6 
#
# 1 120.1829 28.2894 29.6113 0.0000 8.6395 0.0000
# 2 28.2894 46.2155 11.1904 0.0000 -0.1327 0.0000
# 3 29.6113 11.1904 147.0424 0.0000 11.6586 0.0000
# 4 0.0000 0.0000 0.0000 88.4845 0.0000 -12.1408
# 5 8.6395 -0.1327 11.6586 0.0000 37.0421 0.0000
# 6 0.0000 0.0000 0.0000 -12.1408 0.0000 13.1329
#
#
#
# Elastic Compliance Matrix: (Units=1/GPa)
#
#
# Indices 1 2 3 4 5 6 
#
# 1 0.010208 -0.005902 -0.001452 0.000000 -0.001945 0.000000
# 2 -0.005902 0.025471 -0.000888 0.000000 0.001747 0.000000
# 3 -0.001452 -0.000888 0.007317 0.000000 -0.001967 0.000000
# 4 0.000000 0.000000 0.000000 0.012943 0.000000 0.011965
# 5 -0.001945 0.001747 -0.001967 0.000000 0.028075 0.000000
# 6 0.000000 0.000000 0.000000 0.011965 0.000000 0.087206
#
#
# Mechanical properties :
#
#
# Convention : Reuss Voigt Hill
#
# Bulk Modulus (GPa) = 37.72227 50.18032 43.95130
# Shear Modulus (GPa) = 25.43986 44.02188 34.73087
#
# Velocity S-wave (km/s) = 3.38199 4.44887 3.95160
# Velocity P-wave (km/s) = 5.67544 6.99651 6.37031
#
# Compressibility (1/GPa) = 0.02650954
#
# Stress axis : x y z
#
# Youngs Moduli (GPa) = 97.96668 39.26072 136.67173
#
# Poissons Ratio (x) = 0.23172 0.19848
# Poissons Ratio (y) = 0.57822 0.12142
# Poissons Ratio (z) = 0.14227 0.03488
#
# Static dielectric constant tensor:
#      x y z
#    x 4.032040 0.000000 0.022230 
#    y 0.000000 3.530680 0.000000 
#    z 0.022230 0.000000 4.246270 
# 
# 
# High freq. dielectric constant tensor:
#      x y z
#    x 1.889460 0.000000 0.008520 
#    y 0.000000 1.838660 0.000000 
#    z 0.008520 0.000000 1.908110 
# 
# From -- ./inp_files/4931.got.cif
#   From: 2010.06.25/outbox.cif.g09.slc.cpg/sg15_3_cif.got.tgz:4931.got - 2010.06.28 07:06:18.
