data_PCOD8129744
_publ_section_title
;
Structure prediction by ZEFSAII (Michael W. Deem and Ramdas Pophale) SiO2 
 PCOD8129744
Probable space group: C 2/C
;
_chemical_formula_sum "Si O2"
_cell_formula_units_Z 36
_cell_length_a 7.306136
_cell_length_b 23.022830
_cell_length_c 8.735038
_cell_angle_alpha 90.000000
_cell_angle_beta 97.975429
_cell_angle_gamma 90.000000
_cell_volume 1455.091042
_symmetry_space_group_name_H-M "C 2/C"
_symmetry_group_IT_number 15
_symmetry_cell_setting 'monoclinic'
loop_
_space_group_symop_operation_xyz
x,y,z
-x,y,1/2-z
-x,-y,-z
x,-y,1/2+z
1/2+x,1/2+y,z
1/2-x,1/2+y,1/2-z
1/2-x,1/2-y,-z
1/2+x,1/2-y,1/2+z
loop_
_atom_site_type_symbol
_atom_site_label
_atom_site_fract_x
_atom_site_fract_y
_atom_site_fract_z
Si Si1 0.688182 0.527893 0.583450
Si Si2 0.035453 0.218015 0.993553
Si Si3 0.277180 0.574667 0.220803
Si Si4 0.277783 0.797880 0.790146
Si Si5 0.500000 0.379175 0.250000
O O1 0.500000 0.500000 0.500000
O O2 0.796614 0.556652 0.455675
O O3 0.799295 0.474456 0.672254
O O4 0.660425 0.578628 0.706495
O O5 0.968543 0.270545 0.875498
O O6 0.077426 0.160729 0.897453
O O7 0.872117 0.202452 0.092577
O O8 0.208564 0.236261 0.125435
O O9 0.500000 0.579183 0.250000
O O10 0.187858 0.635968 0.256181
#
# Coordination Sequence:
#
# PCOD8129744 Si02
#       5
#     8   8   8   8   4
#     4  10  17  25  44  73 104 129 158 212 265 298
#     4  10  21  32  52  71 107 138 174 208 250 306
#     4  10  16  28  46  72 105 128 164 209 265 297
#     4  10  19  36  50  73 105 141 172 206 253 311
#     4  12  18  30  48  78 108 128 172 212 262 302
#
# _framework density 24.740721000000001
#
# number of rings (size 3 to 8) (size 9 to 14) (size 15 to 20)
#    0.000    1.778    7.778    1.333    0.000    0.889 
#    0.000    0.000    0.000    0.000    0.000    1.556 
#   13.333    0.000    0.000    0.000    0.000    0.000 
#
# Total GULP energy -223133.943485 kJ/mol
# GULP energy per Si atom -12396.330194 kJ/mol
# Density = 2.468441 g / cm^3
# Si number density = 24.740721 Si / 1000 Ang^3
#
#
#
# Elastic Constant Matrix: (Units=GPa)
#
#
# Indices 1 2 3 4 5 6 
#
# 1 66.8978 18.7938 43.3194 0.0000 22.1154 0.0000
# 2 18.7938 206.7466 99.4685 0.0000 15.3056 0.0000
# 3 43.3194 99.4685 192.0421 0.0000 -2.9505 0.0000
# 4 0.0000 0.0000 0.0000 59.9167 0.0000 -7.1209
# 5 22.1154 15.3056 -2.9505 0.0000 22.8315 0.0000
# 6 0.0000 0.0000 0.0000 -7.1209 0.0000 9.5618
#
#
#
# Elastic Compliance Matrix: (Units=1/GPa)
#
#
# Indices 1 2 3 4 5 6 
#
# 1 0.031832 0.004564 -0.010085 0.000000 -0.035197 0.000000
# 2 0.004564 0.007658 -0.005153 0.000000 -0.010220 0.000000
# 3 -0.010085 -0.005153 0.010375 0.000000 0.014564 0.000000
# 4 0.000000 0.000000 0.000000 0.018310 0.000000 0.013636
# 5 -0.035197 -0.010220 0.014564 0.000000 0.086626 0.000000
# 6 0.000000 0.000000 0.000000 0.013636 0.000000 0.114738
#
#
# Mechanical properties :
#
#
# Convention : Reuss Voigt Hill
#
# Bulk Modulus (GPa) = 35.06709 87.64999 61.35854
# Shear Modulus (GPa) = 16.64492 38.73563 27.69028
#
# Velocity S-wave (km/s) = 2.59660 3.96114 3.34910
# Velocity P-wave (km/s) = 4.81606 7.51167 6.30950
#
# Compressibility (1/GPa) = 0.02851676
#
# Stress axis : x y z
#
# Youngs Moduli (GPa) = 31.41477 130.58764 96.38690
#
# Poissons Ratio (x) = -0.59602 0.97208
# Poissons Ratio (y) = -0.14338 0.49667
# Poissons Ratio (z) = 0.31683 0.67290
#
# Static dielectric constant tensor:
#      x y z
#    x 3.971310 0.000000 -0.250610 
#    y 0.000000 4.748160 0.000000 
#    z -0.250610 0.000000 5.316840 
# 
# 
# High freq. dielectric constant tensor:
#      x y z
#    x 1.944940 0.000000 -0.029500 
#    y 0.000000 1.992910 0.000000 
#    z -0.029500 0.000000 2.018140 
# 
# From -- ./inp_files/23117.got.cif
#   From: 2010.06.25/outbox.cif.g09.slc.cpg/sg15_12_cif.got.tgz:23117.got - 2010.06.28 07:06:18.
