data_PCOD8129373
_publ_section_title
;
Structure prediction by ZEFSAII (Michael W. Deem and Ramdas Pophale) SiO2 
 PCOD8129373
Probable space group: P 21/C
;
_chemical_formula_sum "Si O2"
_cell_formula_units_Z 24
_cell_length_a 9.055792
_cell_length_b 13.836998
_cell_length_c 8.728736
_cell_angle_alpha 90.000000
_cell_angle_beta 95.696309
_cell_angle_gamma 90.000000
_cell_volume 1088.353059
_symmetry_space_group_name_H-M "P 21/C"
_symmetry_group_IT_number 14
_symmetry_cell_setting 'monoclinic'
loop_
_space_group_symop_operation_xyz
x,y,z
-x,1/2+y,1/2-z
-x,-y,-z
x,1/2-y,1/2+z
loop_
_atom_site_type_symbol
_atom_site_label
_atom_site_fract_x
_atom_site_fract_y
_atom_site_fract_z
Si Si1 0.350078 0.361474 0.145386
Si Si2 0.582797 0.023599 0.852362
Si Si3 0.046303 0.675107 0.303102
Si Si4 0.864756 0.142204 0.856037
Si Si5 0.296770 0.335244 0.790288
Si Si6 0.934406 0.519548 0.827949
O O1 0.470455 0.439573 0.210937
O O2 0.376553 0.258477 0.227722
O O3 0.188763 0.398427 0.179024
O O4 0.362210 0.350781 0.965271
O O5 0.701765 0.109073 0.891666
O O6 0.664759 0.926941 0.808504
O O7 0.500000 0.000000 0.000000
O O8 0.040094 0.672935 0.486226
O O9 0.142117 0.766845 0.259112
O O10 0.129857 0.580530 0.245856
O O11 0.879743 0.679947 0.220882
O O12 0.937799 0.052750 0.774921
O O13 0.000000 0.500000 0.000000
#
# Coordination Sequence:
#
# PCOD8129373 Si02
#       6
#     4   4   4   4   4   4
#     4  12  26  44  74 104 145 188 240 298 365 435
#     4  12  28  48  71 106 150 193 237 296 369 437
#     4  12  24  42  74 102 143 183 247 303 357 417
#     4  12  26  44  71 106 142 188 244 299 355 433
#     4  12  25  46  73 103 141 191 241 297 366 430
#     4  12  23  43  71 108 138 185 244 298 354 425
#
# _framework density 22.051666999999998
#
# number of rings (size 3 to 8) (size 9 to 14) (size 15 to 20)
#    0.000    0.000    5.000    5.000    2.333    4.000 
#    0.000    0.000    0.000    0.000    0.000    0.000 
#    0.000    0.000    0.000    0.000    0.000    0.000 
#
# Total GULP energy -297797.394789 kJ/mol
# GULP energy per Si atom -12408.224783 kJ/mol
# Density = 2.200148 g / cm^3
# Si number density = 22.051667 Si / 1000 Ang^3
#
#
#
# Elastic Constant Matrix: (Units=GPa)
#
#
# Indices 1 2 3 4 5 6 
#
# 1 90.7394 46.1572 42.0887 0.0000 -5.6937 0.0000
# 2 46.1572 144.7923 40.6109 0.0000 -13.7403 0.0000
# 3 42.0887 40.6109 130.3890 0.0000 -1.1431 0.0000
# 4 0.0000 0.0000 0.0000 46.1841 0.0000 -6.0290
# 5 -5.6937 -13.7403 -1.1431 0.0000 34.8738 0.0000
# 6 0.0000 0.0000 0.0000 -6.0290 0.0000 40.1909
#
#
#
# Elastic Compliance Matrix: (Units=1/GPa)
#
#
# Indices 1 2 3 4 5 6 
#
# 1 0.014541 -0.003550 -0.003581 0.000000 0.000858 0.000000
# 2 -0.003550 0.008740 -0.001552 0.000000 0.002813 0.000000
# 3 -0.003581 -0.001552 0.009301 0.000000 -0.000891 0.000000
# 4 0.000000 0.000000 0.000000 0.022085 0.000000 0.003313
# 5 0.000858 0.002813 -0.000891 0.000000 0.029894 0.000000
# 6 0.000000 0.000000 0.000000 0.003313 0.000000 0.025378
#
#
# Mechanical properties :
#
#
# Convention : Reuss Voigt Hill
#
# Bulk Modulus (GPa) = 65.71290 69.29269 67.50280
# Shear Modulus (GPa) = 37.77130 40.05403 38.91266
#
# Velocity S-wave (km/s) = 4.14315 4.26652 4.20529
# Velocity P-wave (km/s) = 7.26305 7.46739 7.36593
#
# Compressibility (1/GPa) = 0.01521771
#
# Stress axis : x y z
#
# Youngs Moduli (GPa) = 68.77158 114.41370 107.51943
#
# Poissons Ratio (x) = 0.40613 0.38498
# Poissons Ratio (y) = 0.24412 0.16684
# Poissons Ratio (z) = 0.24624 0.17754
#
# Static dielectric constant tensor:
#      x y z
#    x 3.855300 0.000000 -0.022260 
#    y 0.000000 4.180560 0.000000 
#    z -0.022260 0.000000 4.038290 
# 
# 
# High freq. dielectric constant tensor:
#      x y z
#    x 1.852970 0.000000 -0.005340 
#    y 0.000000 1.891130 0.000000 
#    z -0.005340 0.000000 1.882540 
# 
# From -- ./inp_files/8589.got.cif
#   From: 2010.03.12/outbox.cif.g09.slc.cpg/sg14_5_cif.got.tgz:8589.got - 2010.03.31 13:35:05.
