data_PCOD8129841
_publ_section_title
;
Structure prediction by ZEFSAII (Michael W. Deem and Ramdas Pophale) SiO2 
 PCOD8129841
Probable space group: C 2/C
;
_chemical_formula_sum "Si O2"
_cell_formula_units_Z 56
_cell_length_a 17.785143
_cell_length_b 8.849122
_cell_length_c 17.841304
_cell_angle_alpha 90.000000
_cell_angle_beta 108.961489
_cell_angle_gamma 90.000000
_cell_volume 2655.550747
_symmetry_space_group_name_H-M "C 2/C"
_symmetry_group_IT_number 15
_symmetry_cell_setting 'monoclinic'
loop_
_space_group_symop_operation_xyz
x,y,z
-x,y,1/2-z
-x,-y,-z
x,-y,1/2+z
1/2+x,1/2+y,z
1/2-x,1/2+y,1/2-z
1/2-x,1/2-y,-z
1/2+x,1/2-y,1/2+z
loop_
_atom_site_type_symbol
_atom_site_label
_atom_site_fract_x
_atom_site_fract_y
_atom_site_fract_z
Si Si1 0.520964 0.279731 0.612181
Si Si2 0.839385 0.136882 0.242536
Si Si3 0.202220 0.528213 0.951480
Si Si4 0.199770 0.517074 0.780017
Si Si5 0.056606 0.623675 0.481122
Si Si6 0.148594 0.870933 0.923351
Si Si7 0.031321 0.452897 0.679229
O O1 0.578321 0.370918 0.685872
O O2 0.563402 0.257456 0.544545
O O3 0.441337 0.378511 0.574562
O O4 0.499225 0.119379 0.644872
O O5 0.804241 0.303829 0.227219
O O6 0.780041 0.028421 0.266337
O O7 0.852171 0.075673 0.163064
O O8 0.197981 0.461861 0.865881
O O9 0.144660 0.434718 0.988557
O O10 0.177382 0.701002 0.942956
O O11 0.292818 0.516747 0.011990
O O12 0.126702 0.444473 0.709755
O O13 0.000000 0.500000 0.500000
O O14 0.007934 0.670020 0.389976
O O15 0.000000 0.412886 0.750000
#
# Coordination Sequence:
#
# PCOD8129841 Si02
#       7
#     8   8   8   8   8   8   8
#     4  10  19  33  53  84 110 152 201 248 289 353
#     4  10  22  36  61  82 117 150 203 247 300 356
#     4  10  19  32  52  87 120 143 189 250 303 350
#     4  10  21  37  56  88 115 155 193 251 299 358
#     4  10  18  28  52  85 116 143 188 250 304 337
#     4  10  19  32  57  84 112 151 198 243 294 355
#     4  10  16  30  55  78 114 144 196 246 294 335
#
# _framework density 21.087904999999999
#
# number of rings (size 3 to 8) (size 9 to 14) (size 15 to 20)
#    0.000    2.000    4.286    2.143    6.000    1.143 
#    0.000    1.429    0.000    1.714    0.000    0.000 
#    0.000    0.000    0.000    0.000    0.000    0.000 
#
# Total GULP energy -347088.214538 kJ/mol
# GULP energy per Si atom -12396.007662 kJ/mol
# Density = 2.103991 g / cm^3
# Si number density = 21.087905 Si / 1000 Ang^3
#
#
#
# Elastic Constant Matrix: (Units=GPa)
#
#
# Indices 1 2 3 4 5 6 
#
# 1 138.4791 23.2855 63.2124 0.0000 10.7704 0.0000
# 2 23.2855 8.7625 20.6650 0.0000 3.1396 0.0000
# 3 63.2124 20.6650 160.8295 0.0000 12.0664 0.0000
# 4 0.0000 0.0000 0.0000 9.4375 0.0000 -6.1570
# 5 10.7704 3.1396 12.0664 0.0000 45.2011 0.0000
# 6 0.0000 0.0000 0.0000 -6.1570 0.0000 21.8722
#
#
#
# Elastic Compliance Matrix: (Units=1/GPa)
#
#
# Indices 1 2 3 4 5 6 
#
# 1 0.013177 -0.032555 -0.000949 0.000000 -0.000625 0.000000
# 2 -0.032555 0.245712 -0.018447 0.000000 -0.004385 0.000000
# 3 -0.000949 -0.018447 0.009029 0.000000 -0.000903 0.000000
# 4 0.000000 0.000000 0.000000 0.129798 0.000000 0.036538
# 5 -0.000625 -0.004385 -0.000903 0.000000 0.022818 0.000000
# 6 0.000000 0.000000 0.000000 0.036538 0.000000 0.056006
#
#
# Mechanical properties :
#
#
# Convention : Reuss Voigt Hill
#
# Bulk Modulus (GPa) = 6.09701 58.04412 32.07056
# Shear Modulus (GPa) = 7.87260 28.69602 18.28431
#
# Velocity S-wave (km/s) = 1.93425 3.69288 2.94777
# Velocity P-wave (km/s) = 2.80820 6.76519 5.17946
#
# Compressibility (1/GPa) = 0.16401483
#
# Stress axis : x y z
#
# Youngs Moduli (GPa) = 75.88699 4.06981 110.75545
#
# Poissons Ratio (x) = 0.13249 0.10515
# Poissons Ratio (y) = 2.47051 2.04312
# Poissons Ratio (z) = 0.07204 0.07508
#
# Static dielectric constant tensor:
#      x y z
#    x 3.859700 0.000000 0.152400 
#    y 0.000000 3.178770 0.000000 
#    z 0.152400 0.000000 4.818790 
# 
# 
# High freq. dielectric constant tensor:
#      x y z
#    x 1.833410 0.000000 0.005250 
#    y 0.000000 1.751990 0.000000 
#    z 0.005250 0.000000 1.852570 
# 
# From -- ./inp_files/209617.got.cif
#   From: 2010.06.25/outbox.cif.g09.slc.cpg/sg15_105_cif.got.tgz:209617.got - 2010.06.28 07:06:18.
