data_PCOD8129039
_publ_section_title
;
Structure prediction by ZEFSAII (Michael W. Deem and Ramdas Pophale) SiO2 
 PCOD8129039
Probable space group: P 21/C
;
_chemical_formula_sum "Si O2"
_cell_formula_units_Z 20
_cell_length_a 20.679619
_cell_length_b 6.501964
_cell_length_c 10.412098
_cell_angle_alpha 90.000000
_cell_angle_beta 38.983374
_cell_angle_gamma 90.000000
_cell_volume 880.727330
_symmetry_space_group_name_H-M "P 21/C"
_symmetry_group_IT_number 14
_symmetry_cell_setting 'monoclinic'
loop_
_space_group_symop_operation_xyz
x,y,z
-x,1/2+y,1/2-z
-x,-y,-z
x,1/2-y,1/2+z
loop_
_atom_site_type_symbol
_atom_site_label
_atom_site_fract_x
_atom_site_fract_y
_atom_site_fract_z
Si Si1 0.255957 0.660278 0.670071
Si Si2 0.539339 0.200839 0.013220
Si Si3 0.648970 0.550229 0.692230
Si Si4 0.808782 0.682706 0.057749
Si Si5 0.882826 0.558153 0.669350
O O1 0.379488 0.677748 0.497314
O O2 0.255814 0.505181 0.549304
O O3 0.208915 0.551884 0.868555
O O4 0.194454 0.867671 0.735562
O O5 0.597786 0.342885 0.820821
O O6 0.440778 0.309852 0.230727
O O7 0.500000 0.000000 0.000000
O O8 0.702332 0.687199 0.721745
O O9 0.882294 0.790920 0.047755
O O10 0.854427 0.673953 0.844556
O O11 0.000000 0.500000 0.500000
#
# Coordination Sequence:
#
# PCOD8129039 Si02
#       5
#     4   4   4   4   4
#     4  12  26  45  74 105 156 193 257 310 382 449
#     4  11  24  41  68 107 154 201 248 302 369 450
#     4  11  25  42  69 110 147 199 248 300 374 452
#     4  12  26  51  76 110 153 197 253 319 389 453
#     4  12  31  50  80 110 148 199 260 325 390 454
#
# _framework density 22.708501999999999
#
# number of rings (size 3 to 8) (size 9 to 14) (size 15 to 20)
#    0.000    0.400    6.000    1.200    5.600    0.800 
#    0.000    0.000    0.000    0.000    0.000    0.000 
#    0.000    0.000    0.000    0.000    0.000    0.000 
#
# Total GULP energy -247871.018302 kJ/mol
# GULP energy per Si atom -12393.550915 kJ/mol
# Density = 2.265682 g / cm^3
# Si number density = 22.708502 Si / 1000 Ang^3
#
#
#
# Elastic Constant Matrix: (Units=GPa)
#
#
# Indices 1 2 3 4 5 6 
#
# 1 138.1655 62.4496 56.4051 0.0000 -5.6988 0.0000
# 2 62.4496 121.1198 57.2566 0.0000 5.3171 0.0000
# 3 56.4051 57.2566 95.7909 0.0000 -2.7034 0.0000
# 4 0.0000 0.0000 0.0000 33.3351 0.0000 -1.1432
# 5 -5.6988 5.3171 -2.7034 0.0000 39.0756 0.0000
# 6 0.0000 0.0000 0.0000 -1.1432 0.0000 47.2638
#
#
#
# Elastic Compliance Matrix: (Units=1/GPa)
#
#
# Indices 1 2 3 4 5 6 
#
# 1 0.010595 -0.003644 -0.004011 0.000000 0.001764 0.000000
# 2 -0.003644 0.012927 -0.005657 0.000000 -0.002682 0.000000
# 3 -0.004011 -0.005657 0.016219 0.000000 0.001307 0.000000
# 4 0.000000 0.000000 0.000000 0.030023 0.000000 0.000726
# 5 0.001764 -0.002682 0.001307 0.000000 0.026304 0.000000
# 6 0.000000 0.000000 0.000000 0.000726 0.000000 0.021175
#
#
# Mechanical properties :
#
#
# Convention : Reuss Voigt Hill
#
# Bulk Modulus (GPa) = 76.23156 78.58875 77.41016
# Shear Modulus (GPa) = 33.72924 35.86590 34.79757
#
# Velocity S-wave (km/s) = 3.85816 3.97848 3.91878
# Velocity P-wave (km/s) = 7.31366 7.46908 7.39178
#
# Compressibility (1/GPa) = 0.01311793
#
# Stress axis : x y z
#
# Youngs Moduli (GPa) = 94.38489 77.35722 61.65605
#
# Poissons Ratio (x) = 0.28191 0.24728
# Poissons Ratio (y) = 0.34396 0.34877
# Poissons Ratio (z) = 0.37854 0.43758
#
# Static dielectric constant tensor:
#      x y z
#    x 4.393330 0.000000 -0.075830 
#    y 0.000000 4.412660 0.000000 
#    z -0.075830 0.000000 3.915780 
# 
# 
# High freq. dielectric constant tensor:
#      x y z
#    x 1.907440 0.000000 -0.000830 
#    y 0.000000 1.912760 0.000000 
#    z -0.000830 0.000000 1.882670 
# 
# From -- ./inp_files/34529.got.cif
#   From: 2010.03.12/outbox.cif.g09.slc.cpg/sg14_18_cif.got.tgz:34529.got - 2010.03.31 13:35:05.
