data_PCOD8129834
_publ_section_title
;
Structure prediction by ZEFSAII (Michael W. Deem and Ramdas Pophale) SiO2 
 PCOD8129834
Probable space group: C 2/C
;
_chemical_formula_sum "Si O2"
_cell_formula_units_Z 44
_cell_length_a 16.643307
_cell_length_b 15.299778
_cell_length_c 11.733503
_cell_angle_alpha 90.000000
_cell_angle_beta 123.472101
_cell_angle_gamma 90.000000
_cell_volume 2492.292023
_symmetry_space_group_name_H-M "C 2/C"
_symmetry_group_IT_number 15
_symmetry_cell_setting 'monoclinic'
loop_
_space_group_symop_operation_xyz
x,y,z
-x,y,1/2-z
-x,-y,-z
x,-y,1/2+z
1/2+x,1/2+y,z
1/2-x,1/2+y,1/2-z
1/2-x,1/2-y,-z
1/2+x,1/2-y,1/2+z
loop_
_atom_site_type_symbol
_atom_site_label
_atom_site_fract_x
_atom_site_fract_y
_atom_site_fract_z
Si Si1 0.171679 0.108821 0.167797
Si Si2 0.805450 0.077591 0.785125
Si Si3 0.500000 0.740696 0.250000
Si Si4 0.202020 0.271522 0.341177
Si Si5 0.898319 0.908926 0.129318
Si Si6 0.462248 0.414027 0.576816
O O1 0.220423 0.189111 0.271796
O O2 0.076343 0.076618 0.158593
O O3 0.237636 0.020677 0.226443
O O4 0.144695 0.137501 0.017445
O O5 0.743643 0.143720 0.812013
O O6 0.814110 0.101733 0.658681
O O7 0.916292 0.081234 0.916012
O O8 0.587243 0.795244 0.261860
O O9 0.559435 0.680170 0.385244
O O10 0.250000 0.250000 0.500000
O O11 0.000000 0.865651 0.250000
O O12 0.915798 0.011618 0.119658
#
# Coordination Sequence:
#
# PCOD8129834 Si02
#       6
#     8   8   4   8   8   8
#     4  10  21  32  54  87 116 141 184 226 282 341
#     4  11  20  31  54  84 114 146 178 223 289 332
#     4  10  18  34  54  78 114 134 194 232 262 332
#     4  11  23  37  57  83 109 151 190 230 279 334
#     4  11  16  28  51  83 117 142 163 220 302 342
#     4  10  16  30  54  87 109 141 169 228 299 340
#
# _framework density 17.654432
#
# number of rings (size 3 to 8) (size 9 to 14) (size 15 to 20)
#    0.000    1.455    6.364    2.182    2.545    0.727 
#    0.000    0.000    0.000    1.091    2.364    0.000 
#    0.000    0.000    0.000    0.000    0.000    0.000 
#
# Total GULP energy -272561.959241 kJ/mol
# GULP energy per Si atom -12389.179965 kJ/mol
# Density = 1.761425 g / cm^3
# Si number density = 17.654432 Si / 1000 Ang^3
#
#
#
# Elastic Constant Matrix: (Units=GPa)
#
#
# Indices 1 2 3 4 5 6 
#
# 1 60.4940 31.7484 20.8414 0.0000 -17.0003 0.0000
# 2 31.7484 92.0707 33.5651 0.0000 -3.9974 0.0000
# 3 20.8414 33.5651 110.6739 0.0000 -25.9079 0.0000
# 4 0.0000 0.0000 0.0000 26.3496 0.0000 -4.9319
# 5 -17.0003 -3.9974 -25.9079 0.0000 28.1718 0.0000
# 6 0.0000 0.0000 0.0000 -4.9319 0.0000 27.4286
#
#
#
# Elastic Compliance Matrix: (Units=1/GPa)
#
#
# Indices 1 2 3 4 5 6 
#
# 1 0.024642 -0.008357 0.001399 0.000000 0.014971 0.000000
# 2 -0.008357 0.015147 -0.004712 0.000000 -0.007227 0.000000
# 3 0.001399 -0.004712 0.013052 0.000000 0.012179 0.000000
# 4 0.000000 0.000000 0.000000 0.039273 0.000000 0.007062
# 5 0.014971 -0.007227 0.012179 0.000000 0.054705 0.000000
# 6 0.000000 0.000000 0.000000 0.007062 0.000000 0.037728
#
#
# Mechanical properties :
#
#
# Convention : Reuss Voigt Hill
#
# Bulk Modulus (GPa) = 33.89793 48.39425 41.14609
# Shear Modulus (GPa) = 22.96524 28.19558 25.58041
#
# Velocity S-wave (km/s) = 3.61060 4.00069 3.81064
# Velocity P-wave (km/s) = 6.05181 6.98657 6.53592
#
# Compressibility (1/GPa) = 0.02950033
#
# Stress axis : x y z
#
# Youngs Moduli (GPa) = 40.58151 66.02010 76.61622
#
# Poissons Ratio (x) = 0.55173 -0.10716
# Poissons Ratio (y) = 0.33914 0.36100
# Poissons Ratio (z) = -0.05676 0.31107
#
# Static dielectric constant tensor:
#      x y z
#    x 3.240610 0.000000 -0.247330 
#    y 0.000000 3.215320 0.000000 
#    z -0.247330 0.000000 3.564320 
# 
# 
# High freq. dielectric constant tensor:
#      x y z
#    x 1.660020 0.000000 -0.032280 
#    y 0.000000 1.652140 0.000000 
#    z -0.032280 0.000000 1.690480 
# 
# From -- ./inp_files/104334.got.cif
#   From: 2010.06.25/outbox.cif.g09.slc.cpg/sg15_53_cif.got.tgz:104334.got - 2010.06.28 07:06:18.
