data_PCOD8129925
_publ_section_title
;
Structure prediction by ZEFSAII (Michael W. Deem and Ramdas Pophale) SiO2 
 PCOD8129925
Probable space group: C 2/C
;
_chemical_formula_sum "Si O2"
_cell_formula_units_Z 64
_cell_length_a 29.522463
_cell_length_b 24.293398
_cell_length_c 5.251863
_cell_angle_alpha 90.000000
_cell_angle_beta 69.188428
_cell_angle_gamma 90.000000
_cell_volume 3520.882595
_symmetry_space_group_name_H-M "C 2/C"
_symmetry_group_IT_number 15
_symmetry_cell_setting 'monoclinic'
loop_
_space_group_symop_operation_xyz
x,y,z
-x,y,1/2-z
-x,-y,-z
x,-y,1/2+z
1/2+x,1/2+y,z
1/2-x,1/2+y,1/2-z
1/2-x,1/2-y,-z
1/2+x,1/2-y,1/2+z
loop_
_atom_site_type_symbol
_atom_site_label
_atom_site_fract_x
_atom_site_fract_y
_atom_site_fract_z
Si Si1 0.531013 0.150904 0.934589
Si Si2 0.054135 0.475279 0.390397
Si Si3 0.333059 0.981896 0.049907
Si Si4 0.725607 0.475087 0.884757
Si Si5 0.797833 0.213093 0.431853
Si Si6 0.631285 0.808067 0.177431
Si Si7 0.777346 0.848768 0.479671
Si Si8 0.329803 0.141374 0.389499
O O1 0.500000 0.164934 0.750000
O O2 0.553628 0.090115 0.867569
O O3 0.574619 0.194824 0.862704
O O4 0.500000 0.156675 0.250000
O O5 0.080628 0.494466 0.598881
O O6 0.000000 0.500000 0.500000
O O7 0.359050 0.978660 0.279632
O O8 0.282244 0.008443 0.248850
O O9 0.327067 0.923695 0.926231
O O10 0.701569 0.487723 0.658376
O O11 0.715947 0.413209 0.989817
O O12 0.750000 0.250000 0.500000
O O13 0.845905 0.247886 0.401165
O O14 0.805799 0.183106 0.145296
O O15 0.794909 0.168356 0.663593
O O16 0.659538 0.835952 0.353010
O O17 0.632910 0.841998 0.907400
O O18 0.720658 0.833612 0.610090
#
# Coordination Sequence:
#
# PCOD8129925 Si02
#       8
#     8   8   8   8   8   8   8   8
#     4  12  23  42  64  77 101 138 173 233 296 343
#     4  10  16  32  60  77  98 123 169 216 285 361
#     4  10  19  30  50  68 103 141 168 229 261 317
#     4  10  19  30  50  74 101 141 186 226 246 327
#     4  12  23  37  55  77 109 145 186 228 272 325
#     4  12  27  39  56  83 106 136 193 236 275 339
#     4  12  21  34  58  74 104 156 180 216 285 310
#     4  12  21  37  54  77 110 139 181 230 274 323
#
# _framework density 18.17726
#
# number of rings (size 3 to 8) (size 9 to 14) (size 15 to 20)
#    0.000    0.750    7.500    3.375    3.500    0.000 
#    0.000    3.750    0.000    0.000    0.000    0.000 
#    0.000    0.000    0.000    0.000    0.000   43.750 
#
# Total GULP energy -396683.732961 kJ/mol
# GULP energy per Si atom -12396.366655 kJ/mol
# Density = 1.813589 g / cm^3
# Si number density = 18.177260 Si / 1000 Ang^3
#
#
#
# Elastic Constant Matrix: (Units=GPa)
#
#
# Indices 1 2 3 4 5 6 
#
# 1 60.2731 33.4319 27.0568 0.0000 8.1673 0.0000
# 2 33.4319 87.0381 46.4738 0.0000 2.2541 0.0000
# 3 27.0568 46.4738 140.5958 0.0000 30.4977 0.0000
# 4 0.0000 0.0000 0.0000 37.5658 0.0000 5.7041
# 5 8.1673 2.2541 30.4977 0.0000 33.5675 0.0000
# 6 0.0000 0.0000 0.0000 5.7041 0.0000 22.1980
#
#
#
# Elastic Compliance Matrix: (Units=1/GPa)
#
#
# Indices 1 2 3 4 5 6 
#
# 1 0.021857 -0.007922 -0.000684 0.000000 -0.004164 0.000000
# 2 -0.007922 0.017280 -0.005422 0.000000 0.005694 0.000000
# 3 -0.000684 -0.005422 0.011111 0.000000 -0.009565 0.000000
# 4 0.000000 0.000000 0.000000 0.027701 0.000000 -0.007118
# 5 -0.004164 0.005694 -0.009565 0.000000 0.039112 0.000000
# 6 0.000000 0.000000 0.000000 -0.007118 0.000000 0.046878
#
#
# Mechanical properties :
#
#
# Convention : Reuss Voigt Hill
#
# Bulk Modulus (GPa) = 45.06401 55.75912 50.41156
# Shear Modulus (GPa) = 25.07608 30.72922 27.90265
#
# Velocity S-wave (km/s) = 3.71823 4.11607 3.92220
# Velocity P-wave (km/s) = 6.57867 7.30282 6.95018
#
# Compressibility (1/GPa) = 0.02219066
#
# Stress axis : x y z
#
# Youngs Moduli (GPa) = 45.75232 57.87039 89.99793
#
# Poissons Ratio (x) = 0.45846 0.06158
# Poissons Ratio (y) = 0.36246 0.48800
# Poissons Ratio (z) = 0.03130 0.31380
#
# Static dielectric constant tensor:
#      x y z
#    x 3.372690 0.000000 0.516990 
#    y 0.000000 3.274720 0.000000 
#    z 0.516990 0.000000 4.871590 
# 
# 
# High freq. dielectric constant tensor:
#      x y z
#    x 1.673620 0.000000 0.033390 
#    y 0.000000 1.677720 0.000000 
#    z 0.033390 0.000000 1.743200 
# 
# From -- ./inp_files/18595.got.cif
#   From: 2010.06.25/outbox.cif.g09.slc.cpg/sg15_10_cif.got.tgz:18595.got - 2010.06.28 07:06:18.
