data_PCOD8129438
_publ_section_title
;
Structure prediction by ZEFSAII (Michael W. Deem and Ramdas Pophale) SiO2 
 PCOD8129438
Probable space group: P 21/C
;
_chemical_formula_sum "Si O2"
_cell_formula_units_Z 12
_cell_length_a 13.814841
_cell_length_b 4.764181
_cell_length_c 23.721043
_cell_angle_alpha 90.000000
_cell_angle_beta 162.424580
_cell_angle_gamma 90.000000
_cell_volume 471.431607
_symmetry_space_group_name_H-M "P 21/C"
_symmetry_group_IT_number 14
_symmetry_cell_setting 'monoclinic'
loop_
_space_group_symop_operation_xyz
x,y,z
-x,1/2+y,1/2-z
-x,-y,-z
x,1/2-y,1/2+z
loop_
_atom_site_type_symbol
_atom_site_label
_atom_site_fract_x
_atom_site_fract_y
_atom_site_fract_z
Si Si1 0.766017 0.504606 0.317512
Si Si2 0.660926 0.959487 0.941381
Si Si3 0.210960 0.129013 0.375096
O O1 0.547242 0.243213 0.213440
O O2 0.000000 0.500000 0.500000
O O3 0.974094 0.472988 0.376335
O O4 0.519441 0.748206 0.164891
O O5 0.655069 0.814895 0.999469
O O6 0.998485 0.355748 0.220837
O O7 0.500000 0.000000 0.500000
#
# Coordination Sequence:
#
# PCOD8129438 Si02
#       3
#     4   4   4
#     4  12  25  47  74 108 146 190 242 307 373 444
#     4  12  26  46  73 107 145 193 245 302 370 442
#     4  12  27  49  74 107 148 199 252 309 369 440
#
# _framework density 25.454381999999999
#
# number of rings (size 3 to 8) (size 9 to 14) (size 15 to 20)
#    0.000    0.000    0.000   10.000    0.000    5.333 
#    0.000    0.000    0.000    0.000    0.000    0.000 
#    0.000    0.000    0.000    0.000    0.000    0.000 
#
# Total GULP energy -148678.912230 kJ/mol
# GULP energy per Si atom -12389.909353 kJ/mol
# Density = 2.539645 g / cm^3
# Si number density = 25.454382 Si / 1000 Ang^3
#
#
#
# Elastic Constant Matrix: (Units=GPa)
#
#
# Indices 1 2 3 4 5 6 
#
# 1 84.7671 24.5913 26.5710 -0.0001 10.5734 0.0000
# 2 24.5913 438.6879 126.1174 -0.0010 -65.4265 0.0001
# 3 26.5710 126.1174 135.8527 -0.0001 -8.8710 0.0000
# 4 -0.0001 -0.0010 -0.0001 196.9651 0.0004 -13.0918
# 5 10.5734 -65.4265 -8.8710 0.0004 80.5636 0.0000
# 6 0.0000 0.0001 0.0000 -13.0918 0.0000 39.5224
#
#
#
# Elastic Compliance Matrix: (Units=1/GPa)
#
#
# Indices 1 2 3 4 5 6 
#
# 1 0.012919 -0.000402 -0.002303 0.000000 -0.002275 0.000000
# 2 -0.000402 0.003575 -0.003069 0.000000 0.002618 0.000000
# 3 -0.002303 -0.003069 0.010594 0.000000 -0.001024 0.000000
# 4 0.000000 0.000000 0.000000 0.005191 0.000000 0.001720
# 5 -0.002275 0.002618 -0.001024 0.000000 0.014724 0.000000
# 6 0.000000 0.000000 0.000000 0.001720 0.000000 0.025872
#
#
# Mechanical properties :
#
#
# Convention : Reuss Voigt Hill
#
# Bulk Modulus (GPa) = 64.34620 112.65190 88.49905
# Shear Modulus (GPa) = 55.80234 95.54542 75.67388
#
# Velocity S-wave (km/s) = 4.68723 6.13330 5.45837
# Velocity P-wave (km/s) = 7.39103 9.72158 8.63529
#
# Compressibility (1/GPa) = 0.01554093
#
# Stress axis : x y z
#
# Youngs Moduli (GPa) = 77.40491 279.73454 94.39627
#
# Poissons Ratio (x) = 0.11233 0.21736
# Poissons Ratio (y) = 0.03108 0.28972
# Poissons Ratio (z) = 0.17823 0.85855
#
# Static dielectric constant tensor:
#      x y z
#    x 4.730490 0.000000 0.227270 
#    y 0.000000 5.329160 0.000000 
#    z 0.227270 0.000000 5.352540 
# 
# 
# High freq. dielectric constant tensor:
#      x y z
#    x 2.002350 0.000000 -0.003000 
#    y 0.000000 2.045220 0.000000 
#    z -0.003000 0.000000 2.057670 
# 
# From -- ./inp_files/11394.got.cif
#   From: 2010.03.12/outbox.cif.g09.slc.cpg/sg14_6_cif.got.tgz:11394.got - 2010.03.31 13:35:05.
