data_PCOD8129956
_publ_section_title
;
Structure prediction by ZEFSAII (Michael W. Deem and Ramdas Pophale) SiO2 
 PCOD8129956
Probable space group: C 2/C
;
_chemical_formula_sum "Si O2"
_cell_formula_units_Z 56
_cell_length_a 8.430324
_cell_length_b 27.626514
_cell_length_c 17.781937
_cell_angle_alpha 90.000000
_cell_angle_beta 135.310176
_cell_angle_gamma 90.000000
_cell_volume 2912.530995
_symmetry_space_group_name_H-M "C 2/C"
_symmetry_group_IT_number 15
_symmetry_cell_setting 'monoclinic'
loop_
_space_group_symop_operation_xyz
x,y,z
-x,y,1/2-z
-x,-y,-z
x,-y,1/2+z
1/2+x,1/2+y,z
1/2-x,1/2+y,1/2-z
1/2-x,1/2-y,-z
1/2+x,1/2-y,1/2+z
loop_
_atom_site_type_symbol
_atom_site_label
_atom_site_fract_x
_atom_site_fract_y
_atom_site_fract_z
Si Si1 0.916815 0.164538 0.939284
Si Si2 0.815071 0.114472 0.132239
Si Si3 0.455182 0.706123 0.363570
Si Si4 0.500000 0.218743 0.750000
Si Si5 0.139443 0.622073 0.439168
Si Si6 0.000000 0.673765 0.250000
Si Si7 0.330213 0.435364 0.490560
Si Si8 0.185885 0.470676 0.875031
O O1 0.723774 0.185774 0.820094
O O2 0.830076 0.114076 0.943954
O O3 0.966491 0.204613 0.022306
O O4 0.133874 0.151147 0.958369
O O5 0.584566 0.135480 0.090635
O O6 0.000000 0.089841 0.250000
O O7 0.949657 0.158953 0.143639
O O8 0.742903 0.075733 0.045210
O O9 0.527819 0.751811 0.337673
O O10 0.182640 0.706557 0.268412
O O11 0.131960 0.638795 0.350270
O O12 0.159148 0.563809 0.439902
O O13 0.573801 0.460051 0.581511
O O14 0.163506 0.473905 0.395414
O O15 0.000000 0.460231 0.750000
#
# Coordination Sequence:
#
# PCOD8129956 Si02
#       8
#     8   8   8   4   8   4   8   8
#     4   9  22  36  55  78 111 141 183 219 273 326
#     4  11  18  33  58  82 112 143 180 226 274 311
#     4  10  20  35  56  82 106 138 182 229 264 330
#     4  12  20  38  57  80 104 148 177 232 274 324
#     4  10  18  32  55  84 109 142 180 228 265 317
#     4  10  16  34  55  82 106 138 179 226 272 320
#     4   9  21  35  50  84 110 142 182 224 261 324
#     4  10  18  33  57  80 110 145 185 215 263 327
#
# _framework density 19.227262
#
# number of rings (size 3 to 8) (size 9 to 14) (size 15 to 20)
#    0.000    2.000    2.857    2.143    1.000    0.571 
#    0.000    9.286    0.000    0.000    0.000    0.000 
#    0.000    0.000    0.000    0.000    0.000    0.000 
#
# Total GULP energy -346945.819993 kJ/mol
# GULP energy per Si atom -12390.922143 kJ/mol
# Density = 1.918350 g / cm^3
# Si number density = 19.227262 Si / 1000 Ang^3
#
#
#
# Elastic Constant Matrix: (Units=GPa)
#
#
# Indices 1 2 3 4 5 6 
#
# 1 105.1839 20.2717 26.2615 0.0000 16.6571 0.0000
# 2 20.2717 76.8006 36.5531 0.0000 5.0059 0.0000
# 3 26.2615 36.5531 72.5091 0.0001 14.1792 0.0000
# 4 0.0000 0.0000 0.0001 27.6976 0.0000 3.9141
# 5 16.6571 5.0059 14.1792 0.0000 26.3290 0.0000
# 6 0.0000 0.0000 0.0000 3.9141 0.0000 17.0161
#
#
#
# Elastic Compliance Matrix: (Units=1/GPa)
#
#
# Indices 1 2 3 4 5 6 
#
# 1 0.011247 -0.001562 -0.002182 0.000000 -0.005643 0.000000
# 2 -0.001562 0.017405 -0.008668 0.000000 0.002347 0.000000
# 3 -0.002182 -0.008668 0.020520 0.000000 -0.008022 0.000000
# 4 0.000000 0.000000 0.000000 0.037317 0.000000 -0.008584
# 5 -0.005643 0.002347 -0.008022 0.000000 0.045425 0.000000
# 6 0.000000 0.000000 0.000000 -0.008584 0.000000 0.060742
#
#
# Mechanical properties :
#
#
# Convention : Reuss Voigt Hill
#
# Bulk Modulus (GPa) = 41.07098 46.74069 43.90584
# Shear Modulus (GPa) = 22.16343 25.63568 23.89956
#
# Velocity S-wave (km/s) = 3.39884 3.65540 3.52945
# Velocity P-wave (km/s) = 6.06712 6.49448 6.28444
#
# Compressibility (1/GPa) = 0.02434809
#
# Stress axis : x y z
#
# Youngs Moduli (GPa) = 88.91466 57.45356 48.73298
#
# Poissons Ratio (x) = 0.08975 0.10636
# Poissons Ratio (y) = 0.13889 0.42239
# Poissons Ratio (z) = 0.19405 0.49798
#
# Static dielectric constant tensor:
#      x y z
#    x 3.589830 0.000000 0.096310 
#    y 0.000000 3.489570 0.000000 
#    z 0.096310 0.000000 3.486610 
# 
# 
# High freq. dielectric constant tensor:
#      x y z
#    x 1.741330 0.000000 0.016910 
#    y 0.000000 1.735750 0.000000 
#    z 0.016910 0.000000 1.732810 
# 
# From -- ./inp_files/137316.got.cif
#   From: 2010.06.25/outbox.cif.g09.slc.cpg/sg15_69_cif.got.tgz:137316.got - 2010.06.28 07:06:18.
