data_PCOD8129850
_publ_section_title
;
Structure prediction by ZEFSAII (Michael W. Deem and Ramdas Pophale) SiO2 
 PCOD8129850
Probable space group: C 2/C
;
_chemical_formula_sum "Si O2"
_cell_formula_units_Z 60
_cell_length_a 8.673158
_cell_length_b 21.794274
_cell_length_c 22.899127
_cell_angle_alpha 90.000000
_cell_angle_beta 138.403005
_cell_angle_gamma 90.000000
_cell_volume 2873.642576
_symmetry_space_group_name_H-M "C 2/C"
_symmetry_group_IT_number 15
_symmetry_cell_setting 'monoclinic'
loop_
_space_group_symop_operation_xyz
x,y,z
-x,y,1/2-z
-x,-y,-z
x,-y,1/2+z
1/2+x,1/2+y,z
1/2-x,1/2+y,1/2-z
1/2-x,1/2-y,-z
1/2+x,1/2-y,1/2+z
loop_
_atom_site_type_symbol
_atom_site_label
_atom_site_fract_x
_atom_site_fract_y
_atom_site_fract_z
Si Si1 0.269163 0.505230 0.719169
Si Si2 0.706283 0.036023 0.419136
Si Si3 0.974739 0.153955 0.465834
Si Si4 0.578691 0.457283 0.114651
Si Si5 0.500000 0.178167 0.750000
Si Si6 0.484451 0.316201 0.393067
Si Si7 0.774512 0.765335 0.149109
Si Si8 0.493118 0.126147 0.625948
O O1 0.500000 0.488372 0.750000
O O2 0.344688 0.503814 0.808089
O O3 0.070825 0.453352 0.653889
O O4 0.144298 0.565473 0.656141
O O5 0.812967 0.094330 0.416275
O O6 0.821255 0.027194 0.515974
O O7 0.749627 0.974027 0.391748
O O8 0.887634 0.204957 0.395829
O O9 0.936973 0.187944 0.517761
O O10 0.235285 0.131149 0.524552
O O11 0.576511 0.387588 0.136903
O O12 0.264443 0.218923 0.688433
O O13 0.458960 0.131900 0.685023
O O14 0.670360 0.288396 0.401275
O O15 0.640384 0.817974 0.143871
O O16 0.000000 0.748698 0.250000
#
# Coordination Sequence:
#
# PCOD8129850 Si02
#       8
#     8   8   8   8   4   8   8   8
#     4  12  23  36  63  94 123 153 196 263 317 345
#     4  10  22  39  60  90 119 162 205 236 296 374
#     4  10  24  40  61  83 124 169 197 234 296 379
#     4  10  19  37  63  88 117 153 201 256 291 352
#     4  10  16  30  58  86 106 144 184 254 288 336
#     4  10  19  35  60  88 116 150 201 250 302 332
#     4  12  22  38  59  91 127 152 199 253 302 355
#     4  11  21  37  61  94 116 148 207 257 308 332
#
# _framework density 20.879424
#
# number of rings (size 3 to 8) (size 9 to 14) (size 15 to 20)
#    0.000    1.333    2.667    5.600    0.000    1.600 
#    0.000    2.667    1.467    1.600    0.000    0.000 
#    0.000    0.000    0.000    0.000    0.000    0.000 
#
# Total GULP energy -371708.702783 kJ/mol
# GULP energy per Si atom -12390.290093 kJ/mol
# Density = 2.083190 g / cm^3
# Si number density = 20.879424 Si / 1000 Ang^3
#
#
#
# Elastic Constant Matrix: (Units=GPa)
#
#
# Indices 1 2 3 4 5 6 
#
# 1 58.6776 -7.0481 39.6435 -0.0008 20.0482 -0.0025
# 2 -7.0481 30.8614 15.7822 0.0002 1.7948 -0.0011
# 3 39.6435 15.7822 114.0798 -0.0017 16.0957 -0.0029
# 4 -0.0008 0.0002 -0.0017 32.2739 -0.0012 8.5613
# 5 20.0482 1.7948 16.0957 -0.0012 32.2675 -0.0028
# 6 -0.0025 -0.0011 -0.0029 8.5613 -0.0028 15.2492
#
#
#
# Elastic Compliance Matrix: (Units=1/GPa)
#
#
# Indices 1 2 3 4 5 6 
#
# 1 0.030639 0.013170 -0.010413 -0.000001 -0.014575 0.000002
# 2 0.013170 0.040538 -0.009372 -0.000002 -0.005763 0.000003
# 3 -0.010413 -0.009372 0.013656 0.000001 0.000179 0.000000
# 4 -0.000001 -0.000002 0.000001 0.036407 0.000000 -0.020440
# 5 -0.014575 -0.005763 0.000179 0.000000 0.040278 0.000005
# 6 0.000002 0.000003 0.000000 -0.020440 0.000005 0.077053
#
#
# Mechanical properties :
#
#
# Convention : Reuss Voigt Hill
#
# Bulk Modulus (GPa) = 13.96576 33.37488 23.67032
# Shear Modulus (GPa) = 18.13777 26.30752 22.22265
#
# Velocity S-wave (km/s) = 2.95055 3.55346 3.26595
# Velocity P-wave (km/s) = 4.27913 5.73196 5.05798
#
# Compressibility (1/GPa) = 0.07160370
#
# Stress axis : x y z
#
# Youngs Moduli (GPa) = 32.63806 24.66792 73.23015
#
# Poissons Ratio (x) = -0.32488 0.76254
# Poissons Ratio (y) = -0.42984 0.68630
# Poissons Ratio (z) = 0.33986 0.23118
#
# Static dielectric constant tensor:
#      x y z
#    x 3.736760 0.000000 0.221780 
#    y 0.000000 3.471770 0.000000 
#    z 0.221780 0.000000 4.171930 
# 
# 
# High freq. dielectric constant tensor:
#      x y z
#    x 1.803570 0.000000 0.014550 
#    y 0.000000 1.784750 0.000000 
#    z 0.014550 0.000000 1.836250 
# 
# From -- ./inp_files/266254.got.cif
#   From: 2010.06.25/outbox.cif.g09.slc.cpg/sg15_134_cif.got.tgz:266254.got - 2010.06.28 07:06:18.
