data_PCOD8129973
_publ_section_title
;
Structure prediction by ZEFSAII (Michael W. Deem and Ramdas Pophale) SiO2 
 PCOD8129973
Probable space group: C 2/C
;
_chemical_formula_sum "Si O2"
_cell_formula_units_Z 60
_cell_length_a 23.203266
_cell_length_b 20.825874
_cell_length_c 5.439269
_cell_angle_alpha 90.000000
_cell_angle_beta 84.234381
_cell_angle_gamma 90.000000
_cell_volume 2615.112007
_symmetry_space_group_name_H-M "C 2/C"
_symmetry_group_IT_number 15
_symmetry_cell_setting 'monoclinic'
loop_
_space_group_symop_operation_xyz
x,y,z
-x,y,1/2-z
-x,-y,-z
x,-y,1/2+z
1/2+x,1/2+y,z
1/2-x,1/2+y,1/2-z
1/2-x,1/2-y,-z
1/2+x,1/2-y,1/2+z
loop_
_atom_site_type_symbol
_atom_site_label
_atom_site_fract_x
_atom_site_fract_y
_atom_site_fract_z
Si Si1 0.804057 0.334792 0.879198
Si Si2 0.424655 0.668886 0.907398
Si Si3 0.815548 0.790654 0.707137
Si Si4 0.434393 0.527057 0.770455
Si Si5 0.500000 0.734270 0.250000
Si Si6 0.523431 0.071823 0.990370
Si Si7 0.390962 0.228764 0.047469
Si Si8 0.155082 0.539587 0.944608
O O1 0.744415 0.329629 0.751040
O O2 0.860561 0.335739 0.670002
O O3 0.802041 0.399882 0.040051
O O4 0.810031 0.273574 0.049638
O O5 0.433130 0.603831 0.753238
O O6 0.421955 0.730806 0.740544
O O7 0.364830 0.661975 0.083031
O O8 0.481012 0.683901 0.048110
O O9 0.836210 0.769399 0.968012
O O10 0.500000 0.500717 0.750000
O O11 0.403921 0.498433 0.536545
O O12 0.443899 0.780900 0.329927
O O13 0.500000 0.107416 0.250000
O O14 0.592007 0.070727 0.969679
O O15 0.500000 0.106156 0.750000
O O16 0.500000 0.000000 0.000000
O O17 0.165897 0.493459 0.175860
#
# Coordination Sequence:
#
# PCOD8129973 Si02
#       8
#     8   8   8   8   4   8   8   8
#     4  10  23  42  67  95 123 168 224 272 329 393
#     4  10  21  37  62  88 126 170 209 273 334 391
#     4   9  21  43  68  92 120 166 224 279 331 388
#     4  10  22  34  54  88 128 171 216 256 316 400
#     4  10  20  34  64  90 130 158 206 266 346 388
#     4  10  16  34  60  81 120 167 213 244 304 384
#     4  10  20  38  66  92 124 165 212 272 334 393
#     4  12  24  41  68  97 133 175 218 269 328 397
#
# _framework density 22.943569
#
# number of rings (size 3 to 8) (size 9 to 14) (size 15 to 20)
#    0.000    1.867    2.667    1.600    8.400    0.000 
#    0.000    5.333    7.333    0.000    0.000    0.000 
#    0.000    0.000    0.000    0.000    0.000    0.000 
#
# Total GULP energy -371722.056283 kJ/mol
# GULP energy per Si atom -12390.735209 kJ/mol
# Density = 2.289135 g / cm^3
# Si number density = 22.943569 Si / 1000 Ang^3
#
#
#
# Elastic Constant Matrix: (Units=GPa)
#
#
# Indices 1 2 3 4 5 6 
#
# 1 113.0929 27.8418 22.6193 0.0000 14.9659 0.0000
# 2 27.8418 51.3396 11.3971 0.0000 8.5204 0.0000
# 3 22.6193 11.3971 126.2891 0.0000 20.1067 0.0000
# 4 0.0000 0.0000 0.0000 14.5994 0.0000 -3.5337
# 5 14.9659 8.5204 20.1067 0.0000 34.1782 0.0000
# 6 0.0000 0.0000 0.0000 -3.5337 0.0000 21.4242
#
#
#
# Elastic Compliance Matrix: (Units=1/GPa)
#
#
# Indices 1 2 3 4 5 6 
#
# 1 0.010670 -0.005097 -0.001003 0.000000 -0.002811 0.000000
# 2 -0.005097 0.022902 -0.000662 0.000000 -0.003088 0.000000
# 3 -0.001003 -0.000662 0.008895 0.000000 -0.004628 0.000000
# 4 0.000000 0.000000 0.000000 0.071344 0.000000 0.011768
# 5 -0.002811 -0.003088 -0.004628 0.000000 0.033982 0.000000
# 6 0.000000 0.000000 0.000000 0.011768 0.000000 0.048617
#
#
# Mechanical properties :
#
#
# Convention : Reuss Voigt Hill
#
# Bulk Modulus (GPa) = 34.55342 46.04866 40.30104
# Shear Modulus (GPa) = 22.77055 29.29793 26.03424
#
# Velocity S-wave (km/s) = 3.15375 3.57733 3.37220
# Velocity P-wave (km/s) = 5.32488 6.09730 5.72413
#
# Compressibility (1/GPa) = 0.02894070
#
# Stress axis : x y z
#
# Youngs Moduli (GPa) = 93.72252 43.66477 112.42662
#
# Poissons Ratio (x) = 0.22256 0.11282
# Poissons Ratio (y) = 0.47770 0.07446
# Poissons Ratio (z) = 0.09405 0.02892
#
# Static dielectric constant tensor:
#      x y z
#    x 2.666570 0.000000 -0.437370 
#    y 0.000000 3.591220 0.000000 
#    z -0.437370 0.000000 3.978890 
# 
# 
# High freq. dielectric constant tensor:
#      x y z
#    x 1.893270 0.000000 0.009220 
#    y 0.000000 1.875650 0.000000 
#    z 0.009220 0.000000 1.920430 
# 
# From -- ./inp_files/15849.got.cif
#   From: 2010.06.25/outbox.cif.g09.slc.cpg/sg15_8_cif.got.tgz:15849.got - 2010.06.28 07:06:18.
