data_PCOD8129603
_publ_section_title
;
Structure prediction by ZEFSAII (Michael W. Deem and Ramdas Pophale) SiO2 
 PCOD8129603
Probable space group: C 2/C
;
_chemical_formula_sum "Si O2"
_cell_formula_units_Z 30
_cell_length_a 12.000000
_cell_length_b 27.000000
_cell_length_c 18.000000
_cell_angle_alpha 90.000000
_cell_angle_beta 30.000000
_cell_angle_gamma 90.000000
_cell_volume 2916.000000
_symmetry_space_group_name_H-M "C 2/C"
_symmetry_group_IT_number 15
_symmetry_cell_setting 'monoclinic'
loop_
_space_group_symop_operation_xyz
x,y,z
-x,y,1/2-z
-x,-y,-z
x,-y,1/2+z
1/2+x,1/2+y,z
1/2-x,1/2+y,1/2-z
1/2-x,1/2-y,-z
1/2+x,1/2-y,1/2+z
loop_
_atom_site_type_symbol
_atom_site_label
_atom_site_fract_x
_atom_site_fract_y
_atom_site_fract_z
Si Si1 0.221289 0.301266 0.173573
Si Si2 0.009361 0.363474 0.409678
Si Si3 0.218680 0.424569 0.073221
Si Si4 0.104405 0.138755 0.389358
Si Si5 0.806095 0.540375 0.625106
Si Si6 0.704440 0.309313 0.686207
Si Si7 0.165166 0.030387 0.545466
Si Si8 0.500000 0.905527 0.750000
O O1 0.211885 0.340162 0.246397
O O2 0.229526 0.246309 0.202443
O O3 0.000000 0.308120 0.250000
O O4 0.457229 0.313523 0.998488
O O5 0.083148 0.409653 0.414021
O O6 0.812845 0.380548 0.467536
O O7 0.924712 0.320623 0.512230
O O8 0.000000 0.429454 0.250000
O O9 0.443162 0.409921 0.988903
O O10 0.251160 0.474746 0.010131
O O11 0.181151 0.149223 0.261840
O O12 0.338604 0.130029 0.295761
O O13 0.703892 0.551464 0.604364
O O14 0.609557 0.528687 0.800520
O O15 0.000000 0.500000 0.500000
O O16 0.500000 0.312724 0.750000
O O17 0.316280 0.062161 0.401262
#
# Coordination Sequence:
#
# PCOD8129603 Si02
#       8
#     8   8   8   8   8   8   8   4
#     4  11  21  41  66 100 132 164 215 277 347 400
#     4  12  21  39  63  94 135 167 204 272 339 395
#     4  12  23  39  67  97 128 171 222 276 337 388
#     4  12  24  42  64  95 131 171 225 268 333 401
#     4  11  25  41  65  95 132 176 225 271 331 399
#     4  11  23  37  68 102 128 161 213 286 346 394
#     4  11  26  43  61  93 133 177 230 272 319 391
#     4  12  28  44  64  90 134 188 226 268 318 398
#
# _framework density 10.288066000000001
#
# number of rings (size 3 to 8) (size 9 to 14) (size 15 to 20)
#    0.000    0.533    6.000    2.400    3.733    2.667 
#    0.000    0.667    0.000    3.200    0.000    0.000 
#    0.000    0.000    0.000    0.000    0.000    0.000 
#
# Total GULP energy -371665.244943 kJ/mol
# GULP energy per Si atom -12388.841498 kJ/mol
# Density = 1.026465 g / cm^3
# Si number density = 10.288066 Si / 1000 Ang^3
#
#
#
# Elastic Constant Matrix: (Units=GPa)
#
#
# Indices 1 2 3 4 5 6 
#
# 1 69.0371 39.9913 38.7048 -0.0131 -12.1177 -0.0082
# 2 39.9913 104.1031 44.1402 0.0075 1.8322 -0.0108
# 3 38.7048 44.1402 143.9800 0.0327 -5.2550 0.0000
# 4 -0.0131 0.0075 0.0327 36.3206 0.0261 3.2978
# 5 -12.1177 1.8322 -5.2550 0.0261 33.2699 -0.0073
# 6 -0.0082 -0.0108 0.0000 3.2978 -0.0073 27.7910
#
#
#
# Elastic Compliance Matrix: (Units=1/GPa)
#
#
# Indices 1 2 3 4 5 6 
#
# 1 0.021886 -0.007094 -0.003423 0.000006 0.007821 0.000005
# 2 -0.007094 0.013384 -0.002331 -0.000001 -0.003689 0.000002
# 3 -0.003423 -0.002331 0.008589 -0.000009 0.000238 -0.000001
# 4 0.000006 -0.000001 -0.000009 0.027833 -0.000022 -0.003303
# 5 0.007821 -0.003689 0.000238 -0.000022 0.033147 0.000012
# 6 0.000005 0.000002 -0.000001 -0.003303 0.000012 0.036375
#
#
# Mechanical properties :
#
#
# Convention : Reuss Voigt Hill
#
# Bulk Modulus (GPa) = 55.05553 62.53253 58.79403
# Shear Modulus (GPa) = 28.90778 32.42856 30.66817
#
# Velocity S-wave (km/s) = 3.75229 3.97423 3.86485
# Velocity P-wave (km/s) = 6.75189 7.17747 6.96793
#
# Compressibility (1/GPa) = 0.01816348
#
# Stress axis : x y z
#
# Youngs Moduli (GPa) = 45.69074 74.71505 116.42895
#
# Poissons Ratio (x) = 0.53001 0.39857
# Poissons Ratio (y) = 0.32412 0.27138
# Poissons Ratio (z) = 0.15641 0.17415
#
# Static dielectric constant tensor:
#      x y z
#    x 3.621100 -0.000070 -0.126130 
#    y -0.000070 3.754870 0.000290 
#    z -0.126130 0.000290 4.065080 
# 
# 
# High freq. dielectric constant tensor:
#      x y z
#    x 1.778230 -0.000010 0.006070 
#    y -0.000010 1.801380 0.000020 
#    z 0.006070 0.000020 1.833970 
# 
# From -- ./inp_files/201244.got.cif
#   From: 2010.06.25/outbox.ucp.g09.slc.cvg/sg15_101_cif.got.tgz:201244.got - 2010.06.28 14:40:10.
