data_PCOD8129094
_publ_section_title
;
Structure prediction by ZEFSAII (Michael W. Deem and Ramdas Pophale) SiO2 
 PCOD8129094
Probable space group: P 21/C
;
_chemical_formula_sum "Si O2"
_cell_formula_units_Z 32
_cell_length_a 12.236854
_cell_length_b 14.746803
_cell_length_c 8.815146
_cell_angle_alpha 90.000000
_cell_angle_beta 108.012842
_cell_angle_gamma 90.000000
_cell_volume 1512.766339
_symmetry_space_group_name_H-M "P 21/C"
_symmetry_group_IT_number 14
_symmetry_cell_setting 'monoclinic'
loop_
_space_group_symop_operation_xyz
x,y,z
-x,1/2+y,1/2-z
-x,-y,-z
x,1/2-y,1/2+z
loop_
_atom_site_type_symbol
_atom_site_label
_atom_site_fract_x
_atom_site_fract_y
_atom_site_fract_z
Si Si1 0.493432 0.725951 0.737189
Si Si2 0.826360 0.482202 0.973929
Si Si3 0.035032 0.363747 0.103518
Si Si4 0.886128 0.807301 0.050197
Si Si5 0.214588 0.067939 0.226771
Si Si6 0.380268 0.551558 0.616195
Si Si7 0.343603 0.226082 0.437591
Si Si8 0.402444 0.924096 0.778797
O O1 0.395815 0.649536 0.701274
O O2 0.548304 0.723268 0.592859
O O3 0.438622 0.821458 0.758962
O O4 0.603313 0.693093 0.882041
O O5 0.871433 0.556242 0.873320
O O6 0.696553 0.453515 0.881551
O O7 0.840091 0.524364 0.147733
O O8 0.907770 0.394432 0.000644
O O9 0.029624 0.334907 0.277428
O O10 0.069938 0.284461 0.004935
O O11 0.760859 0.794039 0.073225
O O12 0.882772 0.883652 0.917686
O O13 0.308153 0.142937 0.315476
O O14 0.269707 0.991061 0.146605
O O15 0.489755 0.489312 0.697915
O O16 0.354304 0.564711 0.427623
#
# Coordination Sequence:
#
# PCOD8129094 Si02
#       8
#     4   4   4   4   4   4   4   4
#     4  12  24  39  64  97 140 177 216 264 331 403
#     4  11  26  44  66  97 133 172 217 281 338 386
#     4  11  24  46  69  95 129 166 225 285 331 386
#     4  12  22  43  73  99 126 170 227 278 331 390
#     4  12  24  41  70 103 127 174 221 273 333 399
#     4  11  25  41  67  99 140 176 220 267 328 405
#     4  12  21  38  65 102 129 167 221 270 321 392
#     4  11  24  44  63  97 137 181 215 266 334 402
#
# _framework density 21.153300000000002
#
# number of rings (size 3 to 8) (size 9 to 14) (size 15 to 20)
#    0.000    0.500    6.250    1.500    5.250    1.500 
#    4.500    0.000    0.000    0.000    0.000    0.000 
#    0.000    0.000    0.000    0.000    0.000    0.000 
#
# Total GULP energy -396899.445636 kJ/mol
# GULP energy per Si atom -12403.107676 kJ/mol
# Density = 2.110515 g / cm^3
# Si number density = 21.153300 Si / 1000 Ang^3
#
#
#
# Elastic Constant Matrix: (Units=GPa)
#
#
# Indices 1 2 3 4 5 6 
#
# 1 50.4839 25.5532 26.7141 0.0000 2.5683 0.0000
# 2 25.5532 116.9649 50.0986 0.0000 5.3578 0.0000
# 3 26.7141 50.0986 101.7624 0.0000 2.8424 0.0000
# 4 0.0000 0.0000 0.0000 29.1833 0.0000 1.5238
# 5 2.5683 5.3578 2.8424 0.0000 20.3946 0.0000
# 6 0.0000 0.0000 0.0000 1.5238 0.0000 33.6956
#
#
#
# Elastic Compliance Matrix: (Units=1/GPa)
#
#
# Indices 1 2 3 4 5 6 
#
# 1 0.023968 -0.003155 -0.004696 0.000000 -0.001535 0.000000
# 2 -0.003155 0.011341 -0.004701 0.000000 -0.001927 0.000000
# 3 -0.004696 -0.004701 0.013375 0.000000 -0.000038 0.000000
# 4 0.000000 0.000000 0.000000 0.034347 0.000000 -0.001553
# 5 -0.001535 -0.001927 -0.000038 0.000000 0.049737 0.000000
# 6 0.000000 0.000000 0.000000 -0.001553 0.000000 0.029748
#
#
# Mechanical properties :
#
#
# Convention : Reuss Voigt Hill
#
# Bulk Modulus (GPa) = 42.40842 52.66035 47.53439
# Shear Modulus (GPa) = 25.57807 27.77770 26.67788
#
# Velocity S-wave (km/s) = 3.48109 3.62769 3.55515
# Velocity P-wave (km/s) = 6.02072 6.51886 6.27473
#
# Compressibility (1/GPa) = 0.02358022
#
# Stress axis : x y z
#
# Youngs Moduli (GPa) = 41.72211 88.17866 74.76587
#
# Poissons Ratio (x) = 0.27816 0.35111
# Poissons Ratio (y) = 0.13161 0.35149
# Poissons Ratio (z) = 0.19593 0.41454
#
# Static dielectric constant tensor:
#      x y z
#    x 3.550900 0.000000 -0.143580 
#    y 0.000000 3.872180 0.000000 
#    z -0.143580 0.000000 3.979820 
# 
# 
# High freq. dielectric constant tensor:
#      x y z
#    x 1.806670 0.000000 -0.012430 
#    y 0.000000 1.835310 0.000000 
#    z -0.012430 0.000000 1.844800 
# 
# From -- ./inp_files/13362.got.cif
#   From: 2010.03.12/outbox.cif.g09.slc.cpg/sg14_7_cif.got.tgz:13362.got - 2010.03.31 13:35:05.
