data_PCOD8129458
_publ_section_title
;
Structure prediction by ZEFSAII (Michael W. Deem and Ramdas Pophale) SiO2 
 PCOD8129458
Probable space group: P 21/C
;
_chemical_formula_sum "Si O2"
_cell_formula_units_Z 16
_cell_length_a 12.079208
_cell_length_b 4.568472
_cell_length_c 16.349092
_cell_angle_alpha 90.000000
_cell_angle_beta 137.629949
_cell_angle_gamma 90.000000
_cell_volume 608.007624
_symmetry_space_group_name_H-M "P 21/C"
_symmetry_group_IT_number 14
_symmetry_cell_setting 'monoclinic'
loop_
_space_group_symop_operation_xyz
x,y,z
-x,1/2+y,1/2-z
-x,-y,-z
x,1/2-y,1/2+z
loop_
_atom_site_type_symbol
_atom_site_label
_atom_site_fract_x
_atom_site_fract_y
_atom_site_fract_z
Si Si1 0.701477 0.850699 0.916515
Si Si2 0.797550 0.509340 0.223129
Si Si3 0.351299 0.009331 0.776879
Si Si4 0.868452 0.149301 0.583484
O O1 0.520573 0.833674 0.857260
O O2 0.701262 0.718131 0.826729
O O3 0.845491 0.692002 0.048200
O O4 0.749086 0.192003 0.951797
O O5 0.780537 0.250009 0.280543
O O6 0.806083 0.333670 0.142759
O O7 0.952200 0.718127 0.326746
O O8 0.648284 0.750009 0.148275
#
# Coordination Sequence:
#
# PCOD8129458 Si02
#       4
#     4   4   4   4
#     4  12  26  46  72 104 142 184 234 290 348 416
#     4  12  26  46  72 104 144 186 234 290 348 416
#     4  12  26  46  72 104 144 186 234 290 348 416
#     4  12  26  46  72 104 142 184 234 290 348 416
#
# _framework density 26.315456999999999
#
# number of rings (size 3 to 8) (size 9 to 14) (size 15 to 20)
#    0.000    0.000    0.000   12.000    0.000   12.000 
#    0.000    0.000    0.000    0.000    0.000    0.000 
#    0.000    0.000    0.000    0.000    0.000    0.000 
#
# Total GULP energy -198210.590024 kJ/mol
# GULP energy per Si atom -12388.161877 kJ/mol
# Density = 2.625556 g / cm^3
# Si number density = 26.315457 Si / 1000 Ang^3
#
#
#
# Elastic Constant Matrix: (Units=GPa)
#
#
# Indices 1 2 3 4 5 6 
#
# 1 112.8781 69.0365 0.4715 0.0000 8.1413 0.0000
# 2 69.0365 150.7232 17.8443 0.0000 4.1041 0.0000
# 3 0.4715 17.8443 35.4638 0.0000 -1.9376 0.0000
# 4 0.0000 0.0000 0.0000 54.7418 0.0000 1.3103
# 5 8.1413 4.1041 -1.9376 0.0000 6.1897 0.0000
# 6 0.0000 0.0000 0.0000 1.3103 0.0000 71.1225
#
#
#
# Elastic Compliance Matrix: (Units=1/GPa)
#
#
# Indices 1 2 3 4 5 6 
#
# 1 0.013519 -0.006094 0.002173 0.000000 -0.013061 0.000000
# 2 -0.006094 0.010019 -0.004970 0.000000 -0.000184 0.000000
# 3 0.002173 -0.004970 0.031228 0.000000 0.010213 0.000000
# 4 0.000000 0.000000 0.000000 0.018276 0.000000 -0.000337
# 5 -0.013061 -0.000184 0.010213 0.000000 0.182056 0.000000
# 6 0.000000 0.000000 0.000000 -0.000337 0.000000 0.014066
#
#
# Mechanical properties :
#
#
# Convention : Reuss Voigt Hill
#
# Bulk Modulus (GPa) = 27.03911 52.64107 39.84009
# Shear Modulus (GPa) = 16.70706 40.52499 28.61603
#
# Velocity S-wave (km/s) = 2.52241 3.92850 3.30119
# Velocity P-wave (km/s) = 4.33367 6.37376 5.45002
#
# Compressibility (1/GPa) = 0.03698347
#
# Stress axis : x y z
#
# Youngs Moduli (GPa) = 73.96973 99.80706 32.02267
#
# Poissons Ratio (x) = 0.60821 -0.06958
# Poissons Ratio (y) = 0.45076 0.15917
# Poissons Ratio (z) = -0.16073 0.49609
#
# Static dielectric constant tensor:
#      x y z
#    x 5.086490 0.000000 0.071200 
#    y 0.000000 5.363680 0.000000 
#    z 0.071200 0.000000 4.197040 
# 
# 
# High freq. dielectric constant tensor:
#      x y z
#    x 2.070160 0.000000 0.004400 
#    y 0.000000 2.099390 0.000000 
#    z 0.004400 0.000000 2.015190 
# 
# From -- ./inp_files/56484.got.cif
#   From: 2010.03.12/outbox.cif.g09.slc.cpg/sg14_29_cif.got.tgz:56484.got - 2010.03.31 13:35:05.
