data_PCOD8129709
_publ_section_title
;
Structure prediction by ZEFSAII (Michael W. Deem and Ramdas Pophale) SiO2 
 PCOD8129709
Probable space group: C 2/C
;
_chemical_formula_sum "Si O2"
_cell_formula_units_Z 60
_cell_length_a 28.892482
_cell_length_b 12.323222
_cell_length_c 18.597951
_cell_angle_alpha 90.000000
_cell_angle_beta 147.284063
_cell_angle_gamma 90.000000
_cell_volume 3578.898037
_symmetry_space_group_name_H-M "C 2/C"
_symmetry_group_IT_number 15
_symmetry_cell_setting 'monoclinic'
loop_
_space_group_symop_operation_xyz
x,y,z
-x,y,1/2-z
-x,-y,-z
x,-y,1/2+z
1/2+x,1/2+y,z
1/2-x,1/2+y,1/2-z
1/2-x,1/2-y,-z
1/2+x,1/2-y,1/2+z
loop_
_atom_site_type_symbol
_atom_site_label
_atom_site_fract_x
_atom_site_fract_y
_atom_site_fract_z
Si Si1 0.011554 0.898960 0.066869
Si Si2 0.077195 0.479646 0.204033
Si Si3 0.578454 0.610604 0.904404
Si Si4 0.869471 0.649640 0.999526
Si Si5 0.500000 0.998909 0.750000
Si Si6 0.800102 0.830976 0.155607
Si Si7 0.535249 0.841665 0.013913
Si Si8 0.745646 0.903662 0.928154
O O1 0.110381 0.889756 0.216373
O O2 0.950345 0.924211 0.054091
O O3 0.986364 0.783641 0.999438
O O4 0.000000 0.000000 0.000000
O O5 0.039431 0.438100 0.231974
O O6 0.054761 0.387945 0.117495
O O7 0.179347 0.496157 0.343066
O O8 0.038897 0.594789 0.126710
O O9 0.500000 0.579593 0.750000
O O10 0.599180 0.737427 0.925789
O O11 0.668601 0.553501 0.000865
O O12 0.921180 0.566051 0.115005
O O13 0.769288 0.624303 0.878264
O O14 0.882955 0.645738 0.931386
O O15 0.801496 0.700637 0.169416
O O16 0.770166 0.864902 0.038493
#
# Coordination Sequence:
#
# PCOD8129709 Si02
#       8
#     8   8   8   8   4   8   8   8
#     4  11  22  36  53  74 108 142 171 210 258 313
#     4  10  18  32  53  79 106 134 166 216 259 313
#     4  10  18  30  50  79 104 130 170 218 259 302
#     4   9  17  27  49  78 105 130 161 219 257 304
#     4  10  16  26  50  80 100 130 170 202 270 294
#     4  10  18  29  49  81 105 126 172 214 267 295
#     4   9  20  34  50  75 110 138 166 204 268 310
#     4  10  18  28  53  81 105 128 167 225 260 299
#
# _framework density 16.764938000000001
#
# number of rings (size 3 to 8) (size 9 to 14) (size 15 to 20)
#    0.000    2.133    4.667    0.000    0.000    1.067 
#    0.000    0.000    1.467    0.800    0.000    0.000 
#    0.000    0.000    0.000    0.000    0.000    0.000 
#
# Total GULP energy -371693.284429 kJ/mol
# GULP energy per Si atom -12389.776148 kJ/mol
# Density = 1.672678 g / cm^3
# Si number density = 16.764938 Si / 1000 Ang^3
#
#
#
# Elastic Constant Matrix: (Units=GPa)
#
#
# Indices 1 2 3 4 5 6 
#
# 1 139.7471 37.6919 53.0443 0.0000 10.3128 0.0000
# 2 37.6919 54.0960 22.3747 0.0000 -6.2304 0.0000
# 3 53.0443 22.3747 65.1649 0.0000 8.2160 0.0000
# 4 0.0000 0.0000 0.0000 9.9661 0.0000 -8.1890
# 5 10.3128 -6.2304 8.2160 0.0000 33.8934 0.0000
# 6 0.0000 0.0000 0.0000 -8.1890 0.0000 15.0645
#
#
#
# Elastic Compliance Matrix: (Units=1/GPa)
#
#
# Indices 1 2 3 4 5 6 
#
# 1 0.011544 -0.005383 -0.007202 0.000000 -0.002756 0.000000
# 2 -0.005383 0.025278 -0.005251 0.000000 0.007557 0.000000
# 3 -0.007202 -0.005251 0.023577 0.000000 -0.004489 0.000000
# 4 0.000000 0.000000 0.000000 0.181333 0.000000 0.098571
# 5 -0.002756 0.007557 -0.004489 0.000000 0.032820 0.000000
# 6 0.000000 0.000000 0.000000 0.098571 0.000000 0.119964
#
#
# Mechanical properties :
#
#
# Convention : Reuss Voigt Hill
#
# Bulk Modulus (GPa) = 40.43761 53.91442 47.17602
# Shear Modulus (GPa) = 11.40434 21.51129 16.45781
#
# Velocity S-wave (km/s) = 2.61099 3.58594 3.13658
# Velocity P-wave (km/s) = 5.76736 7.02667 6.42793
#
# Compressibility (1/GPa) = 0.02472945
#
# Stress axis : x y z
#
# Youngs Moduli (GPa) = 86.62161 39.55985 42.41488
#
# Poissons Ratio (x) = 0.21293 0.30545
# Poissons Ratio (y) = 0.46624 0.22271
# Poissons Ratio (z) = 0.62381 0.20772
#
# Static dielectric constant tensor:
#      x y z
#    x 5.677210 0.000000 1.627570 
#    y 0.000000 2.615440 0.000000 
#    z 1.627570 0.000000 4.039530 
# 
# 
# High freq. dielectric constant tensor:
#      x y z
#    x 1.668830 0.000000 0.012920 
#    y 0.000000 1.591850 0.000000 
#    z 0.012920 0.000000 1.636410 
# 
# From -- ./inp_files/210660.got.cif
#   From: 2010.06.25/outbox.cif.g09.slc.cpg/sg15_106_cif.got.tgz:210660.got - 2010.06.28 07:06:18.
