data_PCOD8129872
_publ_section_title
;
Structure prediction by ZEFSAII (Michael W. Deem and Ramdas Pophale) SiO2 
 PCOD8129872
Probable space group: C 2/C
;
_chemical_formula_sum "Si O2"
_cell_formula_units_Z 56
_cell_length_a 8.897667
_cell_length_b 17.183654
_cell_length_c 20.510950
_cell_angle_alpha 90.000000
_cell_angle_beta 94.375568
_cell_angle_gamma 90.000000
_cell_volume 3126.869742
_symmetry_space_group_name_H-M "C 2/C"
_symmetry_group_IT_number 15
_symmetry_cell_setting 'monoclinic'
loop_
_space_group_symop_operation_xyz
x,y,z
-x,y,1/2-z
-x,-y,-z
x,-y,1/2+z
1/2+x,1/2+y,z
1/2-x,1/2+y,1/2-z
1/2-x,1/2-y,-z
1/2+x,1/2-y,1/2+z
loop_
_atom_site_type_symbol
_atom_site_label
_atom_site_fract_x
_atom_site_fract_y
_atom_site_fract_z
Si Si1 0.882596 0.543283 0.198215
Si Si2 0.423874 0.168694 0.364129
Si Si3 0.212617 0.062295 0.601697
Si Si4 0.851449 0.111788 0.215773
Si Si5 0.897003 0.981756 0.113577
Si Si6 0.636805 0.055627 0.023517
Si Si7 0.012924 0.834981 0.172841
O O1 0.843974 0.491468 0.134946
O O2 0.730240 0.568076 0.228046
O O3 0.000000 0.498019 0.250000
O O4 0.970128 0.619371 0.178531
O O5 0.256678 0.172163 0.325812
O O6 0.415621 0.129324 0.435124
O O7 0.497828 0.254080 0.367368
O O8 0.281867 0.094201 0.536547
O O9 0.173962 0.128436 0.654616
O O10 0.057317 0.015174 0.580215
O O11 0.000000 0.155041 0.250000
O O12 0.909045 0.044497 0.170536
O O13 0.880977 0.894495 0.144858
O O14 0.754491 0.999183 0.063896
O O15 0.500000 0.000000 0.000000
O O16 0.000000 0.821661 0.250000
#
# Coordination Sequence:
#
# PCOD8129872 Si02
#       7
#     8   8   8   8   8   8   8
#     4  10  18  31  54  86 106 144 189 235 276 328
#     4  10  22  35  57  80 116 153 179 232 287 330
#     4  10  20  35  59  79 109 148 188 229 273 334
#     4  10  16  31  55  82 106 139 193 229 273 330
#     4   9  20  34  59  81 106 152 186 232 275 335
#     4  11  21  38  58  85 114 143 200 239 272 325
#     4  10  20  38  58  83 115 149 182 227 291 343
#
# _framework density 17.909286000000002
#
# number of rings (size 3 to 8) (size 9 to 14) (size 15 to 20)
#    0.857    1.143    2.857    3.000    0.000    0.571 
#    0.000    1.429    3.143    0.000    0.000    0.000 
#    0.000    0.000    0.000    0.000    0.000    0.000 
#
# Total GULP energy -346883.503790 kJ/mol
# GULP energy per Si atom -12388.696564 kJ/mol
# Density = 1.786852 g / cm^3
# Si number density = 17.909286 Si / 1000 Ang^3
#
#
#
# Elastic Constant Matrix: (Units=GPa)
#
#
# Indices 1 2 3 4 5 6 
#
# 1 69.6222 4.5672 35.2080 0.0000 6.6075 0.0000
# 2 4.5672 74.8255 24.1370 0.0000 7.7307 0.0000
# 3 35.2080 24.1370 87.4522 0.0000 -10.4441 0.0000
# 4 0.0000 0.0000 0.0000 20.4924 0.0000 -4.6352
# 5 6.6075 7.7307 -10.4441 0.0000 41.6958 0.0000
# 6 0.0000 0.0000 0.0000 -4.6352 0.0000 17.3872
#
#
#
# Elastic Compliance Matrix: (Units=1/GPa)
#
#
# Indices 1 2 3 4 5 6 
#
# 1 0.019387 0.002368 -0.009152 0.000000 -0.005804 0.000000
# 2 0.002368 0.015585 -0.005819 0.000000 -0.004722 0.000000
# 3 -0.009152 -0.005819 0.017553 0.000000 0.006926 0.000000
# 4 0.000000 0.000000 0.000000 0.051930 0.000000 0.013844
# 5 -0.005804 -0.004722 0.006926 0.000000 0.027513 0.000000
# 6 0.000000 0.000000 0.000000 0.013844 0.000000 0.061204
#
#
# Mechanical properties :
#
#
# Convention : Reuss Voigt Hill
#
# Bulk Modulus (GPa) = 36.60408 39.96938 38.28673
# Shear Modulus (GPa) = 21.97966 27.11424 24.54695
#
# Velocity S-wave (km/s) = 3.50705 3.89521 3.70621
# Velocity P-wave (km/s) = 6.07307 6.52658 6.30391
#
# Compressibility (1/GPa) = 0.02731936
#
# Stress axis : x y z
#
# Youngs Moduli (GPa) = 51.58154 64.16490 56.97193
#
# Poissons Ratio (x) = -0.15197 0.52140
# Poissons Ratio (y) = -0.12217 0.33152
# Poissons Ratio (z) = 0.47207 0.37337
#
# Static dielectric constant tensor:
#      x y z
#    x 3.432690 0.000000 -0.006950 
#    y 0.000000 2.985110 0.000000 
#    z -0.006950 0.000000 3.449060 
# 
# 
# High freq. dielectric constant tensor:
#      x y z
#    x 1.698810 0.000000 -0.011960 
#    y 0.000000 1.657480 0.000000 
#    z -0.011960 0.000000 1.698870 
# 
# From -- ./inp_files/232227.got.cif
#   From: 2010.06.25/outbox.cif.g09.slc.cpg/sg15_117_cif.got.tgz:232227.got - 2010.06.28 07:06:18.
