data_PCOD8129498
_publ_section_title
;
Structure prediction by ZEFSAII (Michael W. Deem and Ramdas Pophale) SiO2 
 PCOD8129498
Probable space group: P 21/C
;
_chemical_formula_sum "Si O2"
_cell_formula_units_Z 12
_cell_length_a 10.696858
_cell_length_b 4.981571
_cell_length_c 19.282805
_cell_angle_alpha 90.000000
_cell_angle_beta 26.292966
_cell_angle_gamma 90.000000
_cell_volume 455.154019
_symmetry_space_group_name_H-M "P 21/C"
_symmetry_group_IT_number 14
_symmetry_cell_setting 'monoclinic'
loop_
_space_group_symop_operation_xyz
x,y,z
-x,1/2+y,1/2-z
-x,-y,-z
x,1/2-y,1/2+z
loop_
_atom_site_type_symbol
_atom_site_label
_atom_site_fract_x
_atom_site_fract_y
_atom_site_fract_z
Si Si1 0.064256 0.907162 0.832011
Si Si2 0.468420 0.131680 0.811670
Si Si3 0.302106 0.248763 0.608594
O O1 0.323265 0.735375 0.732654
O O2 0.949637 0.741191 0.822566
O O3 0.166937 0.201535 0.752935
O O4 0.829768 0.953218 0.006954
O O5 0.407831 0.366038 0.786084
O O6 0.500000 0.500000 0.500000
O O7 0.500000 0.000000 0.500000
#
# Coordination Sequence:
#
# PCOD8129498 Si02
#       3
#     4   4   4
#     4  12  28  54  85 121 171 211 288 337 428 485
#     4  12  30  51  83 121 169 226 276 334 405 505
#     4  12  28  49  83 124 162 214 267 358 417 486
#
# _framework density 26.364701
#
# number of rings (size 3 to 8) (size 9 to 14) (size 15 to 20)
#    0.000    0.000    3.333    4.000    4.667    8.000 
#    0.000    0.000    0.000    0.000    0.000    0.000 
#    0.000    0.000    0.000    0.000    0.000    0.000 
#
# Total GULP energy -148832.466095 kJ/mol
# GULP energy per Si atom -12402.705508 kJ/mol
# Density = 2.630469 g / cm^3
# Si number density = 26.364701 Si / 1000 Ang^3
#
#
#
# Elastic Constant Matrix: (Units=GPa)
#
#
# Indices 1 2 3 4 5 6 
#
# 1 131.6423 47.9629 57.3504 0.0000 16.9306 0.0000
# 2 47.9629 165.1341 90.4523 0.0000 34.1807 0.0000
# 3 57.3504 90.4523 172.9454 0.0000 25.2581 0.0000
# 4 0.0000 0.0000 0.0000 50.8997 0.0000 20.6341
# 5 16.9306 34.1807 25.2581 0.0000 55.2805 0.0000
# 6 0.0000 0.0000 0.0000 20.6341 0.0000 57.3894
#
#
#
# Elastic Compliance Matrix: (Units=1/GPa)
#
#
# Indices 1 2 3 4 5 6 
#
# 1 0.009150 -0.001213 -0.002250 0.000000 -0.001024 0.000000
# 2 -0.001213 0.009310 -0.003944 0.000000 -0.003583 0.000000
# 3 -0.002250 -0.003944 0.008716 0.000000 -0.000855 0.000000
# 4 0.000000 0.000000 0.000000 0.022999 0.000000 -0.008269
# 5 -0.001024 -0.003583 -0.000855 0.000000 0.021009 0.000000
# 6 0.000000 0.000000 0.000000 -0.008269 0.000000 0.020398
#
#
# Mechanical properties :
#
#
# Convention : Reuss Voigt Hill
#
# Bulk Modulus (GPa) = 80.89326 95.69478 88.29402
# Shear Modulus (GPa) = 45.24226 50.97767 48.10997
#
# Velocity S-wave (km/s) = 4.14698 4.40199 4.27639
# Velocity P-wave (km/s) = 7.32659 7.88746 7.61219
#
# Compressibility (1/GPa) = 0.01236197
#
# Stress axis : x y z
#
# Youngs Moduli (GPa) = 109.28469 107.41454 114.73501
#
# Poissons Ratio (x) = 0.13031 0.25819
# Poissons Ratio (y) = 0.13258 0.45246
# Poissons Ratio (z) = 0.24592 0.42359
#
# Static dielectric constant tensor:
#      x y z
#    x 5.258140 0.000000 0.090480 
#    y 0.000000 5.082570 0.000000 
#    z 0.090480 0.000000 5.498710 
# 
# 
# High freq. dielectric constant tensor:
#      x y z
#    x 2.070120 0.000000 0.004060 
#    y 0.000000 2.064770 0.000000 
#    z 0.004060 0.000000 2.084540 
# 
# From -- ./inp_files/11376.got.cif
#   From: 2010.03.12/outbox.cif.g09.slc.cpg/sg14_6_cif.got.tgz:11376.got - 2010.03.31 13:35:05.
