data_PCOD8129045
_publ_section_title
;
Structure prediction by ZEFSAII (Michael W. Deem and Ramdas Pophale) SiO2 
 PCOD8129045
Probable space group: P 21/C
;
_chemical_formula_sum "Si O2"
_cell_formula_units_Z 16
_cell_length_a 7.288337
_cell_length_b 11.560807
_cell_length_c 6.736202
_cell_angle_alpha 90.000000
_cell_angle_beta 62.475686
_cell_angle_gamma 90.000000
_cell_volume 503.343696
_symmetry_space_group_name_H-M "P 21/C"
_symmetry_group_IT_number 14
_symmetry_cell_setting 'monoclinic'
loop_
_space_group_symop_operation_xyz
x,y,z
-x,1/2+y,1/2-z
-x,-y,-z
x,1/2-y,1/2+z
loop_
_atom_site_type_symbol
_atom_site_label
_atom_site_fract_x
_atom_site_fract_y
_atom_site_fract_z
Si Si1 0.274150 0.852303 0.035213
Si Si2 0.725849 0.852303 0.809365
Si Si3 0.828912 0.903303 0.186070
Si Si4 0.171087 0.596697 0.014982
O O1 0.500000 0.866615 0.819436
O O2 0.222584 0.717603 0.098066
O O3 0.287341 0.912223 0.246182
O O4 0.080618 0.909907 0.011335
O O5 0.712655 0.912223 0.033527
O O6 0.777417 0.717603 0.820651
O O7 0.919381 0.909907 0.591956
O O8 0.745260 0.000000 0.377370
#
# Coordination Sequence:
#
# PCOD8129045 Si02
#       4
#     4   4   4   4
#     4  11  24  42  66  96 131 172 218 267 321 384
#     4  11  24  42  66  96 131 172 218 267 321 384
#     4  11  24  45  68  96 134 171 216 271 322 384
#     4  11  24  45  68  96 134 171 216 271 322 384
#
# _framework density 31.787424999999999
#
# number of rings (size 3 to 8) (size 9 to 14) (size 15 to 20)
#    0.000    1.000    0.000    9.000    0.000    5.000 
#    0.000    2.500    0.000    0.000    0.000    0.000 
#    0.000    0.000    0.000    0.000    0.000    0.000 
#
# Total GULP energy -198535.233221 kJ/mol
# GULP energy per Si atom -12408.452076 kJ/mol
# Density = 3.171508 g / cm^3
# Si number density = 31.787425 Si / 1000 Ang^3
#
#
#
# Elastic Constant Matrix: (Units=GPa)
#
#
# Indices 1 2 3 4 5 6 
#
# 1 178.8735 48.9206 61.0642 0.0000 -45.7017 0.0000
# 2 48.9206 139.8406 40.1842 0.0000 -12.3632 0.0000
# 3 61.0642 40.1842 127.8025 0.0000 -26.5647 0.0000
# 4 0.0000 0.0000 0.0000 49.1128 0.0000 19.3448
# 5 -45.7017 -12.3632 -26.5647 0.0000 69.8331 0.0000
# 6 0.0000 0.0000 0.0000 19.3448 0.0000 35.4416
#
#
#
# Elastic Compliance Matrix: (Units=1/GPa)
#
#
# Indices 1 2 3 4 5 6 
#
# 1 0.007891 -0.001719 -0.002410 0.000000 0.003943 0.000000
# 2 -0.001719 0.008251 -0.001849 0.000000 -0.000368 0.000000
# 3 -0.002410 -0.001849 0.009948 0.000000 0.001880 0.000000
# 4 0.000000 0.000000 0.000000 0.025938 0.000000 -0.014157
# 5 0.003943 -0.000368 0.001880 0.000000 0.017550 0.000000
# 6 0.000000 0.000000 0.000000 -0.014157 0.000000 0.035943
#
#
# Mechanical properties :
#
#
# Convention : Reuss Voigt Hill
#
# Bulk Modulus (GPa) = 70.75672 82.98385 76.87028
# Shear Modulus (GPa) = 40.91987 50.63401 45.77694
#
# Velocity S-wave (km/s) = 3.59178 3.99544 3.79898
# Velocity P-wave (km/s) = 6.28561 6.88820 6.59379
#
# Compressibility (1/GPa) = 0.01413293
#
# Stress axis : x y z
#
# Youngs Moduli (GPa) = 126.72717 121.19164 100.51925
#
# Poissons Ratio (x) = 0.20837 0.24227
# Poissons Ratio (y) = 0.21789 0.18590
# Poissons Ratio (z) = 0.30543 0.22413
#
# Static dielectric constant tensor:
#      x y z
#    x 5.662550 0.000000 -0.147890 
#    y 0.000000 7.101390 0.000000 
#    z -0.147890 0.000000 5.558010 
# 
# 
# High freq. dielectric constant tensor:
#      x y z
#    x 2.300450 0.000000 -0.000790 
#    y 0.000000 2.382330 0.000000 
#    z -0.000790 0.000000 2.299880 
# 
# From -- ./inp_files/7778.got.cif
#   From: 2010.03.12/outbox.cif.g09.slc.cpg/sg14_4_cif.got.tgz:7778.got - 2010.03.31 13:35:05.
