data_PCOD8129229
_publ_section_title
;
Structure prediction by ZEFSAII (Michael W. Deem and Ramdas Pophale) SiO2 
 PCOD8129229
Probable space group: P 21/C
;
_chemical_formula_sum "Si O2"
_cell_formula_units_Z 20
_cell_length_a 9.364049
_cell_length_b 10.104303
_cell_length_c 9.291033
_cell_angle_alpha 90.000000
_cell_angle_beta 74.287511
_cell_angle_gamma 90.000000
_cell_volume 846.242182
_symmetry_space_group_name_H-M "P 21/C"
_symmetry_group_IT_number 14
_symmetry_cell_setting 'monoclinic'
loop_
_space_group_symop_operation_xyz
x,y,z
-x,1/2+y,1/2-z
-x,-y,-z
x,1/2-y,1/2+z
loop_
_atom_site_type_symbol
_atom_site_label
_atom_site_fract_x
_atom_site_fract_y
_atom_site_fract_z
Si Si1 0.656247 0.505474 0.657563
Si Si2 0.769257 0.568384 0.335951
Si Si3 0.773642 0.359903 0.095683
Si Si4 0.895076 0.126518 0.255354
Si Si5 0.473791 0.258955 0.694745
O O1 0.706005 0.473202 0.479740
O O2 0.799172 0.498054 0.723357
O O3 0.536708 0.396494 0.744537
O O4 0.586057 0.652096 0.674083
O O5 0.761648 0.499024 0.182232
O O6 0.666518 0.700619 0.364966
O O7 0.934666 0.608708 0.333213
O O8 0.836711 0.258973 0.196570
O O9 0.612963 0.312922 0.077765
O O10 0.883804 0.368993 0.931147
#
# Coordination Sequence:
#
# PCOD8129229 Si02
#       5
#     4   4   4   4   4
#     4  11  26  47  74 106 143 192 241 302 357 432
#     4  12  26  46  75 103 148 189 244 295 365 426
#     4  11  25  48  68 109 145 191 239 302 355 430
#     4  11  27  45  75 102 149 185 244 299 363 427
#     4  11  25  44  75 105 145 189 240 295 359 427
#
# _framework density 23.633896
#
# number of rings (size 3 to 8) (size 9 to 14) (size 15 to 20)
#    0.000    0.800    2.000    4.200   11.200    2.400 
#    0.000    0.000    0.000    0.000    0.000    0.000 
#    0.000    0.000    0.000    0.000    0.000    0.000 
#
# Total GULP energy -247878.189348 kJ/mol
# GULP energy per Si atom -12393.909467 kJ/mol
# Density = 2.358010 g / cm^3
# Si number density = 23.633896 Si / 1000 Ang^3
#
#
#
# Elastic Constant Matrix: (Units=GPa)
#
#
# Indices 1 2 3 4 5 6 
#
# 1 169.4715 47.8838 24.1947 0.0000 -19.5405 0.0000
# 2 47.8838 95.5303 40.4711 0.0000 -10.0222 0.0000
# 3 24.1947 40.4711 119.9002 0.0000 2.0590 0.0000
# 4 0.0000 0.0000 0.0000 30.8678 0.0000 4.8248
# 5 -19.5405 -10.0222 2.0590 0.0000 20.1931 0.0000
# 6 0.0000 0.0000 0.0000 4.8248 0.0000 29.2944
#
#
#
# Elastic Compliance Matrix: (Units=1/GPa)
#
#
# Indices 1 2 3 4 5 6 
#
# 1 0.007479 -0.002858 -0.000646 0.000000 0.005885 0.000000
# 2 -0.002858 0.014220 -0.004304 0.000000 0.004731 0.000000
# 3 -0.000646 -0.004304 0.009988 0.000000 -0.003780 0.000000
# 4 0.000000 0.000000 0.000000 0.033252 0.000000 -0.005477
# 5 0.005885 0.004731 -0.003780 0.000000 0.057950 0.000000
# 6 0.000000 0.000000 0.000000 -0.005477 0.000000 0.035038
#
#
# Mechanical properties :
#
#
# Convention : Reuss Voigt Hill
#
# Bulk Modulus (GPa) = 62.22116 67.77792 64.99954
# Shear Modulus (GPa) = 27.94844 34.22788 31.08816
#
# Velocity S-wave (km/s) = 3.44256 3.80972 3.63079
# Velocity P-wave (km/s) = 6.49507 6.93488 6.71857
#
# Compressibility (1/GPa) = 0.01607170
#
# Stress axis : x y z
#
# Youngs Moduli (GPa) = 133.71035 70.32211 100.11639
#
# Poissons Ratio (x) = 0.20097 0.06463
# Poissons Ratio (y) = 0.38213 0.43095
# Poissons Ratio (z) = 0.08632 0.30270
#
# Static dielectric constant tensor:
#      x y z
#    x 4.547630 0.000000 -0.142610 
#    y 0.000000 4.199700 0.000000 
#    z -0.142610 0.000000 3.866420 
# 
# 
# High freq. dielectric constant tensor:
#      x y z
#    x 1.954570 0.000000 -0.011070 
#    y 0.000000 1.931790 0.000000 
#    z -0.011070 0.000000 1.915630 
# 
# From -- ./inp_files/7846.got.cif
#   From: 2010.03.12/outbox.cif.g09.slc.cpg/sg14_4_cif.got.tgz:7846.got - 2010.03.31 13:35:05.
