data_PCOD8129165
_publ_section_title
;
Structure prediction by ZEFSAII (Michael W. Deem and Ramdas Pophale) SiO2 
 PCOD8129165
Probable space group: P 21/C
;
_chemical_formula_sum "Si O2"
_cell_formula_units_Z 24
_cell_length_a 21.658857
_cell_length_b 11.597659
_cell_length_c 11.277842
_cell_angle_alpha 90.000000
_cell_angle_beta 158.072575
_cell_angle_gamma 90.000000
_cell_volume 1057.896638
_symmetry_space_group_name_H-M "P 21/C"
_symmetry_group_IT_number 14
_symmetry_cell_setting 'monoclinic'
loop_
_space_group_symop_operation_xyz
x,y,z
-x,1/2+y,1/2-z
-x,-y,-z
x,1/2-y,1/2+z
loop_
_atom_site_type_symbol
_atom_site_label
_atom_site_fract_x
_atom_site_fract_y
_atom_site_fract_z
Si Si1 0.624072 0.184844 0.934185
Si Si2 0.269446 0.104581 0.233836
Si Si3 0.672747 0.029837 0.247160
Si Si4 0.801489 0.405869 0.217440
Si Si5 0.917175 0.835214 0.628184
Si Si6 0.863256 0.063994 0.182393
O O1 0.446581 0.163370 0.561137
O O2 0.642474 0.124844 0.093480
O O3 0.655117 0.321607 0.004945
O O4 0.761923 0.145045 0.087931
O O5 0.227403 0.030865 0.275540
O O6 0.133059 0.203195 0.974138
O O7 0.262121 0.025867 0.103374
O O8 0.795046 0.081679 0.564024
O O9 0.756404 0.917607 0.336791
O O10 0.500000 0.000000 0.000000
O O11 0.982999 0.355100 0.571179
O O12 0.046586 0.860094 0.755233
O O13 0.000000 0.000000 0.500000
#
# Coordination Sequence:
#
# PCOD8129165 Si02
#       6
#     4   4   4   4   4   4
#     4  12  26  48  74 107 152 192 248 306 375 434
#     4  11  26  48  73 112 147 195 246 307 372 439
#     4  12  25  50  75 108 146 197 245 307 372 440
#     4  11  27  46  78 109 146 196 248 305 365 444
#     4  11  26  48  75 104 149 192 247 304 369 432
#     4  11  24  46  74 104 143 192 248 301 365 439
#
# _framework density 22.686527000000002
#
# number of rings (size 3 to 8) (size 9 to 14) (size 15 to 20)
#    0.000    0.667    3.333    3.000    7.000    2.667 
#    6.000    0.000    0.000    0.000    0.000    0.000 
#    0.000    0.000    0.000    0.000    0.000    0.000 
#
# Total GULP energy -297732.440992 kJ/mol
# GULP energy per Si atom -12405.518375 kJ/mol
# Density = 2.263489 g / cm^3
# Si number density = 22.686527 Si / 1000 Ang^3
#
#
#
# Elastic Constant Matrix: (Units=GPa)
#
#
# Indices 1 2 3 4 5 6 
#
# 1 115.3633 36.2624 35.9621 0.0000 -0.7130 0.0000
# 2 36.2624 115.5306 28.2023 0.0000 10.1219 0.0000
# 3 35.9621 28.2023 120.8110 0.0000 2.5420 0.0000
# 4 0.0000 0.0000 0.0000 47.9875 0.0000 0.4569
# 5 -0.7130 10.1219 2.5420 0.0000 44.1586 0.0000
# 6 0.0000 0.0000 0.0000 0.4569 0.0000 25.6247
#
#
#
# Elastic Compliance Matrix: (Units=1/GPa)
#
#
# Indices 1 2 3 4 5 6 
#
# 1 0.010290 -0.002713 -0.002449 0.000000 0.000929 0.000000
# 2 -0.002713 0.010071 -0.001496 0.000000 -0.002266 0.000000
# 3 -0.002449 -0.001496 0.009361 0.000000 -0.000236 0.000000
# 4 0.000000 0.000000 0.000000 0.020842 0.000000 -0.000372
# 5 0.000929 -0.002266 -0.000236 0.000000 0.023194 0.000000
# 6 0.000000 0.000000 0.000000 -0.000372 0.000000 0.039031
#
#
# Mechanical properties :
#
#
# Convention : Reuss Voigt Hill
#
# Bulk Modulus (GPa) = 60.95560 61.39538 61.17549
# Shear Modulus (GPa) = 38.00127 40.30605 39.15366
#
# Velocity S-wave (km/s) = 4.09719 4.21961 4.15885
# Velocity P-wave (km/s) = 7.02208 7.13171 7.07711
#
# Compressibility (1/GPa) = 0.01640538
#
# Stress axis : x y z
#
# Youngs Moduli (GPa) = 97.17748 99.29460 106.83110
#
# Poissons Ratio (x) = 0.26943 0.26166
# Poissons Ratio (y) = 0.26368 0.15978
# Poissons Ratio (z) = 0.23802 0.14851
#
# Static dielectric constant tensor:
#      x y z
#    x 4.135690 0.000000 -0.415120 
#    y 0.000000 3.936660 0.000000 
#    z -0.415120 0.000000 4.664130 
# 
# 
# High freq. dielectric constant tensor:
#      x y z
#    x 1.890790 0.000000 -0.010540 
#    y 0.000000 1.904900 0.000000 
#    z -0.010540 0.000000 1.915480 
# 
# From -- ./inp_files/35946.got.cif
#   From: 2010.03.12/outbox.cif.g09.slc.cpg/sg14_18_cif.got.tgz:35946.got - 2010.03.31 13:35:05.
