data_PCOD8129230
_publ_section_title
;
Structure prediction by ZEFSAII (Michael W. Deem and Ramdas Pophale) SiO2 
 PCOD8129230
Probable space group: P 21/C
;
_chemical_formula_sum "Si O2"
_cell_formula_units_Z 28
_cell_length_a 10.353290
_cell_length_b 9.281409
_cell_length_c 17.467785
_cell_angle_alpha 90.000000
_cell_angle_beta 40.934832
_cell_angle_gamma 90.000000
_cell_volume 1099.775777
_symmetry_space_group_name_H-M "P 21/C"
_symmetry_group_IT_number 14
_symmetry_cell_setting 'monoclinic'
loop_
_space_group_symop_operation_xyz
x,y,z
-x,1/2+y,1/2-z
-x,-y,-z
x,1/2-y,1/2+z
loop_
_atom_site_type_symbol
_atom_site_label
_atom_site_fract_x
_atom_site_fract_y
_atom_site_fract_z
Si Si1 0.790310 0.315111 0.185064
Si Si2 0.976956 0.884374 0.600513
Si Si3 0.109949 0.355812 0.485207
Si Si4 0.639249 0.690730 0.351586
Si Si5 0.546142 0.777048 0.062754
Si Si6 0.384185 0.909063 0.832987
Si Si7 0.425089 0.536496 0.898668
O O1 0.897597 0.459359 0.107114
O O2 0.678188 0.326737 0.316057
O O3 0.642860 0.256239 0.183491
O O4 0.952065 0.185663 0.121924
O O5 0.910977 0.758183 0.573622
O O6 0.866882 0.846419 0.729734
O O7 0.211093 0.889377 0.505762
O O8 0.325035 0.338127 0.425926
O O9 0.154428 0.525287 0.439179
O O10 0.602857 0.654429 0.456323
O O11 0.494962 0.589482 0.364748
O O12 0.591973 0.856928 0.355524
O O13 0.565323 0.604279 0.052002
O O14 0.524754 0.995346 0.711764
#
# Coordination Sequence:
#
# PCOD8129230 Si02
#       7
#     4   4   4   4   4   4   4
#     4  11  25  44  75 106 143 190 242 309 356 427
#     4  12  25  43  83 103 138 191 255 298 361 429
#     4  12  24  44  74 108 142 190 245 300 357 431
#     4  12  27  46  71 107 146 191 238 296 372 436
#     4  11  27  46  69 102 153 192 235 293 374 439
#     4  11  26  44  75 109 149 183 249 306 361 420
#     4  11  25  49  74 108 145 194 243 302 363 438
#
# _framework density 25.459734999999998
#
# number of rings (size 3 to 8) (size 9 to 14) (size 15 to 20)
#    0.000    0.571    2.857    4.714    8.000    3.429 
#    0.000    0.000    0.000    0.000    0.000    0.000 
#    0.000    0.000    0.000    0.000    0.000    0.000 
#
# Total GULP energy -347174.329224 kJ/mol
# GULP energy per Si atom -12399.083187 kJ/mol
# Density = 2.540179 g / cm^3
# Si number density = 25.459735 Si / 1000 Ang^3
#
#
#
# Elastic Constant Matrix: (Units=GPa)
#
#
# Indices 1 2 3 4 5 6 
#
# 1 44.4678 20.8724 50.7772 0.0000 2.4892 0.0000
# 2 20.8724 119.1251 37.7932 0.0000 8.6865 0.0000
# 3 50.7772 37.7932 214.1334 0.0000 5.5369 0.0000
# 4 0.0000 0.0000 0.0000 45.2853 0.0000 -6.3270
# 5 2.4892 8.6865 5.5369 0.0000 30.5689 0.0000
# 6 0.0000 0.0000 0.0000 -6.3270 0.0000 24.6291
#
#
#
# Elastic Compliance Matrix: (Units=1/GPa)
#
#
# Indices 1 2 3 4 5 6 
#
# 1 0.032091 -0.003372 -0.007005 0.000000 -0.000386 0.000000
# 2 -0.003372 0.009404 -0.000802 0.000000 -0.002252 0.000000
# 3 -0.007005 -0.000802 0.006482 0.000000 -0.000376 0.000000
# 4 0.000000 0.000000 0.000000 0.022904 0.000000 0.005884
# 5 -0.000386 -0.002252 -0.000376 0.000000 0.033453 0.000000
# 6 0.000000 0.000000 0.000000 0.005884 0.000000 0.042114
#
#
# Mechanical properties :
#
#
# Convention : Reuss Voigt Hill
#
# Bulk Modulus (GPa) = 39.03224 66.29022 52.66123
# Shear Modulus (GPa) = 28.19352 37.98222 33.08787
#
# Velocity S-wave (km/s) = 3.33134 3.86664 3.60893
# Velocity P-wave (km/s) = 5.49193 6.78442 6.17210
#
# Compressibility (1/GPa) = 0.02561984
#
# Stress axis : x y z
#
# Youngs Moduli (GPa) = 31.16123 106.33702 154.26853
#
# Poissons Ratio (x) = 0.35861 1.08058
# Poissons Ratio (y) = 0.10509 0.12370
# Poissons Ratio (z) = 0.21827 0.08526
#
# Static dielectric constant tensor:
#      x y z
#    x 4.212650 0.000000 -0.400580 
#    y 0.000000 5.187650 0.000000 
#    z -0.400580 0.000000 5.128860 
# 
# 
# High freq. dielectric constant tensor:
#      x y z
#    x 1.976900 0.000000 -0.026110 
#    y 0.000000 2.055030 0.000000 
#    z -0.026110 0.000000 2.041450 
# 
# From -- ./inp_files/66980.got.cif
#   From: 2010.03.12/outbox.cif.g09.slc.cpg/sg14_34_cif.got.tgz:66980.got - 2010.03.31 13:35:05.
