data_PCOD8129074
_publ_section_title
;
Structure prediction by ZEFSAII (Michael W. Deem and Ramdas Pophale) SiO2 
 PCOD8129074
Probable space group: P 21/C
;
_chemical_formula_sum "Si O2"
_cell_formula_units_Z 20
_cell_length_a 12.170665
_cell_length_b 10.882400
_cell_length_c 7.771594
_cell_angle_alpha 90.000000
_cell_angle_beta 118.172383
_cell_angle_gamma 90.000000
_cell_volume 907.374871
_symmetry_space_group_name_H-M "P 21/C"
_symmetry_group_IT_number 14
_symmetry_cell_setting 'monoclinic'
loop_
_space_group_symop_operation_xyz
x,y,z
-x,1/2+y,1/2-z
-x,-y,-z
x,1/2-y,1/2+z
loop_
_atom_site_type_symbol
_atom_site_label
_atom_site_fract_x
_atom_site_fract_y
_atom_site_fract_z
Si Si1 0.425531 0.877213 0.392637
Si Si2 0.802223 0.612129 0.868029
Si Si3 0.836487 0.455058 0.209954
Si Si4 0.107852 0.367246 0.447919
Si Si5 0.517839 0.627521 0.608252
O O1 0.498811 0.751277 0.486454
O O2 0.414221 0.876164 0.179552
O O3 0.500000 0.000000 0.500000
O O4 0.287570 0.872263 0.370264
O O5 0.836376 0.588501 0.693950
O O6 0.656023 0.632137 0.786995
O O7 0.846020 0.499503 0.019646
O O8 0.871728 0.725450 0.004934
O O9 0.825382 0.561314 0.346319
O O10 0.958965 0.377900 0.341852
O O11 0.500000 0.500000 0.500000
#
# Coordination Sequence:
#
# PCOD8129074 Si02
#       5
#     4   4   4   4   4
#     4  12  24  46  70 103 142 179 236 292 347 420
#     4  12  22  46  70  94 140 180 231 286 356 416
#     4  11  25  45  67 100 137 180 234 287 345 423
#     4  11  24  43  69  98 134 183 229 287 350 417
#     4  12  26  45  73 103 140 188 232 291 359 418
#
# _framework density 22.041608
#
# number of rings (size 3 to 8) (size 9 to 14) (size 15 to 20)
#    0.000    0.400    4.000    5.400    0.000    1.600 
#    3.600    0.000    0.000    0.000    0.000    0.000 
#    0.000    0.000    0.000    0.000    0.000    0.000 
#
# Total GULP energy -248003.741092 kJ/mol
# GULP energy per Si atom -12400.187055 kJ/mol
# Density = 2.199144 g / cm^3
# Si number density = 22.041608 Si / 1000 Ang^3
#
#
#
# Elastic Constant Matrix: (Units=GPa)
#
#
# Indices 1 2 3 4 5 6 
#
# 1 94.9849 24.2217 30.7790 0.0000 -5.5905 0.0000
# 2 24.2217 134.2373 41.0027 0.0000 6.0929 0.0000
# 3 30.7790 41.0027 101.8941 0.0000 -13.2276 0.0000
# 4 0.0000 0.0000 0.0000 32.9544 0.0000 -0.7998
# 5 -5.5905 6.0929 -13.2276 0.0000 60.3287 0.0000
# 6 0.0000 0.0000 0.0000 -0.7998 0.0000 32.8694
#
#
#
# Elastic Compliance Matrix: (Units=1/GPa)
#
#
# Indices 1 2 3 4 5 6 
#
# 1 0.011853 -0.001246 -0.003005 0.000000 0.000565 0.000000
# 2 -0.001246 0.008788 -0.003386 0.000000 -0.001746 0.000000
# 3 -0.003005 -0.003386 0.012447 0.000000 0.002793 0.000000
# 4 0.000000 0.000000 0.000000 0.030363 0.000000 0.000739
# 5 0.000565 -0.001746 0.002793 0.000000 0.017417 0.000000
# 6 0.000000 0.000000 0.000000 0.000739 0.000000 0.030441
#
#
# Mechanical properties :
#
#
# Convention : Reuss Voigt Hill
#
# Bulk Modulus (GPa) = 56.14319 58.12482 57.13400
# Shear Modulus (GPa) = 37.72922 40.90468 39.31695
#
# Velocity S-wave (km/s) = 4.14179 4.31257 4.22804
# Velocity P-wave (km/s) = 6.95696 7.15719 7.05779
#
# Compressibility (1/GPa) = 0.01781160
#
# Stress axis : x y z
#
# Youngs Moduli (GPa) = 84.36690 113.79139 80.33915
#
# Poissons Ratio (x) = 0.14183 0.24146
# Poissons Ratio (y) = 0.10515 0.27206
# Poissons Ratio (z) = 0.25356 0.38535
#
# Static dielectric constant tensor:
#      x y z
#    x 4.308440 0.000000 -0.152300 
#    y 0.000000 3.830590 0.000000 
#    z -0.152300 0.000000 4.122480 
# 
# 
# High freq. dielectric constant tensor:
#      x y z
#    x 1.880900 0.000000 -0.005390 
#    y 0.000000 1.862850 0.000000 
#    z -0.005390 0.000000 1.881430 
# 
# From -- ./inp_files/11910.got.cif
#   From: 2010.03.12/outbox.cif.g09.slc.cpg/sg14_6_cif.got.tgz:11910.got - 2010.03.31 13:35:05.
