data_PCOD8129029
_publ_section_title
;
Structure prediction by ZEFSAII (Michael W. Deem and Ramdas Pophale) SiO2 
 PCOD8129029
Probable space group: P 21/C
;
_chemical_formula_sum "Si O2"
_cell_formula_units_Z 16
_cell_length_a 13.825572
_cell_length_b 11.242345
_cell_length_c 10.107190
_cell_angle_alpha 90.000000
_cell_angle_beta 29.402334
_cell_angle_gamma 90.000000
_cell_volume 771.255360
_symmetry_space_group_name_H-M "P 21/C"
_symmetry_group_IT_number 14
_symmetry_cell_setting 'monoclinic'
loop_
_space_group_symop_operation_xyz
x,y,z
-x,1/2+y,1/2-z
-x,-y,-z
x,1/2-y,1/2+z
loop_
_atom_site_type_symbol
_atom_site_label
_atom_site_fract_x
_atom_site_fract_y
_atom_site_fract_z
Si Si1 0.103326 0.416171 0.770857
Si Si2 0.356175 0.173090 0.182768
Si Si3 0.716557 0.072026 0.604895
Si Si4 0.548106 0.577448 0.815985
O O1 0.210132 0.312619 0.729600
O O2 0.279888 0.483164 0.479210
O O3 0.000000 0.500000 0.000000
O O4 0.935079 0.372463 0.868647
O O5 0.361874 0.295376 0.254168
O O6 0.280374 0.069385 0.370486
O O7 0.574720 0.141110 0.874128
O O8 0.652201 0.092224 0.529830
O O9 0.500000 0.500000 0.000000
#
# Coordination Sequence:
#
# PCOD8129029 Si02
#       4
#     4   4   4   4
#     4   9  20  43  63  85 119 166 208 251 305 369
#     4   9  20  40  62  88 124 165 203 253 311 368
#     4   9  20  40  64  84 123 169 203 249 315 366
#     4  11  24  37  63  98 129 155 208 263 306 371
#
# _framework density 20.745398000000002
#
# number of rings (size 3 to 8) (size 9 to 14) (size 15 to 20)
#    0.000    2.500    0.000    1.500    7.000    3.000 
#    9.000    0.000    0.000    0.000    0.000    0.000 
#    0.000    0.000    0.000    0.000    0.000    0.000 
#
# Total GULP energy -198279.164374 kJ/mol
# GULP energy per Si atom -12392.447773 kJ/mol
# Density = 2.069818 g / cm^3
# Si number density = 20.745398 Si / 1000 Ang^3
#
#
#
# Elastic Constant Matrix: (Units=GPa)
#
#
# Indices 1 2 3 4 5 6 
#
# 1 208.3590 38.7450 63.3862 0.0000 -25.5057 0.0000
# 2 38.7450 75.6228 22.9137 0.0000 1.6460 0.0000
# 3 63.3862 22.9137 95.3650 0.0000 -1.4737 0.0000
# 4 0.0000 0.0000 0.0000 14.0441 0.0000 3.6230
# 5 -25.5057 1.6460 -1.4737 0.0000 45.8116 0.0000
# 6 0.0000 0.0000 0.0000 3.6230 0.0000 28.2035
#
#
#
# Elastic Compliance Matrix: (Units=1/GPa)
#
#
# Indices 1 2 3 4 5 6 
#
# 1 0.006922 -0.002430 -0.003958 0.000000 0.003814 0.000000
# 2 -0.002430 0.015133 -0.002051 0.000000 -0.001963 0.000000
# 3 -0.003958 -0.002051 0.013584 0.000000 -0.001693 0.000000
# 4 0.000000 0.000000 0.000000 0.073645 0.000000 -0.009460
# 5 0.003814 -0.001963 -0.001693 0.000000 0.023968 0.000000
# 6 0.000000 0.000000 0.000000 -0.009460 0.000000 0.036672
#
#
# Mechanical properties :
#
#
# Convention : Reuss Voigt Hill
#
# Bulk Modulus (GPa) = 53.30565 69.93741 61.62153
# Shear Modulus (GPa) = 25.89927 34.56529 30.23228
#
# Velocity S-wave (km/s) = 3.53715 4.08630 3.82160
# Velocity P-wave (km/s) = 6.51405 7.48660 7.01720
#
# Compressibility (1/GPa) = 0.01875974
#
# Stress axis : x y z
#
# Youngs Moduli (GPa) = 144.45914 66.08130 73.61834
#
# Poissons Ratio (x) = 0.16060 0.29140
# Poissons Ratio (y) = 0.35108 0.15099
# Poissons Ratio (z) = 0.57180 0.13553
#
# Static dielectric constant tensor:
#      x y z
#    x 4.460990 0.000000 -0.347580 
#    y 0.000000 3.330620 0.000000 
#    z -0.347580 0.000000 3.874390 
# 
# 
# High freq. dielectric constant tensor:
#      x y z
#    x 1.839900 0.000000 -0.007790 
#    y 0.000000 1.763830 0.000000 
#    z -0.007790 0.000000 1.808580 
# 
# From -- ./inp_files/7608.got.cif
#   From: 2010.03.12/outbox.cif.g09.slc.cpg/sg14_4_cif.got.tgz:7608.got - 2010.03.31 13:35:05.
