data_PCOD8129803
_publ_section_title
;
Structure prediction by ZEFSAII (Michael W. Deem and Ramdas Pophale) SiO2 
 PCOD8129803
Probable space group: C 2/C
;
_chemical_formula_sum "Si O2"
_cell_formula_units_Z 52
_cell_length_a 16.230651
_cell_length_b 8.299945
_cell_length_c 22.000716
_cell_angle_alpha 90.000000
_cell_angle_beta 68.528723
_cell_angle_gamma 90.000000
_cell_volume 2758.109910
_symmetry_space_group_name_H-M "C 2/C"
_symmetry_group_IT_number 15
_symmetry_cell_setting 'monoclinic'
loop_
_space_group_symop_operation_xyz
x,y,z
-x,y,1/2-z
-x,-y,-z
x,-y,1/2+z
1/2+x,1/2+y,z
1/2-x,1/2+y,1/2-z
1/2-x,1/2-y,-z
1/2+x,1/2-y,1/2+z
loop_
_atom_site_type_symbol
_atom_site_label
_atom_site_fract_x
_atom_site_fract_y
_atom_site_fract_z
Si Si1 0.693994 0.260982 0.818427
Si Si2 0.055422 0.614089 0.181562
Si Si3 0.500000 0.596578 0.250000
Si Si4 0.288523 0.910517 0.313274
Si Si5 0.505328 0.180541 0.862907
Si Si6 0.812594 0.780288 0.926925
Si Si7 0.155891 0.911780 0.149669
O O1 0.704655 0.213291 0.744579
O O2 0.714909 0.450760 0.821973
O O3 0.596485 0.221341 0.873733
O O4 0.758823 0.145957 0.837599
O O5 0.116688 0.490674 0.202332
O O6 0.996187 0.511540 0.150657
O O7 0.108590 0.754545 0.132215
O O8 0.000000 0.700399 0.250000
O O9 0.481558 0.709918 0.199000
O O10 0.588566 0.494039 0.215159
O O11 0.270405 0.810085 0.379903
O O12 0.411729 0.223407 0.919788
O O13 0.816092 0.970624 0.912265
O O14 0.750000 0.750000 0.000000
#
# Coordination Sequence:
#
# PCOD8129803 Si02
#       7
#     8   8   4   8   8   8   8
#     4  11  19  33  54  92 116 134 172 237 306 331
#     4  10  16  31  51  83 113 140 174 216 281 346
#     4  10  16  30  48  78 108 144 176 208 274 334
#     4  10  20  32  57  84 117 144 174 230 288 342
#     4  10  18  32  55  76 108 147 177 226 281 332
#     4  10  22  42  56  71 105 160 202 226 260 330
#     4  10  21  31  55  83 111 138 183 231 275 340
#
# _framework density 18.853491000000002
#
# number of rings (size 3 to 8) (size 9 to 14) (size 15 to 20)
#    0.000    1.846    3.077    3.692    0.000    0.000 
#    0.000    8.462    0.000    0.000    0.000    0.000 
#    0.000    0.000    0.000    0.000    0.000    0.000 
#
# Total GULP energy -322147.041659 kJ/mol
# GULP energy per Si atom -12390.270833 kJ/mol
# Density = 1.881058 g / cm^3
# Si number density = 18.853491 Si / 1000 Ang^3
#
#
#
# Elastic Constant Matrix: (Units=GPa)
#
#
# Indices 1 2 3 4 5 6 
#
# 1 104.2802 46.5798 29.7429 0.0000 -17.2939 0.0000
# 2 46.5798 115.4593 30.2646 0.0000 -2.8231 0.0000
# 3 29.7429 30.2646 76.3663 0.0000 -16.5890 0.0000
# 4 0.0000 0.0000 0.0000 65.6045 0.0000 -41.6743
# 5 -17.2939 -2.8231 -16.5890 0.0000 20.0079 0.0000
# 6 0.0000 0.0000 0.0000 -41.6743 0.0000 66.7995
#
#
#
# Elastic Compliance Matrix: (Units=1/GPa)
#
#
# Indices 1 2 3 4 5 6 
#
# 1 0.013888 -0.005044 -0.001167 0.000000 0.010325 0.000000
# 2 -0.005044 0.011578 -0.003923 0.000000 -0.005979 0.000000
# 3 -0.001167 -0.003923 0.018008 0.000000 0.013369 0.000000
# 4 0.000000 0.000000 0.000000 0.025249 0.000000 0.015752
# 5 0.010325 -0.005979 0.013369 0.000000 0.069145 0.000000
# 6 0.000000 0.000000 0.000000 0.015752 0.000000 0.024798
#
#
# Mechanical properties :
#
#
# Convention : Reuss Voigt Hill
#
# Bulk Modulus (GPa) = 43.09263 56.58671 49.83967
# Shear Modulus (GPa) = 26.22342 43.11697 34.67020
#
# Velocity S-wave (km/s) = 3.73353 4.78739 4.29292
# Velocity P-wave (km/s) = 6.44142 7.78704 7.14597
#
# Compressibility (1/GPa) = 0.02320582
#
# Stress axis : x y z
#
# Youngs Moduli (GPa) = 72.00499 86.36947 55.53107
#
# Poissons Ratio (x) = 0.43569 0.06481
# Poissons Ratio (y) = 0.36323 0.21783
# Poissons Ratio (z) = 0.08403 0.33879
#
# Static dielectric constant tensor:
#      x y z
#    x 4.005140 0.000000 -0.198770 
#    y 0.000000 3.827880 0.000000 
#    z -0.198770 0.000000 2.930820 
# 
# 
# High freq. dielectric constant tensor:
#      x y z
#    x 1.740920 0.000000 -0.018810 
#    y 0.000000 1.754200 0.000000 
#    z -0.018810 0.000000 1.670280 
# 
# From -- ./inp_files/242406.got.cif
#   From: 2010.06.25/outbox.cif.g09.slc.cpg/sg15_122_cif.got.tgz:242406.got - 2010.06.28 07:06:18.
