data_PCOD8129436
_publ_section_title
;
Structure prediction by ZEFSAII (Michael W. Deem and Ramdas Pophale) SiO2 
 PCOD8129436
Probable space group: P 21/C
;
_chemical_formula_sum "Si O2"
_cell_formula_units_Z 32
_cell_length_a 12.222612
_cell_length_b 10.359141
_cell_length_c 11.498092
_cell_angle_alpha 90.000000
_cell_angle_beta 103.334588
_cell_angle_gamma 90.000000
_cell_volume 1416.589971
_symmetry_space_group_name_H-M "P 21/C"
_symmetry_group_IT_number 14
_symmetry_cell_setting 'monoclinic'
loop_
_space_group_symop_operation_xyz
x,y,z
-x,1/2+y,1/2-z
-x,-y,-z
x,1/2-y,1/2+z
loop_
_atom_site_type_symbol
_atom_site_label
_atom_site_fract_x
_atom_site_fract_y
_atom_site_fract_z
Si Si1 0.742998 0.253312 0.997124
Si Si2 0.367133 0.997667 0.964889
Si Si3 0.288446 0.368614 0.212612
Si Si4 0.658759 0.584688 0.289128
Si Si5 0.045907 0.629686 0.570175
Si Si6 0.439543 0.533978 0.106620
Si Si7 0.088427 0.389721 0.996114
Si Si8 0.836214 0.449242 0.188347
O O1 0.664274 0.152042 0.042438
O O2 0.821859 0.322017 0.108913
O O3 0.828352 0.177617 0.932884
O O4 0.659502 0.358976 0.919463
O O5 0.307910 0.058758 0.838556
O O6 0.500000 0.000000 0.000000
O O7 0.322274 0.070441 0.068457
O O8 0.290199 0.218475 0.240133
O O9 0.385468 0.402915 0.142827
O O10 0.169260 0.401725 0.126822
O O11 0.528160 0.581722 0.223552
O O12 0.724708 0.472344 0.237687
O O13 0.055463 0.584917 0.706648
O O14 0.000000 0.500000 0.500000
O O15 0.958977 0.745368 0.528245
O O16 0.500000 0.500000 0.000000
O O17 0.146673 0.424649 0.887928
O O18 0.000000 0.500000 0.000000
#
# Coordination Sequence:
#
# PCOD8129436 Si02
#       8
#     4   4   4   4   4   4   4   4
#     4  12  27  48  75 110 152 199 256 311 383 458
#     4  12  28  46  76 113 153 201 243 315 381 463
#     4  12  28  47  74 109 151 197 254 311 380 458
#     4  12  27  47  72 113 155 192 252 309 387 461
#     4  12  29  51  76 112 152 201 261 326 389 450
#     4  12  25  46  75 109 152 203 246 311 385 466
#     4  12  27  52  78 110 146 206 266 318 391 453
#     4  12  27  48  78 110 150 198 252 324 379 466
#
# _framework density 22.589455999999998
#
# number of rings (size 3 to 8) (size 9 to 14) (size 15 to 20)
#    0.000    0.000    6.250    1.500   10.500    1.000 
#    0.000    0.000    0.000    0.000    0.000    0.000 
#    0.000    0.000    0.000    0.000    0.000    0.000 
#
# Total GULP energy -396778.015590 kJ/mol
# GULP energy per Si atom -12399.312987 kJ/mol
# Density = 2.253804 g / cm^3
# Si number density = 22.589456 Si / 1000 Ang^3
#
#
#
# Elastic Constant Matrix: (Units=GPa)
#
#
# Indices 1 2 3 4 5 6 
#
# 1 97.1303 36.4989 47.9563 0.0000 11.1170 0.0000
# 2 36.4989 135.3634 59.4649 0.0000 8.9352 0.0000
# 3 47.9563 59.4649 166.7000 0.0000 30.7931 0.0000
# 4 0.0000 0.0000 0.0000 33.4858 0.0000 5.0361
# 5 11.1170 8.9352 30.7931 0.0000 44.2463 0.0000
# 6 0.0000 0.0000 0.0000 5.0361 0.0000 53.8819
#
#
#
# Elastic Compliance Matrix: (Units=1/GPa)
#
#
# Indices 1 2 3 4 5 6 
#
# 1 0.012521 -0.002142 -0.002681 0.000000 -0.000847 0.000000
# 2 -0.002142 0.009135 -0.002755 0.000000 0.000611 0.000000
# 3 -0.002681 -0.002755 0.008636 0.000000 -0.004780 0.000000
# 4 0.000000 0.000000 0.000000 0.030289 0.000000 -0.002831
# 5 -0.000847 0.000611 -0.004780 0.000000 0.026017 0.000000
# 6 0.000000 0.000000 0.000000 -0.002831 0.000000 0.018824
#
#
# Mechanical properties :
#
#
# Convention : Reuss Voigt Hill
#
# Bulk Modulus (GPa) = 66.07390 76.33710 71.20550
# Shear Modulus (GPa) = 39.80088 43.34104 41.57096
#
# Velocity S-wave (km/s) = 4.20208 4.38498 4.29450
# Velocity P-wave (km/s) = 7.27026 7.71388 7.49536
#
# Compressibility (1/GPa) = 0.01513457
#
# Stress axis : x y z
#
# Youngs Moduli (GPa) = 79.86349 109.46648 115.79398
#
# Poissons Ratio (x) = 0.23451 0.31049
# Poissons Ratio (y) = 0.17109 0.31904
# Poissons Ratio (z) = 0.21415 0.30161
#
# Static dielectric constant tensor:
#      x y z
#    x 4.286930 0.000000 0.153120 
#    y 0.000000 4.138850 0.000000 
#    z 0.153120 0.000000 4.427600 
# 
# 
# High freq. dielectric constant tensor:
#      x y z
#    x 1.896450 0.000000 0.008370 
#    y 0.000000 1.902700 0.000000 
#    z 0.008370 0.000000 1.907330 
# 
# From -- ./inp_files/29374.got.cif
#   From: 2010.03.12/outbox.cif.g09.slc.cpg/sg14_15_cif.got.tgz:29374.got - 2010.03.31 13:35:05.
