data_PCOD8129627
_publ_section_title
;
Structure prediction by ZEFSAII (Michael W. Deem and Ramdas Pophale) SiO2 
 PCOD8129627
Probable space group: C 2/C
;
_chemical_formula_sum "Si O2"
_cell_formula_units_Z 48
_cell_length_a 11.697972
_cell_length_b 14.818032
_cell_length_c 13.240290
_cell_angle_alpha 90.000000
_cell_angle_beta 78.130112
_cell_angle_gamma 90.000000
_cell_volume 2246.008820
_symmetry_space_group_name_H-M "C 2/C"
_symmetry_group_IT_number 15
_symmetry_cell_setting 'monoclinic'
loop_
_space_group_symop_operation_xyz
x,y,z
-x,y,1/2-z
-x,-y,-z
x,-y,1/2+z
1/2+x,1/2+y,z
1/2-x,1/2+y,1/2-z
1/2-x,1/2-y,-z
1/2+x,1/2-y,1/2+z
loop_
_atom_site_type_symbol
_atom_site_label
_atom_site_fract_x
_atom_site_fract_y
_atom_site_fract_z
Si Si1 0.500000 0.272928 0.250000
Si Si2 0.078213 0.760153 0.605063
Si Si3 0.396069 0.421311 0.404655
Si Si4 0.246940 0.452147 0.251348
Si Si5 0.418035 0.578946 0.128636
Si Si6 0.000000 0.398144 0.250000
Si Si7 0.177124 0.768619 0.365868
O O1 0.460135 0.333225 0.351717
O O2 0.606615 0.218782 0.285202
O O3 0.033702 0.661883 0.646395
O O4 0.100253 0.765900 0.481526
O O5 0.200379 0.782857 0.640071
O O6 0.975057 0.827995 0.657166
O O7 0.276144 0.433902 0.363664
O O8 0.479294 0.506946 0.377745
O O9 0.366369 0.407656 0.526361
O O10 0.306891 0.547452 0.213361
O O11 0.299440 0.372955 0.170200
O O12 0.108061 0.461088 0.262578
#
# Coordination Sequence:
#
# PCOD8129627 Si02
#       7
#     4   8   8   8   8   4   8
#     4  10  14  31  54  81 116 158 180 220 300 359
#     4  10  20  32  54  90 115 146 195 246 278 342
#     4  10  18  30  57  88 111 143 192 235 282 341
#     4  10  20  38  56  81 117 161 188 229 300 351
#     4  11  18  31  58  91 111 141 200 247 272 333
#     4  10  24  39  56  79 122 158 192 230 300 351
#     4   9  17  33  56  82 122 152 183 231 303 349
#
# _framework density 21.371241000000001
#
# number of rings (size 3 to 8) (size 9 to 14) (size 15 to 20)
#    0.000    2.000    5.000    1.000    2.333    0.000 
#    0.000    1.667    0.000    1.000    4.333    0.000 
#    0.000    0.000    0.000    0.000    0.000    0.000 
#
# Total GULP energy -297404.240817 kJ/mol
# GULP energy per Si atom -12391.843367 kJ/mol
# Density = 2.132260 g / cm^3
# Si number density = 21.371241 Si / 1000 Ang^3
#
#
#
# Elastic Constant Matrix: (Units=GPa)
#
#
# Indices 1 2 3 4 5 6 
#
# 1 187.3920 41.6984 60.5311 0.0000 26.9984 0.0000
# 2 41.6984 44.6527 16.7209 0.0000 6.7452 0.0000
# 3 60.5311 16.7209 91.5522 0.0000 27.6109 0.0000
# 4 0.0000 0.0000 0.0000 68.4667 0.0000 9.2017
# 5 26.9984 6.7452 27.6109 0.0000 37.2661 0.0000
# 6 0.0000 0.0000 0.0000 9.2017 0.0000 34.3897
#
#
#
# Elastic Compliance Matrix: (Units=1/GPa)
#
#
# Indices 1 2 3 4 5 6 
#
# 1 0.008140 -0.005910 -0.003666 0.000000 -0.002111 0.000000
# 2 -0.005910 0.028388 -0.001312 0.000000 0.000115 0.000000
# 3 -0.003666 -0.001312 0.016372 0.000000 -0.009237 0.000000
# 4 0.000000 0.000000 0.000000 0.015150 0.000000 -0.004054
# 5 -0.002111 0.000115 -0.009237 0.000000 0.035186 0.000000
# 6 0.000000 0.000000 0.000000 -0.004054 0.000000 0.030163
#
#
# Mechanical properties :
#
#
# Convention : Reuss Voigt Hill
#
# Bulk Modulus (GPa) = 32.12939 62.38864 47.25902
# Shear Modulus (GPa) = 30.20266 41.66761 35.93513
#
# Velocity S-wave (km/s) = 3.76338 4.42034 4.10502
# Velocity P-wave (km/s) = 5.82672 7.43698 6.68054
#
# Compressibility (1/GPa) = 0.03112415
#
# Stress axis : x y z
#
# Youngs Moduli (GPa) = 122.85540 35.22669 61.08128
#
# Poissons Ratio (x) = 0.20817 0.22390
# Poissons Ratio (y) = 0.72602 0.08015
# Poissons Ratio (z) = 0.45033 0.04623
#
# Static dielectric constant tensor:
#      x y z
#    x 4.176590 0.000000 0.357310 
#    y 0.000000 3.434840 0.000000 
#    z 0.357310 0.000000 3.990570 
# 
# 
# High freq. dielectric constant tensor:
#      x y z
#    x 1.846840 0.000000 0.025670 
#    y 0.000000 1.788620 0.000000 
#    z 0.025670 0.000000 1.840980 
# 
# From -- ./inp_files/143586.got.cif
#   From: 2010.06.25/outbox.cif.g09.slc.cpg/sg15_72_cif.got.tgz:143586.got - 2010.06.28 07:06:18.
