data_PCOD8129469
_publ_section_title
;
Structure prediction by ZEFSAII (Michael W. Deem and Ramdas Pophale) SiO2 
 PCOD8129469
Probable space group: P 21/C
;
_chemical_formula_sum "Si O2"
_cell_formula_units_Z 12
_cell_length_a 8.316032
_cell_length_b 7.782951
_cell_length_c 8.290971
_cell_angle_alpha 90.000000
_cell_angle_beta 53.594568
_cell_angle_gamma 90.000000
_cell_volume 431.890912
_symmetry_space_group_name_H-M "P 21/C"
_symmetry_group_IT_number 14
_symmetry_cell_setting 'monoclinic'
loop_
_space_group_symop_operation_xyz
x,y,z
-x,1/2+y,1/2-z
-x,-y,-z
x,1/2-y,1/2+z
loop_
_atom_site_type_symbol
_atom_site_label
_atom_site_fract_x
_atom_site_fract_y
_atom_site_fract_z
Si Si1 0.382782 0.848179 0.481448
Si Si2 0.277891 0.086676 0.275009
Si Si3 0.970237 0.641155 0.382339
O O1 0.514938 0.677892 0.394027
O O2 0.184281 0.795392 0.694055
O O3 0.500000 0.000000 0.500000
O O4 0.328707 0.907003 0.331573
O O5 0.150327 0.052979 0.191335
O O6 0.150727 0.197337 0.478693
O O7 0.000000 0.500000 0.500000
#
# Coordination Sequence:
#
# PCOD8129469 Si02
#       3
#     4   4   4
#     4  12  27  51  79 119 156 205 264 319 395 468
#     4  12  28  51  81 118 158 207 259 329 391 467
#     4  12  26  49  77 113 158 204 259 318 389 463
#
# _framework density 27.784791999999999
#
# number of rings (size 3 to 8) (size 9 to 14) (size 15 to 20)
#    0.000    0.000    6.667    1.000    4.667    4.000 
#    0.000    0.000    0.000    0.000    0.000    0.000 
#    0.000    0.000    0.000    0.000    0.000    0.000 
#
# Total GULP energy -148945.407294 kJ/mol
# GULP energy per Si atom -12412.117274 kJ/mol
# Density = 2.772155 g / cm^3
# Si number density = 27.784792 Si / 1000 Ang^3
#
#
#
# Elastic Constant Matrix: (Units=GPa)
#
#
# Indices 1 2 3 4 5 6 
#
# 1 186.5143 10.4153 77.4718 0.0000 11.6169 0.0000
# 2 10.4153 39.8470 3.1229 0.0000 -3.6636 0.0000
# 3 77.4718 3.1229 170.0147 0.0000 -32.1719 0.0000
# 4 0.0000 0.0000 0.0000 19.0346 0.0000 9.2750
# 5 11.6169 -3.6636 -32.1719 0.0000 84.7441 0.0000
# 6 0.0000 0.0000 0.0000 9.2750 0.0000 51.6889
#
#
#
# Elastic Compliance Matrix: (Units=1/GPa)
#
#
# Indices 1 2 3 4 5 6 
#
# 1 0.007148 -0.001805 -0.003689 0.000000 -0.002458 0.000000
# 2 -0.001805 0.025664 0.000655 0.000000 0.001606 0.000000
# 3 -0.003689 0.000655 0.008244 0.000000 0.003664 0.000000
# 4 0.000000 0.000000 0.000000 0.057570 0.000000 -0.010330
# 5 -0.002458 0.001606 0.003664 0.000000 0.013598 0.000000
# 6 0.000000 0.000000 0.000000 -0.010330 0.000000 0.021200
#
#
# Mechanical properties :
#
#
# Convention : Reuss Voigt Hill
#
# Bulk Modulus (GPa) = 31.87003 64.26624 48.06813
# Shear Modulus (GPa) = 32.56032 51.45123 42.00578
#
# Velocity S-wave (km/s) = 3.42698 4.30790 3.89244
# Velocity P-wave (km/s) = 5.21096 6.92273 6.12692
#
# Compressibility (1/GPa) = 0.03137745
#
# Stress axis : x y z
#
# Youngs Moduli (GPa) = 139.90341 38.96487 121.29778
#
# Poissons Ratio (x) = 0.07034 0.44748
# Poissons Ratio (y) = 0.25256 -0.07945
# Poissons Ratio (z) = 0.51612 -0.02552
#
# Static dielectric constant tensor:
#      x y z
#    x 5.804080 0.000000 -0.000500 
#    y 0.000000 4.837380 0.000000 
#    z -0.000500 0.000000 5.469370 
# 
# 
# High freq. dielectric constant tensor:
#      x y z
#    x 2.150770 0.000000 -0.000310 
#    y 0.000000 2.122440 0.000000 
#    z -0.000310 0.000000 2.147510 
# 
# From -- ./inp_files/7106.got.cif
#   From: 2010.03.12/outbox.cif.g09.slc.cpg/sg14_4_cif.got.tgz:7106.got - 2010.03.31 13:35:05.
