data_PCOD8129664
_publ_section_title
;
Structure prediction by ZEFSAII (Michael W. Deem and Ramdas Pophale) SiO2 
 PCOD8129664
Probable space group: C 2/C
;
_chemical_formula_sum "Si O2"
_cell_formula_units_Z 60
_cell_length_a 9.248278
_cell_length_b 23.904457
_cell_length_c 13.594547
_cell_angle_alpha 90.000000
_cell_angle_beta 80.888444
_cell_angle_gamma 90.000000
_cell_volume 2967.492677
_symmetry_space_group_name_H-M "C 2/C"
_symmetry_group_IT_number 15
_symmetry_cell_setting 'monoclinic'
loop_
_space_group_symop_operation_xyz
x,y,z
-x,y,1/2-z
-x,-y,-z
x,-y,1/2+z
1/2+x,1/2+y,z
1/2-x,1/2+y,1/2-z
1/2-x,1/2-y,-z
1/2+x,1/2-y,1/2+z
loop_
_atom_site_type_symbol
_atom_site_label
_atom_site_fract_x
_atom_site_fract_y
_atom_site_fract_z
Si Si1 0.478581 0.774988 0.433353
Si Si2 0.500000 0.490611 0.250000
Si Si3 0.509004 0.103215 0.635250
Si Si4 0.597096 0.567800 0.414472
Si Si5 0.751069 0.470682 0.088992
Si Si6 0.725435 0.411639 0.526159
Si Si7 0.281645 0.793960 0.617646
Si Si8 0.133668 0.182061 0.314071
O O1 0.535450 0.832954 0.381909
O O2 0.442912 0.781486 0.554615
O O3 0.325950 0.757185 0.398749
O O4 0.602547 0.729066 0.399984
O O5 0.580899 0.528040 0.322616
O O6 0.624822 0.453457 0.181846
O O7 0.500000 0.089740 0.750000
O O8 0.399242 0.062205 0.591473
O O9 0.673720 0.091378 0.581169
O O10 0.705872 0.541637 0.481672
O O11 0.442048 0.576569 0.486741
O O12 0.665087 0.625550 0.368432
O O13 0.778602 0.537844 0.092336
O O14 0.724029 0.353095 0.582662
O O15 0.279214 0.800023 0.736605
O O16 0.000000 0.176978 0.250000
#
# Coordination Sequence:
#
# PCOD8129664 Si02
#       8
#     8   4   8   8   8   8   8   8
#     4   9  18  32  54  86 116 150 198 253 286 356
#     4  10  20  40  62  84 114 158 204 246 304 362
#     4  11  24  38  56  82 122 164 191 237 313 368
#     4  11  20  36  63  89 112 152 202 257 293 345
#     4  11  25  37  57  89 122 154 199 253 298 359
#     4  10  19  38  58  82 113 151 197 249 293 352
#     4   9  16  30  58  87 111 148 207 245 287 347
#     4  10  15  31  56  87 110 146 203 247 289 348
#
# _framework density 20.219090000000001
#
# number of rings (size 3 to 8) (size 9 to 14) (size 15 to 20)
#    0.000    1.867    3.333    4.000    3.733    0.000 
#    0.000    0.667    0.000    0.000    0.000    0.000 
#    0.000    0.000    0.000    0.000    0.000    0.000 
#
# Total GULP energy -371851.595864 kJ/mol
# GULP energy per Si atom -12395.053195 kJ/mol
# Density = 2.017307 g / cm^3
# Si number density = 20.219090 Si / 1000 Ang^3
#
#
#
# Elastic Constant Matrix: (Units=GPa)
#
#
# Indices 1 2 3 4 5 6 
#
# 1 40.7951 18.2673 41.0173 0.0000 -4.0761 0.0000
# 2 18.2673 90.6765 22.7961 0.0000 -0.0833 0.0000
# 3 41.0173 22.7961 130.8491 0.0000 -19.2631 0.0000
# 4 0.0000 0.0000 0.0000 27.6322 0.0000 -8.9388
# 5 -4.0761 -0.0833 -19.2631 0.0000 25.7456 0.0000
# 6 0.0000 0.0000 0.0000 -8.9388 0.0000 16.0186
#
#
#
# Elastic Compliance Matrix: (Units=1/GPa)
#
#
# Indices 1 2 3 4 5 6 
#
# 1 0.037869 -0.004761 -0.011419 0.000000 -0.002564 0.000000
# 2 -0.004761 0.012194 -0.000829 0.000000 -0.001334 0.000000
# 3 -0.011419 -0.000829 0.012474 0.000000 0.007522 0.000000
# 4 0.000000 0.000000 0.000000 0.044161 0.000000 0.024643
# 5 -0.002564 -0.001334 0.007522 0.000000 0.044060 0.000000
# 6 0.000000 0.000000 0.000000 0.024643 0.000000 0.076179
#
#
# Mechanical properties :
#
#
# Convention : Reuss Voigt Hill
#
# Bulk Modulus (GPa) = 35.06171 47.38689 41.22430
# Shear Modulus (GPa) = 18.48695 25.89529 22.19112
#
# Velocity S-wave (km/s) = 3.02707 3.58262 3.31650
# Velocity P-wave (km/s) = 5.44023 6.37190 5.92441
#
# Compressibility (1/GPa) = 0.02852114
#
# Stress axis : x y z
#
# Youngs Moduli (GPa) = 26.40649 82.00528 80.16884
#
# Poissons Ratio (x) = 0.39040 0.91545
# Poissons Ratio (y) = 0.12571 0.06642
# Poissons Ratio (z) = 0.30154 0.06795
#
# Static dielectric constant tensor:
#      x y z
#    x 3.296980 0.000000 -0.545610 
#    y 0.000000 3.823330 0.000000 
#    z -0.545610 0.000000 3.994780 
# 
# 
# High freq. dielectric constant tensor:
#      x y z
#    x 1.735720 0.000000 -0.041570 
#    y 0.000000 1.799020 0.000000 
#    z -0.041570 0.000000 1.798480 
# 
# From -- ./inp_files/137347.got.cif
#   From: 2010.06.25/outbox.cif.g09.slc.cpg/sg15_69_cif.got.tgz:137347.got - 2010.06.28 07:06:18.
