data_PCOD8129964
_publ_section_title
;
Structure prediction by ZEFSAII (Michael W. Deem and Ramdas Pophale) SiO2 
 PCOD8129964
Probable space group: C 2/C
;
_chemical_formula_sum "Si O2"
_cell_formula_units_Z 56
_cell_length_a 21.964985
_cell_length_b 11.254786
_cell_length_c 12.361228
_cell_angle_alpha 90.000000
_cell_angle_beta 105.313171
_cell_angle_gamma 90.000000
_cell_volume 2947.341989
_symmetry_space_group_name_H-M "C 2/C"
_symmetry_group_IT_number 15
_symmetry_cell_setting 'monoclinic'
loop_
_space_group_symop_operation_xyz
x,y,z
-x,y,1/2-z
-x,-y,-z
x,-y,1/2+z
1/2+x,1/2+y,z
1/2-x,1/2+y,1/2-z
1/2-x,1/2-y,-z
1/2+x,1/2-y,1/2+z
loop_
_atom_site_type_symbol
_atom_site_label
_atom_site_fract_x
_atom_site_fract_y
_atom_site_fract_z
Si Si1 0.825972 0.754341 0.417090
Si Si2 0.500000 0.264611 0.750000
Si Si3 0.126485 0.570850 0.228762
Si Si4 0.500000 0.813627 0.750000
Si Si5 0.901809 0.669931 0.850017
Si Si6 0.048509 0.162179 0.965137
Si Si7 0.806773 0.366456 0.134435
Si Si8 0.934958 0.906244 0.557610
O O1 0.838799 0.679115 0.314399
O O2 0.819723 0.666257 0.515999
O O3 0.765193 0.836789 0.370532
O O4 0.882647 0.845302 0.459586
O O5 0.471605 0.181532 0.830403
O O6 0.442134 0.345643 0.678363
O O7 0.063274 0.609482 0.262711
O O8 0.107258 0.470886 0.129522
O O9 0.174924 0.506183 0.336779
O O10 0.508363 0.730667 0.857518
O O11 0.849385 0.712026 0.737254
O O12 0.899149 0.749299 0.957463
O O13 0.082717 0.045226 0.932749
O O14 0.003366 0.111735 0.036705
#
# Coordination Sequence:
#
# PCOD8129964 Si02
#       8
#     8   4   8   4   8   8   8   8
#     4  11  20  42  64  84 121 163 209 242 294 368
#     4  10  16  34  58  82 122 144 208 240 310 362
#     4  10  23  37  60  91 123 152 200 256 304 355
#     4  12  22  38  58  98 124 158 194 260 320 352
#     4   9  20  36  55  88 112 158 192 255 297 359
#     4  10  22  34  56  88 123 149 200 242 310 367
#     4   9  23  39  60  89 113 165 209 239 296 361
#     4  10  19  36  57  86 116 160 191 249 298 361
#
# _framework density 19.000171000000002
#
# number of rings (size 3 to 8) (size 9 to 14) (size 15 to 20)
#    0.857    1.143    2.857    0.857    2.000    1.714 
#    0.000    2.857    0.000    2.571    0.000    0.000 
#    0.000    0.000    0.000    0.000    0.000    0.000 
#
# Total GULP energy -346901.894211 kJ/mol
# GULP energy per Si atom -12389.353365 kJ/mol
# Density = 1.895693 g / cm^3
# Si number density = 19.000171 Si / 1000 Ang^3
#
#
#
# Elastic Constant Matrix: (Units=GPa)
#
#
# Indices 1 2 3 4 5 6 
#
# 1 78.6902 34.7872 16.8269 0.0000 5.9506 0.0000
# 2 34.7872 101.4439 18.9704 0.0000 7.4242 0.0000
# 3 16.8269 18.9704 63.5853 0.0000 13.7671 0.0000
# 4 0.0000 0.0000 0.0000 27.5326 0.0000 11.6152
# 5 5.9506 7.4242 13.7671 0.0000 22.9541 0.0000
# 6 0.0000 0.0000 0.0000 11.6152 0.0000 25.9942
#
#
#
# Elastic Compliance Matrix: (Units=1/GPa)
#
#
# Indices 1 2 3 4 5 6 
#
# 1 0.015407 -0.004754 -0.002445 0.000000 -0.000990 0.000000
# 2 -0.004754 0.011967 -0.002001 0.000000 -0.001438 0.000000
# 3 -0.002445 -0.002001 0.019185 0.000000 -0.010225 0.000000
# 4 0.000000 0.000000 0.000000 0.044758 0.000000 -0.020000
# 5 -0.000990 -0.001438 -0.010225 0.000000 0.050420 0.000000
# 6 0.000000 0.000000 0.000000 -0.020000 0.000000 0.047407
#
#
# Mechanical properties :
#
#
# Convention : Reuss Voigt Hill
#
# Bulk Modulus (GPa) = 35.51068 42.76538 39.13803
# Shear Modulus (GPa) = 23.04894 26.83849 24.94371
#
# Velocity S-wave (km/s) = 3.48672 3.76245 3.62721
# Velocity P-wave (km/s) = 5.91100 6.43673 6.17946
#
# Compressibility (1/GPa) = 0.02816054
#
# Stress axis : x y z
#
# Youngs Moduli (GPa) = 64.90435 83.56096 52.12469
#
# Poissons Ratio (x) = 0.39724 0.12742
# Poissons Ratio (y) = 0.30855 0.10430
# Poissons Ratio (z) = 0.15866 0.16720
#
# Static dielectric constant tensor:
#      x y z
#    x 3.239400 0.000000 0.104210 
#    y 0.000000 3.564250 0.000000 
#    z 0.104210 0.000000 3.370390 
# 
# 
# High freq. dielectric constant tensor:
#      x y z
#    x 1.715990 0.000000 0.008080 
#    y 0.000000 1.738350 0.000000 
#    z 0.008080 0.000000 1.730100 
# 
# From -- ./inp_files/111152.got.cif
#   From: 2010.06.25/outbox.cif.g09.slc.cpg/sg15_56_cif.got.tgz:111152.got - 2010.06.28 07:06:18.
