data_PCOD8129989
_publ_section_title
;
Structure prediction by ZEFSAII (Michael W. Deem and Ramdas Pophale) SiO2 
 PCOD8129989
Probable space group: C 2/C
;
_chemical_formula_sum "Si O2"
_cell_formula_units_Z 56
_cell_length_a 10.148378
_cell_length_b 16.628668
_cell_length_c 22.078964
_cell_angle_alpha 90.000000
_cell_angle_beta 131.001682
_cell_angle_gamma 90.000000
_cell_volume 2811.910988
_symmetry_space_group_name_H-M "C 2/C"
_symmetry_group_IT_number 15
_symmetry_cell_setting 'monoclinic'
loop_
_space_group_symop_operation_xyz
x,y,z
-x,y,1/2-z
-x,-y,-z
x,-y,1/2+z
1/2+x,1/2+y,z
1/2-x,1/2+y,1/2-z
1/2-x,1/2-y,-z
1/2+x,1/2-y,1/2+z
loop_
_atom_site_type_symbol
_atom_site_label
_atom_site_fract_x
_atom_site_fract_y
_atom_site_fract_z
Si Si1 0.500000 0.004616 0.250000
Si Si2 0.060023 0.798596 0.835688
Si Si3 0.365052 0.105836 0.479165
Si Si4 0.492170 0.441195 0.441224
Si Si5 0.500000 0.467222 0.250000
Si Si6 0.253167 0.927735 0.425982
Si Si7 0.159802 0.623246 0.887057
Si Si8 0.338526 0.561909 0.301172
O O1 0.640984 0.065532 0.264661
O O2 0.436489 0.950181 0.175086
O O3 0.257260 0.826045 0.910567
O O4 0.047607 0.703896 0.844741
O O5 0.000000 0.815747 0.750000
O O6 0.924739 0.849862 0.836192
O O7 0.570439 0.123933 0.530072
O O8 0.320504 0.105803 0.536557
O O9 0.304870 0.020960 0.434853
O O10 0.500000 0.500000 0.500000
O O11 0.674519 0.405075 0.469631
O O12 0.353250 0.370659 0.414895
O O13 0.439355 0.495805 0.369504
O O14 0.612316 0.410476 0.329664
O O15 0.360427 0.527180 0.240089
#
# Coordination Sequence:
#
# PCOD8129989 Si02
#       8
#     4   8   8   8   4   8   8   8
#     4  10  22  37  60  95 114 158 208 266 306 365
#     4  12  22  40  60  87 127 169 203 253 316 372
#     4  11  21  36  60  93 116 163 210 255 300 372
#     4  10  18  36  56  88 117 151 195 260 304 362
#     4  10  16  35  58  87 118 152 194 262 302 353
#     4  10  20  34  62  92 121 151 211 261 303 351
#     4  11  22  37  62  88 124 156 205 255 319 375
#     4  10  19  34  60  81 118 156 208 246 304 363
#
# _framework density 19.915282999999999
#
# number of rings (size 3 to 8) (size 9 to 14) (size 15 to 20)
#    0.000    1.429    5.714    1.286    0.000    1.143 
#    0.000    0.714    3.143    0.857    0.000    0.000 
#    0.000    0.000    0.000    0.000    0.000    0.000 
#
# Total GULP energy -346978.067012 kJ/mol
# GULP energy per Si atom -12392.073822 kJ/mol
# Density = 1.986995 g / cm^3
# Si number density = 19.915283 Si / 1000 Ang^3
#
#
#
# Elastic Constant Matrix: (Units=GPa)
#
#
# Indices 1 2 3 4 5 6 
#
# 1 162.7084 42.8192 48.6521 0.0000 14.3614 0.0000
# 2 42.8192 72.0837 16.7096 0.0000 6.1941 0.0000
# 3 48.6521 16.7096 116.8424 0.0000 -1.5234 0.0000
# 4 0.0000 0.0000 0.0000 12.8164 0.0000 6.3645
# 5 14.3614 6.1941 -1.5234 0.0000 35.0448 0.0000
# 6 0.0000 0.0000 0.0000 6.3645 0.0000 23.0308
#
#
#
# Elastic Compliance Matrix: (Units=1/GPa)
#
#
# Indices 1 2 3 4 5 6 
#
# 1 0.008332 -0.004027 -0.002930 0.000000 -0.002830 0.000000
# 2 -0.004027 0.016540 -0.000706 0.000000 -0.001304 0.000000
# 3 -0.002930 -0.000706 0.009902 0.000000 0.001756 0.000000
# 4 0.000000 0.000000 0.000000 0.090435 0.000000 -0.024992
# 5 -0.002830 -0.001304 0.001756 0.000000 0.030001 0.000000
# 6 0.000000 0.000000 0.000000 -0.024992 0.000000 0.050326
#
#
# Mechanical properties :
#
#
# Convention : Reuss Voigt Hill
#
# Bulk Modulus (GPa) = 51.41637 63.11069 57.26353
# Shear Modulus (GPa) = 21.99288 30.40865 26.20076
#
# Velocity S-wave (km/s) = 3.32674 3.91180 3.63107
# Velocity P-wave (km/s) = 6.37415 7.22227 6.81143
#
# Compressibility (1/GPa) = 0.01944906
#
# Stress axis : x y z
#
# Youngs Moduli (GPa) = 120.02447 60.45813 100.98469
#
# Poissons Ratio (x) = 0.24345 0.29591
# Poissons Ratio (y) = 0.48331 0.07127
# Poissons Ratio (z) = 0.35170 0.04267
#
# Static dielectric constant tensor:
#      x y z
#    x 4.259870 0.000000 0.173110 
#    y 0.000000 3.245750 0.000000 
#    z 0.173110 0.000000 3.608540 
# 
# 
# High freq. dielectric constant tensor:
#      x y z
#    x 1.786510 0.000000 -0.003770 
#    y 0.000000 1.726810 0.000000 
#    z -0.003770 0.000000 1.789030 
# 
# From -- ./inp_files/232846.got.cif
#   From: 2010.06.25/outbox.cif.g09.slc.cpg/sg15_117_cif.got.tgz:232846.got - 2010.06.28 07:06:18.
