data_PCOD8129894
_publ_section_title
;
Structure prediction by ZEFSAII (Michael W. Deem and Ramdas Pophale) SiO2 
 PCOD8129894
Probable space group: C 2/C
;
_chemical_formula_sum "Si O2"
_cell_formula_units_Z 56
_cell_length_a 28.358668
_cell_length_b 15.578485
_cell_length_c 12.967970
_cell_angle_alpha 90.000000
_cell_angle_beta 34.920822
_cell_angle_gamma 90.000000
_cell_volume 3279.562935
_symmetry_space_group_name_H-M "C 2/C"
_symmetry_group_IT_number 15
_symmetry_cell_setting 'monoclinic'
loop_
_space_group_symop_operation_xyz
x,y,z
-x,y,1/2-z
-x,-y,-z
x,-y,1/2+z
1/2+x,1/2+y,z
1/2-x,1/2+y,1/2-z
1/2-x,1/2-y,-z
1/2+x,1/2-y,1/2+z
loop_
_atom_site_type_symbol
_atom_site_label
_atom_site_fract_x
_atom_site_fract_y
_atom_site_fract_z
Si Si1 0.185607 0.131629 0.397036
Si Si2 0.869821 0.202487 0.807082
Si Si3 0.541813 0.270605 0.066295
Si Si4 0.700864 0.026664 0.844498
Si Si5 0.074012 0.592789 0.925491
Si Si6 0.444560 0.023481 0.756091
Si Si7 0.750953 0.299179 0.151800
O O1 0.152540 0.123825 0.574773
O O2 0.107761 0.152321 0.461333
O O3 0.250413 0.212080 0.275864
O O4 0.227625 0.043572 0.290065
O O5 0.834146 0.189166 0.757475
O O6 0.968628 0.207383 0.617699
O O7 0.828555 0.288779 0.932524
O O8 0.500000 0.247283 0.250000
O O9 0.590937 0.188307 0.935989
O O10 0.647821 0.031123 0.833953
O O11 0.741754 0.118697 0.789105
O O12 0.643955 0.004282 0.043646
O O13 0.069187 0.593092 0.809917
O O14 0.988199 0.559779 0.127963
O O15 0.500000 0.062492 0.750000
#
# Coordination Sequence:
#
# PCOD8129894 Si02
#       7
#     8   8   8   8   8   8   8
#     4   9  19  30  48  78 102 133 170 206 259 304
#     4   8  17  30  53  76 101 126 177 221 256 288
#     4  10  16  32  53  76 101 134 172 217 255 303
#     4  11  19  31  50  74 112 132 165 213 255 316
#     4  10  18  31  54  74 103 133 164 207 275 312
#     4   9  20  30  45  80 101 134 160 207 265 326
#     4   9  17  31  49  77 100 130 173 217 258 288
#
# _framework density 17.075445999999999
#
# number of rings (size 3 to 8) (size 9 to 14) (size 15 to 20)
#    0.857    1.714    1.429    2.143    2.000    3.429 
#    0.000    1.429    0.000    0.000    0.000    9.000 
#    0.000    0.000    0.000    0.000    0.000    0.000 
#
# Total GULP energy -346921.337415 kJ/mol
# GULP energy per Si atom -12390.047765 kJ/mol
# Density = 1.703658 g / cm^3
# Si number density = 17.075446 Si / 1000 Ang^3
#
#
#
# Elastic Constant Matrix: (Units=GPa)
#
#
# Indices 1 2 3 4 5 6 
#
# 1 110.6792 27.5942 37.0354 0.0000 -14.7422 0.0000
# 2 27.5942 79.1506 26.9409 0.0000 -4.0272 0.0000
# 3 37.0354 26.9409 46.0292 0.0000 -14.0892 0.0000
# 4 0.0000 0.0000 0.0000 22.2562 0.0000 -4.7809
# 5 -14.7422 -4.0272 -14.0892 0.0000 30.1763 0.0000
# 6 0.0000 0.0000 0.0000 -4.7809 0.0000 13.9148
#
#
#
# Elastic Compliance Matrix: (Units=1/GPa)
#
#
# Indices 1 2 3 4 5 6 
#
# 1 0.012537 -0.001294 -0.008760 0.000000 0.001862 0.000000
# 2 -0.001294 0.016084 -0.009228 0.000000 -0.002794 0.000000
# 3 -0.008760 -0.009228 0.037905 0.000000 0.012187 0.000000
# 4 0.000000 0.000000 0.000000 0.048512 0.000000 0.016668
# 5 0.001862 -0.002794 0.012187 0.000000 0.039365 0.000000
# 6 0.000000 0.000000 0.000000 0.016668 0.000000 0.077593
#
#
# Mechanical properties :
#
#
# Convention : Reuss Voigt Hill
#
# Bulk Modulus (GPa) = 35.76293 46.55555 41.15924
# Shear Modulus (GPa) = 17.86474 22.88869 20.37671
#
# Velocity S-wave (km/s) = 3.23805 3.66518 3.45821
# Velocity P-wave (km/s) = 5.91350 6.72571 6.33264
#
# Compressibility (1/GPa) = 0.02796192
#
# Stress axis : x y z
#
# Youngs Moduli (GPa) = 79.76336 62.17285 26.38176
#
# Poissons Ratio (x) = 0.08048 0.23110
# Poissons Ratio (y) = 0.10325 0.24345
# Poissons Ratio (z) = 0.69871 0.57373
#
# Static dielectric constant tensor:
#      x y z
#    x 3.356050 0.000000 -0.213010 
#    y 0.000000 2.787960 0.000000 
#    z -0.213010 0.000000 2.883770 
# 
# 
# High freq. dielectric constant tensor:
#      x y z
#    x 1.669420 0.000000 -0.022520 
#    y 0.000000 1.622670 0.000000 
#    z -0.022520 0.000000 1.618010 
# 
# From -- ./inp_files/182649.got.cif
#   From: 2010.06.25/outbox.cif.g09.slc.cpg/sg15_92_cif.got.tgz:182649.got - 2010.06.28 07:06:18.
