data_PCOD8129952
_publ_section_title
;
Structure prediction by ZEFSAII (Michael W. Deem and Ramdas Pophale) SiO2 
 PCOD8129952
Probable space group: C 2/C
;
_chemical_formula_sum "Si O2"
_cell_formula_units_Z 44
_cell_length_a 9.634857
_cell_length_b 16.926595
_cell_length_c 31.677201
_cell_angle_alpha 90.000000
_cell_angle_beta 29.824833
_cell_angle_gamma 90.000000
_cell_volume 2569.353237
_symmetry_space_group_name_H-M "C 2/C"
_symmetry_group_IT_number 15
_symmetry_cell_setting 'monoclinic'
loop_
_space_group_symop_operation_xyz
x,y,z
-x,y,1/2-z
-x,-y,-z
x,-y,1/2+z
1/2+x,1/2+y,z
1/2-x,1/2+y,1/2-z
1/2-x,1/2-y,-z
1/2+x,1/2-y,1/2+z
loop_
_atom_site_type_symbol
_atom_site_label
_atom_site_fract_x
_atom_site_fract_y
_atom_site_fract_z
Si Si1 0.706993 0.228665 0.392193
Si Si2 0.000000 0.326312 0.250000
Si Si3 0.564764 0.393654 0.844717
Si Si4 0.926999 0.950568 0.117735
Si Si5 0.768765 0.853696 0.529077
Si Si6 0.131118 0.585304 0.155615
O O1 0.964319 0.272623 0.301270
O O2 0.818764 0.164115 0.395652
O O3 0.521961 0.188612 0.404527
O O4 0.518820 0.290673 0.467624
O O5 0.720782 0.379083 0.318005
O O6 0.447150 0.483553 0.883233
O O7 0.699289 0.363559 0.853679
O O8 0.802192 0.396943 0.745811
O O9 0.688333 0.992802 0.151554
O O10 0.171296 0.916777 0.023727
O O11 0.744015 0.897783 0.579688
#
# Coordination Sequence:
#
# PCOD8129952 Si02
#       6
#     8   4   8   8   8   8
#     4  10  21  31  49  82 103 136 165 216 255 305
#     4  10  16  34  54  74 100 140 174 206 250 316
#     4   9  18  33  52  76  98 132 175 212 254 295
#     4   9  17  33  54  73  96 137 177 208 246 308
#     4  10  20  32  50  76 108 132 172 204 261 304
#     4   9  17  33  54  74  93 135 174 214 239 310
#
# _framework density 17.124932000000001
#
# number of rings (size 3 to 8) (size 9 to 14) (size 15 to 20)
#    1.091    1.455    1.818    1.636    0.000    1.455 
#    0.000    0.000    0.000    0.000    9.455    0.000 
#    0.000    0.000    0.000    0.000    0.000    0.000 
#
# Total GULP energy -272606.397323 kJ/mol
# GULP energy per Si atom -12391.199878 kJ/mol
# Density = 1.708596 g / cm^3
# Si number density = 17.124932 Si / 1000 Ang^3
#
#
#
# Elastic Constant Matrix: (Units=GPa)
#
#
# Indices 1 2 3 4 5 6 
#
# 1 48.6067 41.6008 42.5303 -0.0458 9.9876 0.0223
# 2 41.6008 100.5334 45.4358 0.0548 5.7934 0.0065
# 3 42.5303 45.4358 95.6678 -0.0759 17.0687 -0.0002
# 4 -0.0458 0.0548 -0.0759 16.3231 0.1024 3.4403
# 5 9.9876 5.7934 17.0687 0.1024 21.3610 -0.0105
# 6 0.0223 0.0065 -0.0002 3.4403 -0.0105 29.3860
#
#
#
# Elastic Compliance Matrix: (Units=1/GPa)
#
#
# Indices 1 2 3 4 5 6 
#
# 1 0.042743 -0.011794 -0.012135 0.000158 -0.007090 -0.000051
# 2 -0.011794 0.015967 -0.002976 -0.000127 0.003562 0.000022
# 3 -0.012135 -0.002976 0.018783 0.000118 -0.008528 -0.000007
# 4 0.000158 -0.000127 0.000118 0.062817 -0.000439 -0.007354
# 5 -0.007090 0.003562 -0.008528 -0.000439 0.055980 0.000076
# 6 -0.000051 0.000022 -0.000007 -0.007354 0.000076 0.034891
#
#
# Mechanical properties :
#
#
# Convention : Reuss Voigt Hill
#
# Bulk Modulus (GPa) = 42.22581 55.99351 49.10966
# Shear Modulus (GPa) = 17.07162 21.09676 19.08419
#
# Velocity S-wave (km/s) = 3.16078 3.51370 3.34190
# Velocity P-wave (km/s) = 6.16699 7.01637 6.60535
#
# Compressibility (1/GPa) = 0.02368220
#
# Stress axis : x y z
#
# Youngs Moduli (GPa) = 23.39590 62.62944 53.24066
#
# Poissons Ratio (x) = 0.73864 0.64609
# Poissons Ratio (y) = 0.27593 0.15843
# Poissons Ratio (z) = 0.28392 0.18637
#
# Static dielectric constant tensor:
#      x y z
#    x 2.735890 -0.000010 0.084410 
#    y -0.000010 3.229620 -0.000010 
#    z 0.084410 -0.000010 3.138570 
# 
# 
# High freq. dielectric constant tensor:
#      x y z
#    x 1.616760 0.000000 0.012170 
#    y 0.000000 1.662240 0.000000 
#    z 0.012170 0.000000 1.668930 
# 
# From -- ./inp_files/143040.got.cif
#   From: 2010.06.25/outbox.cif.g09.slc.cpg/sg15_72_cif.got.tgz:143040.got - 2010.06.28 07:06:18.
