data_PCOD8129145
_publ_section_title
;
Structure prediction by ZEFSAII (Michael W. Deem and Ramdas Pophale) SiO2 
 PCOD8129145
Probable space group: P 21/C
;
_chemical_formula_sum "Si O2"
_cell_formula_units_Z 24
_cell_length_a 18.714529
_cell_length_b 10.188618
_cell_length_c 12.829007
_cell_angle_alpha 90.000000
_cell_angle_beta 151.982087
_cell_angle_gamma 90.000000
_cell_volume 1149.084005
_symmetry_space_group_name_H-M "P 21/C"
_symmetry_group_IT_number 14
_symmetry_cell_setting 'monoclinic'
loop_
_space_group_symop_operation_xyz
x,y,z
-x,1/2+y,1/2-z
-x,-y,-z
x,1/2-y,1/2+z
loop_
_atom_site_type_symbol
_atom_site_label
_atom_site_fract_x
_atom_site_fract_y
_atom_site_fract_z
Si Si1 0.065588 0.625490 0.641620
Si Si2 0.696283 0.204016 0.163898
Si Si3 0.785593 0.710073 0.831898
Si Si4 0.429260 0.112221 0.338810
Si Si5 0.754179 0.041373 0.430160
Si Si6 0.587921 0.950449 0.923855
O O1 0.209104 0.677517 0.762365
O O2 0.000000 0.500000 0.500000
O O3 0.949894 0.748447 0.499113
O O4 0.120276 0.575067 0.823567
O O5 0.769957 0.156453 0.366106
O O6 0.529203 0.256923 0.972548
O O7 0.680910 0.083269 0.064623
O O8 0.729313 0.844110 0.814353
O O9 0.798000 0.596319 0.933835
O O10 0.674458 0.668679 0.593530
O O11 0.406601 0.066644 0.191998
O O12 0.500000 0.000000 0.500000
O O13 0.584056 0.037090 0.256944
#
# Coordination Sequence:
#
# PCOD8129145 Si02
#       6
#     4   4   4   4   4   4
#     4  12  29  44  70 104 145 178 223 290 346 409
#     4  11  24  46  69 100 137 182 231 277 347 405
#     4  11  26  46  69 102 141 180 229 283 351 405
#     4  12  25  38  73 106 132 177 237 280 334 409
#     4  11  24  47  73  98 140 185 224 290 344 399
#     4  11  24  45  76 100 135 183 232 292 332 401
#
# _framework density 20.886202000000001
#
# number of rings (size 3 to 8) (size 9 to 14) (size 15 to 20)
#    0.000    0.667    5.000    2.000    9.333    4.000 
#    0.000    0.000    0.000    0.000    0.000    0.000 
#    0.000    0.000    0.000    0.000    0.000    0.000 
#
# Total GULP energy -297695.186494 kJ/mol
# GULP energy per Si atom -12403.966104 kJ/mol
# Density = 2.083866 g / cm^3
# Si number density = 20.886202 Si / 1000 Ang^3
#
#
#
# Elastic Constant Matrix: (Units=GPa)
#
#
# Indices 1 2 3 4 5 6 
#
# 1 85.1784 36.6063 43.4989 0.0000 -29.9185 0.0000
# 2 36.6063 81.2223 48.5584 0.0000 -23.8583 0.0000
# 3 43.4989 48.5584 123.3775 0.0000 -32.7897 0.0000
# 4 0.0000 0.0000 0.0000 34.0339 0.0000 10.4466
# 5 -29.9185 -23.8583 -32.7897 0.0000 51.5097 0.0000
# 6 0.0000 0.0000 0.0000 10.4466 0.0000 42.4507
#
#
#
# Elastic Compliance Matrix: (Units=1/GPa)
#
#
# Indices 1 2 3 4 5 6 
#
# 1 0.017159 -0.004278 -0.002701 0.000000 0.006266 0.000000
# 2 -0.004278 0.017928 -0.004816 0.000000 0.002753 0.000000
# 3 -0.002701 -0.004816 0.011968 0.000000 0.003819 0.000000
# 4 0.000000 0.000000 0.000000 0.031783 0.000000 -0.007821
# 5 0.006266 0.002753 0.003819 0.000000 0.026759 0.000000
# 6 0.000000 0.000000 0.000000 -0.007821 0.000000 0.025481
#
#
# Mechanical properties :
#
#
# Convention : Reuss Voigt Hill
#
# Bulk Modulus (GPa) = 42.61704 60.78948 51.70326
# Shear Modulus (GPa) = 30.77122 36.33986 33.55554
#
# Velocity S-wave (km/s) = 3.84250 4.17573 4.01258
# Velocity P-wave (km/s) = 6.33522 7.23998 6.80266
#
# Compressibility (1/GPa) = 0.02346479
#
# Stress axis : x y z
#
# Youngs Moduli (GPa) = 58.28006 55.77870 83.55777
#
# Poissons Ratio (x) = 0.23864 0.22565
# Poissons Ratio (y) = 0.24934 0.40241
# Poissons Ratio (z) = 0.15739 0.26863
#
# Static dielectric constant tensor:
#      x y z
#    x 3.817100 0.000000 -0.064500 
#    y 0.000000 3.822350 0.000000 
#    z -0.064500 0.000000 3.796060 
# 
# 
# High freq. dielectric constant tensor:
#      x y z
#    x 1.826320 0.000000 -0.006090 
#    y 0.000000 1.830090 0.000000 
#    z -0.006090 0.000000 1.821790 
# 
# From -- ./inp_files/28470.got.cif
#   From: 2010.03.12/outbox.cif.g09.slc.cpg/sg14_15_cif.got.tgz:28470.got - 2010.03.31 13:35:05.
