data_PCOD8129512
_publ_section_title
;
Structure prediction by ZEFSAII (Michael W. Deem and Ramdas Pophale) SiO2 
 PCOD8129512
Probable space group: P 21/C
;
_chemical_formula_sum "Si O2"
_cell_formula_units_Z 32
_cell_length_a 24.880041
_cell_length_b 14.131243
_cell_length_c 13.033034
_cell_angle_alpha 90.000000
_cell_angle_beta 154.830001
_cell_angle_gamma 90.000000
_cell_volume 1948.847847
_symmetry_space_group_name_H-M "P 21/C"
_symmetry_group_IT_number 14
_symmetry_cell_setting 'monoclinic'
loop_
_space_group_symop_operation_xyz
x,y,z
-x,1/2+y,1/2-z
-x,-y,-z
x,1/2-y,1/2+z
loop_
_atom_site_type_symbol
_atom_site_label
_atom_site_fract_x
_atom_site_fract_y
_atom_site_fract_z
Si Si1 0.885311 0.781042 0.849876
Si Si2 0.910510 0.017972 0.490730
Si Si3 0.286527 0.130858 0.831809
Si Si4 0.570859 0.892184 0.726313
Si Si5 0.694171 0.447879 0.305316
Si Si6 0.908867 0.135332 0.297994
Si Si7 0.870346 0.910549 0.005860
Si Si8 0.738018 0.750720 0.402340
O O1 0.803154 0.699380 0.759103
O O2 0.828068 0.804709 0.639181
O O3 0.876651 0.878247 0.898638
O O4 0.029142 0.740319 0.093961
O O5 0.873791 0.105220 0.353266
O O6 0.988901 0.057206 0.722205
O O7 0.783198 0.968404 0.311255
O O8 0.993103 0.941513 0.573443
O O9 0.322227 0.177016 0.784309
O O10 0.408295 0.112744 0.114585
O O11 0.421801 0.897193 0.450598
O O12 0.620130 0.798457 0.754378
O O13 0.645857 0.982716 0.811862
O O14 0.783092 0.367741 0.510184
O O15 0.769919 0.505136 0.348322
O O16 0.830630 0.823841 0.009099
#
# Coordination Sequence:
#
# PCOD8129512 Si02
#       8
#     4   4   4   4   4   4   4   4
#     4   9  16  26  43  65  89 115 142 180 226 264
#     4   9  14  24  42  65  86 111 143 179 220 258
#     4   9  16  26  44  65  87 115 150 183 216 258
#     4   9  16  27  44  65  87 114 151 188 216 250
#     4   9  16  26  45  67  86 111 148 187 221 253
#     4   9  14  24  44  64  87 110 140 184 221 255
#     4   9  16  26  43  65  90 111 142 185 220 267
#     4   9  16  27  43  64  88 116 148 182 218 260
#
# _framework density 16.419958999999999
#
# number of rings (size 3 to 8) (size 9 to 14) (size 15 to 20)
#    0.000    3.000    2.500    0.000    0.000    0.000 
#    0.000    0.625    2.750    2.250    0.000    0.000 
#    0.000    0.000    0.000    0.000    0.000    0.000 
#
# Total GULP energy -396613.745106 kJ/mol
# GULP energy per Si atom -12394.179535 kJ/mol
# Density = 1.638259 g / cm^3
# Si number density = 16.419959 Si / 1000 Ang^3
#
#
#
# Elastic Constant Matrix: (Units=GPa)
#
#
# Indices 1 2 3 4 5 6 
#
# 1 61.5440 33.4917 55.9137 0.0000 -20.6884 0.0000
# 2 33.4917 43.4395 51.1202 0.0000 -9.3620 0.0000
# 3 55.9137 51.1202 150.2399 0.0000 -19.7173 0.0000
# 4 0.0000 0.0000 0.0000 20.4406 0.0000 -2.2393
# 5 -20.6884 -9.3620 -19.7173 0.0000 23.9300 0.0000
# 6 0.0000 0.0000 0.0000 -2.2393 0.0000 20.7852
#
#
#
# Elastic Compliance Matrix: (Units=1/GPa)
#
#
# Indices 1 2 3 4 5 6 
#
# 1 0.038453 -0.019151 -0.004950 0.000000 0.021673 0.000000
# 2 -0.019151 0.048424 -0.010132 0.000000 -0.005960 0.000000
# 3 -0.004950 -0.010132 0.012181 0.000000 0.001793 0.000000
# 4 0.000000 0.000000 0.000000 0.049506 0.000000 0.005334
# 5 0.021673 -0.005960 0.001793 0.000000 0.059672 0.000000
# 6 0.000000 0.000000 0.000000 0.005334 0.000000 0.048686
#
#
# Mechanical properties :
#
#
# Convention : Reuss Voigt Hill
#
# Bulk Modulus (GPa) = 32.68705 59.58606 46.13655
# Shear Modulus (GPa) = 14.89934 20.67769 17.78852
#
# Velocity S-wave (km/s) = 3.01556 3.55251 3.29499
# Velocity P-wave (km/s) = 5.66347 7.29347 6.52954
#
# Compressibility (1/GPa) = 0.03059316
#
# Stress axis : x y z
#
# Youngs Moduli (GPa) = 26.00567 20.65082 82.09461
#
# Poissons Ratio (x) = 0.39548 0.40640
# Poissons Ratio (y) = 0.49802 0.83176
# Poissons Ratio (z) = 0.12874 0.20923
#
# Static dielectric constant tensor:
#      x y z
#    x 2.916370 0.000000 -0.185200 
#    y 0.000000 2.932930 0.000000 
#    z -0.185200 0.000000 3.148800 
# 
# 
# High freq. dielectric constant tensor:
#      x y z
#    x 1.598470 0.000000 -0.020440 
#    y 0.000000 1.598250 0.000000 
#    z -0.020440 0.000000 1.633080 
# 
# From -- ./inp_files/36520.got.cif
#   From: 2010.03.12/outbox.cif.g09.slc.cpg/sg14_19_cif.got.tgz:36520.got - 2010.03.31 13:35:05.
