data_PCOD8129723
_publ_section_title
;
Structure prediction by ZEFSAII (Michael W. Deem and Ramdas Pophale) SiO2 
 PCOD8129723
Probable space group: C 2/C
;
_chemical_formula_sum "Si O2"
_cell_formula_units_Z 48
_cell_length_a 7.649150
_cell_length_b 30.222603
_cell_length_c 13.581106
_cell_angle_alpha 90.000000
_cell_angle_beta 137.273631
_cell_angle_gamma 90.000000
_cell_volume 2130.240526
_symmetry_space_group_name_H-M "C 2/C"
_symmetry_group_IT_number 15
_symmetry_cell_setting 'monoclinic'
loop_
_space_group_symop_operation_xyz
x,y,z
-x,y,1/2-z
-x,-y,-z
x,-y,1/2+z
1/2+x,1/2+y,z
1/2-x,1/2+y,1/2-z
1/2-x,1/2-y,-z
1/2+x,1/2-y,1/2+z
loop_
_atom_site_type_symbol
_atom_site_label
_atom_site_fract_x
_atom_site_fract_y
_atom_site_fract_z
Si Si1 0.239802 0.801715 0.272556
Si Si2 0.907973 0.231045 0.475565
Si Si3 0.536194 0.085653 0.111454
Si Si4 0.266143 0.100665 0.804014
Si Si5 0.000000 0.029181 0.250000
Si Si6 0.448395 0.533767 0.563427
Si Si7 0.500000 0.160437 0.250000
O O1 0.451447 0.768804 0.409655
O O2 0.347009 0.851114 0.297308
O O3 0.000000 0.801404 0.250000
O O4 0.175348 0.784697 0.135290
O O5 0.750000 0.250000 0.500000
O O6 0.754949 0.189649 0.367114
O O7 0.557988 0.132704 0.174521
O O8 0.800867 0.058531 0.231051
O O9 0.486251 0.087660 0.973129
O O10 0.295800 0.063251 0.068338
O O11 0.000000 0.106053 0.750000
O O12 0.205818 0.063920 0.693897
O O13 0.145441 0.995718 0.383297
O O14 0.500000 0.500000 0.500000
#
# Coordination Sequence:
#
# PCOD8129723 Si02
#       7
#     8   8   8   8   4   8   4
#     4   9  16  26  46  76 121 149 181 237 311 361
#     4  10  16  27  47  85 125 147 187 247 312 372
#     4  11  23  39  58  87 122 164 203 261 312 370
#     4   9  18  35  56  81 122 157 189 254 312 361
#     4  12  24  42  57  84 124 164 211 260 310 378
#     4  11  22  40  65  87 120 161 207 258 321 375
#     4  12  20  32  59  88 120 156 209 252 318 378
#
# _framework density 22.532667
#
# number of rings (size 3 to 8) (size 9 to 14) (size 15 to 20)
#    0.000    1.667    5.000    5.500    0.000    0.000 
#    0.000    0.000    0.000    0.000    0.000    4.667 
#    0.000    0.000    0.000    0.000    0.000    0.000 
#
# Total GULP energy -297383.654499 kJ/mol
# GULP energy per Si atom -12390.985604 kJ/mol
# Density = 2.248138 g / cm^3
# Si number density = 22.532667 Si / 1000 Ang^3
#
#
#
# Elastic Constant Matrix: (Units=GPa)
#
#
# Indices 1 2 3 4 5 6 
#
# 1 24.5096 27.8550 19.0671 0.0000 -11.8003 0.0000
# 2 27.8550 177.0843 68.3496 0.0000 -20.4644 0.0000
# 3 19.0671 68.3496 116.6081 0.0000 -18.3819 0.0000
# 4 0.0000 0.0000 0.0000 51.5314 0.0000 -18.4459
# 5 -11.8003 -20.4644 -18.3819 0.0000 24.1460 0.0000
# 6 0.0000 0.0000 0.0000 -18.4459 0.0000 16.6615
#
#
#
# Elastic Compliance Matrix: (Units=1/GPa)
#
#
# Indices 1 2 3 4 5 6 
#
# 1 0.060454 -0.005776 -0.002971 0.000000 0.022388 0.000000
# 2 -0.005776 0.008093 -0.003594 0.000000 0.001300 0.000000
# 3 -0.002971 -0.003594 0.011886 0.000000 0.004550 0.000000
# 4 0.000000 0.000000 0.000000 0.032144 0.000000 0.035587
# 5 0.022388 0.001300 0.004550 0.000000 0.056922 0.000000
# 6 0.000000 0.000000 0.000000 0.035587 0.000000 0.099416
#
#
# Mechanical properties :
#
#
# Convention : Reuss Voigt Hill
#
# Bulk Modulus (GPa) = 17.93673 60.97170 39.45422
# Shear Modulus (GPa) = 16.01643 31.99647 24.00645
#
# Velocity S-wave (km/s) = 2.66899 3.77238 3.26760
# Velocity P-wave (km/s) = 4.18039 6.78914 5.63774
#
# Compressibility (1/GPa) = 0.05575151
#
# Stress axis : x y z
#
# Youngs Moduli (GPa) = 16.54154 123.56192 84.13541
#
# Poissons Ratio (x) = 0.71363 0.24993
# Poissons Ratio (y) = 0.09554 0.30242
# Poissons Ratio (z) = 0.04914 0.44413
#
# Static dielectric constant tensor:
#      x y z
#    x 3.005060 0.000000 -0.140360 
#    y 0.000000 4.748670 0.000000 
#    z -0.140360 0.000000 4.793200 
# 
# 
# High freq. dielectric constant tensor:
#      x y z
#    x 1.818980 0.000000 -0.025600 
#    y 0.000000 1.912270 0.000000 
#    z -0.025600 0.000000 1.899870 
# 
# From -- ./inp_files/139115.got.cif
#   From: 2010.06.25/outbox.cif.g09.slc.cpg/sg15_70_cif.got.tgz:139115.got - 2010.06.28 07:06:18.
