data_PCOD8129701
_publ_section_title
;
Structure prediction by ZEFSAII (Michael W. Deem and Ramdas Pophale) SiO2 
 PCOD8129701
Probable space group: C 2/C
;
_chemical_formula_sum "Si O2"
_cell_formula_units_Z 44
_cell_length_a 13.731366
_cell_length_b 23.216188
_cell_length_c 8.021030
_cell_angle_alpha 90.000000
_cell_angle_beta 48.768952
_cell_angle_gamma 90.000000
_cell_volume 1923.029963
_symmetry_space_group_name_H-M "C 2/C"
_symmetry_group_IT_number 15
_symmetry_cell_setting 'monoclinic'
loop_
_space_group_symop_operation_xyz
x,y,z
-x,y,1/2-z
-x,-y,-z
x,-y,1/2+z
1/2+x,1/2+y,z
1/2-x,1/2+y,1/2-z
1/2-x,1/2-y,-z
1/2+x,1/2-y,1/2+z
loop_
_atom_site_type_symbol
_atom_site_label
_atom_site_fract_x
_atom_site_fract_y
_atom_site_fract_z
Si Si1 0.729309 0.146504 0.042548
Si Si2 0.500000 0.689852 0.750000
Si Si3 0.138377 0.530735 0.012584
Si Si4 0.293604 0.196462 0.797530
Si Si5 0.140868 0.581834 0.648372
Si Si6 0.575170 0.774840 0.951760
O O1 0.712795 0.078890 0.034220
O O2 0.631631 0.168007 0.298085
O O3 0.876134 0.152170 0.942191
O O4 0.698526 0.183280 0.909893
O O5 0.547440 0.726163 0.850348
O O6 0.204090 0.466505 0.953723
O O7 0.000000 0.520805 0.250000
O O8 0.124585 0.548991 0.840264
O O9 0.264518 0.137686 0.935827
O O10 0.438394 0.213371 0.696122
O O11 0.186472 0.247131 0.949371
O O12 0.000000 0.604713 0.750000
#
# Coordination Sequence:
#
# PCOD8129701 Si02
#       6
#     8   4   8   8   8   8
#     4  10  17  27  48  77 109 136 178 221 270 304
#     4  10  16  26  44  74 114 140 170 220 262 318
#     4  10  19  32  54  79 105 135 179 227 271 311
#     4  10  19  29  51  76 109 137 177 217 268 314
#     4  10  20  35  53  80 106 138 179 228 269 314
#     4  11  16  30  47  79 109 143 174 219 263 317
#
# _framework density 22.880558000000001
#
# number of rings (size 3 to 8) (size 9 to 14) (size 15 to 20)
#    0.000    1.818    3.636    5.455    0.000    0.000 
#    0.000    0.909    0.000    9.818    0.000    0.000 
#    0.000    0.000    0.000    0.000    0.000    0.000 
#
# Total GULP energy -272655.879716 kJ/mol
# GULP energy per Si atom -12393.449078 kJ/mol
# Density = 2.282848 g / cm^3
# Si number density = 22.880558 Si / 1000 Ang^3
#
#
#
# Elastic Constant Matrix: (Units=GPa)
#
#
# Indices 1 2 3 4 5 6 
#
# 1 128.8507 44.3018 22.6529 0.0000 -13.4808 0.0000
# 2 44.3018 122.0032 23.1474 0.0000 -14.6311 0.0000
# 3 22.6529 23.1474 59.9461 0.0000 -19.5885 0.0000
# 4 0.0000 0.0000 0.0000 13.4518 0.0000 -8.2647
# 5 -13.4808 -14.6311 -19.5885 0.0000 33.7535 0.0000
# 6 0.0000 0.0000 0.0000 -8.2647 0.0000 57.4565
#
#
#
# Elastic Compliance Matrix: (Units=1/GPa)
#
#
# Indices 1 2 3 4 5 6 
#
# 1 0.009212 -0.002814 -0.001963 0.000000 0.001320 0.000000
# 2 -0.002814 0.009849 -0.002113 0.000000 0.001919 0.000000
# 3 -0.001963 -0.002113 0.021822 0.000000 0.010964 0.000000
# 4 0.000000 0.000000 0.000000 0.081546 0.000000 0.011730
# 5 0.001320 0.001919 0.010964 0.000000 0.037349 0.000000
# 6 0.000000 0.000000 0.000000 0.011730 0.000000 0.019092
#
#
# Mechanical properties :
#
#
# Convention : Reuss Voigt Hill
#
# Bulk Modulus (GPa) = 36.89545 54.55603 45.72574
# Shear Modulus (GPa) = 24.79128 35.64558 30.21843
#
# Velocity S-wave (km/s) = 3.29524 3.95130 3.63809
# Velocity P-wave (km/s) = 5.53520 6.68675 6.13804
#
# Compressibility (1/GPa) = 0.02710361
#
# Stress axis : x y z
#
# Youngs Moduli (GPa) = 108.55732 101.52897 45.82529
#
# Poissons Ratio (x) = 0.28573 0.08995
# Poissons Ratio (y) = 0.30551 0.09681
# Poissons Ratio (z) = 0.21310 0.21449
#
# Static dielectric constant tensor:
#      x y z
#    x 4.739880 0.000000 -0.009660 
#    y 0.000000 4.726540 0.000000 
#    z -0.009660 0.000000 4.518150 
# 
# 
# High freq. dielectric constant tensor:
#      x y z
#    x 1.918070 0.000000 0.034580 
#    y 0.000000 1.914910 0.000000 
#    z 0.034580 0.000000 1.873310 
# 
# From -- ./inp_files/32431.got.cif
#   From: 2010.06.25/outbox.cif.g09.slc.cpg/sg15_17_cif.got.tgz:32431.got - 2010.06.28 07:06:18.
