data_PCOD8129009
_publ_section_title
;
Structure prediction by ZEFSAII (Michael W. Deem and Ramdas Pophale) SiO2 
 PCOD8129009
Probable space group: P 21/C
;
_chemical_formula_sum "Si O2"
_cell_formula_units_Z 24
_cell_length_a 11.549375
_cell_length_b 8.564574
_cell_length_c 10.315906
_cell_angle_alpha 90.000000
_cell_angle_beta 86.646645
_cell_angle_gamma 90.000000
_cell_volume 1018.655606
_symmetry_space_group_name_H-M "P 21/C"
_symmetry_group_IT_number 14
_symmetry_cell_setting 'monoclinic'
loop_
_space_group_symop_operation_xyz
x,y,z
-x,1/2+y,1/2-z
-x,-y,-z
x,1/2-y,1/2+z
loop_
_atom_site_type_symbol
_atom_site_label
_atom_site_fract_x
_atom_site_fract_y
_atom_site_fract_z
Si Si1 0.146511 0.215262 0.720502
Si Si2 0.391094 0.279705 0.340348
Si Si3 0.609626 0.432549 0.205452
Si Si4 0.191850 0.739046 0.410510
Si Si5 0.070115 0.869906 0.665796
Si Si6 0.728985 0.551928 0.449675
O O1 0.267051 0.185963 0.784666
O O2 0.174979 0.317203 0.590724
O O3 0.064558 0.321387 0.817421
O O4 0.084930 0.054245 0.686110
O O5 0.489063 0.348978 0.241708
O O6 0.384903 0.365681 0.479528
O O7 0.415957 0.097274 0.361824
O O8 0.684518 0.457032 0.329522
O O9 0.683720 0.324540 0.104179
O O10 0.113073 0.830418 0.518729
O O11 0.134541 0.732163 0.272260
O O12 0.208727 0.562255 0.454432
#
# Coordination Sequence:
#
# PCOD8129009 Si02
#       6
#     4   4   4   4   4   4
#     4  11  27  45  73 109 142 197 238 301 364 432
#     4  11  24  45  73 107 149 189 242 300 365 429
#     4  11  25  45  73 110 145 193 243 302 361 438
#     4  12  25  47  77 107 145 196 241 300 370 428
#     4  12  27  47  75 105 151 189 248 299 362 434
#     4  11  23  47  72 109 146 189 246 295 366 435
#
# _framework density 23.560464
#
# number of rings (size 3 to 8) (size 9 to 14) (size 15 to 20)
#    0.000    0.667    3.333    3.500    4.667    3.333 
#    0.000    5.000    0.000    0.000    0.000    0.000 
#    0.000    0.000    0.000    0.000    0.000    0.000 
#
# Total GULP energy -297694.982872 kJ/mol
# GULP energy per Si atom -12403.957620 kJ/mol
# Density = 2.350684 g / cm^3
# Si number density = 23.560464 Si / 1000 Ang^3
#
#
#
# Elastic Constant Matrix: (Units=GPa)
#
#
# Indices 1 2 3 4 5 6 
#
# 1 109.6768 41.4581 33.0275 0.0000 -32.8115 0.0000
# 2 41.4581 134.2246 37.3266 0.0000 -18.4247 0.0000
# 3 33.0275 37.3266 101.7367 0.0000 -32.1688 0.0000
# 4 0.0000 0.0000 0.0000 53.5058 0.0000 -12.4780
# 5 -32.8115 -18.4247 -32.1688 0.0000 47.7936 0.0000
# 6 0.0000 0.0000 0.0000 -12.4780 0.0000 39.1229
#
#
#
# Elastic Compliance Matrix: (Units=1/GPa)
#
#
# Indices 1 2 3 4 5 6 
#
# 1 0.012461 -0.002652 -0.000877 0.000000 0.006942 0.000000
# 2 -0.002652 0.008942 -0.002421 0.000000 -0.000003 0.000000
# 3 -0.000877 -0.002421 0.013360 0.000000 0.007457 0.000000
# 4 0.000000 0.000000 0.000000 0.020191 0.000000 0.006440
# 5 0.006942 -0.000003 0.007457 0.000000 0.030707 0.000000
# 6 0.000000 0.000000 0.000000 0.006440 0.000000 0.027614
#
#
# Mechanical properties :
#
#
# Convention : Reuss Voigt Hill
#
# Bulk Modulus (GPa) = 43.73827 63.25139 53.49483
# Shear Modulus (GPa) = 37.65125 43.67284 40.66205
#
# Velocity S-wave (km/s) = 4.00192 4.31007 4.15885
# Velocity P-wave (km/s) = 6.32127 7.18844 6.76875
#
# Compressibility (1/GPa) = 0.02286327
#
# Stress axis : x y z
#
# Youngs Moduli (GPa) = 80.24930 111.83006 74.84974
#
# Poissons Ratio (x) = 0.29657 0.06567
# Poissons Ratio (y) = 0.21282 0.18119
# Poissons Ratio (z) = 0.07040 0.27071
#
# Static dielectric constant tensor:
#      x y z
#    x 4.038990 0.000000 -0.289170 
#    y 0.000000 4.441650 0.000000 
#    z -0.289170 0.000000 4.471160 
# 
# 
# High freq. dielectric constant tensor:
#      x y z
#    x 1.926010 0.000000 -0.017040 
#    y 0.000000 1.952820 0.000000 
#    z -0.017040 0.000000 1.941420 
# 
# From -- ./inp_files/28050.got.cif
#   From: 2010.03.12/outbox.cif.g09.slc.cpg/sg14_15_cif.got.tgz:28050.got - 2010.03.31 13:35:05.
