data_PCOD8129183
_publ_section_title
;
Structure prediction by ZEFSAII (Michael W. Deem and Ramdas Pophale) SiO2 
 PCOD8129183
Probable space group: P 21/C
;
_chemical_formula_sum "Si O2"
_cell_formula_units_Z 20
_cell_length_a 17.495801
_cell_length_b 4.934015
_cell_length_c 28.812213
_cell_angle_alpha 90.000000
_cell_angle_beta 21.179979
_cell_angle_gamma 90.000000
_cell_volume 898.622707
_symmetry_space_group_name_H-M "P 21/C"
_symmetry_group_IT_number 14
_symmetry_cell_setting 'monoclinic'
loop_
_space_group_symop_operation_xyz
x,y,z
-x,1/2+y,1/2-z
-x,-y,-z
x,1/2-y,1/2+z
loop_
_atom_site_type_symbol
_atom_site_label
_atom_site_fract_x
_atom_site_fract_y
_atom_site_fract_z
Si Si1 0.055971 0.709486 0.927767
Si Si2 0.777206 0.420553 0.262282
Si Si3 0.514520 0.935720 0.437621
Si Si4 0.642990 0.500629 0.678411
Si Si5 0.053746 0.028727 0.691388
O O1 0.115941 0.537701 0.848335
O O2 0.257913 0.894323 0.828878
O O3 0.000000 0.500000 0.000000
O O4 0.849181 0.894537 0.032853
O O5 0.625683 0.165085 0.344783
O O6 0.954655 0.363352 0.200102
O O7 0.640233 0.667300 0.356701
O O8 0.278965 0.897941 0.551956
O O9 0.500000 0.000000 0.500000
O O10 0.478624 0.751857 0.778696
O O11 0.085132 0.289162 0.706990
#
# Coordination Sequence:
#
# PCOD8129183 Si02
#       5
#     4   4   4   4   4
#     4  11  27  49  75 107 154 191 248 312 360 445
#     4  12  27  45  72 105 140 191 236 288 370 425
#     4  12  24  44  73 100 143 183 235 297 355 426
#     4  11  24  47  78 101 145 197 244 306 376 425
#     4  12  23  44  71  99 140 185 229 292 354 420
#
# _framework density 22.256284000000001
#
# number of rings (size 3 to 8) (size 9 to 14) (size 15 to 20)
#    0.000    0.400    6.000    1.800    5.600    1.600 
#    3.600    0.000    0.000    0.000    0.000    0.000 
#    0.000    0.000    0.000    0.000    0.000    0.000 
#
# Total GULP energy -247975.646411 kJ/mol
# GULP energy per Si atom -12398.782321 kJ/mol
# Density = 2.220563 g / cm^3
# Si number density = 22.256284 Si / 1000 Ang^3
#
#
#
# Elastic Constant Matrix: (Units=GPa)
#
#
# Indices 1 2 3 4 5 6 
#
# 1 103.7412 39.3289 77.8093 0.0000 -2.5848 0.0000
# 2 39.3289 143.0515 53.3353 0.0000 10.8226 0.0000
# 3 77.8093 53.3353 125.4858 0.0000 3.7592 0.0000
# 4 0.0000 0.0000 0.0000 55.4146 0.0000 -7.9845
# 5 -2.5848 10.8226 3.7592 0.0000 59.6592 0.0000
# 6 0.0000 0.0000 0.0000 -7.9845 0.0000 36.0649
#
#
#
# Elastic Compliance Matrix: (Units=1/GPa)
#
#
# Indices 1 2 3 4 5 6 
#
# 1 0.018290 -0.001079 -0.010933 0.000000 0.001677 0.000000
# 2 -0.001079 0.008470 -0.002889 0.000000 -0.001401 0.000000
# 3 -0.010933 -0.002889 0.016005 0.000000 -0.000958 0.000000
# 4 0.000000 0.000000 0.000000 0.018640 0.000000 0.004127
# 5 0.001677 -0.001401 -0.000958 0.000000 0.017149 0.000000
# 6 0.000000 0.000000 0.000000 0.004127 0.000000 0.028641
#
#
# Mechanical properties :
#
#
# Convention : Reuss Voigt Hill
#
# Bulk Modulus (GPa) = 77.14033 79.24730 78.19381
# Shear Modulus (GPa) = 35.38105 43.68141 39.53123
#
# Velocity S-wave (km/s) = 3.99144 4.43499 4.21905
# Velocity P-wave (km/s) = 7.48181 7.86826 7.67747
#
# Compressibility (1/GPa) = 0.01296339
#
# Stress axis : x y z
#
# Youngs Moduli (GPa) = 54.67444 118.05894 62.48236
#
# Poissons Ratio (x) = 0.12742 0.68309
# Poissons Ratio (y) = 0.05901 0.18051
# Poissons Ratio (z) = 0.59773 0.34107
#
# Static dielectric constant tensor:
#      x y z
#    x 4.034740 0.000000 -0.438890 
#    y 0.000000 4.216810 0.000000 
#    z -0.438890 0.000000 4.289040 
# 
# 
# High freq. dielectric constant tensor:
#      x y z
#    x 1.865420 0.000000 -0.025910 
#    y 0.000000 1.894670 0.000000 
#    z -0.025910 0.000000 1.876490 
# 
# From -- ./inp_files/77691.got.cif
#   From: 2010.03.12/outbox.cif.g09.slc.cpg/sg14_39_cif.got.tgz:77691.got - 2010.03.31 13:35:05.
