data_PCOD8129260
_publ_section_title
;
Structure prediction by ZEFSAII (Michael W. Deem and Ramdas Pophale) SiO2 
 PCOD8129260
Probable space group: P 21/C
;
_chemical_formula_sum "Si O2"
_cell_formula_units_Z 24
_cell_length_a 9.344581
_cell_length_b 13.691619
_cell_length_c 17.184944
_cell_angle_alpha 90.000000
_cell_angle_beta 27.979779
_cell_angle_gamma 90.000000
_cell_volume 1031.534278
_symmetry_space_group_name_H-M "P 21/C"
_symmetry_group_IT_number 14
_symmetry_cell_setting 'monoclinic'
loop_
_space_group_symop_operation_xyz
x,y,z
-x,1/2+y,1/2-z
-x,-y,-z
x,1/2-y,1/2+z
loop_
_atom_site_type_symbol
_atom_site_label
_atom_site_fract_x
_atom_site_fract_y
_atom_site_fract_z
Si Si1 0.230034 0.753746 0.974329
Si Si2 0.762872 0.740283 0.319554
Si Si3 0.179174 0.912876 0.374473
Si Si4 0.753085 0.600951 0.941823
Si Si5 0.227898 0.976306 0.958726
Si Si6 0.922580 0.065365 0.253730
O O1 0.887541 0.740836 0.170587
O O2 0.407974 0.739566 0.971321
O O3 0.290171 0.672381 0.879628
O O4 0.308279 0.862520 0.907576
O O5 0.880531 0.829895 0.313371
O O6 0.825752 0.642916 0.338947
O O7 0.474705 0.956097 0.189923
O O8 0.940569 0.867723 0.427950
O O9 0.000000 0.000000 0.500000
O O10 0.830195 0.491536 0.877044
O O11 0.388834 0.612456 0.132227
O O12 0.073237 0.996180 0.116412
O O13 0.000000 0.000000 0.000000
#
# Coordination Sequence:
#
# PCOD8129260 Si02
#       6
#     4   4   4   4   4   4
#     4  12  26  49  72 107 149 195 246 305 377 442
#     4  12  25  46  76 106 144 193 241 308 373 442
#     4  12  28  48  75 109 152 201 246 311 372 442
#     4  11  25  47  75 109 145 190 245 304 374 446
#     4  12  27  46  75 108 150 198 250 306 373 448
#     4  11  25  46  77 107 148 191 248 308 371 449
#
# _framework density 23.266313
#
# number of rings (size 3 to 8) (size 9 to 14) (size 15 to 20)
#    0.000    0.333    3.333    5.000    7.000    1.333 
#    0.000    0.000    0.000    0.000    0.000    0.000 
#    0.000    0.000    0.000    0.000    0.000    0.000 
#
# Total GULP energy -297588.580248 kJ/mol
# GULP energy per Si atom -12399.524177 kJ/mol
# Density = 2.321336 g / cm^3
# Si number density = 23.266313 Si / 1000 Ang^3
#
#
#
# Elastic Constant Matrix: (Units=GPa)
#
#
# Indices 1 2 3 4 5 6 
#
# 1 156.8657 59.2755 29.8562 0.0000 -19.9016 0.0000
# 2 59.2755 139.9464 25.9110 0.0000 -0.9730 0.0000
# 3 29.8562 25.9110 85.6772 0.0000 6.7348 0.0000
# 4 0.0000 0.0000 0.0000 35.2885 0.0000 3.2125
# 5 -19.9016 -0.9730 6.7348 0.0000 37.1669 0.0000
# 6 0.0000 0.0000 0.0000 3.2125 0.0000 48.6280
#
#
#
# Elastic Compliance Matrix: (Units=1/GPa)
#
#
# Indices 1 2 3 4 5 6 
#
# 1 0.008683 -0.003188 -0.002455 0.000000 0.005011 0.000000
# 2 -0.003188 0.008754 -0.001441 0.000000 -0.001217 0.000000
# 3 -0.002455 -0.001441 0.013258 0.000000 -0.003755 0.000000
# 4 0.000000 0.000000 0.000000 0.028509 0.000000 -0.001883
# 5 0.005011 -0.001217 -0.003755 0.000000 0.030237 0.000000
# 6 0.000000 0.000000 0.000000 -0.001883 0.000000 0.020689
#
#
# Mechanical properties :
#
#
# Convention : Reuss Voigt Hill
#
# Bulk Modulus (GPa) = 60.50926 68.06385 64.28656
# Shear Modulus (GPa) = 38.51843 42.04647 40.28245
#
# Velocity S-wave (km/s) = 4.07325 4.25571 4.16548
# Velocity P-wave (km/s) = 6.94158 7.31203 7.12921
#
# Compressibility (1/GPa) = 0.01652639
#
# Stress axis : x y z
#
# Youngs Moduli (GPa) = 115.17230 114.22980 75.42463
#
# Poissons Ratio (x) = 0.36418 0.18519
# Poissons Ratio (y) = 0.36719 0.10868
# Poissons Ratio (z) = 0.28279 0.16459
#
# Static dielectric constant tensor:
#      x y z
#    x 4.054460 0.000000 -0.364790 
#    y 0.000000 3.998570 0.000000 
#    z -0.364790 0.000000 4.203040 
# 
# 
# High freq. dielectric constant tensor:
#      x y z
#    x 1.929060 0.000000 -0.010310 
#    y 0.000000 1.923700 0.000000 
#    z -0.010310 0.000000 1.928080 
# 
# From -- ./inp_files/55891.got.cif
#   From: 2010.03.12/outbox.cif.g09.slc.cpg/sg14_28_cif.got.tgz:55891.got - 2010.03.31 13:35:05.
