data_PCOD8129729
_publ_section_title
;
Structure prediction by ZEFSAII (Michael W. Deem and Ramdas Pophale) SiO2 
 PCOD8129729
Probable space group: C 2/C
;
_chemical_formula_sum "Si O2"
_cell_formula_units_Z 52
_cell_length_a 15.071044
_cell_length_b 10.691056
_cell_length_c 19.565432
_cell_angle_alpha 90.000000
_cell_angle_beta 107.360208
_cell_angle_gamma 90.000000
_cell_volume 3008.884776
_symmetry_space_group_name_H-M "C 2/C"
_symmetry_group_IT_number 15
_symmetry_cell_setting 'monoclinic'
loop_
_space_group_symop_operation_xyz
x,y,z
-x,y,1/2-z
-x,-y,-z
x,-y,1/2+z
1/2+x,1/2+y,z
1/2-x,1/2+y,1/2-z
1/2-x,1/2-y,-z
1/2+x,1/2-y,1/2+z
loop_
_atom_site_type_symbol
_atom_site_label
_atom_site_fract_x
_atom_site_fract_y
_atom_site_fract_z
Si Si1 0.635832 0.996888 0.482190
Si Si2 0.496344 0.202869 0.502419
Si Si3 0.330227 0.849620 0.631945
Si Si4 0.022418 0.897764 0.124301
Si Si5 0.500000 0.750651 0.750000
Si Si6 0.632800 0.377505 0.597330
Si Si7 0.174754 0.902312 0.450034
O O1 0.556077 0.093406 0.483799
O O2 0.656148 0.019673 0.406138
O O3 0.731188 0.022104 0.547636
O O4 0.598574 0.856320 0.487793
O O5 0.470414 0.302679 0.437979
O O6 0.555691 0.267447 0.577382
O O7 0.416887 0.835378 0.702152
O O8 0.233630 0.843089 0.653260
O O9 0.320857 0.743046 0.571098
O O10 0.046236 0.831020 0.200828
O O11 0.918219 0.957306 0.106951
O O12 0.095456 0.007361 0.132113
O O13 0.657593 0.415777 0.526166
#
# Coordination Sequence:
#
# PCOD8129729 Si02
#       7
#     8   8   8   8   4   8   8
#     4  10  16  27  51  82 103 119 154 206 251 286
#     4  10  17  28  50  83 103 117 157 206 251 286
#     4  10  17  33  52  71  99 130 166 196 240 302
#     4  10  20  33  51  71  98 133 168 201 235 291
#     4  10  20  36  50  66  92 134 182 196 224 292
#     4  10  17  32  51  75  99 127 161 202 247 288
#     4   9  15  30  50  74  98 127 158 192 244 296
#
# _framework density 17.282150000000001
#
# number of rings (size 3 to 8) (size 9 to 14) (size 15 to 20)
#    0.000    2.154    6.154    2.769    0.000    0.000 
#    0.000   11.538    0.000    0.923    0.000    0.000 
#    0.000    0.000    0.000    0.000    0.000    0.000 
#
# Total GULP energy -322094.040065 kJ/mol
# GULP energy per Si atom -12388.232310 kJ/mol
# Density = 1.724282 g / cm^3
# Si number density = 17.282150 Si / 1000 Ang^3
#
#
#
# Elastic Constant Matrix: (Units=GPa)
#
#
# Indices 1 2 3 4 5 6 
#
# 1 105.5099 46.3812 34.6181 0.0000 18.0353 0.0000
# 2 46.3812 61.1122 24.4348 0.0000 5.0649 0.0000
# 3 34.6181 24.4348 70.2354 0.0000 20.1488 0.0000
# 4 0.0000 0.0000 0.0000 9.6716 0.0000 -0.9184
# 5 18.0353 5.0649 20.1488 0.0000 19.4038 0.0000
# 6 0.0000 0.0000 0.0000 -0.9184 0.0000 37.4862
#
#
#
# Elastic Compliance Matrix: (Units=1/GPa)
#
#
# Indices 1 2 3 4 5 6 
#
# 1 0.016792 -0.011389 -0.000982 0.000000 -0.011615 0.000000
# 2 -0.011389 0.026832 -0.006764 0.000000 0.010605 0.000000
# 3 -0.000982 -0.006764 0.023225 0.000000 -0.021438 0.000000
# 4 0.000000 0.000000 0.000000 0.103637 0.000000 0.002539
# 5 -0.011615 0.010605 -0.021438 0.000000 0.081825 0.000000
# 6 0.000000 0.000000 0.000000 0.002539 0.000000 0.026739
#
#
# Mechanical properties :
#
#
# Convention : Reuss Voigt Hill
#
# Bulk Modulus (GPa) = 34.99022 49.74730 42.36876
# Shear Modulus (GPa) = 15.29770 22.07389 18.68580
#
# Velocity S-wave (km/s) = 2.97841 3.57776 3.29176
# Velocity P-wave (km/s) = 5.66730 6.77606 6.24633
#
# Compressibility (1/GPa) = 0.02857942
#
# Stress axis : x y z
#
# Youngs Moduli (GPa) = 59.55257 37.26840 43.05639
#
# Poissons Ratio (x) = 0.42444 0.04230
# Poissons Ratio (y) = 0.67823 0.29123
# Poissons Ratio (z) = 0.05850 0.25208
#
# Static dielectric constant tensor:
#      x y z
#    x 3.834980 0.000000 0.295190 
#    y 0.000000 3.143240 0.000000 
#    z 0.295190 0.000000 2.979730 
# 
# 
# High freq. dielectric constant tensor:
#      x y z
#    x 1.684320 0.000000 0.020910 
#    y 0.000000 1.638030 0.000000 
#    z 0.020910 0.000000 1.628250 
# 
# From -- ./inp_files/243066.got.cif
#   From: 2010.06.25/outbox.cif.g09.slc.cpg/sg15_122_cif.got.tgz:243066.got - 2010.06.28 07:06:18.
