data_PCOD8129976
_publ_section_title
;
Structure prediction by ZEFSAII (Michael W. Deem and Ramdas Pophale) SiO2 
 PCOD8129976
Probable space group: C 2/C
;
_chemical_formula_sum "Si O2"
_cell_formula_units_Z 48
_cell_length_a 21.148136
_cell_length_b 8.709705
_cell_length_c 12.926542
_cell_angle_alpha 90.000000
_cell_angle_beta 116.348757
_cell_angle_gamma 90.000000
_cell_volume 2133.628347
_symmetry_space_group_name_H-M "C 2/C"
_symmetry_group_IT_number 15
_symmetry_cell_setting 'monoclinic'
loop_
_space_group_symop_operation_xyz
x,y,z
-x,y,1/2-z
-x,-y,-z
x,-y,1/2+z
1/2+x,1/2+y,z
1/2-x,1/2+y,1/2-z
1/2-x,1/2-y,-z
1/2+x,1/2-y,1/2+z
loop_
_atom_site_type_symbol
_atom_site_label
_atom_site_fract_x
_atom_site_fract_y
_atom_site_fract_z
Si Si1 0.000258 0.147576 0.074527
Si Si2 0.392691 0.617372 0.159962
Si Si3 0.900583 0.644063 0.961547
Si Si4 0.083197 0.217968 0.813936
Si Si5 0.293191 0.201751 0.721644
Si Si6 0.838090 0.617403 0.305939
O O1 0.052283 0.122453 0.207123
O O2 0.023570 0.297128 0.026155
O O3 0.923754 0.176365 0.072108
O O4 0.000000 0.000000 0.000000
O O5 0.373247 0.437848 0.132668
O O6 0.324631 0.718669 0.140859
O O7 0.840140 0.744130 0.857554
O O8 0.887477 0.464376 0.928083
O O9 0.897022 0.663550 0.081411
O O10 0.107540 0.291375 0.725172
O O11 0.000000 0.182576 0.750000
O O12 0.214163 0.261355 0.679238
O O13 0.294722 0.015287 0.711109
#
# Coordination Sequence:
#
# PCOD8129976 Si02
#       6
#     8   8   8   8   8   8
#     4  10  16  34  60  94 123 155 205 247 308 371
#     4  10  19  33  63  91 121 160 204 251 303 376
#     4   9  22  39  64  94 121 168 206 253 321 364
#     4  12  22  38  64  96 126 161 208 256 318 377
#     4   9  21  43  61  86 125 166 211 256 310 361
#     4  10  23  41  63  85 129 166 209 263 307 368
#
# _framework density 22.496888999999999
#
# number of rings (size 3 to 8) (size 9 to 14) (size 15 to 20)
#    1.000    1.000    3.333    1.000    0.000    2.667 
#    0.000    2.500    0.000    0.000    0.000    0.000 
#    0.000    0.000    0.000    0.000    0.000    0.000 
#
# Total GULP energy -297410.906764 kJ/mol
# GULP energy per Si atom -12392.121115 kJ/mol
# Density = 2.244568 g / cm^3
# Si number density = 22.496889 Si / 1000 Ang^3
#
#
#
# Elastic Constant Matrix: (Units=GPa)
#
#
# Indices 1 2 3 4 5 6 
#
# 1 101.9184 30.2387 7.1742 0.0000 -27.4353 0.0000
# 2 30.2387 59.9288 -37.6586 0.0000 2.4736 0.0000
# 3 7.1742 -37.6586 18.5395 0.0000 -8.9723 0.0000
# 4 0.0000 0.0000 0.0000 31.2178 0.0000 0.0185
# 5 -27.4353 2.4736 -8.9723 0.0000 26.5167 0.0000
# 6 0.0000 0.0000 0.0000 0.0185 0.0000 37.6741
#
#
#
# Elastic Compliance Matrix: (Units=1/GPa)
#
#
# Indices 1 2 3 4 5 6 
#
# 1 0.009894 0.009907 0.024874 0.000000 0.017729 0.000000
# 2 0.009907 -0.026111 -0.060667 0.000000 -0.007842 0.000000
# 3 0.024874 -0.060667 -0.076202 0.000000 0.005611 0.000000
# 4 0.000000 0.000000 0.000000 0.032033 0.000000 -0.000016
# 5 0.017729 -0.007842 0.005611 0.000000 0.058686 0.000000
# 6 0.000000 0.000000 0.000000 -0.000016 0.000000 0.026543
#
#
# Mechanical properties :
#
#
# Convention : Reuss Voigt Hill
#
# Bulk Modulus (GPa) = -6.93517 19.98837 6.52660
# Shear Modulus (GPa) = 175.12032 31.12388 103.12210
#
# Velocity S-wave (km/s) = 8.83238 3.72354 6.77775
# Velocity P-wave (km/s) = 10.04616 5.23360 8.00986
#
# Compressibility (1/GPa) = -0.14419251
#
# Stress axis : x y z
#
# Youngs Moduli (GPa) = 101.07001 -38.29792 -13.12295
#
# Poissons Ratio (x) = 0.37940 0.32642
# Poissons Ratio (y) = -1.00125 -0.79613
# Poissons Ratio (z) = -2.51403 -2.32343
#
# Static dielectric constant tensor:
#      x y z
#    x 4.062750 0.000000 -0.335550 
#    y 0.000000 3.884020 0.000000 
#    z -0.335550 0.000000 3.893870 
# 
# 
# High freq. dielectric constant tensor:
#      x y z
#    x 1.877000 0.000000 -0.020120 
#    y 0.000000 1.881520 0.000000 
#    z -0.020120 0.000000 1.872890 
# 
# From -- ./inp_files/116473.got.cif
#   From: 2010.06.25/outbox.cif.g09.slc.cpg/sg15_59_cif.got.tgz:116473.got - 2010.06.28 07:06:18.
