data_PCOD8129899
_publ_section_title
;
Structure prediction by ZEFSAII (Michael W. Deem and Ramdas Pophale) SiO2 
 PCOD8129899
Probable space group: C 2/C
;
_chemical_formula_sum "Si O2"
_cell_formula_units_Z 60
_cell_length_a 15.046442
_cell_length_b 9.343606
_cell_length_c 23.112044
_cell_angle_alpha 90.000000
_cell_angle_beta 85.323879
_cell_angle_gamma 90.000000
_cell_volume 3238.461256
_symmetry_space_group_name_H-M "C 2/C"
_symmetry_group_IT_number 15
_symmetry_cell_setting 'monoclinic'
loop_
_space_group_symop_operation_xyz
x,y,z
-x,y,1/2-z
-x,-y,-z
x,-y,1/2+z
1/2+x,1/2+y,z
1/2-x,1/2+y,1/2-z
1/2-x,1/2-y,-z
1/2+x,1/2-y,1/2+z
loop_
_atom_site_type_symbol
_atom_site_label
_atom_site_fract_x
_atom_site_fract_y
_atom_site_fract_z
Si Si1 0.436683 0.511602 0.923277
Si Si2 0.044880 0.716134 0.141538
Si Si3 0.627924 0.486594 0.447513
Si Si4 0.783288 0.017405 0.851510
Si Si5 0.849851 0.724407 0.132969
Si Si6 0.234716 0.654616 0.127932
Si Si7 0.500000 0.600987 0.750000
Si Si8 0.321351 0.527775 0.718901
O O1 0.448646 0.682054 0.915152
O O2 0.536959 0.446569 0.923501
O O3 0.379722 0.459723 0.870082
O O4 0.380177 0.476908 0.983351
O O5 0.129098 0.606551 0.133854
O O6 0.945261 0.651645 0.145601
O O7 0.056655 0.804326 0.201185
O O8 0.643979 0.327157 0.422855
O O9 0.712255 0.587301 0.428748
O O10 0.762191 0.174007 0.877950
O O11 0.774376 0.023251 0.783120
O O12 0.711719 0.907457 0.880171
O O13 0.809076 0.818037 0.188220
O O14 0.281040 0.601042 0.184096
O O15 0.428434 0.503969 0.719418
#
# Coordination Sequence:
#
# PCOD8129899 Si02
#       8
#     8   8   8   8   8   8   4   8
#     4   9  18  35  58  78 101 138 185 213 258 309
#     4   9  18  32  52  76 100 144 172 208 251 325
#     4   9  19  37  57  78 101 137 181 224 252 315
#     4  11  20  32  52  80 107 136 170 221 265 312
#     4   9  20  35  53  74 106 140 175 209 267 313
#     4  10  20  33  54  79 105 136 179 217 258 300
#     4  10  16  32  54  72 100 140 178 204 248 314
#     4  10  19  32  54  75 104 139 178 212 248 317
#
# _framework density 18.527318000000001
#
# number of rings (size 3 to 8) (size 9 to 14) (size 15 to 20)
#    0.000    2.400    2.667    1.600    1.867    2.667 
#    0.000    2.667    2.933    8.000    0.000    0.000 
#    0.000    0.000    0.000    0.000    0.000    0.000 
#
# Total GULP energy -371652.081778 kJ/mol
# GULP energy per Si atom -12388.402726 kJ/mol
# Density = 1.848515 g / cm^3
# Si number density = 18.527318 Si / 1000 Ang^3
#
#
#
# Elastic Constant Matrix: (Units=GPa)
#
#
# Indices 1 2 3 4 5 6 
#
# 1 117.8079 40.6017 11.2349 0.0000 -2.5857 0.0000
# 2 40.6017 56.6605 6.2955 0.0000 -1.9776 0.0000
# 3 11.2349 6.2955 61.9318 0.0000 -13.6654 0.0000
# 4 0.0000 0.0000 0.0000 13.0498 0.0000 -4.0535
# 5 -2.5857 -1.9776 -13.6654 0.0000 30.9055 0.0000
# 6 0.0000 0.0000 0.0000 -4.0535 0.0000 32.2234
#
#
#
# Elastic Compliance Matrix: (Units=1/GPa)
#
#
# Indices 1 2 3 4 5 6 
#
# 1 0.011367 -0.008008 -0.001276 0.000000 -0.000125 0.000000
# 2 -0.008008 0.023496 -0.000833 0.000000 0.000465 0.000000
# 3 -0.001276 -0.000833 0.018204 0.000000 0.007889 0.000000
# 4 0.000000 0.000000 0.000000 0.079746 0.000000 0.010031
# 5 -0.000125 0.000465 0.007889 0.000000 0.035864 0.000000
# 6 0.000000 0.000000 0.000000 0.010031 0.000000 0.032295
#
#
# Mechanical properties :
#
#
# Convention : Reuss Voigt Hill
#
# Bulk Modulus (GPa) = 30.45700 39.18495 34.82098
# Shear Modulus (GPa) = 21.53773 27.12027 24.32900
#
# Velocity S-wave (km/s) = 3.41322 3.83011 3.62766
# Velocity P-wave (km/s) = 5.65757 6.38400 6.03173
#
# Compressibility (1/GPa) = 0.03283317
#
# Stress axis : x y z
#
# Youngs Moduli (GPa) = 87.97194 42.55998 54.93401
#
# Poissons Ratio (x) = 0.34083 0.07008
# Poissons Ratio (y) = 0.70449 0.04576
# Poissons Ratio (z) = 0.11223 0.03546
#
# Static dielectric constant tensor:
#      x y z
#    x 3.725190 0.000000 0.006510 
#    y 0.000000 2.946330 0.000000 
#    z 0.006510 0.000000 3.425040 
# 
# 
# High freq. dielectric constant tensor:
#      x y z
#    x 1.735820 0.000000 0.000090 
#    y 0.000000 1.660840 0.000000 
#    z 0.000090 0.000000 1.722630 
# 
# From -- ./inp_files/272771.got.cif
#   From: 2010.06.25/outbox.cif.g09.slc.cpg/sg15_137_cif.got.tgz:272771.got - 2010.06.28 07:06:18.
