data_PCOD8129749
_publ_section_title
;
Structure prediction by ZEFSAII (Michael W. Deem and Ramdas Pophale) SiO2 
 PCOD8129749
Probable space group: C 2/C
;
_chemical_formula_sum "Si O2"
_cell_formula_units_Z 48
_cell_length_a 12.430529
_cell_length_b 27.616972
_cell_length_c 9.889005
_cell_angle_alpha 90.000000
_cell_angle_beta 54.087083
_cell_angle_gamma 90.000000
_cell_volume 2749.506308
_symmetry_space_group_name_H-M "C 2/C"
_symmetry_group_IT_number 15
_symmetry_cell_setting 'monoclinic'
loop_
_space_group_symop_operation_xyz
x,y,z
-x,y,1/2-z
-x,-y,-z
x,-y,1/2+z
1/2+x,1/2+y,z
1/2-x,1/2+y,1/2-z
1/2-x,1/2-y,-z
1/2+x,1/2-y,1/2+z
loop_
_atom_site_type_symbol
_atom_site_label
_atom_site_fract_x
_atom_site_fract_y
_atom_site_fract_z
Si Si1 0.104444 0.049216 0.786677
Si Si2 0.230921 0.361169 0.373225
Si Si3 0.036160 0.798084 0.379809
Si Si4 0.204816 0.143402 0.360268
Si Si5 0.427308 0.557932 0.173705
Si Si6 0.030680 0.311083 0.885503
O O1 0.235547 0.083269 0.692761
O O2 0.000000 0.068995 0.750000
O O3 0.140811 0.993151 0.730768
O O4 0.040820 0.050787 0.980073
O O5 0.320929 0.324303 0.218413
O O6 0.256777 0.359188 0.512720
O O7 0.078981 0.344701 0.457860
O O8 0.033729 0.743682 0.439510
O O9 0.000000 0.798060 0.250000
O O10 0.932590 0.827174 0.549591
O O11 0.187805 0.091483 0.301983
O O12 0.323688 0.168391 0.190686
O O13 0.500000 0.581366 0.250000
O O14 0.000000 0.310106 0.750000
#
# Coordination Sequence:
#
# PCOD8129749 Si02
#       6
#     8   8   8   8   8   8
#     4  10  17  32  51  74  94 121 162 203 241 277
#     4  10  16  28  48  72  99 127 154 196 246 282
#     4   9  15  26  45  71  98 126 160 198 235 277
#     4  10  17  30  46  71 101 125 157 198 241 283
#     4  10  20  30  50  74  96 122 162 204 236 279
#     4   9  18  26  43  74 104 125 153 198 245 285
#
# _framework density 17.457678000000001
#
# number of rings (size 3 to 8) (size 9 to 14) (size 15 to 20)
#    0.000    2.333    3.333    1.500    0.000    4.000 
#    0.000    0.833    0.000    2.000    0.000    0.000 
#    0.000    0.000    0.000    0.000    0.000    0.000 
#
# Total GULP energy -297419.098272 kJ/mol
# GULP energy per Si atom -12392.462428 kJ/mol
# Density = 1.741794 g / cm^3
# Si number density = 17.457678 Si / 1000 Ang^3
#
#
#
# Elastic Constant Matrix: (Units=GPa)
#
#
# Indices 1 2 3 4 5 6 
#
# 1 35.5598 24.5586 33.9937 0.0000 -10.5894 0.0000
# 2 24.5586 126.4474 47.6733 0.0000 -24.7909 0.0000
# 3 33.9937 47.6733 86.0522 0.0000 -28.7400 0.0000
# 4 0.0000 0.0000 0.0000 19.3763 0.0000 1.4920
# 5 -10.5894 -24.7909 -28.7400 0.0000 29.7489 0.0000
# 6 0.0000 0.0000 0.0000 1.4920 0.0000 14.5200
#
#
#
# Elastic Compliance Matrix: (Units=1/GPa)
#
#
# Indices 1 2 3 4 5 6 
#
# 1 0.046041 -0.002903 -0.017589 0.000000 -0.003023 0.000000
# 2 -0.002903 0.010585 -0.003125 0.000000 0.004769 0.000000
# 3 -0.017589 -0.003125 0.025599 0.000000 0.015866 0.000000
# 4 0.000000 0.000000 0.000000 0.052021 0.000000 -0.005345
# 5 -0.003023 0.004769 0.015866 0.000000 0.051841 0.000000
# 6 0.000000 0.000000 0.000000 -0.005345 0.000000 0.069420
#
#
# Mechanical properties :
#
#
# Convention : Reuss Voigt Hill
#
# Bulk Modulus (GPa) = 28.57848 51.16785 39.87316
# Shear Modulus (GPa) = 15.90304 22.18462 19.04383
#
# Velocity S-wave (km/s) = 3.02147 3.56865 3.30640
# Velocity P-wave (km/s) = 5.34584 6.80835 6.12093
#
# Compressibility (1/GPa) = 0.03499137
#
# Stress axis : x y z
#
# Youngs Moduli (GPa) = 21.71983 94.47001 39.06357
#
# Poissons Ratio (x) = 0.27428 0.68709
# Poissons Ratio (y) = 0.06306 0.12206
# Poissons Ratio (z) = 0.38203 0.29518
#
# Static dielectric constant tensor:
#      x y z
#    x 2.854440 0.000000 -0.220690 
#    y 0.000000 3.572810 0.000000 
#    z -0.220690 0.000000 3.286400 
# 
# 
# High freq. dielectric constant tensor:
#      x y z
#    x 1.618440 0.000000 -0.012550 
#    y 0.000000 1.687370 0.000000 
#    z -0.012550 0.000000 1.660180 
# 
# From -- ./inp_files/43780.got.cif
#   From: 2010.06.25/outbox.cif.g09.slc.cpg/sg15_22_cif.got.tgz:43780.got - 2010.06.28 07:06:18.
