data_PCOD8129130
_publ_section_title
;
Structure prediction by ZEFSAII (Michael W. Deem and Ramdas Pophale) SiO2 
 PCOD8129130
Probable space group: P 21/C
;
_chemical_formula_sum "Si O2"
_cell_formula_units_Z 28
_cell_length_a 6.378151
_cell_length_b 11.202405
_cell_length_c 21.628539
_cell_angle_alpha 90.000000
_cell_angle_beta 127.019959
_cell_angle_gamma 90.000000
_cell_volume 1233.865505
_symmetry_space_group_name_H-M "P 21/C"
_symmetry_group_IT_number 14
_symmetry_cell_setting 'monoclinic'
loop_
_space_group_symop_operation_xyz
x,y,z
-x,1/2+y,1/2-z
-x,-y,-z
x,1/2-y,1/2+z
loop_
_atom_site_type_symbol
_atom_site_label
_atom_site_fract_x
_atom_site_fract_y
_atom_site_fract_z
Si Si1 0.165580 0.056763 0.607010
Si Si2 0.207387 0.200736 0.162167
Si Si3 0.752911 0.047372 0.138485
Si Si4 0.397819 0.925890 0.539372
Si Si5 0.237315 0.881710 0.722072
Si Si6 0.176889 0.218963 0.892726
Si Si7 0.820230 0.884210 0.978321
O O1 0.253704 0.156844 0.672850
O O2 0.908299 0.105418 0.525618
O O3 0.395553 0.011131 0.600498
O O4 0.094679 0.948660 0.640181
O O5 0.457445 0.140070 0.238729
O O6 0.184956 0.188693 0.084902
O O7 0.952540 0.146516 0.148486
O O8 0.773426 0.048412 0.215746
O O9 0.475772 0.078898 0.059391
O O10 0.793600 0.914168 0.125041
O O11 0.568541 0.803842 0.575785
O O12 0.500000 0.000000 0.500000
O O13 0.067574 0.761240 0.692752
O O14 0.096567 0.205344 0.951156
O O15 0.000000 0.000000 0.000000
#
# Coordination Sequence:
#
# PCOD8129130 Si02
#       7
#     4   4   4   4   4   4   4
#     4  11  26  44  71 100 143 186 242 297 367 432
#     4  11  26  46  70  99 149 187 236 305 362 436
#     4  11  27  48  69 108 144 194 238 304 375 435
#     4  11  24  45  69 108 138 184 246 304 362 433
#     4  11  29  44  66 109 139 196 237 288 369 442
#     4  12  25  46  78 101 148 189 247 304 367 437
#     4  11  24  45  72 110 138 178 248 300 364 432
#
# _framework density 22.692909
#
# number of rings (size 3 to 8) (size 9 to 14) (size 15 to 20)
#    0.000    0.857    2.857    2.143   10.000    1.143 
#    0.000    0.000    0.000    0.000    0.000    0.000 
#    0.000    0.000    0.000    0.000    0.000    0.000 
#
# Total GULP energy -346979.690316 kJ/mol
# GULP energy per Si atom -12392.131797 kJ/mol
# Density = 2.264126 g / cm^3
# Si number density = 22.692909 Si / 1000 Ang^3
#
#
#
# Elastic Constant Matrix: (Units=GPa)
#
#
# Indices 1 2 3 4 5 6 
#
# 1 113.5260 36.6956 26.7731 0.0000 5.7584 0.0000
# 2 36.6956 89.5777 16.0573 0.0000 -12.1803 0.0000
# 3 26.7731 16.0573 92.4576 0.0000 6.4892 0.0000
# 4 0.0000 0.0000 0.0000 30.8324 0.0000 -1.9345
# 5 5.7584 -12.1803 6.4892 0.0000 24.5484 0.0000
# 6 0.0000 0.0000 0.0000 -1.9345 0.0000 46.3820
#
#
#
# Elastic Compliance Matrix: (Units=1/GPa)
#
#
# Indices 1 2 3 4 5 6 
#
# 1 0.011058 -0.004759 -0.002066 0.000000 -0.004409 0.000000
# 2 -0.004759 0.014636 -0.001785 0.000000 0.008850 0.000000
# 3 -0.002066 -0.001785 0.011974 0.000000 -0.003566 0.000000
# 4 0.000000 0.000000 0.000000 0.032519 0.000000 0.001356
# 5 -0.004409 0.008850 -0.003566 0.000000 0.047104 0.000000
# 6 0.000000 0.000000 0.000000 0.001356 0.000000 0.021617
#
#
# Mechanical properties :
#
#
# Convention : Reuss Voigt Hill
#
# Bulk Modulus (GPa) = 48.90367 50.51258 49.70813
# Shear Modulus (GPa) = 30.68538 34.75491 32.72015
#
# Velocity S-wave (km/s) = 3.68122 3.91772 3.80131
# Velocity P-wave (km/s) = 6.29805 6.54005 6.42019
#
# Compressibility (1/GPa) = 0.02044836
#
# Stress axis : x y z
#
# Youngs Moduli (GPa) = 90.43490 68.32278 83.51176
#
# Poissons Ratio (x) = 0.32514 0.17254
# Poissons Ratio (y) = 0.43037 0.14907
# Poissons Ratio (z) = 0.18684 0.12196
#
# Static dielectric constant tensor:
#      x y z
#    x 4.287850 0.000000 0.045940 
#    y 0.000000 4.253730 0.000000 
#    z 0.045940 0.000000 4.257380 
# 
# 
# High freq. dielectric constant tensor:
#      x y z
#    x 1.898510 0.000000 -0.003780 
#    y 0.000000 1.907660 0.000000 
#    z -0.003780 0.000000 1.901290 
# 
# From -- ./inp_files/63601.got.cif
#   From: 2010.03.12/outbox.cif.g09.slc.cpg/sg14_32_cif.got.tgz:63601.got - 2010.03.31 13:35:05.
