data_PCOD8129190
_publ_section_title
;
Structure prediction by ZEFSAII (Michael W. Deem and Ramdas Pophale) SiO2 
 PCOD8129190
Probable space group: P 21/C
;
_chemical_formula_sum "Si O2"
_cell_formula_units_Z 24
_cell_length_a 8.354325
_cell_length_b 9.144969
_cell_length_c 13.896995
_cell_angle_alpha 90.000000
_cell_angle_beta 92.781294
_cell_angle_gamma 90.000000
_cell_volume 1060.480333
_symmetry_space_group_name_H-M "P 21/C"
_symmetry_group_IT_number 14
_symmetry_cell_setting 'monoclinic'
loop_
_space_group_symop_operation_xyz
x,y,z
-x,1/2+y,1/2-z
-x,-y,-z
x,1/2-y,1/2+z
loop_
_atom_site_type_symbol
_atom_site_label
_atom_site_fract_x
_atom_site_fract_y
_atom_site_fract_z
Si Si1 0.329834 0.335171 0.485078
Si Si2 0.828346 0.989749 0.841063
Si Si3 0.658633 0.196707 0.548791
Si Si4 0.312962 0.688186 0.160316
Si Si5 0.660713 0.596794 0.152709
Si Si6 0.808487 0.055397 0.156808
O O1 0.222877 0.392412 0.569447
O O2 0.511270 0.308369 0.525587
O O3 0.264208 0.183324 0.436687
O O4 0.323393 0.450762 0.396462
O O5 0.739901 0.143970 0.833675
O O6 0.788836 0.902651 0.742213
O O7 0.017749 0.014983 0.853084
O O8 0.723169 0.133842 0.449283
O O9 0.799419 0.286307 0.605188
O O10 0.608227 0.064443 0.616415
O O11 0.502949 0.680394 0.186651
O O12 0.224231 0.579229 0.230972
#
# Coordination Sequence:
#
# PCOD8129190 Si02
#       6
#     4   4   4   4   4   4
#     4  11  25  45  75 101 136 192 240 283 349 423
#     4  12  27  45  70 105 144 188 231 288 364 419
#     4  11  24  48  72 106 136 184 238 297 347 416
#     4  11  25  45  72 100 144 180 238 290 344 422
#     4  11  27  45  73 107 138 179 244 296 346 415
#     4  12  26  43  72 103 143 186 234 288 354 424
#
# _framework density 22.631252
#
# number of rings (size 3 to 8) (size 9 to 14) (size 15 to 20)
#    0.000    0.667    3.333    4.000    9.333    1.333 
#    0.000    1.667    0.000    0.000    0.000    0.000 
#    0.000    0.000    0.000    0.000    0.000    0.000 
#
# Total GULP energy -297561.730669 kJ/mol
# GULP energy per Si atom -12398.405445 kJ/mol
# Density = 2.257974 g / cm^3
# Si number density = 22.631252 Si / 1000 Ang^3
#
#
#
# Elastic Constant Matrix: (Units=GPa)
#
#
# Indices 1 2 3 4 5 6 
#
# 1 81.7943 62.0411 59.0278 0.0000 -3.1038 0.0000
# 2 62.0411 117.4381 37.5135 0.0000 4.5578 0.0000
# 3 59.0278 37.5135 126.9174 0.0000 -8.6364 0.0000
# 4 0.0000 0.0000 0.0000 40.8962 0.0000 -5.4900
# 5 -3.1038 4.5578 -8.6364 0.0000 26.9158 0.0000
# 6 0.0000 0.0000 0.0000 -5.4900 0.0000 27.0821
#
#
#
# Elastic Compliance Matrix: (Units=1/GPa)
#
#
# Indices 1 2 3 4 5 6 
#
# 1 0.028187 -0.011970 -0.009418 0.000000 0.002255 0.000000
# 2 -0.011970 0.014659 0.000993 0.000000 -0.003544 0.000000
# 3 -0.009418 0.000993 0.012146 0.000000 0.002643 0.000000
# 4 0.000000 0.000000 0.000000 0.025136 0.000000 0.005096
# 5 0.002255 -0.003544 0.002643 0.000000 0.038861 0.000000
# 6 0.000000 0.000000 0.000000 0.005096 0.000000 0.037958
#
#
# Mechanical properties :
#
#
# Convention : Reuss Voigt Hill
#
# Bulk Modulus (GPa) = 70.41243 71.47940 70.94591
# Shear Modulus (GPa) = 24.69485 30.14999 27.42242
#
# Velocity S-wave (km/s) = 3.30689 3.65393 3.48473
# Velocity P-wave (km/s) = 6.76470 7.03239 6.89984
#
# Compressibility (1/GPa) = 0.01420204
#
# Stress axis : x y z
#
# Youngs Moduli (GPa) = 35.47683 68.21693 82.33386
#
# Poissons Ratio (x) = 0.81657 0.77543
# Poissons Ratio (y) = 0.42466 -0.08177
# Poissons Ratio (z) = 0.33412 -0.06775
#
# Static dielectric constant tensor:
#      x y z
#    x 3.696970 0.000000 0.031990 
#    y 0.000000 4.139070 0.000000 
#    z 0.031990 0.000000 4.560440 
# 
# 
# High freq. dielectric constant tensor:
#      x y z
#    x 1.862300 0.000000 0.006800 
#    y 0.000000 1.897040 0.000000 
#    z 0.006800 0.000000 1.917610 
# 
# From -- ./inp_files/39060.got.cif
#   From: 2010.03.12/outbox.cif.g09.slc.cpg/sg14_20_cif.got.tgz:39060.got - 2010.03.31 13:35:05.
