data_PCOD8129294
_publ_section_title
;
Structure prediction by ZEFSAII (Michael W. Deem and Ramdas Pophale) SiO2 
 PCOD8129294
Probable space group: P 21/C
;
_chemical_formula_sum "Si O2"
_cell_formula_units_Z 20
_cell_length_a 26.899894
_cell_length_b 5.113080
_cell_length_c 11.603133
_cell_angle_alpha 90.000000
_cell_angle_beta 149.620161
_cell_angle_gamma 90.000000
_cell_volume 807.099997
_symmetry_space_group_name_H-M "P 21/C"
_symmetry_group_IT_number 14
_symmetry_cell_setting 'monoclinic'
loop_
_space_group_symop_operation_xyz
x,y,z
-x,1/2+y,1/2-z
-x,-y,-z
x,1/2-y,1/2+z
loop_
_atom_site_type_symbol
_atom_site_label
_atom_site_fract_x
_atom_site_fract_y
_atom_site_fract_z
Si Si1 1.000000 0.881467 0.827887
Si Si2 0.289547 0.765738 0.258317
Si Si3 0.500001 0.750082 0.079836
Si Si4 0.836973 0.000004 0.673947
Si Si5 0.289545 0.234263 0.899869
O O1 0.999998 0.669071 0.727697
O O2 0.096217 0.849017 0.099311
O O3 0.903782 0.849026 0.714440
O O4 0.405921 0.749118 0.473622
O O5 0.258357 0.547776 0.289746
O O6 0.258358 0.047775 0.243684
O O7 0.232337 0.716663 0.024595
O O8 0.594080 0.750882 0.349939
O O9 0.500000 0.500000 0.000000
O O10 0.500000 0.000000 0.000000
O O11 0.767666 0.783338 0.595254
#
# Coordination Sequence:
#
# PCOD8129294 Si02
#       5
#     4   4   4   4   4
#     4  11  26  49  72 104 142 183 235 292 366 428
#     4  12  26  44  70 105 142 187 238 287 350 416
#     4  12  24  46  70  99 145 194 230 288 350 411
#     4  11  26  45  76 104 142 187 234 303 350 430
#     4  12  26  44  70 105 142 187 238 287 350 416
#
# _framework density 24.780075
#
# number of rings (size 3 to 8) (size 9 to 14) (size 15 to 20)
#    0.000    0.400    2.000    6.000    0.000    6.400 
#    0.000    0.000    0.000    0.000    0.000    0.000 
#    0.000    0.000    0.000    0.000    0.000    0.000 
#
# Total GULP energy -248194.893594 kJ/mol
# GULP energy per Si atom -12409.744680 kJ/mol
# Density = 2.472367 g / cm^3
# Si number density = 24.780075 Si / 1000 Ang^3
#
#
#
# Elastic Constant Matrix: (Units=GPa)
#
#
# Indices 1 2 3 4 5 6 
#
# 1 135.4763 26.7810 35.8192 0.0000 15.8751 0.0000
# 2 26.7810 119.5438 16.0133 0.0000 -8.4295 0.0000
# 3 35.8192 16.0133 153.7665 0.0000 -1.5515 0.0000
# 4 0.0000 0.0000 0.0000 23.4176 0.0000 -8.6405
# 5 15.8751 -8.4295 -1.5515 0.0000 46.3241 0.0000
# 6 0.0000 0.0000 0.0000 -8.6405 0.0000 34.4561
#
#
#
# Elastic Compliance Matrix: (Units=1/GPa)
#
#
# Indices 1 2 3 4 5 6 
#
# 1 0.008646 -0.001928 -0.001847 0.000000 -0.003376 0.000000
# 2 -0.001928 0.009021 -0.000467 0.000000 0.002286 0.000000
# 3 -0.001847 -0.000467 0.006990 0.000000 0.000782 0.000000
# 4 0.000000 0.000000 0.000000 0.047057 0.000000 0.011800
# 5 -0.003376 0.002286 0.000782 0.000000 0.023186 0.000000
# 6 0.000000 0.000000 0.000000 0.011800 0.000000 0.031982
#
#
# Mechanical properties :
#
#
# Convention : Reuss Voigt Hill
#
# Bulk Modulus (GPa) = 61.83251 62.89041 62.36146
# Shear Modulus (GPa) = 35.52201 42.85112 39.18656
#
# Velocity S-wave (km/s) = 3.79025 4.16295 3.98096
# Velocity P-wave (km/s) = 6.64540 6.96716 6.80818
#
# Compressibility (1/GPa) = 0.01617272
#
# Stress axis : x y z
#
# Youngs Moduli (GPa) = 115.65455 110.85498 143.05567
#
# Poissons Ratio (x) = 0.21368 0.26429
# Poissons Ratio (y) = 0.22294 0.06686
# Poissons Ratio (z) = 0.21367 0.05181
#
# Static dielectric constant tensor:
#      x y z
#    x 4.656080 0.000000 0.165320 
#    y 0.000000 4.266870 0.000000 
#    z 0.165320 0.000000 4.867240 
# 
# 
# High freq. dielectric constant tensor:
#      x y z
#    x 2.001400 0.000000 0.004450 
#    y 0.000000 1.982270 0.000000 
#    z 0.004450 0.000000 2.007080 
# 
# From -- ./inp_files/4074.got.cif
#   From: 2010.03.12/outbox.cif.g09.slc.cpg/sg14_3_cif.got.tgz:4074.got - 2010.03.31 13:35:05.
