data_PCOD8129957
_publ_section_title
;
Structure prediction by ZEFSAII (Michael W. Deem and Ramdas Pophale) SiO2 
 PCOD8129957
Probable space group: C 2/C
;
_chemical_formula_sum "Si O2"
_cell_formula_units_Z 36
_cell_length_a 17.962711
_cell_length_b 7.385894
_cell_length_c 28.930793
_cell_angle_alpha 90.000000
_cell_angle_beta 158.980633
_cell_angle_gamma 90.000000
_cell_volume 1376.723371
_symmetry_space_group_name_H-M "C 2/C"
_symmetry_group_IT_number 15
_symmetry_cell_setting 'monoclinic'
loop_
_space_group_symop_operation_xyz
x,y,z
-x,y,1/2-z
-x,-y,-z
x,-y,1/2+z
1/2+x,1/2+y,z
1/2-x,1/2+y,1/2-z
1/2-x,1/2-y,-z
1/2+x,1/2-y,1/2+z
loop_
_atom_site_type_symbol
_atom_site_label
_atom_site_fract_x
_atom_site_fract_y
_atom_site_fract_z
Si Si1 0.725365 0.514760 0.520314
Si Si2 0.109782 0.281720 0.574960
Si Si3 0.000000 0.727390 0.750000
Si Si4 0.573981 0.125550 0.444227
Si Si5 0.837854 0.906039 0.845660
O O1 0.902215 0.598779 0.654630
O O2 0.714111 0.304260 0.529171
O O3 0.789017 0.530373 0.502322
O O4 0.502207 0.607288 0.398394
O O5 0.314432 0.348426 0.665201
O O6 0.014233 0.432972 0.555636
O O7 0.917724 0.224417 0.432104
O O8 0.179361 0.111553 0.646617
O O9 0.380449 0.167655 0.298319
#
# Coordination Sequence:
#
# PCOD8129957 Si02
#       5
#     8   8   4   8   8
#     4   9  19  30  53  83 105 135 175 218 267 302
#     4   9  18  30  53  81 105 136 175 221 263 300
#     4  10  16  34  56  82 108 134 174 230 252 308
#     4  10  18  31  52  85 103 136 177 221 260 313
#     4   9  17  33  52  79 109 132 176 226 254 306
#
# _framework density 26.149045000000001
#
# number of rings (size 3 to 8) (size 9 to 14) (size 15 to 20)
#    0.000    2.667    2.222    1.333    0.000    0.000 
#    0.000    4.444    0.000    5.333    5.778    0.000 
#    0.000    0.000    0.000    0.000    0.000    0.000 
#
# Total GULP energy -223046.832082 kJ/mol
# GULP energy per Si atom -12391.490671 kJ/mol
# Density = 2.608953 g / cm^3
# Si number density = 26.149045 Si / 1000 Ang^3
#
#
#
# Elastic Constant Matrix: (Units=GPa)
#
#
# Indices 1 2 3 4 5 6 
#
# 1 240.5049 9.6808 22.9110 0.0074 19.6478 -0.0035
# 2 9.6808 29.1295 -3.5488 0.0227 4.7511 -0.0172
# 3 22.9110 -3.5488 68.2517 0.0527 22.4373 -0.0177
# 4 0.0074 0.0227 0.0527 15.7414 -0.0117 10.0960
# 5 19.6478 4.7511 22.4373 -0.0117 28.6502 0.0076
# 6 -0.0035 -0.0172 -0.0177 10.0960 0.0076 36.5335
#
#
#
# Elastic Compliance Matrix: (Units=1/GPa)
#
#
# Indices 1 2 3 4 5 6 
#
# 1 0.004467 -0.001228 -0.000839 0.000001 -0.002203 0.000000
# 2 -0.001228 0.036969 0.005485 -0.000112 -0.009585 0.000053
# 3 -0.000839 0.005485 0.020643 -0.000120 -0.016501 0.000049
# 4 0.000001 -0.000112 -0.000120 0.077213 0.000150 -0.021338
# 5 -0.002203 -0.009585 -0.016501 0.000150 0.050926 -0.000065
# 6 0.000000 0.000053 0.000049 -0.021338 -0.000065 0.033269
#
#
# Mechanical properties :
#
#
# Convention : Reuss Voigt Hill
#
# Bulk Modulus (GPa) = 14.51033 43.99689 29.25361
# Shear Modulus (GPa) = 20.86610 36.77454 28.82032
#
# Velocity S-wave (km/s) = 2.82790 3.75419 3.32347
# Velocity P-wave (km/s) = 4.02788 5.97109 5.09302
#
# Compressibility (1/GPa) = 0.06891642
#
# Stress axis : x y z
#
# Youngs Moduli (GPa) = 223.85228 27.04960 48.44195
#
# Poissons Ratio (x) = 0.03321 0.04066
# Poissons Ratio (y) = 0.27480 -0.26572
# Poissons Ratio (z) = 0.18788 -0.14838
#
# Static dielectric constant tensor:
#      x y z
#    x 5.911300 0.000000 0.337740 
#    y 0.000000 4.159590 0.000020 
#    z 0.337740 0.000020 4.526680 
# 
# 
# High freq. dielectric constant tensor:
#      x y z
#    x 2.078760 0.000000 0.012520 
#    y 0.000000 2.007310 0.000000 
#    z 0.012520 0.000000 2.041510 
# 
# From -- ./inp_files/94339.got.cif
#   From: 2010.06.25/outbox.cif.g09.slc.cpg/sg15_48_cif.got.tgz:94339.got - 2010.06.28 07:06:18.
