data_PCOD8129303
_publ_section_title
;
Structure prediction by ZEFSAII (Michael W. Deem and Ramdas Pophale) SiO2 
 PCOD8129303
Probable space group: P 21/C
;
_chemical_formula_sum "Si O2"
_cell_formula_units_Z 24
_cell_length_a 25.336349
_cell_length_b 4.963681
_cell_length_c 25.809336
_cell_angle_alpha 90.000000
_cell_angle_beta 19.702694
_cell_angle_gamma 90.000000
_cell_volume 1094.294958
_symmetry_space_group_name_H-M "P 21/C"
_symmetry_group_IT_number 14
_symmetry_cell_setting 'monoclinic'
loop_
_space_group_symop_operation_xyz
x,y,z
-x,1/2+y,1/2-z
-x,-y,-z
x,1/2-y,1/2+z
loop_
_atom_site_type_symbol
_atom_site_label
_atom_site_fract_x
_atom_site_fract_y
_atom_site_fract_z
Si Si1 0.601228 0.699209 0.665725
Si Si2 0.627645 0.015728 0.809035
Si Si3 0.262470 0.482361 0.351912
Si Si4 0.906975 0.801556 0.319711
Si Si5 0.898937 0.523442 0.710218
Si Si6 0.722222 0.017328 0.835979
O O1 0.472666 0.495009 0.761997
O O2 0.651980 0.610052 0.675519
O O3 0.748368 0.697339 0.491761
O O4 0.674004 0.226283 0.722209
O O5 0.697021 0.107824 0.800108
O O6 0.699129 0.725944 0.729255
O O7 0.440990 0.002221 0.983254
O O8 0.078966 0.506985 0.529501
O O9 0.873564 0.887518 0.292361
O O10 0.029831 0.555740 0.206128
O O11 0.827647 0.229329 0.768939
O O12 0.809890 0.731162 0.755191
#
# Coordination Sequence:
#
# PCOD8129303 Si02
#       6
#     4   4   4   4   4   4
#     4  12  28  46  70 105 138 181 232 278 342 405
#     4  11  26  47  72  98 144 176 229 290 340 404
#     4  12  26  46  69 105 137 181 227 288 338 405
#     4  12  26  48  70 100 143 182 221 284 340 409
#     4  12  26  44  73 103 137 182 231 275 347 408
#     4  11  26  47  70 105 133 184 230 280 349 409
#
# _framework density 21.931929
#
# number of rings (size 3 to 8) (size 9 to 14) (size 15 to 20)
#    0.000    0.333    1.667    6.000    9.333    6.667 
#    0.000    0.000    0.000    0.000    0.000    0.000 
#    0.000    0.000    0.000    0.000    0.000    0.000 
#
# Total GULP energy -297851.376055 kJ/mol
# GULP energy per Si atom -12410.474002 kJ/mol
# Density = 2.188201 g / cm^3
# Si number density = 21.931929 Si / 1000 Ang^3
#
#
#
# Elastic Constant Matrix: (Units=GPa)
#
#
# Indices 1 2 3 4 5 6 
#
# 1 69.0185 45.8104 162.2541 0.0000 -28.5568 0.0000
# 2 45.8104 136.0591 10.3859 0.0000 26.2894 0.0000
# 3 162.2541 10.3859 -178.5874 0.0000 112.6917 0.0000
# 4 0.0000 0.0000 0.0000 50.0289 0.0000 -11.2639
# 5 -28.5568 26.2894 112.6917 0.0000 20.8727 0.0000
# 6 0.0000 0.0000 0.0000 -11.2639 0.0000 56.9008
#
#
#
# Elastic Compliance Matrix: (Units=1/GPa)
#
#
# Indices 1 2 3 4 5 6 
#
# 1 0.006645 -0.001536 0.002928 0.000000 -0.004785 0.000000
# 2 -0.001536 0.008359 -0.002015 0.000000 -0.001752 0.000000
# 3 0.002928 -0.002015 0.000244 0.000000 0.005229 0.000000
# 4 0.000000 0.000000 0.000000 0.020921 0.000000 0.004141
# 5 -0.004785 -0.001752 0.005229 0.000000 0.015337 0.000000
# 6 0.000000 0.000000 0.000000 0.004141 0.000000 0.018394
#
#
# Mechanical properties :
#
#
# Convention : Reuss Voigt Hill
#
# Bulk Modulus (GPa) = 71.41933 51.48789 61.45361
# Shear Modulus (GPa) = 65.95189 12.76312 39.35750
#
# Velocity S-wave (km/s) = 5.48967 2.41497 4.24079
# Velocity P-wave (km/s) = 8.53327 5.59493 7.21526
#
# Compressibility (1/GPa) = 0.01400181
#
# Stress axis : x y z
#
# Youngs Moduli (GPa) = 150.49782 119.62772 4105.35566
#
# Poissons Ratio (x) = 0.18378 -12.02204
# Poissons Ratio (y) = 0.23120 8.27210
# Poissons Ratio (z) = -0.44071 0.24104
#
# Static dielectric constant tensor:
#      x y z
#    x -0.100690 0.000000 -3.442600 
#    y 0.000000 4.165000 0.000000 
#    z -3.442600 0.000000 1.229630 
# 
# 
# High freq. dielectric constant tensor:
#      x y z
#    x 1.874260 0.000000 -0.002780 
#    y 0.000000 1.881160 0.000000 
#    z -0.002780 0.000000 1.877530 
# 
# From -- ./inp_files/74777.got.cif
#   From: 2010.03.12/outbox.cif.g09.slc.cpg/sg14_38_cif.got.tgz:74777.got - 2010.03.31 13:35:05.
