data_PCOD8129996
_publ_section_title
;
Structure prediction by ZEFSAII (Michael W. Deem and Ramdas Pophale) SiO2 
 PCOD8129996
Probable space group: C 2/C
;
_chemical_formula_sum "Si O2"
_cell_formula_units_Z 44
_cell_length_a 7.652362
_cell_length_b 13.392335
_cell_length_c 23.511377
_cell_angle_alpha 90.000000
_cell_angle_beta 91.279867
_cell_angle_gamma 90.000000
_cell_volume 2408.915215
_symmetry_space_group_name_H-M "C 2/C"
_symmetry_group_IT_number 15
_symmetry_cell_setting 'monoclinic'
loop_
_space_group_symop_operation_xyz
x,y,z
-x,y,1/2-z
-x,-y,-z
x,-y,1/2+z
1/2+x,1/2+y,z
1/2-x,1/2+y,1/2-z
1/2-x,1/2-y,-z
1/2+x,1/2-y,1/2+z
loop_
_atom_site_type_symbol
_atom_site_label
_atom_site_fract_x
_atom_site_fract_y
_atom_site_fract_z
Si Si1 0.137805 0.162019 0.867336
Si Si2 0.000000 0.123608 0.750000
Si Si3 0.696880 0.973162 0.757444
Si Si4 0.519740 0.503378 0.066973
Si Si5 0.204664 0.459495 0.633607
Si Si6 0.170785 0.616803 0.376677
O O1 0.054710 0.188791 0.804910
O O2 0.297841 0.082305 0.861785
O O3 0.198954 0.267194 0.893724
O O4 0.993676 0.109164 0.907370
O O5 0.162484 0.058170 0.729214
O O6 0.500000 0.017637 0.750000
O O7 0.742204 0.917867 0.697849
O O8 0.708273 0.896489 0.809921
O O9 0.364140 0.571845 0.093247
O O10 0.704601 0.550995 0.083330
O O11 0.500000 0.500000 0.000000
O O12 0.024344 0.417684 0.607900
#
# Coordination Sequence:
#
# PCOD8129996 Si02
#       6
#     8   4   8   8   8   8
#     4   9  21  36  57  88 110 148 190 232 286 348
#     4  10  16  36  54  80 122 140 178 236 286 348
#     4   9  16  30  58  78 111 145 170 230 293 338
#     4  10  22  41  58  79 118 157 196 241 273 320
#     4   8  20  38  53  87 115 137 194 231 278 350
#     4  11  19  37  62  80 114 152 179 239 296 331
#
# _framework density 18.265484000000001
#
# number of rings (size 3 to 8) (size 9 to 14) (size 15 to 20)
#    1.091    1.455    1.818    0.000    3.818    1.455 
#    3.273    0.909   24.000    0.000    0.000    0.000 
#    0.000    0.000    0.000    0.000    0.000    0.000 
#
# Total GULP energy -272538.681085 kJ/mol
# GULP energy per Si atom -12388.121868 kJ/mol
# Density = 1.822391 g / cm^3
# Si number density = 18.265484 Si / 1000 Ang^3
#
#
#
# Elastic Constant Matrix: (Units=GPa)
#
#
# Indices 1 2 3 4 5 6 
#
# 1 69.8163 16.4663 23.1332 0.0000 2.3617 0.0000
# 2 16.4663 79.8876 14.7406 0.0000 11.6117 0.0000
# 3 23.1332 14.7406 102.7366 0.0000 2.4493 0.0000
# 4 0.0000 0.0000 0.0000 5.6566 0.0000 1.1555
# 5 2.3617 11.6117 2.4493 0.0000 22.0748 0.0000
# 6 0.0000 0.0000 0.0000 1.1555 0.0000 22.2974
#
#
#
# Elastic Compliance Matrix: (Units=1/GPa)
#
#
# Indices 1 2 3 4 5 6 
#
# 1 0.016030 -0.002720 -0.003221 0.000000 0.000073 0.000000
# 2 -0.002720 0.014348 -0.001276 0.000000 -0.007115 0.000000
# 3 -0.003221 -0.001276 0.010646 0.000000 -0.000165 0.000000
# 4 0.000000 0.000000 0.000000 0.178677 0.000000 -0.009259
# 5 0.000073 -0.007115 -0.000165 0.000000 0.049053 0.000000
# 6 0.000000 0.000000 0.000000 -0.009259 0.000000 0.045328
#
#
# Mechanical properties :
#
#
# Convention : Reuss Voigt Hill
#
# Bulk Modulus (GPa) = 37.61070 40.12452 38.86761
# Shear Modulus (GPa) = 14.82008 23.21245 19.01626
#
# Velocity S-wave (km/s) = 2.85155 3.56875 3.23011
# Velocity P-wave (km/s) = 5.61049 6.24471 5.93607
#
# Compressibility (1/GPa) = 0.02658818
#
# Stress axis : x y z
#
# Youngs Moduli (GPa) = 62.38448 69.69641 93.93242
#
# Poissons Ratio (x) = 0.18960 0.30254
# Poissons Ratio (y) = 0.16971 0.11990
# Poissons Ratio (z) = 0.20093 0.08897
#
# Static dielectric constant tensor:
#      x y z
#    x 3.468410 0.000000 0.006100 
#    y 0.000000 2.954880 0.000000 
#    z 0.006100 0.000000 3.346140 
# 
# 
# High freq. dielectric constant tensor:
#      x y z
#    x 1.704680 0.000000 -0.001840 
#    y 0.000000 1.670180 0.000000 
#    z -0.001840 0.000000 1.703280 
# 
# From -- ./inp_files/262811.got.cif
#   From: 2010.06.25/outbox.cif.g09.slc.cpg/sg15_132_cif.got.tgz:262811.got - 2010.06.28 07:06:18.
