data_PCOD8129072
_publ_section_title
;
Structure prediction by ZEFSAII (Michael W. Deem and Ramdas Pophale) SiO2 
 PCOD8129072
Probable space group: P 21/C
;
_chemical_formula_sum "Si O2"
_cell_formula_units_Z 32
_cell_length_a 12.015946
_cell_length_b 19.876844
_cell_length_c 11.985874
_cell_angle_alpha 90.000000
_cell_angle_beta 148.645026
_cell_angle_gamma 90.000000
_cell_volume 1489.571101
_symmetry_space_group_name_H-M "P 21/C"
_symmetry_group_IT_number 14
_symmetry_cell_setting 'monoclinic'
loop_
_space_group_symop_operation_xyz
x,y,z
-x,1/2+y,1/2-z
-x,-y,-z
x,1/2-y,1/2+z
loop_
_atom_site_type_symbol
_atom_site_label
_atom_site_fract_x
_atom_site_fract_y
_atom_site_fract_z
Si Si1 0.243519 0.987468 0.190465
Si Si2 0.966393 0.314427 0.025479
Si Si3 0.491623 0.115860 0.475348
Si Si4 0.168832 0.677322 0.329400
Si Si5 0.630403 0.034677 0.955945
Si Si6 0.195999 0.453376 0.198599
Si Si7 0.423116 0.708101 0.159630
Si Si8 0.245919 0.220798 0.404979
O O1 0.287859 0.915720 0.289201
O O2 0.343867 0.051073 0.337795
O O3 0.320828 0.984029 0.129130
O O4 0.000000 0.000000 0.000000
O O5 0.113663 0.378425 0.136669
O O6 0.126169 0.255340 0.198666
O O7 0.845945 0.294738 0.808754
O O8 0.776895 0.326949 0.950983
O O9 0.509229 0.154545 0.374591
O O10 0.408563 0.165461 0.499652
O O11 0.241088 0.600415 0.395116
O O12 0.347353 0.721271 0.543661
O O13 0.931421 0.682871 0.174677
O O14 0.706074 0.973139 0.098091
O O15 0.376016 0.043869 0.755861
O O16 0.000000 0.500000 0.000000
O O17 0.624813 0.723641 0.412140
#
# Coordination Sequence:
#
# PCOD8129072 Si02
#       8
#     4   4   4   4   4   4   4   4
#     4  11  27  45  70  96 139 182 230 283 338 420
#     4  11  26  42  69 102 138 174 230 285 356 408
#     4  11  26  44  68  99 134 179 229 277 345 406
#     4  11  24  43  68 103 133 179 225 287 344 419
#     4  11  26  43  71  99 135 182 237 279 357 412
#     4  11  26  43  70 102 137 179 230 296 343 420
#     4  11  26  42  70  99 140 175 229 283 348 418
#     4  11  25  45  71 102 139 183 227 288 349 426
#
# _framework density 21.482693999999999
#
# number of rings (size 3 to 8) (size 9 to 14) (size 15 to 20)
#    0.000    1.000    1.250    3.000   12.250    5.000 
#    0.000    0.000    0.000    0.000    0.000    0.000 
#    0.000    0.000    0.000    0.000    0.000    0.000 
#
# Total GULP energy -396889.776629 kJ/mol
# GULP energy per Si atom -12402.805520 kJ/mol
# Density = 2.143380 g / cm^3
# Si number density = 21.482694 Si / 1000 Ang^3
#
#
#
# Elastic Constant Matrix: (Units=GPa)
#
#
# Indices 1 2 3 4 5 6 
#
# 1 114.2071 44.5853 38.9644 0.0000 5.5274 0.0000
# 2 44.5853 74.1632 24.4491 0.0000 10.2641 0.0000
# 3 38.9644 24.4491 95.5516 0.0000 11.0676 0.0000
# 4 0.0000 0.0000 0.0000 33.2642 0.0000 1.7996
# 5 5.5274 10.2641 11.0676 0.0000 44.8132 0.0000
# 6 0.0000 0.0000 0.0000 1.7996 0.0000 34.1267
#
#
#
# Elastic Compliance Matrix: (Units=1/GPa)
#
#
# Indices 1 2 3 4 5 6 
#
# 1 0.012423 -0.006421 -0.003517 0.000000 0.000807 0.000000
# 2 -0.006421 0.018325 -0.001725 0.000000 -0.002979 0.000000
# 3 -0.003517 -0.001725 0.012606 0.000000 -0.002284 0.000000
# 4 0.000000 0.000000 0.000000 0.030148 0.000000 -0.001590
# 5 0.000807 -0.002979 -0.002284 0.000000 0.023462 0.000000
# 6 0.000000 0.000000 0.000000 -0.001590 0.000000 0.029386
#
#
# Mechanical properties :
#
#
# Convention : Reuss Voigt Hill
#
# Bulk Modulus (GPa) = 49.92996 55.54660 52.73828
# Shear Modulus (GPa) = 31.97893 34.16902 33.07397
#
# Velocity S-wave (km/s) = 3.86241 3.99248 3.92798
# Velocity P-wave (km/s) = 6.57140 6.86773 6.72120
#
# Compressibility (1/GPa) = 0.02002805
#
# Stress axis : x y z
#
# Youngs Moduli (GPa) = 80.49289 54.56991 79.32972
#
# Poissons Ratio (x) = 0.35040 0.27897
# Poissons Ratio (y) = 0.51685 0.13688
# Poissons Ratio (z) = 0.28306 0.09416
#
# Static dielectric constant tensor:
#      x y z
#    x 3.961040 0.000000 0.119820 
#    y 0.000000 3.676290 0.000000 
#    z 0.119820 0.000000 4.040200 
# 
# 
# High freq. dielectric constant tensor:
#      x y z
#    x 1.853320 0.000000 0.001260 
#    y 0.000000 1.851570 0.000000 
#    z 0.001260 0.000000 1.859190 
# 
# From -- ./inp_files/30746.got.cif
#   From: 2010.03.12/outbox.cif.g09.slc.cpg/sg14_16_cif.got.tgz:30746.got - 2010.03.31 13:35:05.
