data_PCOD8129959
_publ_section_title
;
Structure prediction by ZEFSAII (Michael W. Deem and Ramdas Pophale) SiO2 
 PCOD8129959
Probable space group: C 2/C
;
_chemical_formula_sum "Si O2"
_cell_formula_units_Z 60
_cell_length_a 32.586760
_cell_length_b 10.532106
_cell_length_c 18.708674
_cell_angle_alpha 90.000000
_cell_angle_beta 151.926095
_cell_angle_gamma 90.000000
_cell_volume 3021.764605
_symmetry_space_group_name_H-M "C 2/C"
_symmetry_group_IT_number 15
_symmetry_cell_setting 'monoclinic'
loop_
_space_group_symop_operation_xyz
x,y,z
-x,y,1/2-z
-x,-y,-z
x,-y,1/2+z
1/2+x,1/2+y,z
1/2-x,1/2+y,1/2-z
1/2-x,1/2-y,-z
1/2+x,1/2-y,1/2+z
loop_
_atom_site_type_symbol
_atom_site_label
_atom_site_fract_x
_atom_site_fract_y
_atom_site_fract_z
Si Si1 0.816083 0.533285 0.144058
Si Si2 0.684019 0.094021 0.005859
Si Si3 0.597293 0.365262 0.531236
Si Si4 0.947992 0.689745 0.275002
Si Si5 0.500000 0.001440 0.750000
Si Si6 0.301284 0.711654 0.450429
Si Si7 0.789281 0.922116 0.267995
Si Si8 0.788496 0.679131 0.708246
O O1 0.901689 0.624704 0.272291
O O2 0.733788 0.612616 0.045701
O O3 0.835740 0.420068 0.228746
O O4 0.789806 0.478219 0.026435
O O5 0.717877 0.238674 0.055116
O O6 0.725515 0.029861 0.139508
O O7 0.580429 0.094437 0.858565
O O8 0.495669 0.324514 0.364828
O O9 0.651194 0.359474 0.540760
O O10 0.613189 0.511769 0.582401
O O11 0.632941 0.265428 0.643193
O O12 0.016280 0.590128 0.344438
O O13 0.871922 0.701763 0.098780
O O14 0.220282 0.796896 0.296018
O O15 0.761393 0.893050 0.305546
#
# Coordination Sequence:
#
# PCOD8129959 Si02
#       8
#     8   8   8   8   4   8   8   8
#     4  11  22  36  61  87 118 156 202 245 302 363
#     4  10  21  36  61  86 119 154 202 251 291 366
#     4  10  20  36  60  84 117 149 202 247 303 353
#     4  11  20  35  60  89 116 151 205 255 290 363
#     4  10  16  34  56  84 114 154 202 240 294 354
#     4  11  19  37  61  86 110 158 204 244 297 372
#     4  10  19  37  59  86 114 156 200 249 301 360
#     4  10  21  37  58  86 118 157 195 245 308 360
#
# _framework density 19.855948000000001
#
# number of rings (size 3 to 8) (size 9 to 14) (size 15 to 20)
#    0.000    1.600    5.333    1.600    0.000    0.533 
#    0.000    2.000    0.000    0.000    0.000    0.000 
#    0.000    0.000    0.000    0.000    0.000    0.000 
#
# Total GULP energy -371810.413686 kJ/mol
# GULP energy per Si atom -12393.680456 kJ/mol
# Density = 1.981075 g / cm^3
# Si number density = 19.855948 Si / 1000 Ang^3
#
#
#
# Elastic Constant Matrix: (Units=GPa)
#
#
# Indices 1 2 3 4 5 6 
#
# 1 102.0189 51.2317 45.3144 0.0000 0.3869 0.0000
# 2 51.2317 81.4163 38.4742 0.0000 -3.0730 0.0000
# 3 45.3144 38.4742 71.5749 0.0000 -1.7620 0.0000
# 4 0.0000 0.0000 0.0000 41.2759 0.0000 -0.3189
# 5 0.3869 -3.0730 -1.7620 0.0000 21.0007 0.0000
# 6 0.0000 0.0000 0.0000 -0.3189 0.0000 27.2141
#
#
#
# Elastic Compliance Matrix: (Units=1/GPa)
#
#
# Indices 1 2 3 4 5 6 
#
# 1 0.016352 -0.007302 -0.006474 0.000000 -0.001913 0.000000
# 2 -0.007302 0.019785 -0.005950 0.000000 0.002530 0.000000
# 3 -0.006474 -0.005950 0.021294 0.000000 0.001035 0.000000
# 4 0.000000 0.000000 0.000000 0.024229 0.000000 0.000284
# 5 -0.001913 0.002530 0.001035 0.000000 0.048110 0.000000
# 6 0.000000 0.000000 0.000000 0.000284 0.000000 0.036749
#
#
# Mechanical properties :
#
#
# Convention : Reuss Voigt Hill
#
# Bulk Modulus (GPa) = 55.62316 58.33896 56.98106
# Shear Modulus (GPa) = 23.58883 25.89746 24.74314
#
# Velocity S-wave (km/s) = 3.45047 3.61538 3.53389
# Velocity P-wave (km/s) = 6.62937 6.84638 6.73875
#
# Compressibility (1/GPa) = 0.01797812
#
# Stress axis : x y z
#
# Youngs Moduli (GPa) = 61.15357 50.54426 46.96159
#
# Poissons Ratio (x) = 0.36909 0.30405
# Poissons Ratio (y) = 0.44657 0.27940
# Poissons Ratio (z) = 0.39594 0.30071
#
# Static dielectric constant tensor:
#      x y z
#    x 3.622160 0.000000 -0.135420 
#    y 0.000000 3.759890 0.000000 
#    z -0.135420 0.000000 3.499620 
# 
# 
# High freq. dielectric constant tensor:
#      x y z
#    x 1.771020 0.000000 -0.012870 
#    y 0.000000 1.773240 0.000000 
#    z -0.012870 0.000000 1.749510 
# 
# From -- ./inp_files/225023.got.cif
#   From: 2010.06.25/outbox.cif.g09.slc.cpg/sg15_113_cif.got.tgz:225023.got - 2010.06.28 07:06:18.
