data_PCOD8129954
_publ_section_title
;
Structure prediction by ZEFSAII (Michael W. Deem and Ramdas Pophale) SiO2 
 PCOD8129954
Probable space group: C 2/C
;
_chemical_formula_sum "Si O2"
_cell_formula_units_Z 44
_cell_length_a 8.576305
_cell_length_b 22.715963
_cell_length_c 12.012502
_cell_angle_alpha 90.000000
_cell_angle_beta 72.943049
_cell_angle_gamma 90.000000
_cell_volume 2237.324333
_symmetry_space_group_name_H-M "C 2/C"
_symmetry_group_IT_number 15
_symmetry_cell_setting 'monoclinic'
loop_
_space_group_symop_operation_xyz
x,y,z
-x,y,1/2-z
-x,-y,-z
x,-y,1/2+z
1/2+x,1/2+y,z
1/2-x,1/2+y,1/2-z
1/2-x,1/2-y,-z
1/2+x,1/2-y,1/2+z
loop_
_atom_site_type_symbol
_atom_site_label
_atom_site_fract_x
_atom_site_fract_y
_atom_site_fract_z
Si Si1 0.568502 0.558459 0.116640
Si Si2 0.195505 0.347509 0.867715
Si Si3 0.685680 0.759915 0.688687
Si Si4 0.000000 0.566469 0.250000
Si Si5 0.141413 0.333560 0.479575
Si Si6 0.260976 0.545093 0.028967
O O1 0.500000 0.538837 0.250000
O O2 0.650680 0.623042 0.103794
O O3 0.426731 0.562785 0.056416
O O4 0.707236 0.511296 0.054631
O O5 0.256601 0.290571 0.785459
O O6 0.119298 0.392525 0.795254
O O7 0.055849 0.330842 0.986555
O O8 0.500000 0.741289 0.750000
O O9 0.787836 0.701077 0.641305
O O10 0.700769 0.805104 0.583020
O O11 0.115730 0.527582 0.145626
O O12 0.205668 0.400543 0.463292
#
# Coordination Sequence:
#
# PCOD8129954 Si02
#       6
#     8   8   8   4   8   8
#     4  11  21  35  56  81 116 150 182 230 285 331
#     4  10  17  33  55  81 107 146 187 223 278 335
#     4   9  15  29  54  80 104 142 185 230 263 328
#     4  10  16  34  54  80 108 148 192 218 268 344
#     4   9  17  30  53  79 106 138 192 222 268 319
#     4  10  21  35  54  84 113 147 189 229 273 336
#
# _framework density 19.666349
#
# number of rings (size 3 to 8) (size 9 to 14) (size 15 to 20)
#    0.000    2.182    6.364    0.000    0.000    3.636 
#    0.000    0.000    0.000   24.000    0.000    0.000 
#    0.000    0.000    0.000    0.000    0.000    0.000 
#
# Total GULP energy -272753.956940 kJ/mol
# GULP energy per Si atom -12397.907134 kJ/mol
# Density = 1.962159 g / cm^3
# Si number density = 19.666349 Si / 1000 Ang^3
#
#
#
# Elastic Constant Matrix: (Units=GPa)
#
#
# Indices 1 2 3 4 5 6 
#
# 1 57.9162 40.5875 40.3429 0.0000 -15.9285 0.0000
# 2 40.5875 100.2371 68.7329 0.0000 -26.5246 0.0000
# 3 40.3429 68.7329 99.9086 0.0000 -36.3590 0.0000
# 4 0.0000 0.0000 0.0000 33.9509 0.0000 -13.9256
# 5 -15.9285 -26.5246 -36.3590 0.0000 32.2737 0.0000
# 6 0.0000 0.0000 0.0000 -13.9256 0.0000 32.2444
#
#
#
# Elastic Compliance Matrix: (Units=1/GPa)
#
#
# Indices 1 2 3 4 5 6 
#
# 1 0.025991 -0.006265 -0.005747 0.000000 0.001205 0.000000
# 2 -0.006265 0.020438 -0.011090 0.000000 0.001212 0.000000
# 3 -0.005747 -0.011090 0.026457 0.000000 0.017855 0.000000
# 4 0.000000 0.000000 0.000000 0.035795 0.000000 0.015459
# 5 0.001205 0.001212 0.017855 0.000000 0.052691 0.000000
# 6 0.000000 0.000000 0.000000 0.015459 0.000000 0.037690
#
#
# Mechanical properties :
#
#
# Convention : Reuss Voigt Hill
#
# Bulk Modulus (GPa) = 37.47667 61.93205 49.70436
# Shear Modulus (GPa) = 19.67271 26.92037 23.29654
#
# Velocity S-wave (km/s) = 3.16622 3.70382 3.44552
# Velocity P-wave (km/s) = 5.69774 7.06051 6.41541
#
# Compressibility (1/GPa) = 0.02668326
#
# Stress axis : x y z
#
# Youngs Moduli (GPa) = 38.47473 48.92846 37.79712
#
# Poissons Ratio (x) = 0.30652 0.21722
# Poissons Ratio (y) = 0.24103 0.41916
# Poissons Ratio (z) = 0.22111 0.54261
#
# Static dielectric constant tensor:
#      x y z
#    x 3.655830 0.000000 -0.375460 
#    y 0.000000 3.526540 0.000000 
#    z -0.375460 0.000000 3.692920 
# 
# 
# High freq. dielectric constant tensor:
#      x y z
#    x 1.755410 0.000000 -0.029980 
#    y 0.000000 1.745810 0.000000 
#    z -0.029980 0.000000 1.755160 
# 
# From -- ./inp_files/78112.got.cif
#   From: 2010.06.25/outbox.cif.g09.slc.cpg/sg15_40_cif.got.tgz:78112.got - 2010.06.28 07:06:18.
