data_PCOD8129445
_publ_section_title
;
Structure prediction by ZEFSAII (Michael W. Deem and Ramdas Pophale) SiO2 
 PCOD8129445
Probable space group: P 21/C
;
_chemical_formula_sum "Si O2"
_cell_formula_units_Z 32
_cell_length_a 24.793031
_cell_length_b 11.255117
_cell_length_c 14.693293
_cell_angle_alpha 90.000000
_cell_angle_beta 20.979389
_cell_angle_gamma 90.000000
_cell_volume 1467.981997
_symmetry_space_group_name_H-M "P 21/C"
_symmetry_group_IT_number 14
_symmetry_cell_setting 'monoclinic'
loop_
_space_group_symop_operation_xyz
x,y,z
-x,1/2+y,1/2-z
-x,-y,-z
x,1/2-y,1/2+z
loop_
_atom_site_type_symbol
_atom_site_label
_atom_site_fract_x
_atom_site_fract_y
_atom_site_fract_z
Si Si1 0.163446 0.463981 0.413651
Si Si2 0.343755 0.429834 0.741252
Si Si3 0.756117 0.746950 0.463386
Si Si4 0.355736 0.254115 0.057080
Si Si5 0.145638 0.851768 0.568031
Si Si6 0.693813 0.213553 0.026866
Si Si7 0.897203 0.218150 0.045382
Si Si8 0.341361 0.009792 0.799576
O O1 0.129627 0.576025 0.401090
O O2 0.199816 0.515652 0.456038
O O3 0.025209 0.371768 0.630153
O O4 0.312359 0.389302 0.152049
O O5 0.500000 0.500000 0.500000
O O6 0.320003 0.366735 0.876814
O O7 0.326920 0.335541 0.685923
O O8 0.209420 0.521808 0.935355
O O9 0.743414 0.727650 0.375559
O O10 0.666080 0.642462 0.652841
O O11 0.930772 0.746561 0.213014
O O12 0.529491 0.243120 0.755213
O O13 0.244772 0.802668 0.493959
O O14 0.156113 0.758844 0.469727
O O15 0.800716 0.211863 0.771522
O O16 0.678679 0.080096 0.086044
O O17 0.500000 0.000000 0.500000
#
# Coordination Sequence:
#
# PCOD8129445 Si02
#       8
#     4   4   4   4   4   4   4   4
#     4  12  25  49  79 100 152 196 248 303 378 446
#     4  12  26  48  74 106 149 194 247 307 371 448
#     4  12  28  48  73 107 153 193 248 302 380 440
#     4  12  28  46  73 110 144 196 243 305 370 446
#     4  12  26  47  75 105 144 193 246 306 374 442
#     4  12  28  45  74 111 146 190 250 303 375 440
#     4  12  28  47  73 112 145 197 246 314 369 448
#     4  12  25  48  74 105 145 195 245 307 368 445
#
# _framework density 21.798632000000001
#
# number of rings (size 3 to 8) (size 9 to 14) (size 15 to 20)
#    0.000    0.000    7.500    0.750    7.000    2.500 
#    0.000    0.000    0.000    0.000    0.000    0.000 
#    0.000    0.000    0.000    0.000    0.000    0.000 
#
# Total GULP energy -396922.207949 kJ/mol
# GULP energy per Si atom -12403.818998 kJ/mol
# Density = 2.174902 g / cm^3
# Si number density = 21.798632 Si / 1000 Ang^3
#
#
#
# Elastic Constant Matrix: (Units=GPa)
#
#
# Indices 1 2 3 4 5 6 
#
# 1 100.7538 30.7763 17.9517 0.0000 4.8939 0.0000
# 2 30.7763 116.2525 51.4820 0.0000 0.5490 0.0000
# 3 17.9517 51.4820 108.9062 0.0000 11.9622 0.0000
# 4 0.0000 0.0000 0.0000 37.8295 0.0000 -0.9374
# 5 4.8939 0.5490 11.9622 0.0000 28.4621 0.0000
# 6 0.0000 0.0000 0.0000 -0.9374 0.0000 33.7705
#
#
#
# Elastic Compliance Matrix: (Units=1/GPa)
#
#
# Indices 1 2 3 4 5 6 
#
# 1 0.010900 -0.002737 -0.000317 0.000000 -0.001688 0.000000
# 2 -0.002737 0.011682 -0.005345 0.000000 0.002492 0.000000
# 3 -0.000317 -0.005345 0.012312 0.000000 -0.005017 0.000000
# 4 0.000000 0.000000 0.000000 0.026453 0.000000 0.000734
# 5 -0.001688 0.002492 -0.005017 0.000000 0.037485 0.000000
# 6 0.000000 0.000000 0.000000 0.000734 0.000000 0.029632
#
#
# Mechanical properties :
#
#
# Convention : Reuss Voigt Hill
#
# Bulk Modulus (GPa) = 55.26288 58.48140 56.87214
# Shear Modulus (GPa) = 33.04838 35.05925 34.05381
#
# Velocity S-wave (km/s) = 3.89791 4.01474 3.95675
# Velocity P-wave (km/s) = 6.75757 6.95537 6.85718
#
# Compressibility (1/GPa) = 0.01809533
#
# Stress axis : x y z
#
# Youngs Moduli (GPa) = 91.74494 85.60432 81.22082
#
# Poissons Ratio (x) = 0.23430 0.02578
# Poissons Ratio (y) = 0.25111 0.43410
# Poissons Ratio (z) = 0.02912 0.45753
#
# Static dielectric constant tensor:
#      x y z
#    x 4.120900 0.000000 -0.013330 
#    y 0.000000 4.059750 0.000000 
#    z -0.013330 0.000000 4.097880 
# 
# 
# High freq. dielectric constant tensor:
#      x y z
#    x 1.864140 0.000000 -0.008270 
#    y 0.000000 1.867580 0.000000 
#    z -0.008270 0.000000 1.865130 
# 
# From -- ./inp_files/52030.got.cif
#   From: 2010.03.12/outbox.cif.g09.slc.cpg/sg14_27_cif.got.tgz:52030.got - 2010.03.31 13:35:05.
