data_PCOD8129832
_publ_section_title
;
Structure prediction by ZEFSAII (Michael W. Deem and Ramdas Pophale) SiO2 
 PCOD8129832
Probable space group: C 2/C
;
_chemical_formula_sum "Si O2"
_cell_formula_units_Z 56
_cell_length_a 26.570219
_cell_length_b 20.423743
_cell_length_c 5.281678
_cell_angle_alpha 90.000000
_cell_angle_beta 79.700243
_cell_angle_gamma 90.000000
_cell_volume 2819.986847
_symmetry_space_group_name_H-M "C 2/C"
_symmetry_group_IT_number 15
_symmetry_cell_setting 'monoclinic'
loop_
_space_group_symop_operation_xyz
x,y,z
-x,y,1/2-z
-x,-y,-z
x,-y,1/2+z
1/2+x,1/2+y,z
1/2-x,1/2+y,1/2-z
1/2-x,1/2-y,-z
1/2+x,1/2-y,1/2+z
loop_
_atom_site_type_symbol
_atom_site_label
_atom_site_fract_x
_atom_site_fract_y
_atom_site_fract_z
Si Si1 0.872104 0.983185 0.395778
Si Si2 0.061147 0.535460 0.691491
Si Si3 0.716089 0.315172 0.522803
Si Si4 0.763914 0.962532 0.990990
Si Si5 0.559951 0.743478 0.703471
Si Si6 0.060035 0.319987 0.203652
Si Si7 0.154728 0.162668 0.577451
O O1 0.843201 0.914967 0.422960
O O2 0.905769 0.000230 0.615272
O O3 0.825815 0.035955 0.436327
O O4 0.082292 0.498234 0.426324
O O5 0.084622 0.608230 0.659733
O O6 0.000000 0.535289 0.750000
O O7 0.750000 0.250000 0.500000
O O8 0.748811 0.383890 0.498988
O O9 0.684185 0.309348 0.292663
O O10 0.679223 0.310046 0.798913
O O11 0.741917 0.000113 0.761050
O O12 0.500000 0.724301 0.750000
O O13 0.575868 0.790321 0.458294
O O14 0.594201 0.679091 0.644794
O O15 0.577072 0.776712 0.950467
O O16 0.000000 0.328552 0.250000
#
# Coordination Sequence:
#
# PCOD8129832 Si02
#       7
#     8   8   8   8   8   8   8
#     4  10  16  30  54  79 104 140 190 220 261 330
#     4   9  15  23  40  67  95 116 154 220 283 318
#     4  12  23  35  55  91 121 141 182 239 290 336
#     4  10  16  32  54  79 108 147 188 217 262 343
#     4  10  21  35  53  76 106 151 196 227 279 338
#     4   9  17  31  47  70 103 135 174 226 276 337
#     4  12  21  36  57  82 115 152 181 241 281 318
#
# _framework density 19.858250999999999
#
# number of rings (size 3 to 8) (size 9 to 14) (size 15 to 20)
#    0.000    1.714    5.714    2.143    0.000    3.429 
#    0.000    0.000    0.000    0.857    0.000   20.000 
#    0.000    0.000    0.000    0.000    0.000    0.000 
#
# Total GULP energy -346931.233213 kJ/mol
# GULP energy per Si atom -12390.401186 kJ/mol
# Density = 1.981305 g / cm^3
# Si number density = 19.858251 Si / 1000 Ang^3
#
#
#
# Elastic Constant Matrix: (Units=GPa)
#
#
# Indices 1 2 3 4 5 6 
#
# 1 32.6007 30.2662 32.8912 0.0000 0.2727 0.0000
# 2 30.2662 115.8237 44.6276 0.0000 -3.2837 0.0000
# 3 32.8912 44.6276 184.0394 0.0000 27.5404 0.0000
# 4 0.0000 0.0000 0.0000 -72.5758 0.0000 -73.9216
# 5 0.2727 -3.2837 27.5404 0.0000 14.9367 0.0000
# 6 0.0000 0.0000 0.0000 -73.9216 0.0000 -53.0086
#
#
#
# Elastic Compliance Matrix: (Units=1/GPa)
#
#
# Indices 1 2 3 4 5 6 
#
# 1 0.046861 -0.008806 -0.008040 0.000000 0.012033 0.000000
# 2 -0.008806 0.012090 -0.002458 0.000000 0.007351 0.000000
# 3 -0.008040 -0.002458 0.010393 0.000000 -0.019556 0.000000
# 4 0.000000 0.000000 0.000000 0.032777 0.000000 -0.045708
# 5 0.012033 0.007351 -0.019556 0.000000 0.104404 0.000000
# 6 0.000000 0.000000 0.000000 -0.045708 0.000000 0.044876
#
#
# Mechanical properties :
#
#
# Convention : Reuss Voigt Hill
#
# Bulk Modulus (GPa) = 32.53543 60.89265 46.71404
# Shear Modulus (GPa) = 16.65247 -7.15096 4.75076
#
# Velocity S-wave (km/s) = 2.89894 -1.89969 1.54840
# Velocity P-wave (km/s) = 5.25591 5.09102 5.17412
#
# Compressibility (1/GPa) = 0.03073572
#
# Stress axis : x y z
#
# Youngs Moduli (GPa) = 21.33967 82.70965 96.21787
#
# Poissons Ratio (x) = 0.72837 0.77361
# Poissons Ratio (y) = 0.18792 0.23650
# Poissons Ratio (z) = 0.17157 0.20330
#
# Static dielectric constant tensor:
#      x y z
#    x 2.837150 0.000000 0.255280 
#    y 0.000000 3.746230 0.000000 
#    z 0.255280 0.000000 4.207900 
# 
# 
# High freq. dielectric constant tensor:
#      x y z
#    x 1.698940 0.000000 0.031340 
#    y 0.000000 1.782520 0.000000 
#    z 0.031340 0.000000 1.804730 
# 
# From -- ./inp_files/17158.got.cif
#   From: 2010.06.25/outbox.cif.g09.slc.cpg/sg15_9_cif.got.tgz:17158.got - 2010.06.28 07:06:18.
