data_PCOD8129241
_publ_section_title
;
Structure prediction by ZEFSAII (Michael W. Deem and Ramdas Pophale) SiO2 
 PCOD8129241
Probable space group: P 21/C
;
_chemical_formula_sum "Si O2"
_cell_formula_units_Z 20
_cell_length_a 6.558754
_cell_length_b 16.220746
_cell_length_c 10.374955
_cell_angle_alpha 90.000000
_cell_angle_beta 51.842893
_cell_angle_gamma 90.000000
_cell_volume 867.915620
_symmetry_space_group_name_H-M "P 21/C"
_symmetry_group_IT_number 14
_symmetry_cell_setting 'monoclinic'
loop_
_space_group_symop_operation_xyz
x,y,z
-x,1/2+y,1/2-z
-x,-y,-z
x,1/2-y,1/2+z
loop_
_atom_site_type_symbol
_atom_site_label
_atom_site_fract_x
_atom_site_fract_y
_atom_site_fract_z
Si Si1 0.760097 0.061094 0.615111
Si Si2 0.874476 0.223396 0.430116
Si Si3 0.588584 0.123635 0.939524
Si Si4 0.047871 0.322292 0.597197
Si Si5 0.277458 0.961441 0.863341
O O1 0.788877 0.098170 0.748526
O O2 0.758807 0.134382 0.511214
O O3 0.483869 0.014788 0.702042
O O4 0.000000 0.000000 0.500000
O O5 0.043888 0.255065 0.484731
O O6 0.062715 0.216993 0.233276
O O7 0.650569 0.287173 0.476476
O O8 0.309118 0.124294 0.978393
O O9 0.585251 0.056421 0.053695
O O10 0.787138 0.377589 0.689206
O O11 0.000000 0.000000 0.000000
#
# Coordination Sequence:
#
# PCOD8129241 Si02
#       5
#     4   4   4   4   4
#     4  12  26  47  75 111 149 193 250 311 369 445
#     4  11  26  46  72 109 145 200 246 307 369 451
#     4  11  25  47  73 104 153 195 249 307 374 445
#     4  11  25  46  75 104 150 198 249 302 374 448
#     4  11  25  45  74 107 146 197 242 308 379 432
#
# _framework density 23.043714000000001
#
# number of rings (size 3 to 8) (size 9 to 14) (size 15 to 20)
#    0.000    0.800    4.000    1.800    5.600    2.400 
#    0.000    0.000    0.000    0.000    0.000    0.000 
#    0.000    0.000    0.000    0.000    0.000    0.000 
#
# Total GULP energy -247999.384311 kJ/mol
# GULP energy per Si atom -12399.969216 kJ/mol
# Density = 2.299127 g / cm^3
# Si number density = 23.043714 Si / 1000 Ang^3
#
#
#
# Elastic Constant Matrix: (Units=GPa)
#
#
# Indices 1 2 3 4 5 6 
#
# 1 124.5048 60.6849 73.8475 0.0000 1.9293 0.0000
# 2 60.6849 110.4887 56.6037 0.0000 -0.1125 0.0000
# 3 73.8475 56.6037 138.6302 0.0000 7.9520 0.0000
# 4 0.0000 0.0000 0.0000 43.8553 0.0000 6.2933
# 5 1.9293 -0.1125 7.9520 0.0000 52.7157 0.0000
# 6 0.0000 0.0000 0.0000 6.2933 0.0000 36.4920
#
#
#
# Elastic Compliance Matrix: (Units=1/GPa)
#
#
# Indices 1 2 3 4 5 6 
#
# 1 0.013428 -0.004681 -0.005258 0.000000 0.000292 0.000000
# 2 -0.004681 0.013105 -0.002894 0.000000 0.000636 0.000000
# 3 -0.005258 -0.002894 0.011283 0.000000 -0.001516 0.000000
# 4 0.000000 0.000000 0.000000 0.023381 0.000000 -0.004032
# 5 0.000292 0.000636 -0.001516 0.000000 0.019189 0.000000
# 6 0.000000 0.000000 0.000000 -0.004032 0.000000 0.028099
#
#
# Mechanical properties :
#
#
# Convention : Reuss Voigt Hill
#
# Bulk Modulus (GPa) = 82.30800 83.98844 83.14822
# Shear Modulus (GPa) = 36.17948 38.77842 37.47895
#
# Velocity S-wave (km/s) = 3.96667 4.10667 4.03728
# Velocity P-wave (km/s) = 7.53492 7.68198 7.60881
#
# Compressibility (1/GPa) = 0.01214949
#
# Stress axis : x y z
#
# Youngs Moduli (GPa) = 74.47298 76.30821 88.62872
#
# Poissons Ratio (x) = 0.35719 0.46604
# Poissons Ratio (y) = 0.34860 0.25647
# Poissons Ratio (z) = 0.39161 0.22082
#
# Static dielectric constant tensor:
#      x y z
#    x 4.103520 0.000000 0.163880 
#    y 0.000000 4.484530 0.000000 
#    z 0.163880 0.000000 4.002720 
# 
# 
# High freq. dielectric constant tensor:
#      x y z
#    x 1.908540 0.000000 0.011910 
#    y 0.000000 1.929950 0.000000 
#    z 0.011910 0.000000 1.903890 
# 
# From -- ./inp_files/21016.got.cif
#   From: 2010.03.12/outbox.cif.g09.slc.cpg/sg14_11_cif.got.tgz:21016.got - 2010.03.31 13:35:05.
