data_PCOD8129800
_publ_section_title
;
Structure prediction by ZEFSAII (Michael W. Deem and Ramdas Pophale) SiO2 
 PCOD8129800
Probable space group: C 2/C
;
_chemical_formula_sum "Si O2"
_cell_formula_units_Z 52
_cell_length_a 19.724927
_cell_length_b 28.495930
_cell_length_c 5.118723
_cell_angle_alpha 90.000000
_cell_angle_beta 70.520879
_cell_angle_gamma 90.000000
_cell_volume 2712.454302
_symmetry_space_group_name_H-M "C 2/C"
_symmetry_group_IT_number 15
_symmetry_cell_setting 'monoclinic'
loop_
_space_group_symop_operation_xyz
x,y,z
-x,y,1/2-z
-x,-y,-z
x,-y,1/2+z
1/2+x,1/2+y,z
1/2-x,1/2+y,1/2-z
1/2-x,1/2-y,-z
1/2+x,1/2-y,1/2+z
loop_
_atom_site_type_symbol
_atom_site_label
_atom_site_fract_x
_atom_site_fract_y
_atom_site_fract_z
Si Si1 0.582511 0.288159 0.168045
Si Si2 0.500000 0.531616 0.750000
Si Si3 0.531766 0.948174 0.457342
Si Si4 0.884853 0.893199 0.332999
Si Si5 0.303073 0.969153 0.286703
Si Si6 0.820612 0.218941 0.457866
Si Si7 0.699114 0.387537 0.552183
O O1 0.500000 0.268085 0.250000
O O2 0.573497 0.344101 0.204879
O O3 0.630561 0.268226 0.349373
O O4 0.625303 0.274963 0.852487
O O5 0.500000 0.500000 0.500000
O O6 0.568783 0.563853 0.630214
O O7 0.500000 0.920184 0.250000
O O8 0.615943 0.952325 0.331108
O O9 0.500000 0.000000 0.500000
O O10 0.500000 0.920939 0.750000
O O11 0.865171 0.903481 0.057387
O O12 0.817445 0.892821 0.619447
O O13 0.265138 0.919910 0.386776
O O14 0.283367 0.006281 0.538582
O O15 0.750000 0.250000 0.500000
O O16 0.786964 0.166984 0.530662
#
# Coordination Sequence:
#
# PCOD8129800 Si02
#       7
#     8   4   8   8   8   8   8
#     4  10  19  36  64  89 108 148 200 242 277 344
#     4  12  24  34  54  74 108 158 190 234 294 322
#     4  10  16  30  48  70  94 123 181 220 259 312
#     4  10  21  39  51  76 110 142 194 235 268 333
#     4  12  21  32  52  77 104 144 180 229 272 326
#     4  10  21  38  61  88 119 152 185 243 303 356
#     4  10  23  36  55  79 112 146 187 229 283 336
#
# _framework density 19.170831
#
# number of rings (size 3 to 8) (size 9 to 14) (size 15 to 20)
#    0.000    1.538    3.846    2.769    0.000    3.692 
#    0.000    0.000    0.000    2.769    0.000    0.000 
#    0.000    0.000    0.000    0.000    0.000    0.000 
#
# Total GULP energy -322141.608210 kJ/mol
# GULP energy per Si atom -12390.061854 kJ/mol
# Density = 1.912720 g / cm^3
# Si number density = 19.170831 Si / 1000 Ang^3
#
#
#
# Elastic Constant Matrix: (Units=GPa)
#
#
# Indices 1 2 3 4 5 6 
#
# 1 122.0873 49.5935 47.5218 0.0000 -1.7840 0.0000
# 2 49.5935 59.7458 19.8459 0.0000 -2.3583 0.0000
# 3 47.5218 19.8459 126.5456 0.0000 18.2807 0.0000
# 4 0.0000 0.0000 0.0000 20.2846 0.0000 3.0093
# 5 -1.7840 -2.3583 18.2807 0.0000 39.4975 0.0000
# 6 0.0000 0.0000 0.0000 3.0093 0.0000 31.1252
#
#
#
# Elastic Compliance Matrix: (Units=1/GPa)
#
#
# Indices 1 2 3 4 5 6 
#
# 1 0.013839 -0.010130 -0.003870 0.000000 0.001811 0.000000
# 2 -0.010130 0.025307 -0.000340 0.000000 0.001211 0.000000
# 3 -0.003870 -0.000340 0.010113 0.000000 -0.004876 0.000000
# 4 0.000000 0.000000 0.000000 0.050016 0.000000 -0.004836
# 5 0.001811 0.001211 -0.004876 0.000000 0.027729 0.000000
# 6 0.000000 0.000000 0.000000 -0.004836 0.000000 0.032596
#
#
# Mechanical properties :
#
#
# Convention : Reuss Voigt Hill
#
# Bulk Modulus (GPa) = 48.59155 60.25568 54.42361
# Shear Modulus (GPa) = 25.62287 30.94261 28.28274
#
# Velocity S-wave (km/s) = 3.65986 4.02188 3.84513
# Velocity P-wave (km/s) = 6.57731 7.28468 6.94001
#
# Compressibility (1/GPa) = 0.02057971
#
# Stress axis : x y z
#
# Youngs Moduli (GPa) = 72.26144 39.51478 98.88154
#
# Poissons Ratio (x) = 0.40029 0.38265
# Poissons Ratio (y) = 0.73202 0.03357
# Poissons Ratio (z) = 0.27964 0.01342
#
# Static dielectric constant tensor:
#      x y z
#    x 3.598400 0.000000 0.372160 
#    y 0.000000 3.201500 0.000000 
#    z 0.372160 0.000000 3.962390 
# 
# 
# High freq. dielectric constant tensor:
#      x y z
#    x 1.749850 0.000000 0.011010 
#    y 0.000000 1.704570 0.000000 
#    z 0.011010 0.000000 1.771920 
# 
# From -- ./inp_files/11222.got.cif
#   From: 2010.06.25/outbox.cif.g09.slc.cpg/sg15_6_cif.got.tgz:11222.got - 2010.06.28 07:06:18.
