data_PCOD8129943
_publ_section_title
;
Structure prediction by ZEFSAII (Michael W. Deem and Ramdas Pophale) SiO2 
 PCOD8129943
Probable space group: C 2/C
;
_chemical_formula_sum "Si O2"
_cell_formula_units_Z 56
_cell_length_a 27.733874
_cell_length_b 12.259478
_cell_length_c 14.584882
_cell_angle_alpha 90.000000
_cell_angle_beta 30.849306
_cell_angle_gamma 90.000000
_cell_volume 2542.834444
_symmetry_space_group_name_H-M "C 2/C"
_symmetry_group_IT_number 15
_symmetry_cell_setting 'monoclinic'
loop_
_space_group_symop_operation_xyz
x,y,z
-x,y,1/2-z
-x,-y,-z
x,-y,1/2+z
1/2+x,1/2+y,z
1/2-x,1/2+y,1/2-z
1/2-x,1/2-y,-z
1/2+x,1/2-y,1/2+z
loop_
_atom_site_type_symbol
_atom_site_label
_atom_site_fract_x
_atom_site_fract_y
_atom_site_fract_z
Si Si1 0.689480 0.468795 0.270177
Si Si2 0.500529 0.121026 0.352620
Si Si3 0.835564 0.238498 0.578293
Si Si4 0.621846 0.703480 0.377005
Si Si5 0.153200 0.459620 0.853717
Si Si6 0.645812 0.786557 0.148717
Si Si7 0.188385 0.532349 0.096128
O O1 0.640067 0.368579 0.402367
O O2 0.619375 0.572300 0.387609
O O3 0.787257 0.493664 0.159991
O O4 0.719393 0.441524 0.116025
O O5 0.500000 0.079699 0.250000
O O6 0.456481 0.242877 0.429544
O O7 0.606999 0.122898 0.215737
O O8 0.437929 0.035239 0.513361
O O9 0.723877 0.251764 0.741703
O O10 0.876713 0.336655 0.572563
O O11 0.887732 0.234721 0.393827
O O12 0.588317 0.741179 0.329541
O O13 0.216427 0.464271 0.657729
O O14 0.643544 0.916515 0.141162
O O15 0.750000 0.750000 0.000000
#
# Coordination Sequence:
#
# PCOD8129943 Si02
#       7
#     8   8   8   8   8   8   8
#     4  11  21  37  57  88 117 150 202 239 302 353
#     4  12  21  36  57  87 122 150 193 249 311 354
#     4  10  19  35  55  81 118 151 196 247 291 350
#     4  10  20  33  58  85 112 156 197 247 293 364
#     4  11  21  34  54  87 121 146 192 250 299 351
#     4  10  16  33  56  83 114 152 200 243 294 350
#     4  12  21  34  59  90 118 152 192 254 306 354
#
# _framework density 22.022669
#
# number of rings (size 3 to 8) (size 9 to 14) (size 15 to 20)
#    0.000    1.143    8.571    1.286    0.000    0.571 
#    0.000    0.000    0.000    3.429    0.000    0.000 
#    0.000    0.000    0.000    0.000    0.000    0.000 
#
# Total GULP energy -347122.666657 kJ/mol
# GULP energy per Si atom -12397.238095 kJ/mol
# Density = 2.197254 g / cm^3
# Si number density = 22.022669 Si / 1000 Ang^3
#
#
#
# Elastic Constant Matrix: (Units=GPa)
#
#
# Indices 1 2 3 4 5 6 
#
# 1 54.5482 22.6245 30.0411 0.0000 34.9389 0.0000
# 2 22.6245 133.4233 32.7157 0.0000 15.2585 0.0000
# 3 30.0411 32.7157 47.3895 0.0000 21.5090 0.0000
# 4 0.0000 0.0000 0.0000 29.1559 0.0000 6.9860
# 5 34.9389 15.2585 21.5090 0.0000 42.5386 0.0000
# 6 0.0000 0.0000 0.0000 6.9860 0.0000 27.8918
#
#
#
# Elastic Compliance Matrix: (Units=1/GPa)
#
#
# Indices 1 2 3 4 5 6 
#
# 1 0.046224 -0.000675 -0.015203 0.000000 -0.030036 0.000000
# 2 -0.000675 0.009032 -0.005956 0.000000 0.000326 0.000000
# 3 -0.015203 -0.005956 0.036617 0.000000 -0.003891 0.000000
# 4 0.000000 0.000000 0.000000 0.036488 0.000000 -0.009139
# 5 -0.030036 0.000326 -0.003891 0.000000 0.050029 0.000000
# 6 0.000000 0.000000 0.000000 -0.009139 0.000000 0.038142
#
#
# Mechanical properties :
#
#
# Convention : Reuss Voigt Hill
#
# Bulk Modulus (GPa) = 20.74460 45.12487 32.93473
# Shear Modulus (GPa) = 18.09824 29.91589 24.00707
#
# Velocity S-wave (km/s) = 2.86982 3.68966 3.30526
# Velocity P-wave (km/s) = 4.51899 6.21982 5.43633
#
# Compressibility (1/GPa) = 0.04820531
#
# Stress axis : x y z
#
# Youngs Moduli (GPa) = 21.63370 110.71153 27.30964
#
# Poissons Ratio (x) = 0.07476 0.41520
# Poissons Ratio (y) = 0.01461 0.16264
# Poissons Ratio (z) = 0.32891 0.65935
#
# Static dielectric constant tensor:
#      x y z
#    x 3.817430 0.000000 0.528410 
#    y 0.000000 4.014730 0.000000 
#    z 0.528410 0.000000 3.806410 
# 
# 
# High freq. dielectric constant tensor:
#      x y z
#    x 1.853400 0.000000 0.040870 
#    y 0.000000 1.857000 0.000000 
#    z 0.040870 0.000000 1.839260 
# 
# From -- ./inp_files/181881.got.cif
#   From: 2010.06.25/outbox.cif.g09.slc.cpg/sg15_91_cif.got.tgz:181881.got - 2010.06.28 07:06:18.
