data_PCOD8129069
_publ_section_title
;
Structure prediction by ZEFSAII (Michael W. Deem and Ramdas Pophale) SiO2 
 PCOD8129069
Probable space group: P 21/C
;
_chemical_formula_sum "Si O2"
_cell_formula_units_Z 20
_cell_length_a 13.018027
_cell_length_b 10.441495
_cell_length_c 10.017180
_cell_angle_alpha 90.000000
_cell_angle_beta 142.552473
_cell_angle_gamma 90.000000
_cell_volume 827.907132
_symmetry_space_group_name_H-M "P 21/C"
_symmetry_group_IT_number 14
_symmetry_cell_setting 'monoclinic'
loop_
_space_group_symop_operation_xyz
x,y,z
-x,1/2+y,1/2-z
-x,-y,-z
x,1/2-y,1/2+z
loop_
_atom_site_type_symbol
_atom_site_label
_atom_site_fract_x
_atom_site_fract_y
_atom_site_fract_z
Si Si1 0.407942 0.256736 0.459356
Si Si2 0.920378 0.871329 0.363371
Si Si3 0.161238 0.024214 0.262343
Si Si4 0.019123 0.798464 0.731268
Si Si5 0.364762 0.729869 0.054071
O O1 0.282262 0.376598 0.357215
O O2 0.302680 0.124065 0.355427
O O3 0.493047 0.271403 0.403095
O O4 0.552595 0.276667 0.716504
O O5 0.952813 0.764568 0.513726
O O6 0.001754 0.826538 0.307862
O O7 0.000000 0.000000 0.500000
O O8 0.083564 0.080838 0.318904
O O9 0.265527 0.896738 0.402860
O O10 0.000000 0.000000 0.000000
O O11 0.217198 0.836343 0.920292
#
# Coordination Sequence:
#
# PCOD8129069 Si02
#       5
#     4   4   4   4   4
#     4  11  25  43  68 106 137 174 235 294 349 418
#     4  11  24  45  70  99 141 189 233 286 353 431
#     4  11  24  45  71  97 136 193 235 277 353 440
#     4  11  24  43  67  99 135 184 238 280 348 442
#     4  12  24  44  69 101 139 174 227 303 352 403
#
# _framework density 24.157298000000001
#
# number of rings (size 3 to 8) (size 9 to 14) (size 15 to 20)
#    0.000    0.800    0.000    9.000    0.000    3.200 
#    0.000    6.000    0.000    0.000    0.000    0.000 
#    0.000    0.000    0.000    0.000    0.000    0.000 
#
# Total GULP energy -247805.264672 kJ/mol
# GULP energy per Si atom -12390.263234 kJ/mol
# Density = 2.410232 g / cm^3
# Si number density = 24.157298 Si / 1000 Ang^3
#
#
#
# Elastic Constant Matrix: (Units=GPa)
#
#
# Indices 1 2 3 4 5 6 
#
# 1 106.0637 2.0119 -20.8820 0.0000 25.4001 0.0000
# 2 2.0119 67.6644 -5.4054 0.0000 5.9548 0.0000
# 3 -20.8820 -5.4054 83.2205 0.0000 9.1758 0.0000
# 4 0.0000 0.0000 0.0000 48.7938 0.0000 3.4853
# 5 25.4001 5.9548 9.1758 0.0000 53.5571 0.0000
# 6 0.0000 0.0000 0.0000 3.4853 0.0000 23.7986
#
#
#
# Elastic Compliance Matrix: (Units=1/GPa)
#
#
# Indices 1 2 3 4 5 6 
#
# 1 0.011614 0.000489 0.003628 0.000000 -0.006184 0.000000
# 2 0.000489 0.015059 0.001336 0.000000 -0.002135 0.000000
# 3 0.003628 0.001336 0.013474 0.000000 -0.004178 0.000000
# 4 0.000000 0.000000 0.000000 0.020711 0.000000 -0.003033
# 5 -0.006184 -0.002135 -0.004178 0.000000 0.022558 0.000000
# 6 0.000000 0.000000 0.000000 -0.003033 0.000000 0.042464
#
#
# Mechanical properties :
#
#
# Convention : Reuss Voigt Hill
#
# Bulk Modulus (GPa) = 19.58760 23.15527 21.37144
# Shear Modulus (GPa) = 37.88123 43.97816 40.92970
#
# Velocity S-wave (km/s) = 3.96423 4.27135 4.12065
# Velocity P-wave (km/s) = 5.39254 5.82511 5.61299
#
# Compressibility (1/GPa) = 0.05105270
#
# Stress axis : x y z
#
# Youngs Moduli (GPa) = 86.10112 66.40575 74.21704
#
# Poissons Ratio (x) = -0.03245 -0.26925
# Poissons Ratio (y) = -0.04208 -0.09917
# Poissons Ratio (z) = -0.31236 -0.08873
#
# Static dielectric constant tensor:
#      x y z
#    x 4.852010 0.000000 0.075980 
#    y 0.000000 4.269160 0.000000 
#    z 0.075980 0.000000 4.830660 
# 
# 
# High freq. dielectric constant tensor:
#      x y z
#    x 1.983220 0.000000 0.002970 
#    y 0.000000 1.944510 0.000000 
#    z 0.002970 0.000000 1.983950 
# 
# From -- ./inp_files/32269.got.cif
#   From: 2010.03.12/outbox.cif.g09.slc.cpg/sg14_17_cif.got.tgz:32269.got - 2010.03.31 13:35:05.
