data_PCOD8129865
_publ_section_title
;
Structure prediction by ZEFSAII (Michael W. Deem and Ramdas Pophale) SiO2 
 PCOD8129865
Probable space group: C 2/C
;
_chemical_formula_sum "Si O2"
_cell_formula_units_Z 52
_cell_length_a 16.715635
_cell_length_b 19.297075
_cell_length_c 7.859961
_cell_angle_alpha 90.000000
_cell_angle_beta 87.146586
_cell_angle_gamma 90.000000
_cell_volume 2532.188120
_symmetry_space_group_name_H-M "C 2/C"
_symmetry_group_IT_number 15
_symmetry_cell_setting 'monoclinic'
loop_
_space_group_symop_operation_xyz
x,y,z
-x,y,1/2-z
-x,-y,-z
x,-y,1/2+z
1/2+x,1/2+y,z
1/2-x,1/2+y,1/2-z
1/2-x,1/2-y,-z
1/2+x,1/2-y,1/2+z
loop_
_atom_site_type_symbol
_atom_site_label
_atom_site_fract_x
_atom_site_fract_y
_atom_site_fract_z
Si Si1 0.398733 0.076178 0.958151
Si Si2 0.606679 0.070928 0.167480
Si Si3 0.800478 0.172899 0.853098
Si Si4 0.500000 0.185138 0.750000
Si Si5 0.794773 0.069225 0.160585
Si Si6 0.126455 0.707287 0.976067
Si Si7 0.292074 0.579334 0.540752
O O1 0.433652 0.136836 0.842368
O O2 0.303430 0.079744 0.951396
O O3 0.429374 0.000150 0.900793
O O4 0.432200 0.087707 0.145638
O O5 0.700488 0.061961 0.186281
O O6 0.591691 0.133612 0.040832
O O7 0.708226 0.197197 0.861159
O O8 0.822301 0.137794 0.670699
O O9 0.818896 0.124096 0.013619
O O10 0.857309 0.240254 0.869227
O O11 0.553048 0.234841 0.866809
O O12 0.826350 0.092444 0.345439
O O13 0.827506 0.993726 0.104055
#
# Coordination Sequence:
#
# PCOD8129865 Si02
#       7
#     8   8   8   4   8   8   8
#     4  10  20  31  52  73 103 136 185 215 255 295
#     4   9  19  34  48  75 103 141 177 218 249 304
#     4  10  19  37  52  76 109 140 171 220 262 317
#     4  12  22  36  52  74 100 146 180 216 252 314
#     4   9  17  28  55  82 107 132 175 217 268 300
#     4  10  22  36  51  71 107 142 174 212 264 313
#     4  10  16  31  53  82 106 134 169 226 258 314
#
# _framework density 20.535598
#
# number of rings (size 3 to 8) (size 9 to 14) (size 15 to 20)
#    0.000    2.154    3.077    0.923    4.308    3.077 
#    2.769    3.077    0.000    0.000    0.000    1.077 
#    0.000    0.000    0.000    0.000    0.000    0.000 
#
# Total GULP energy -322262.801367 kJ/mol
# GULP energy per Si atom -12394.723130 kJ/mol
# Density = 2.048886 g / cm^3
# Si number density = 20.535598 Si / 1000 Ang^3
#
#
#
# Elastic Constant Matrix: (Units=GPa)
#
#
# Indices 1 2 3 4 5 6 
#
# 1 37.0580 21.8601 20.4817 0.0000 17.8870 0.0000
# 2 21.8601 51.0320 12.7937 0.0000 22.6450 0.0000
# 3 20.4817 12.7937 122.0550 0.0000 26.7316 0.0000
# 4 0.0000 0.0000 0.0000 28.0965 0.0000 6.8427
# 5 17.8870 22.6450 26.7316 0.0000 25.6829 0.0000
# 6 0.0000 0.0000 0.0000 6.8427 0.0000 12.9010
#
#
#
# Elastic Compliance Matrix: (Units=1/GPa)
#
#
# Indices 1 2 3 4 5 6 
#
# 1 0.043043 -0.009093 -0.001891 0.000000 -0.019992 0.000000
# 2 -0.009093 0.035441 0.004233 0.000000 -0.029321 0.000000
# 3 -0.001891 0.004233 0.011134 0.000000 -0.014003 0.000000
# 4 0.000000 0.000000 0.000000 0.040871 0.000000 -0.021678
# 5 -0.019992 -0.029321 -0.014003 0.000000 0.093288 0.000000
# 6 0.000000 0.000000 0.000000 -0.021678 0.000000 0.089012
#
#
# Mechanical properties :
#
#
# Convention : Reuss Voigt Hill
#
# Bulk Modulus (GPa) = 13.13803 35.60176 24.36990
# Shear Modulus (GPa) = 14.21817 23.67003 18.94410
#
# Velocity S-wave (km/s) = 2.63414 3.39873 3.04056
# Velocity P-wave (km/s) = 3.95767 5.72504 4.92134
#
# Compressibility (1/GPa) = 0.07611489
#
# Stress axis : x y z
#
# Youngs Moduli (GPa) = 23.23236 28.21630 89.81834
#
# Poissons Ratio (x) = 0.25656 0.16988
# Poissons Ratio (y) = 0.21124 -0.38018
# Poissons Ratio (z) = 0.04394 -0.11943
#
# Static dielectric constant tensor:
#      x y z
#    x 3.257590 0.000000 0.219800 
#    y 0.000000 3.640930 0.000000 
#    z 0.219800 0.000000 4.080700 
# 
# 
# High freq. dielectric constant tensor:
#      x y z
#    x 1.750650 0.000000 0.019170 
#    y 0.000000 1.787070 0.000000 
#    z 0.019170 0.000000 1.816470 
# 
# From -- ./inp_files/48571.got.cif
#   From: 2010.06.25/outbox.cif.g09.slc.cpg/sg15_25_cif.got.tgz:48571.got - 2010.06.28 07:06:18.
