data_PCOD8129628
_publ_section_title
;
Structure prediction by ZEFSAII (Michael W. Deem and Ramdas Pophale) SiO2 
 PCOD8129628
Probable space group: C 2/C
;
_chemical_formula_sum "Si O2"
_cell_formula_units_Z 44
_cell_length_a 11.921912
_cell_length_b 19.994796
_cell_length_c 13.705147
_cell_angle_alpha 90.000000
_cell_angle_beta 46.755936
_cell_angle_gamma 90.000000
_cell_volume 2379.805903
_symmetry_space_group_name_H-M "C 2/C"
_symmetry_group_IT_number 15
_symmetry_cell_setting 'monoclinic'
loop_
_space_group_symop_operation_xyz
x,y,z
-x,y,1/2-z
-x,-y,-z
x,-y,1/2+z
1/2+x,1/2+y,z
1/2-x,1/2+y,1/2-z
1/2-x,1/2-y,-z
1/2+x,1/2-y,1/2+z
loop_
_atom_site_type_symbol
_atom_site_label
_atom_site_fract_x
_atom_site_fract_y
_atom_site_fract_z
Si Si1 0.373045 0.414314 0.081297
Si Si2 0.662197 0.188694 0.600900
Si Si3 0.000000 0.520566 0.250000
Si Si4 0.321224 0.555111 0.026765
Si Si5 0.430194 0.072179 0.972777
Si Si6 0.240322 0.547967 0.864749
O O1 0.277054 0.348647 0.108718
O O2 0.342138 0.474169 0.024209
O O3 0.338648 0.437937 0.211259
O O4 0.558379 0.402327 0.979237
O O5 0.500000 0.208514 0.750000
O O6 0.750000 0.250000 0.500000
O O7 0.630607 0.142527 0.527278
O O8 0.852164 0.569397 0.333169
O O9 0.999852 0.471572 0.342605
O O10 0.333333 0.573071 0.904670
O O11 0.573179 0.084652 0.960917
O O12 0.292680 0.032009 0.107627
#
# Coordination Sequence:
#
# PCOD8129628 Si02
#       6
#     8   8   4   8   8   8
#     4  11  20  37  54  84 134 147 199 249 303 364
#     4  12  23  44  61  84 125 173 207 248 292 358
#     4  10  14  34  52  80 130 152 176 238 314 358
#     4  10  20  30  56  92 113 158 180 247 313 359
#     4  10  17  32  58  84 116 165 192 234 310 358
#     4  10  17  31  60  87 113 157 186 242 314 369
#
# _framework density 18.488902
#
# number of rings (size 3 to 8) (size 9 to 14) (size 15 to 20)
#    0.000    1.455    8.182    0.545    0.000    0.000 
#    6.545    0.000    0.000    1.091    0.000    0.000 
#    0.000    0.000    0.000    0.000    0.000    0.000 
#
# Total GULP energy -272594.119462 kJ/mol
# GULP energy per Si atom -12390.641794 kJ/mol
# Density = 1.844682 g / cm^3
# Si number density = 18.488902 Si / 1000 Ang^3
#
#
#
# Elastic Constant Matrix: (Units=GPa)
#
#
# Indices 1 2 3 4 5 6 
#
# 1 133.4662 37.7035 48.8034 0.0000 -11.4635 0.0000
# 2 37.7035 76.8554 48.0603 0.0000 -1.3228 0.0000
# 3 48.8034 48.0603 88.4730 0.0000 -8.8865 0.0000
# 4 0.0000 0.0000 0.0000 23.6241 0.0000 -0.7716
# 5 -11.4635 -1.3228 -8.8865 0.0000 36.2238 0.0000
# 6 0.0000 0.0000 0.0000 -0.7716 0.0000 20.7497
#
#
#
# Elastic Compliance Matrix: (Units=1/GPa)
#
#
# Indices 1 2 3 4 5 6 
#
# 1 0.009752 -0.002292 -0.003930 0.000000 0.002038 0.000000
# 2 -0.002292 0.020380 -0.010052 0.000000 -0.002447 0.000000
# 3 -0.003930 -0.010052 0.019244 0.000000 0.003110 0.000000
# 4 0.000000 0.000000 0.000000 0.042381 0.000000 0.001576
# 5 0.002038 -0.002447 0.003110 0.000000 0.028925 0.000000
# 6 0.000000 0.000000 0.000000 0.001576 0.000000 0.048252
#
#
# Mechanical properties :
#
#
# Convention : Reuss Voigt Hill
#
# Bulk Modulus (GPa) = 59.42539 63.10322 61.26431
# Shear Modulus (GPa) = 24.14409 27.06800 25.60604
#
# Velocity S-wave (km/s) = 3.61760 3.83039 3.72552
# Velocity P-wave (km/s) = 7.04700 7.33260 7.19122
#
# Compressibility (1/GPa) = 0.01682782
#
# Stress axis : x y z
#
# Youngs Moduli (GPa) = 102.54377 49.06874 51.96517
#
# Poissons Ratio (x) = 0.11244 0.20421
# Poissons Ratio (y) = 0.23498 0.52237
# Poissons Ratio (z) = 0.40298 0.49325
#
# Static dielectric constant tensor:
#      x y z
#    x 3.910980 0.000000 -0.122010 
#    y 0.000000 2.859190 0.000000 
#    z -0.122010 0.000000 3.654860 
# 
# 
# High freq. dielectric constant tensor:
#      x y z
#    x 1.750640 0.000000 -0.006730 
#    y 0.000000 1.635660 0.000000 
#    z -0.006730 0.000000 1.721240 
# 
# From -- ./inp_files/145446.got.cif
#   From: 2010.06.25/outbox.cif.g09.slc.cpg/sg15_73_cif.got.tgz:145446.got - 2010.06.28 07:06:18.
