data_PCOD8129742
_publ_section_title
;
Structure prediction by ZEFSAII (Michael W. Deem and Ramdas Pophale) SiO2 
 PCOD8129742
Probable space group: C 2/C
;
_chemical_formula_sum "Si O2"
_cell_formula_units_Z 56
_cell_length_a 30.955381
_cell_length_b 13.733523
_cell_length_c 12.479284
_cell_angle_alpha 90.000000
_cell_angle_beta 138.559279
_cell_angle_gamma 90.000000
_cell_volume 3511.267780
_symmetry_space_group_name_H-M "C 2/C"
_symmetry_group_IT_number 15
_symmetry_cell_setting 'monoclinic'
loop_
_space_group_symop_operation_xyz
x,y,z
-x,y,1/2-z
-x,-y,-z
x,-y,1/2+z
1/2+x,1/2+y,z
1/2-x,1/2+y,1/2-z
1/2-x,1/2-y,-z
1/2+x,1/2-y,1/2+z
loop_
_atom_site_type_symbol
_atom_site_label
_atom_site_fract_x
_atom_site_fract_y
_atom_site_fract_z
Si Si1 0.184075 0.812619 0.359991
Si Si2 0.830489 0.362971 0.347002
Si Si3 0.342678 0.141864 0.313984
Si Si4 0.229319 0.978321 0.294211
Si Si5 0.923425 0.484341 0.117474
Si Si6 0.302667 0.656885 0.382422
Si Si7 0.161969 0.464141 0.350539
O O1 0.250000 0.750000 0.500000
O O2 0.134231 0.740532 0.204457
O O3 0.190186 0.908808 0.300515
O O4 0.160293 0.843803 0.433731
O O5 0.765163 0.414559 0.269848
O O6 0.892064 0.414160 0.519016
O O7 0.829940 0.248465 0.367548
O O8 0.835564 0.374498 0.227800
O O9 0.398409 0.105793 0.498311
O O10 0.275827 0.162833 0.253512
O O11 0.327854 0.062931 0.195724
O O12 0.180406 0.055827 0.147234
O O13 0.280828 0.043339 0.456083
O O14 0.905967 0.464884 0.209700
O O15 0.000000 0.493239 0.250000
#
# Coordination Sequence:
#
# PCOD8129742 Si02
#       7
#     8   8   8   8   8   8   8
#     4  10  16  28  46  64  95 136 160 197 240 306
#     4  10  19  29  46  69 101 136 164 203 253 300
#     4  10  17  29  49  68  94 135 165 205 245 307
#     4  11  16  27  45  69  99 130 163 197 242 300
#     4  10  21  35  49  71 101 135 177 212 247 299
#     4  11  18  29  45  73 102 131 167 201 248 310
#     4  10  17  30  45  70  98 132 165 204 255 286
#
# _framework density 15.948655
#
# number of rings (size 3 to 8) (size 9 to 14) (size 15 to 20)
#    0.000    1.714   10.000    0.857    0.000    2.857 
#    0.000    0.000    0.000    0.000    0.000    1.000 
#    0.000    4.571    0.000    0.000    0.000    0.000 
#
# Total GULP energy -347037.702670 kJ/mol
# GULP energy per Si atom -12394.203667 kJ/mol
# Density = 1.591236 g / cm^3
# Si number density = 15.948655 Si / 1000 Ang^3
#
#
#
# Elastic Constant Matrix: (Units=GPa)
#
#
# Indices 1 2 3 4 5 6 
#
# 1 63.3798 39.1412 20.1766 0.0000 -16.9924 0.0000
# 2 39.1412 115.5399 31.5103 0.0000 -11.0482 0.0000
# 3 20.1766 31.5103 33.2651 0.0000 -5.6266 0.0000
# 4 0.0000 0.0000 0.0000 21.7915 0.0000 -11.4838
# 5 -16.9924 -11.0482 -5.6266 0.0000 25.3854 0.0000
# 6 0.0000 0.0000 0.0000 -11.4838 0.0000 25.5363
#
#
#
# Elastic Compliance Matrix: (Units=1/GPa)
#
#
# Indices 1 2 3 4 5 6 
#
# 1 0.024858 -0.004966 -0.008233 0.000000 0.012653 0.000000
# 2 -0.004966 0.012847 -0.009115 0.000000 0.000247 0.000000
# 3 -0.008233 -0.009115 0.043726 0.000000 0.000213 0.000000
# 4 0.000000 0.000000 0.000000 0.060142 0.000000 0.027046
# 5 0.012653 0.000247 0.000213 0.000000 0.048017 0.000000
# 6 0.000000 0.000000 0.000000 0.027046 0.000000 0.051323
#
#
# Mechanical properties :
#
#
# Convention : Reuss Voigt Hill
#
# Bulk Modulus (GPa) = 27.17257 43.76010 35.46634
# Shear Modulus (GPa) = 16.78924 22.63308 19.71116
#
# Velocity S-wave (km/s) = 3.24806 3.77121 3.51937
# Velocity P-wave (km/s) = 5.58042 6.81619 6.22902
#
# Compressibility (1/GPa) = 0.03680181
#
# Stress axis : x y z
#
# Youngs Moduli (GPa) = 40.22840 77.84008 22.86970
#
# Poissons Ratio (x) = 0.38654 0.18829
# Poissons Ratio (y) = 0.19977 0.20847
# Poissons Ratio (z) = 0.33121 0.70955
#
# Static dielectric constant tensor:
#      x y z
#    x 3.032040 0.000000 -0.487230 
#    y 0.000000 3.176510 0.000000 
#    z -0.487230 0.000000 2.926140 
# 
# 
# High freq. dielectric constant tensor:
#      x y z
#    x 1.595090 0.000000 -0.049020 
#    y 0.000000 1.609000 0.000000 
#    z -0.049020 0.000000 1.579240 
# 
# From -- ./inp_files/126752.got.cif
#   From: 2010.06.25/outbox.cif.g09.slc.cpg/sg15_64_cif.got.tgz:126752.got - 2010.06.28 07:06:18.
