data_PCOD8129284
_publ_section_title
;
Structure prediction by ZEFSAII (Michael W. Deem and Ramdas Pophale) SiO2 
 PCOD8129284
Probable space group: P 21/C
;
_chemical_formula_sum "Si O2"
_cell_formula_units_Z 20
_cell_length_a 8.778778
_cell_length_b 10.990794
_cell_length_c 9.353074
_cell_angle_alpha 90.000000
_cell_angle_beta 122.919658
_cell_angle_gamma 90.000000
_cell_volume 757.536875
_symmetry_space_group_name_H-M "P 21/C"
_symmetry_group_IT_number 14
_symmetry_cell_setting 'monoclinic'
loop_
_space_group_symop_operation_xyz
x,y,z
-x,1/2+y,1/2-z
-x,-y,-z
x,1/2-y,1/2+z
loop_
_atom_site_type_symbol
_atom_site_label
_atom_site_fract_x
_atom_site_fract_y
_atom_site_fract_z
Si Si1 0.834857 0.007580 0.608568
Si Si2 0.770383 0.002001 0.150298
Si Si3 0.149359 0.131466 0.099930
Si Si4 0.607343 0.849589 0.291959
Si Si5 0.764640 0.226355 0.972286
O O1 0.847649 0.980910 0.786421
O O2 0.706817 0.900363 0.483197
O O3 0.043523 0.004631 0.660261
O O4 0.749126 0.136095 0.520569
O O5 0.739020 0.143308 0.100425
O O6 0.391443 0.045746 0.830664
O O7 0.789002 0.918641 0.020394
O O8 0.286690 0.235187 0.219991
O O9 0.951309 0.193661 0.988217
O O10 0.401609 0.807891 0.219413
#
# Coordination Sequence:
#
# PCOD8129284 Si02
#       5
#     4   4   4   4   4
#     4  11  25  49  76 104 146 195 243 293 371 427
#     4  11  25  50  72 109 148 191 242 305 363 429
#     4  11  26  52  73 107 150 195 240 304 364 435
#     4  12  26  47  76 111 145 190 249 301 358 436
#     4  11  26  46  78 105 148 193 242 301 362 433
#
# _framework density 26.401356
#
# number of rings (size 3 to 8) (size 9 to 14) (size 15 to 20)
#    0.000    0.800    2.000    4.800    5.600    2.400 
#   14.400    0.000    0.000    0.000    0.000    0.000 
#    0.000    0.000    0.000    0.000    0.000    0.000 
#
# Total GULP energy -248022.391132 kJ/mol
# GULP energy per Si atom -12401.119557 kJ/mol
# Density = 2.634126 g / cm^3
# Si number density = 26.401356 Si / 1000 Ang^3
#
#
#
# Elastic Constant Matrix: (Units=GPa)
#
#
# Indices 1 2 3 4 5 6 
#
# 1 74.9875 14.1284 18.6540 0.0000 14.7801 0.0000
# 2 14.1284 137.8160 24.6391 0.0000 15.4787 0.0000
# 3 18.6540 24.6391 79.4333 0.0000 19.6692 0.0000
# 4 0.0000 0.0000 0.0000 52.4802 0.0000 2.0298
# 5 14.7801 15.4787 19.6692 0.0000 47.0582 0.0000
# 6 0.0000 0.0000 0.0000 2.0298 0.0000 27.1357
#
#
#
# Elastic Compliance Matrix: (Units=1/GPa)
#
#
# Indices 1 2 3 4 5 6 
#
# 1 0.014734 -0.000700 -0.002403 0.000000 -0.003393 0.000000
# 2 -0.000700 0.007840 -0.001878 0.000000 -0.001574 0.000000
# 3 -0.002403 -0.001878 0.014943 0.000000 -0.004873 0.000000
# 4 0.000000 0.000000 0.000000 0.019110 0.000000 -0.001429
# 5 -0.003393 -0.001574 -0.004873 0.000000 0.024871 0.000000
# 6 0.000000 0.000000 0.000000 -0.001429 0.000000 0.036959
#
#
# Mechanical properties :
#
#
# Convention : Reuss Voigt Hill
#
# Bulk Modulus (GPa) = 36.28965 45.23109 40.76037
# Shear Modulus (GPa) = 36.33648 40.98916 38.66282
#
# Velocity S-wave (km/s) = 3.71389 3.94450 3.83093
# Velocity P-wave (km/s) = 5.67150 6.15750 5.91949
#
# Compressibility (1/GPa) = 0.02755607
#
# Stress axis : x y z
#
# Youngs Moduli (GPa) = 67.87058 127.54585 66.92250
#
# Poissons Ratio (x) = 0.08925 0.16080
# Poissons Ratio (y) = 0.04749 0.12567
# Poissons Ratio (z) = 0.16308 0.23951
#
# Static dielectric constant tensor:
#      x y z
#    x 4.466050 0.000000 0.358010 
#    y 0.000000 4.971400 0.000000 
#    z 0.358010 0.000000 4.806940 
# 
# 
# High freq. dielectric constant tensor:
#      x y z
#    x 2.043490 0.000000 0.014810 
#    y 0.000000 2.073360 0.000000 
#    z 0.014810 0.000000 2.068130 
# 
# From -- ./inp_files/29255.got.cif
#   From: 2010.03.12/outbox.cif.g09.slc.cpg/sg14_15_cif.got.tgz:29255.got - 2010.03.31 13:35:05.
