data_PCOD8129468
_publ_section_title
;
Structure prediction by ZEFSAII (Michael W. Deem and Ramdas Pophale) SiO2 
 PCOD8129468
Probable space group: P 21/C
;
_chemical_formula_sum "Si O2"
_cell_formula_units_Z 28
_cell_length_a 9.464788
_cell_length_b 13.699951
_cell_length_c 9.323029
_cell_angle_alpha 90.000000
_cell_angle_beta 104.938286
_cell_angle_gamma 90.000000
_cell_volume 1168.034822
_symmetry_space_group_name_H-M "P 21/C"
_symmetry_group_IT_number 14
_symmetry_cell_setting 'monoclinic'
loop_
_space_group_symop_operation_xyz
x,y,z
-x,1/2+y,1/2-z
-x,-y,-z
x,1/2-y,1/2+z
loop_
_atom_site_type_symbol
_atom_site_label
_atom_site_fract_x
_atom_site_fract_y
_atom_site_fract_z
Si Si1 0.739187 0.413636 0.292946
Si Si2 0.451287 0.071497 0.362881
Si Si3 0.985725 0.447109 0.146071
Si Si4 0.372888 0.797438 0.796100
Si Si5 0.146291 0.241547 0.707809
Si Si6 0.100833 0.604939 0.371399
Si Si7 0.340395 0.251139 0.998210
O O1 0.629654 0.506176 0.280454
O O2 0.646861 0.313338 0.265064
O O3 0.856168 0.412446 0.452228
O O4 0.822172 0.433030 0.164035
O O5 0.584750 0.130112 0.323281
O O6 0.342739 0.145963 0.414201
O O7 0.500000 0.000000 0.500000
O O8 0.038003 0.339246 0.120557
O O9 0.087426 0.501346 0.289189
O O10 0.000000 0.500000 0.000000
O O11 0.222619 0.830379 0.826085
O O12 0.499649 0.799036 0.952747
O O13 0.056627 0.342734 0.686325
O O14 0.208338 0.200120 0.876339
O O15 0.292199 0.246631 0.650156
#
# Coordination Sequence:
#
# PCOD8129468 Si02
#       7
#     4   4   4   4   4   4   4
#     4  12  27  50  79 116 161 208 271 336 400 484
#     4  12  27  48  77 114 162 205 265 326 403 480
#     4  12  28  47  79 114 154 206 269 324 403 477
#     4  12  28  49  82 116 162 210 269 329 406 475
#     4  12  26  49  75 109 155 200 265 327 400 469
#     4  12  29  49  79 115 155 209 267 331 399 479
#     4  12  26  49  76 110 156 208 256 330 396 473
#
# _framework density 23.971889000000001
#
# number of rings (size 3 to 8) (size 9 to 14) (size 15 to 20)
#    0.000    0.000    4.286    4.714    8.000    0.571 
#    0.000    0.000    0.000    0.000    0.000    0.000 
#    0.000    0.000    0.000    0.000    0.000    0.000 
#
# Total GULP energy -347165.007336 kJ/mol
# GULP energy per Si atom -12398.750262 kJ/mol
# Density = 2.391733 g / cm^3
# Si number density = 23.971889 Si / 1000 Ang^3
#
#
#
# Elastic Constant Matrix: (Units=GPa)
#
#
# Indices 1 2 3 4 5 6 
#
# 1 98.6948 31.5974 37.6987 0.0000 -6.5390 0.0000
# 2 31.5974 93.5916 25.0957 0.0000 -9.5805 0.0000
# 3 37.6987 25.0957 127.9924 0.0000 6.0932 0.0000
# 4 0.0000 0.0000 0.0000 40.3332 0.0000 0.1140
# 5 -6.5390 -9.5805 6.0932 0.0000 46.8884 0.0000
# 6 0.0000 0.0000 0.0000 0.1140 0.0000 43.3074
#
#
#
# Elastic Compliance Matrix: (Units=1/GPa)
#
#
# Indices 1 2 3 4 5 6 
#
# 1 0.012447 -0.003218 -0.003106 0.000000 0.001482 0.000000
# 2 -0.003218 0.012436 -0.001600 0.000000 0.002300 0.000000
# 3 -0.003106 -0.001600 0.009134 0.000000 -0.001947 0.000000
# 4 0.000000 0.000000 0.000000 0.024794 0.000000 -0.000065
# 5 0.001482 0.002300 -0.001947 0.000000 0.022257 0.000000
# 6 0.000000 0.000000 0.000000 -0.000065 0.000000 0.023091
#
#
# Mechanical properties :
#
#
# Convention : Reuss Voigt Hill
#
# Bulk Modulus (GPa) = 55.03688 56.56246 55.79967
# Shear Modulus (GPa) = 39.66319 41.16494 40.41407
#
# Velocity S-wave (km/s) = 4.07205 4.14843 4.11042
# Velocity P-wave (km/s) = 6.71696 6.82587 6.77164
#
# Compressibility (1/GPa) = 0.01816963
#
# Stress axis : x y z
#
# Youngs Moduli (GPa) = 80.34128 80.41479 109.47949
#
# Poissons Ratio (x) = 0.25875 0.34001
# Poissons Ratio (y) = 0.25852 0.17517
# Poissons Ratio (z) = 0.24952 0.12866
#
# Static dielectric constant tensor:
#      x y z
#    x 4.377840 0.000000 0.141680 
#    y 0.000000 4.739230 0.000000 
#    z 0.141680 0.000000 4.526920 
# 
# 
# High freq. dielectric constant tensor:
#      x y z
#    x 1.960520 0.000000 0.005020 
#    y 0.000000 1.957840 0.000000 
#    z 0.005020 0.000000 1.956770 
# 
# From -- ./inp_files/24938.got.cif
#   From: 2010.03.12/outbox.cif.g09.slc.cpg/sg14_13_cif.got.tgz:24938.got - 2010.03.31 13:35:05.
