data_PCOD8129081
_publ_section_title
;
Structure prediction by ZEFSAII (Michael W. Deem and Ramdas Pophale) SiO2 
 PCOD8129081
Probable space group: P 21/C
;
_chemical_formula_sum "Si O2"
_cell_formula_units_Z 32
_cell_length_a 17.921385
_cell_length_b 10.098546
_cell_length_c 12.422677
_cell_angle_alpha 90.000000
_cell_angle_beta 39.082937
_cell_angle_gamma 90.000000
_cell_volume 1417.400519
_symmetry_space_group_name_H-M "P 21/C"
_symmetry_group_IT_number 14
_symmetry_cell_setting 'monoclinic'
loop_
_space_group_symop_operation_xyz
x,y,z
-x,1/2+y,1/2-z
-x,-y,-z
x,1/2-y,1/2+z
loop_
_atom_site_type_symbol
_atom_site_label
_atom_site_fract_x
_atom_site_fract_y
_atom_site_fract_z
Si Si1 0.521616 0.209950 0.429330
Si Si2 0.386539 0.583682 0.383729
Si Si3 0.266789 0.205473 0.281373
Si Si4 0.319783 0.849224 0.554039
Si Si5 0.909070 0.106423 0.057807
Si Si6 0.822719 0.567282 0.468885
Si Si7 0.052375 0.126253 0.380109
Si Si8 0.395338 0.523039 0.755304
O O1 0.538392 0.120433 0.305778
O O2 0.381522 0.223938 0.603182
O O3 0.578206 0.139659 0.469810
O O4 0.590312 0.348098 0.334679
O O5 0.308736 0.703653 0.515873
O O6 0.299999 0.462154 0.455085
O O7 0.475444 0.543846 0.380220
O O8 0.194974 0.302926 0.439625
O O9 0.179833 0.165987 0.283219
O O10 0.301356 0.073736 0.306663
O O11 0.194613 0.890885 0.739818
O O12 0.351792 0.949861 0.424141
O O13 0.961979 0.252286 0.987723
O O14 0.858008 0.060373 0.000212
O O15 0.000000 0.000000 0.000000
O O16 0.928816 0.591867 0.266273
O O17 0.000000 0.000000 0.500000
#
# Coordination Sequence:
#
# PCOD8129081 Si02
#       8
#     4   4   4   4   4   4   4   4
#     4  11  24  44  72 107 148 190 238 302 378 448
#     4  11  24  43  72 113 147 189 240 301 375 458
#     4  12  27  46  74 111 149 195 243 307 373 450
#     4  11  25  46  72 104 144 196 241 301 374 439
#     4  12  28  52  76 107 148 200 253 315 371 439
#     4  12  28  46  78 109 145 194 256 308 375 449
#     4  12  31  51  80 107 151 200 259 313 373 446
#     4  11  26  41  74 108 152 190 237 301 374 459
#
# _framework density 22.576540000000001
#
# number of rings (size 3 to 8) (size 9 to 14) (size 15 to 20)
#    0.000    0.500    3.750    2.625   12.250    2.000 
#    0.000    0.000    0.000    0.000    0.000    0.000 
#    0.000    0.000    0.000    0.000    0.000    0.000 
#
# Total GULP energy -397055.750464 kJ/mol
# GULP energy per Si atom -12407.992202 kJ/mol
# Density = 2.252515 g / cm^3
# Si number density = 22.576540 Si / 1000 Ang^3
#
#
#
# Elastic Constant Matrix: (Units=GPa)
#
#
# Indices 1 2 3 4 5 6 
#
# 1 64.6330 -7.4070 14.4077 0.0000 -10.7443 0.0000
# 2 -7.4070 74.3462 24.3466 0.0000 -8.9249 0.0000
# 3 14.4077 24.3466 149.8549 0.0000 -2.8711 0.0000
# 4 0.0000 0.0000 0.0000 29.8707 0.0000 -6.8840
# 5 -10.7443 -8.9249 -2.8711 0.0000 35.2408 0.0000
# 6 0.0000 0.0000 0.0000 -6.8840 0.0000 45.0013
#
#
#
# Elastic Compliance Matrix: (Units=1/GPa)
#
#
# Indices 1 2 3 4 5 6 
#
# 1 0.017261 0.003097 -0.002050 0.000000 0.005880 0.000000
# 2 0.003097 0.015185 -0.002677 0.000000 0.004572 0.000000
# 3 -0.002050 -0.002677 0.007292 0.000000 -0.000709 0.000000
# 4 0.000000 0.000000 0.000000 0.034701 0.000000 0.005308
# 5 0.005880 0.004572 -0.000709 0.000000 0.031269 0.000000
# 6 0.000000 0.000000 0.000000 0.005308 0.000000 0.023034
#
#
# Mechanical properties :
#
#
# Convention : Reuss Voigt Hill
#
# Bulk Modulus (GPa) = 27.41455 39.05874 33.23664
# Shear Modulus (GPa) = 34.68352 39.18836 36.93594
#
# Velocity S-wave (km/s) = 3.92377 4.17081 4.04918
# Velocity P-wave (km/s) = 5.71815 6.36651 6.05102
#
# Compressibility (1/GPa) = 0.03647698
#
# Stress axis : x y z
#
# Youngs Moduli (GPa) = 57.93288 65.85594 137.14421
#
# Poissons Ratio (x) = -0.20395 0.28116
# Poissons Ratio (y) = -0.17942 0.36716
# Poissons Ratio (z) = 0.11877 0.17631
#
# Static dielectric constant tensor:
#      x y z
#    x 4.181000 0.000000 0.108980 
#    y 0.000000 4.186110 0.000000 
#    z 0.108980 0.000000 4.135920 
# 
# 
# High freq. dielectric constant tensor:
#      x y z
#    x 1.896150 0.000000 0.009950 
#    y 0.000000 1.901900 0.000000 
#    z 0.009950 0.000000 1.902690 
# 
# From -- ./inp_files/33934.got.cif
#   From: 2010.03.12/outbox.cif.g09.slc.cpg/sg14_17_cif.got.tgz:33934.got - 2010.03.31 13:35:05.
