data_PCOD8129299
_publ_section_title
;
Structure prediction by ZEFSAII (Michael W. Deem and Ramdas Pophale) SiO2 
 PCOD8129299
Probable space group: P 21/C
;
_chemical_formula_sum "Si O2"
_cell_formula_units_Z 16
_cell_length_a 5.035381
_cell_length_b 4.890190
_cell_length_c 28.673082
_cell_angle_alpha 90.000000
_cell_angle_beta 110.546312
_cell_angle_gamma 90.000000
_cell_volume 661.132737
_symmetry_space_group_name_H-M "P 21/C"
_symmetry_group_IT_number 14
_symmetry_cell_setting 'monoclinic'
loop_
_space_group_symop_operation_xyz
x,y,z
-x,1/2+y,1/2-z
-x,-y,-z
x,1/2-y,1/2+z
loop_
_atom_site_type_symbol
_atom_site_label
_atom_site_fract_x
_atom_site_fract_y
_atom_site_fract_z
Si Si1 0.748976 0.195039 0.000014
Si Si2 0.067836 0.499979 0.283941
Si Si3 0.698453 0.000122 0.849292
Si Si4 0.833214 0.999850 0.416647
O O1 0.854830 0.391511 0.048589
O O2 0.660601 0.391747 0.951470
O O3 0.500000 0.000000 0.000000
O O4 0.000000 0.000000 0.000000
O O5 0.383528 0.403159 0.316602
O O6 0.904438 0.250009 0.249993
O O7 0.882706 0.596746 0.316609
O O8 0.661631 0.748465 0.882722
O O9 0.868851 0.251944 0.882673
#
# Coordination Sequence:
#
# PCOD8129299 Si02
#       4
#     4   4   4   4
#     4  11  26  46  71 101 153 192 238 296 355 425
#     4  12  26  48  72 103 140 183 232 300 374 432
#     4  12  26  44  76 103 142 183 242 296 354 446
#     4  11  26  47  70 111 142 193 242 295 358 425
#
# _framework density 24.200887000000002
#
# number of rings (size 3 to 8) (size 9 to 14) (size 15 to 20)
#    0.000    0.500    2.500    4.500    3.500    8.000 
#    0.000    0.000    0.000    0.000    0.000    0.000 
#    0.000    0.000    0.000    0.000    0.000    0.000 
#
# Total GULP energy -198481.220383 kJ/mol
# GULP energy per Si atom -12405.076274 kJ/mol
# Density = 2.414580 g / cm^3
# Si number density = 24.200887 Si / 1000 Ang^3
#
#
#
# Elastic Constant Matrix: (Units=GPa)
#
#
# Indices 1 2 3 4 5 6 
#
# 1 155.4189 43.6108 53.9520 0.0000 2.6824 0.0000
# 2 43.6108 176.8627 70.3869 0.0000 -0.6326 0.0000
# 3 53.9520 70.3869 142.8551 0.0000 -2.1479 0.0000
# 4 0.0000 0.0000 0.0000 36.3777 0.0000 0.2991
# 5 2.6824 -0.6326 -2.1479 0.0000 3.3879 0.0000
# 6 0.0000 0.0000 0.0000 0.2991 0.0000 46.2468
#
#
#
# Elastic Compliance Matrix: (Units=1/GPa)
#
#
# Indices 1 2 3 4 5 6 
#
# 1 0.007724 -0.000901 -0.002592 0.000000 -0.007927 0.000000
# 2 -0.000901 0.007141 -0.003178 0.000000 0.000032 0.000000
# 3 -0.002592 -0.003178 0.009659 0.000000 0.007583 0.000000
# 4 0.000000 0.000000 0.000000 0.027491 0.000000 -0.000178
# 5 -0.007927 0.000032 0.007583 0.000000 0.306262 0.000000
# 6 0.000000 0.000000 0.000000 -0.000178 0.000000 0.021624
#
#
# Mechanical properties :
#
#
# Convention : Reuss Voigt Hill
#
# Bulk Modulus (GPa) = 89.43368 90.11514 89.77441
# Shear Modulus (GPa) = 12.59541 37.68160 25.13850
#
# Velocity S-wave (km/s) = 2.28382 3.95021 3.22645
# Velocity P-wave (km/s) = 6.63245 7.62382 7.14535
#
# Compressibility (1/GPa) = 0.01118147
#
# Stress axis : x y z
#
# Youngs Moduli (GPa) = 129.47032 140.03478 103.53294
#
# Poissons Ratio (x) = 0.12621 0.26837
# Poissons Ratio (y) = 0.11669 0.32899
# Poissons Ratio (z) = 0.33561 0.44498
#
# Static dielectric constant tensor:
#      x y z
#    x 3.766310 0.000000 -0.027190 
#    y 0.000000 4.711870 0.000000 
#    z -0.027190 0.000000 4.784010 
# 
# 
# High freq. dielectric constant tensor:
#      x y z
#    x 1.940730 0.000000 -0.000970 
#    y 0.000000 1.983900 0.000000 
#    z -0.000970 0.000000 1.978180 
# 
# From -- ./inp_files/75501.got.cif
#   From: 2010.03.12/outbox.cif.g09.slc.cpg/sg14_38_cif.got.tgz:75501.got - 2010.03.31 13:35:05.
