data_PCOD8129018
_publ_section_title
;
Structure prediction by ZEFSAII (Michael W. Deem and Ramdas Pophale) SiO2 
 PCOD8129018
Probable space group: P 21/C
;
_chemical_formula_sum "Si O2"
_cell_formula_units_Z 20
_cell_length_a 18.322487
_cell_length_b 8.932893
_cell_length_c 13.632279
_cell_angle_alpha 90.000000
_cell_angle_beta 160.556605
_cell_angle_gamma 90.000000
_cell_volume 742.722785
_symmetry_space_group_name_H-M "P 21/C"
_symmetry_group_IT_number 14
_symmetry_cell_setting 'monoclinic'
loop_
_space_group_symop_operation_xyz
x,y,z
-x,1/2+y,1/2-z
-x,-y,-z
x,1/2-y,1/2+z
loop_
_atom_site_type_symbol
_atom_site_label
_atom_site_fract_x
_atom_site_fract_y
_atom_site_fract_z
Si Si1 0.133870 0.303187 0.212606
Si Si2 0.645770 0.268481 0.545579
Si Si3 0.102684 0.445861 0.381062
Si Si4 0.493201 0.445499 0.173255
Si Si5 0.776881 0.655449 0.881107
O O1 0.186203 0.374096 0.383253
O O2 0.292556 0.162426 0.393383
O O3 0.182245 0.409087 0.177416
O O4 0.881380 0.256404 0.894560
O O5 0.622763 0.398442 0.436069
O O6 0.474784 0.310625 0.415906
O O7 0.602897 0.111662 0.437566
O O8 0.315604 0.553311 0.670880
O O9 0.080905 0.311045 0.431205
O O10 0.875563 0.536875 0.085281
#
# Coordination Sequence:
#
# PCOD8129018 Si02
#       5
#     4   4   4   4   4
#     4  12  25  48  76 105 152 194 248 305 367 437
#     4  11  26  44  73 110 142 199 240 302 372 433
#     4  11  26  48  74 112 149 194 249 305 368 438
#     4  11  23  48  72 103 154 182 249 307 355 433
#     4  11  26  45  75 110 145 195 249 297 373 442
#
# _framework density 26.927948000000001
#
# number of rings (size 3 to 8) (size 9 to 14) (size 15 to 20)
#    0.000    0.800    6.000    1.200    2.800    7.200 
#    0.000    0.000    0.000    0.000    0.000    0.000 
#    0.000    0.000    0.000    0.000    0.000    0.000 
#
# Total GULP energy -247923.723496 kJ/mol
# GULP energy per Si atom -12396.186175 kJ/mol
# Density = 2.686666 g / cm^3
# Si number density = 26.927948 Si / 1000 Ang^3
#
#
#
# Elastic Constant Matrix: (Units=GPa)
#
#
# Indices 1 2 3 4 5 6 
#
# 1 33.4535 -8.3738 -3.4584 0.0000 0.8543 0.0000
# 2 -8.3738 35.1608 1.4813 0.0000 9.5059 0.0000
# 3 -3.4584 1.4813 114.5168 0.0000 6.5415 0.0000
# 4 0.0000 0.0000 0.0000 32.7655 0.0000 10.9993
# 5 0.8543 9.5059 6.5415 0.0000 23.0914 0.0000
# 6 0.0000 0.0000 0.0000 10.9993 0.0000 36.2446
#
#
#
# Elastic Compliance Matrix: (Units=1/GPa)
#
#
# Indices 1 2 3 4 5 6 
#
# 1 0.032425 0.009099 0.001163 0.000000 -0.005275 0.000000
# 2 0.009099 0.034569 0.000671 0.000000 -0.014758 0.000000
# 3 0.001163 0.000671 0.008921 0.000000 -0.002846 0.000000
# 4 0.000000 0.000000 0.000000 0.033982 0.000000 -0.010313
# 5 -0.005275 -0.014758 -0.002846 0.000000 0.050383 0.000000
# 6 0.000000 0.000000 0.000000 -0.010313 0.000000 0.030720
#
#
# Mechanical properties :
#
#
# Convention : Reuss Voigt Hill
#
# Bulk Modulus (GPa) = 10.22693 18.04771 14.13732
# Shear Modulus (GPa) = 24.78581 31.31908 28.05244
#
# Velocity S-wave (km/s) = 3.03718 3.41408 3.23113
# Velocity P-wave (km/s) = 4.01316 4.71784 4.37970
#
# Compressibility (1/GPa) = 0.09778104
#
# Stress axis : x y z
#
# Youngs Moduli (GPa) = 30.84060 28.92735 112.09025
#
# Poissons Ratio (x) = -0.26322 -0.13034
# Poissons Ratio (y) = -0.28063 -0.07517
# Poissons Ratio (z) = -0.03586 -0.01940
#
# Static dielectric constant tensor:
#      x y z
#    x 4.560230 0.000000 0.073950 
#    y 0.000000 5.005480 0.000000 
#    z 0.073950 0.000000 5.100930 
# 
# 
# High freq. dielectric constant tensor:
#      x y z
#    x 2.062730 0.000000 0.011520 
#    y 0.000000 2.088160 0.000000 
#    z 0.011520 0.000000 2.104990 
# 
# From -- ./inp_files/49982.got.cif
#   From: 2010.03.12/outbox.cif.g09.slc.cpg/sg14_25_cif.got.tgz:49982.got - 2010.03.31 13:35:05.
