data_PCOD8129358
_publ_section_title
;
Structure prediction by ZEFSAII (Michael W. Deem and Ramdas Pophale) SiO2 
 PCOD8129358
Probable space group: P 21/C
;
_chemical_formula_sum "Si O2"
_cell_formula_units_Z 32
_cell_length_a 23.928398
_cell_length_b 12.098694
_cell_length_c 24.489419
_cell_angle_alpha 90.000000
_cell_angle_beta 12.176158
_cell_angle_gamma 90.000000
_cell_volume 1495.355164
_symmetry_space_group_name_H-M "P 21/C"
_symmetry_group_IT_number 14
_symmetry_cell_setting 'monoclinic'
loop_
_space_group_symop_operation_xyz
x,y,z
-x,1/2+y,1/2-z
-x,-y,-z
x,1/2-y,1/2+z
loop_
_atom_site_type_symbol
_atom_site_label
_atom_site_fract_x
_atom_site_fract_y
_atom_site_fract_z
Si Si1 0.121999 0.100405 0.499640
Si Si2 0.478600 0.877870 0.497410
Si Si3 0.144204 0.714850 0.512895
Si Si4 0.096702 0.348082 0.502059
Si Si5 0.775005 0.058045 0.502214
Si Si6 0.564750 0.002139 0.001361
Si Si7 0.575038 0.751177 0.513534
Si Si8 0.205417 0.487295 0.501721
O O1 0.129948 0.231419 0.500783
O O2 0.187246 0.048308 0.495735
O O3 0.334585 0.067481 0.251417
O O4 0.837343 0.065208 0.749656
O O5 0.692193 0.860154 0.246979
O O6 0.532427 0.787395 0.492262
O O7 0.500000 0.000000 0.500000
O O8 0.191245 0.857715 0.748092
O O9 0.183961 0.832555 0.502243
O O10 0.334357 0.702678 0.279222
O O11 0.210510 0.620434 0.493931
O O12 0.844921 0.697741 0.778808
O O13 0.141000 0.444680 0.502982
O O14 0.483745 0.059590 0.755664
O O15 0.984044 0.055767 0.254124
O O16 0.588062 0.880828 0.004483
O O17 0.500000 0.000000 0.000000
#
# Coordination Sequence:
#
# PCOD8129358 Si02
#       8
#     4   4   4   4   4   4   4   4
#     4  12  25  44  65  98 139 171 225 278 339 407
#     4  12  25  45  72 101 143 183 229 274 346 407
#     4  12  25  46  70 100 134 172 234 278 339 408
#     4  12  26  46  68 107 137 185 225 284 339 415
#     4  12  26  46  69 100 127 185 220 291 344 395
#     4  12  23  41  65 100 135 178 217 273 338 403
#     4  12  22  43  69 102 134 180 223 281 335 412
#     4  12  28  45  72  96 136 175 234 282 343 403
#
# _framework density 21.399598999999998
#
# number of rings (size 3 to 8) (size 9 to 14) (size 15 to 20)
#    0.000    0.000    2.500    8.250    3.500    0.000 
#    0.000    0.000    0.000    0.000    0.000    0.000 
#    0.000    0.000    0.000    0.000    0.000    0.000 
#
# Total GULP energy -397126.980615 kJ/mol
# GULP energy per Si atom -12410.218144 kJ/mol
# Density = 2.135089 g / cm^3
# Si number density = 21.399599 Si / 1000 Ang^3
#
#
#
# Elastic Constant Matrix: (Units=GPa)
#
#
# Indices 1 2 3 4 5 6 
#
# 1 112.2150 27.8263 50.6684 0.0000 1.5499 0.0000
# 2 27.8263 109.6882 32.0003 0.0000 -2.3798 0.0000
# 3 50.6684 32.0003 166.0159 0.0000 6.7894 0.0000
# 4 0.0000 0.0000 0.0000 22.9973 0.0000 0.9915
# 5 1.5499 -2.3798 6.7894 0.0000 41.0833 0.0000
# 6 0.0000 0.0000 0.0000 0.9915 0.0000 48.4971
#
#
#
# Elastic Compliance Matrix: (Units=1/GPa)
#
#
# Indices 1 2 3 4 5 6 
#
# 1 0.010684 -0.001865 -0.002900 0.000000 -0.000032 0.000000
# 2 -0.001865 0.010017 -0.001398 0.000000 0.000882 0.000000
# 3 -0.002900 -0.001398 0.007226 0.000000 -0.001166 0.000000
# 4 0.000000 0.000000 0.000000 0.043522 0.000000 -0.000890
# 5 -0.000032 0.000882 -0.001166 0.000000 0.024586 0.000000
# 6 0.000000 0.000000 0.000000 -0.000890 0.000000 0.020638
#
#
# Mechanical properties :
#
#
# Convention : Reuss Voigt Hill
#
# Bulk Modulus (GPa) = 64.09809 67.65658 65.87733
# Shear Modulus (GPa) = 37.25866 41.01048 39.13457
#
# Velocity S-wave (km/s) = 4.17717 4.38244 4.28103
# Velocity P-wave (km/s) = 7.29951 7.56915 7.43556
#
# Compressibility (1/GPa) = 0.01560109
#
# Stress axis : x y z
#
# Youngs Moduli (GPa) = 93.59989 99.83289 138.39580
#
# Poissons Ratio (x) = 0.18619 0.40134
# Poissons Ratio (y) = 0.17456 0.19343
# Poissons Ratio (z) = 0.27143 0.13953
#
# Static dielectric constant tensor:
#      x y z
#    x 3.973090 0.000000 -0.015650 
#    y 0.000000 4.152300 0.000000 
#    z -0.015650 0.000000 4.182820 
# 
# 
# High freq. dielectric constant tensor:
#      x y z
#    x 1.850860 0.000000 0.000190 
#    y 0.000000 1.857030 0.000000 
#    z 0.000190 0.000000 1.864830 
# 
# From -- ./inp_files/78337.got.cif
#   From: 2010.03.12/outbox.cif.g09.slc.cpg/sg14_40_cif.got.tgz:78337.got - 2010.03.31 13:35:05.
