data_PCOD8129642
_publ_section_title
;
Structure prediction by ZEFSAII (Michael W. Deem and Ramdas Pophale) SiO2 
 PCOD8129642
Probable space group: C 2/C
;
_chemical_formula_sum "Si O2"
_cell_formula_units_Z 48
_cell_length_a 13.796528
_cell_length_b 7.350645
_cell_length_c 19.723839
_cell_angle_alpha 90.000000
_cell_angle_beta 118.031366
_cell_angle_gamma 90.000000
_cell_volume 1765.611439
_symmetry_space_group_name_H-M "C 2/C"
_symmetry_group_IT_number 15
_symmetry_cell_setting 'monoclinic'
loop_
_space_group_symop_operation_xyz
x,y,z
-x,y,1/2-z
-x,-y,-z
x,-y,1/2+z
1/2+x,1/2+y,z
1/2-x,1/2+y,1/2-z
1/2-x,1/2-y,-z
1/2+x,1/2-y,1/2+z
loop_
_atom_site_type_symbol
_atom_site_label
_atom_site_fract_x
_atom_site_fract_y
_atom_site_fract_z
Si Si1 0.967437 0.275482 0.931732
Si Si2 0.306012 0.912656 0.110665
Si Si3 0.994583 0.264155 0.099668
Si Si4 0.846264 0.066922 0.557056
Si Si5 0.231951 0.481028 0.641851
Si Si6 0.683382 0.534633 0.183292
O O1 0.903702 0.467833 0.891187
O O2 0.091533 0.255034 0.944502
O O3 0.893719 0.113083 0.878256
O O4 0.968997 0.277261 0.012552
O O5 0.431630 0.917779 0.123641
O O6 0.266265 0.709241 0.117660
O O7 0.295520 0.036224 0.175581
O O8 0.225896 0.988004 0.026877
O O9 0.940050 0.075964 0.108329
O O10 0.125932 0.235755 0.159251
O O11 0.771077 0.125009 0.597577
O O12 0.294145 0.517493 0.732140
#
# Coordination Sequence:
#
# PCOD8129642 Si02
#       6
#     8   8   8   8   8   8
#     4  10  17  29  50  76 118 159 192 251 297 351
#     4  10  17  29  50  76 118 159 192 251 297 351
#     4  10  15  27  49  75 113 155 199 244 294 352
#     4  10  15  27  49  75 113 155 199 244 294 352
#     4  10  19  28  45  81 122 150 192 253 301 350
#     4  10  19  28  45  81 122 150 192 253 301 350
#
# _framework density 27.186049000000001
#
# number of rings (size 3 to 8) (size 9 to 14) (size 15 to 20)
#    0.000    2.000    6.667    2.000    0.000    6.000 
#    0.000    0.000    0.000    0.000    0.000   28.000 
#    0.000    0.000    0.000    1.667    0.000    0.000 
#
# Total GULP energy -297334.031733 kJ/mol
# GULP energy per Si atom -12388.917989 kJ/mol
# Density = 2.712417 g / cm^3
# Si number density = 27.186049 Si / 1000 Ang^3
#
#
#
# Elastic Constant Matrix: (Units=GPa)
#
#
# Indices 1 2 3 4 5 6 
#
# 1 211.7866 39.1137 65.8337 0.0000 -39.1159 0.0000
# 2 39.1137 58.1472 24.6283 0.0000 -8.3406 0.0000
# 3 65.8337 24.6283 152.4007 0.0000 -41.4796 0.0000
# 4 0.0000 0.0000 0.0000 16.8142 0.0000 9.8896
# 5 -39.1159 -8.3406 -41.4796 0.0000 39.8113 0.0000
# 6 0.0000 0.0000 0.0000 9.8896 0.0000 45.0872
#
#
#
# Elastic Compliance Matrix: (Units=1/GPa)
#
#
# Indices 1 2 3 4 5 6 
#
# 1 0.006500 -0.003276 -0.001015 0.000000 0.004643 0.000000
# 2 -0.003276 0.020145 -0.002188 0.000000 -0.001279 0.000000
# 3 -0.001015 -0.002188 0.009711 0.000000 0.008663 0.000000
# 4 0.000000 0.000000 0.000000 0.068283 0.000000 -0.014977
# 5 0.004643 -0.001279 0.008663 0.000000 0.038438 0.000000
# 6 0.000000 0.000000 0.000000 -0.014977 0.000000 0.025464
#
#
# Mechanical properties :
#
#
# Convention : Reuss Voigt Hill
#
# Bulk Modulus (GPa) = 42.73923 75.72065 59.22994
# Shear Modulus (GPa) = 26.41321 39.85980 33.13650
#
# Velocity S-wave (km/s) = 3.12039 3.83323 3.49503
# Velocity P-wave (km/s) = 5.36074 6.89237 6.17424
#
# Compressibility (1/GPa) = 0.02339771
#
# Stress axis : x y z
#
# Youngs Moduli (GPa) = 153.85313 49.63997 102.97163
#
# Poissons Ratio (x) = 0.16264 0.10448
# Poissons Ratio (y) = 0.50409 0.22531
# Poissons Ratio (z) = 0.15611 0.10862
#
# Static dielectric constant tensor:
#      x y z
#    x 7.777680 0.000000 -0.265030 
#    y 0.000000 6.157030 0.000000 
#    z -0.265030 0.000000 4.469970 
# 
# 
# High freq. dielectric constant tensor:
#      x y z
#    x 2.129500 0.000000 -0.014070 
#    y 0.000000 2.110680 0.000000 
#    z -0.014070 0.000000 2.064220 
# 
# From -- ./inp_files/196611.got.cif
#   From: 2010.06.25/outbox.cif.g09.slc.cpg/sg15_99_cif.got.tgz:196611.got - 2010.06.28 07:06:18.
