data_PCOD8129810
_publ_section_title
;
Structure prediction by ZEFSAII (Michael W. Deem and Ramdas Pophale) SiO2 
 PCOD8129810
Probable space group: C 2/C
;
_chemical_formula_sum "Si O2"
_cell_formula_units_Z 48
_cell_length_a 18.592166
_cell_length_b 25.550090
_cell_length_c 5.210433
_cell_angle_alpha 90.000000
_cell_angle_beta 101.768785
_cell_angle_gamma 90.000000
_cell_volume 2423.089528
_symmetry_space_group_name_H-M "C 2/C"
_symmetry_group_IT_number 15
_symmetry_cell_setting 'monoclinic'
loop_
_space_group_symop_operation_xyz
x,y,z
-x,y,1/2-z
-x,-y,-z
x,-y,1/2+z
1/2+x,1/2+y,z
1/2-x,1/2+y,1/2-z
1/2-x,1/2-y,-z
1/2+x,1/2-y,1/2+z
loop_
_atom_site_type_symbol
_atom_site_label
_atom_site_fract_x
_atom_site_fract_y
_atom_site_fract_z
Si Si1 0.830507 0.727974 0.605659
Si Si2 0.082220 0.604034 0.325743
Si Si3 0.198935 0.966593 0.126634
Si Si4 0.166827 0.603775 0.883308
Si Si5 0.582965 0.771450 0.826079
Si Si6 0.468082 0.441514 0.478711
O O1 0.750000 0.750000 0.500000
O O2 0.825328 0.665749 0.610883
O O3 0.877961 0.748480 0.401945
O O4 0.870567 0.748964 0.893496
O O5 0.116288 0.583133 0.614647
O O6 0.080021 0.666298 0.328641
O O7 0.000000 0.581260 0.250000
O O8 0.130574 0.583643 0.121518
O O9 0.253005 0.919499 0.100838
O O10 0.118928 0.941216 0.063464
O O11 0.210801 0.989076 0.420165
O O12 0.500000 0.749009 0.750000
O O13 0.500000 0.412218 0.250000
O O14 0.500000 0.500000 0.500000
O O15 0.500000 0.411388 0.750000
#
# Coordination Sequence:
#
# PCOD8129810 Si02
#       6
#     8   8   8   8   8   8
#     4  10  19  33  53  77 108 138 166 212 266 314
#     4   9  17  33  54  74 101 130 172 219 245 293
#     4  12  21  33  53  75 104 133 164 220 257 294
#     4  10  21  33  51  81 103 130 174 211 259 310
#     4   9  17  30  52  80  98 131 180 218 246 291
#     4  10  16  30  49  73  92 120 171 209 240 284
#
# _framework density 19.809418999999998
#
# number of rings (size 3 to 8) (size 9 to 14) (size 15 to 20)
#    0.000    2.000    3.333    2.500    0.000    4.000 
#    0.000    0.000    0.000   13.000    0.000    0.000 
#    0.000    0.000    0.000    0.000    0.000    0.000 
#
# Total GULP energy -297505.445737 kJ/mol
# GULP energy per Si atom -12396.060239 kJ/mol
# Density = 1.976433 g / cm^3
# Si number density = 19.809419 Si / 1000 Ang^3
#
#
#
# Elastic Constant Matrix: (Units=GPa)
#
#
# Indices 1 2 3 4 5 6 
#
# 1 194.9464 25.3875 86.3864 0.0000 2.9784 0.0000
# 2 25.3875 11.7165 17.7556 0.0000 0.8475 0.0000
# 3 86.3864 17.7556 186.4421 0.0000 -9.0350 0.0000
# 4 0.0000 0.0000 0.0000 3.9543 0.0000 0.6833
# 5 2.9784 0.8475 -9.0350 0.0000 47.3328 0.0000
# 6 0.0000 0.0000 0.0000 0.6833 0.0000 23.3730
#
#
#
# Elastic Compliance Matrix: (Units=1/GPa)
#
#
# Indices 1 2 3 4 5 6 
#
# 1 0.007990 -0.013552 -0.002447 0.000000 -0.000727 0.000000
# 2 -0.013552 0.123355 -0.005586 0.000000 -0.002422 0.000000
# 3 -0.002447 -0.005586 0.007107 0.000000 0.001611 0.000000
# 4 0.000000 0.000000 0.000000 0.254174 0.000000 -0.007431
# 5 -0.000727 -0.002422 0.001611 0.000000 0.021524 0.000000
# 6 0.000000 0.000000 0.000000 -0.007431 0.000000 0.043002
#
#
# Mechanical properties :
#
#
# Convention : Reuss Voigt Hill
#
# Bulk Modulus (GPa) = 10.49507 72.46268 41.47887
# Shear Modulus (GPa) = 9.39708 32.50370 20.95039
#
# Velocity S-wave (km/s) = 2.18038 4.05510 3.25560
# Velocity P-wave (km/s) = 3.41295 7.65405 5.92590
#
# Compressibility (1/GPa) = 0.09528284
#
# Stress axis : x y z
#
# Youngs Moduli (GPa) = 125.16059 8.10671 140.70218
#
# Poissons Ratio (x) = 0.10986 0.34424
# Poissons Ratio (y) = 1.69618 0.78592
# Poissons Ratio (z) = 0.30622 0.04528
#
# Static dielectric constant tensor:
#      x y z
#    x 3.717720 0.000000 0.089080 
#    y 0.000000 2.804420 0.000000 
#    z 0.089080 0.000000 3.808380 
# 
# 
# High freq. dielectric constant tensor:
#      x y z
#    x 1.793240 0.000000 -0.004840 
#    y 0.000000 1.700150 0.000000 
#    z -0.004840 0.000000 1.800820 
# 
# From -- ./inp_files/8835.got.cif
#   From: 2010.06.25/outbox.cif.g09.slc.cpg/sg15_5_cif.got.tgz:8835.got - 2010.06.28 07:06:18.
