data_PCOD8129119
_publ_section_title
;
Structure prediction by ZEFSAII (Michael W. Deem and Ramdas Pophale) SiO2 
 PCOD8129119
Probable space group: P 21/C
;
_chemical_formula_sum "Si O2"
_cell_formula_units_Z 20
_cell_length_a 6.951476
_cell_length_b 5.237148
_cell_length_c 24.020420
_cell_angle_alpha 90.000000
_cell_angle_beta 95.746436
_cell_angle_gamma 90.000000
_cell_volume 870.090708
_symmetry_space_group_name_H-M "P 21/C"
_symmetry_group_IT_number 14
_symmetry_cell_setting 'monoclinic'
loop_
_space_group_symop_operation_xyz
x,y,z
-x,1/2+y,1/2-z
-x,-y,-z
x,1/2-y,1/2+z
loop_
_atom_site_type_symbol
_atom_site_label
_atom_site_fract_x
_atom_site_fract_y
_atom_site_fract_z
Si Si1 0.034416 0.295580 0.047735
Si Si2 0.412912 0.203113 0.861421
Si Si3 0.659920 0.798014 0.352055
Si Si4 0.125905 0.296737 0.254509
Si Si5 0.707065 0.957253 0.030704
O O1 0.155993 0.381807 0.105112
O O2 0.167259 0.093212 0.020056
O O3 0.823390 0.195585 0.061728
O O4 0.000000 0.500000 0.000000
O O5 0.517068 0.462292 0.846876
O O6 0.247877 0.137638 0.812655
O O7 0.314406 0.247344 0.919625
O O8 0.556347 0.959371 0.870749
O O9 0.729853 0.741452 0.291952
O O10 0.997503 0.543637 0.237343
O O11 0.500000 0.000000 0.000000
#
# Coordination Sequence:
#
# PCOD8129119 Si02
#       5
#     4   4   4   4   4
#     4  11  26  41  71 101 144 185 237 288 343 424
#     4  12  26  45  73  99 142 185 234 290 351 418
#     4  12  26  46  70 103 139 184 238 287 351 420
#     4  12  26  46  72 102 139 182 236 292 351 418
#     4  11  24  45  67 104 141 188 233 285 354 409
#
# _framework density 22.986108999999999
#
# number of rings (size 3 to 8) (size 9 to 14) (size 15 to 20)
#    0.000    0.400    2.000    6.000    8.400    1.600 
#    0.000    0.000    0.000    0.000    0.000    0.000 
#    0.000    0.000    0.000    0.000    0.000    0.000 
#
# Total GULP energy -247883.632937 kJ/mol
# GULP energy per Si atom -12394.181647 kJ/mol
# Density = 2.293379 g / cm^3
# Si number density = 22.986109 Si / 1000 Ang^3
#
#
#
# Elastic Constant Matrix: (Units=GPa)
#
#
# Indices 1 2 3 4 5 6 
#
# 1 116.0356 24.7612 30.6862 0.0000 14.5220 0.0000
# 2 24.7612 103.4826 -10.1558 0.0000 4.9162 0.0000
# 3 30.6862 -10.1558 126.9652 0.0000 10.3128 0.0000
# 4 0.0000 0.0000 0.0000 33.2922 0.0000 4.3142
# 5 14.5220 4.9162 10.3128 0.0000 44.6997 0.0000
# 6 0.0000 0.0000 0.0000 4.3142 0.0000 27.1815
#
#
#
# Elastic Compliance Matrix: (Units=1/GPa)
#
#
# Indices 1 2 3 4 5 6 
#
# 1 0.010114 -0.002545 -0.002450 0.000000 -0.002441 0.000000
# 2 -0.002545 0.010452 0.001505 0.000000 -0.000670 0.000000
# 3 -0.002450 0.001505 0.008701 0.000000 -0.001377 0.000000
# 4 0.000000 0.000000 0.000000 0.030668 0.000000 -0.004868
# 5 -0.002441 -0.000670 -0.001377 0.000000 0.023556 0.000000
# 6 0.000000 0.000000 0.000000 -0.004868 0.000000 0.037562
#
#
# Mechanical properties :
#
#
# Convention : Reuss Voigt Hill
#
# Bulk Modulus (GPa) = 44.86534 48.56295 46.71415
# Shear Modulus (GPa) = 36.91113 41.11413 39.01263
#
# Velocity S-wave (km/s) = 4.01159 4.23383 4.12421
# Velocity P-wave (km/s) = 6.40453 6.71367 6.56092
#
# Compressibility (1/GPa) = 0.02228892
#
# Stress axis : x y z
#
# Youngs Moduli (GPa) = 98.86894 95.67616 114.93532
#
# Poissons Ratio (x) = 0.24346 0.28157
# Poissons Ratio (y) = 0.25159 -0.17303
# Poissons Ratio (z) = 0.24221 -0.14404
#
# Static dielectric constant tensor:
#      x y z
#    x 4.879460 0.000000 -0.259460 
#    y 0.000000 4.380210 0.000000 
#    z -0.259460 0.000000 4.680410 
# 
# 
# High freq. dielectric constant tensor:
#      x y z
#    x 1.927820 0.000000 0.003940 
#    y 0.000000 1.899560 0.000000 
#    z 0.003940 0.000000 1.929600 
# 
# From -- ./inp_files/75454.got.cif
#   From: 2010.03.12/outbox.cif.g09.slc.cpg/sg14_38_cif.got.tgz:75454.got - 2010.03.31 13:35:05.
