data_PCOD8129988
_publ_section_title
;
Structure prediction by ZEFSAII (Michael W. Deem and Ramdas Pophale) SiO2 
 PCOD8129988
Probable space group: C 2/C
;
_chemical_formula_sum "Si O2"
_cell_formula_units_Z 48
_cell_length_a 11.485575
_cell_length_b 16.464397
_cell_length_c 20.708344
_cell_angle_alpha 90.000000
_cell_angle_beta 140.015801
_cell_angle_gamma 90.000000
_cell_volume 2516.336188
_symmetry_space_group_name_H-M "C 2/C"
_symmetry_group_IT_number 15
_symmetry_cell_setting 'monoclinic'
loop_
_space_group_symop_operation_xyz
x,y,z
-x,y,1/2-z
-x,-y,-z
x,-y,1/2+z
1/2+x,1/2+y,z
1/2-x,1/2+y,1/2-z
1/2-x,1/2-y,-z
1/2+x,1/2-y,1/2+z
loop_
_atom_site_type_symbol
_atom_site_label
_atom_site_fract_x
_atom_site_fract_y
_atom_site_fract_z
Si Si1 0.322932 0.976002 0.994992
Si Si2 0.500749 0.182066 0.342293
Si Si3 0.521741 0.133746 0.489819
Si Si4 0.040496 0.952397 0.582279
Si Si5 0.799670 0.779843 0.878628
Si Si6 0.926865 0.498796 0.784547
O O1 0.351532 0.914854 0.947188
O O2 0.488893 0.958623 0.116139
O O3 0.129525 0.958146 0.942939
O O4 0.327239 0.068329 0.969582
O O5 0.461478 0.185816 0.401768
O O6 0.339246 0.230923 0.239463
O O7 0.695042 0.217665 0.403294
O O8 0.508931 0.091179 0.318414
O O9 0.586102 0.197091 0.571370
O O10 0.075319 0.858590 0.579388
O O11 0.208471 0.994404 0.691568
O O12 0.000000 0.000000 0.500000
O O13 0.000000 0.542059 0.750000
#
# Coordination Sequence:
#
# PCOD8129988 Si02
#       6
#     8   8   8   8   8   8
#     4  10  22  38  56  85 122 155 193 241 298 352
#     4   9  17  35  58  79 112 152 193 240 288 346
#     4  10  21  39  55  80 125 156 183 251 301 340
#     4  11  19  34  62  87 110 153 198 236 292 348
#     4  10  19  35  59  85 107 154 203 236 286 354
#     4  10  16  35  58  81 113 148 194 239 283 338
#
# _framework density 19.075354000000001
#
# number of rings (size 3 to 8) (size 9 to 14) (size 15 to 20)
#    0.000    2.000    5.000    1.500    0.000    0.667 
#    9.000   12.500    0.000    0.000    0.000    0.000 
#    0.000    0.000    0.000    0.000    0.000    0.000 
#
# Total GULP energy -297482.120570 kJ/mol
# GULP energy per Si atom -12395.088357 kJ/mol
# Density = 1.903194 g / cm^3
# Si number density = 19.075354 Si / 1000 Ang^3
#
#
#
# Elastic Constant Matrix: (Units=GPa)
#
#
# Indices 1 2 3 4 5 6 
#
# 1 129.8765 41.3852 49.3211 0.0000 9.9096 0.0000
# 2 41.3852 75.3097 35.4956 0.0000 7.1079 0.0000
# 3 49.3211 35.4956 81.8027 -0.0001 8.2046 -0.0001
# 4 0.0000 0.0000 -0.0001 23.6124 0.0000 -3.6763
# 5 9.9096 7.1079 8.2046 0.0000 30.8747 0.0000
# 6 0.0000 0.0000 -0.0001 -3.6763 0.0000 16.4144
#
#
#
# Elastic Compliance Matrix: (Units=1/GPa)
#
#
# Indices 1 2 3 4 5 6 
#
# 1 0.010753 -0.003506 -0.004825 0.000000 -0.001362 0.000000
# 2 -0.003506 0.017953 -0.005522 0.000000 -0.001540 0.000000
# 3 -0.004825 -0.005522 0.017719 0.000000 -0.001889 0.000000
# 4 0.000000 0.000000 0.000000 0.043881 0.000000 0.009828
# 5 -0.001362 -0.001540 -0.001889 0.000000 0.033683 0.000000
# 6 0.000000 0.000000 0.000000 0.009828 0.000000 0.063123
#
#
# Mechanical properties :
#
#
# Convention : Reuss Voigt Hill
#
# Bulk Modulus (GPa) = 53.42164 59.93251 56.67707
# Shear Modulus (GPa) = 22.61840 24.89943 23.75891
#
# Velocity S-wave (km/s) = 3.44719 3.61684 3.53303
# Velocity P-wave (km/s) = 6.62650 6.99493 6.81321
#
# Compressibility (1/GPa) = 0.01871901
#
# Stress axis : x y z
#
# Youngs Moduli (GPa) = 92.99453 55.70010 56.43576
#
# Poissons Ratio (x) = 0.19531 0.27232
# Poissons Ratio (y) = 0.32608 0.31162
# Poissons Ratio (z) = 0.44873 0.30755
#
# Static dielectric constant tensor:
#      x y z
#    x 3.543350 0.000000 -0.163490 
#    y 0.000000 3.245180 0.000000 
#    z -0.163490 0.000000 3.772610 
# 
# 
# High freq. dielectric constant tensor:
#      x y z
#    x 1.739920 0.000000 -0.012890 
#    y 0.000000 1.717030 0.000000 
#    z -0.012890 0.000000 1.737210 
# 
# From -- ./inp_files/239471.got.cif
#   From: 2010.06.25/outbox.cif.g09.slc.cpg/sg15_120_cif.got.tgz:239471.got - 2010.06.28 07:06:18.
