data_PCOD8129008
_publ_section_title
;
Structure prediction by ZEFSAII (Michael W. Deem and Ramdas Pophale) SiO2 
 PCOD8129008
Probable space group: P 21/C
;
_chemical_formula_sum "Si O2"
_cell_formula_units_Z 24
_cell_length_a 11.222287
_cell_length_b 8.551494
_cell_length_c 11.727245
_cell_angle_alpha 90.000000
_cell_angle_beta 68.384403
_cell_angle_gamma 90.000000
_cell_volume 1046.287645
_symmetry_space_group_name_H-M "P 21/C"
_symmetry_group_IT_number 14
_symmetry_cell_setting 'monoclinic'
loop_
_space_group_symop_operation_xyz
x,y,z
-x,1/2+y,1/2-z
-x,-y,-z
x,1/2-y,1/2+z
loop_
_atom_site_type_symbol
_atom_site_label
_atom_site_fract_x
_atom_site_fract_y
_atom_site_fract_z
Si Si1 0.538582 0.093010 0.876279
Si Si2 0.889479 0.588774 0.276420
Si Si3 0.634973 0.410085 0.942860
Si Si4 0.142361 0.060091 0.772522
Si Si5 0.743117 0.647592 0.548392
Si Si6 0.265910 0.489848 0.867235
O O1 0.620567 0.245573 0.883680
O O2 0.405340 0.138450 0.864885
O O3 0.611642 0.982809 0.760293
O O4 0.500000 0.000000 0.000000
O O5 0.901484 0.764488 0.231354
O O6 0.776943 0.581401 0.411202
O O7 0.852028 0.477418 0.180585
O O8 0.026997 0.551482 0.278809
O O9 0.729074 0.521138 0.840302
O O10 0.500000 0.500000 0.000000
O O11 0.700773 0.382994 0.045890
O O12 0.173017 0.041915 0.895494
O O13 0.770797 0.831764 0.553055
#
# Coordination Sequence:
#
# PCOD8129008 Si02
#       6
#     4   4   4   4   4   4
#     4  12  26  42  72 108 141 181 248 295 360 437
#     4  11  24  48  67 106 143 195 244 296 359 432
#     4  12  25  47  72 103 144 192 237 301 376 421
#     4  11  26  44  74 102 146 195 246 296 361 434
#     4  11  23  47  72 100 150 187 236 307 359 423
#     4  11  25  44  70 104 144 189 236 298 361 431
#
# _framework density 22.938241999999999
#
# number of rings (size 3 to 8) (size 9 to 14) (size 15 to 20)
#    0.000    0.667    5.000    1.500    7.000    0.667 
#    0.000    0.000    0.000    0.000    0.000    0.000 
#    0.000    0.000    0.000    0.000    0.000    0.000 
#
# Total GULP energy -297417.773075 kJ/mol
# GULP energy per Si atom -12392.407211 kJ/mol
# Density = 2.288603 g / cm^3
# Si number density = 22.938242 Si / 1000 Ang^3
#
#
#
# Elastic Constant Matrix: (Units=GPa)
#
#
# Indices 1 2 3 4 5 6 
#
# 1 137.2642 39.4589 32.4895 0.0000 23.8953 0.0000
# 2 39.4589 56.2749 16.3792 0.0000 10.2775 0.0000
# 3 32.4895 16.3792 87.3406 0.0000 20.5616 0.0000
# 4 0.0000 0.0000 0.0000 28.1921 0.0000 -4.7446
# 5 23.8953 10.2775 20.5616 0.0000 47.8992 0.0000
# 6 0.0000 0.0000 0.0000 -4.7446 0.0000 38.2077
#
#
#
# Elastic Compliance Matrix: (Units=1/GPa)
#
#
# Indices 1 2 3 4 5 6 
#
# 1 0.009928 -0.005880 -0.001915 0.000000 -0.002869 0.000000
# 2 -0.005880 0.022623 -0.001783 0.000000 -0.001155 0.000000
# 3 -0.001915 -0.001783 0.013551 0.000000 -0.004479 0.000000
# 4 0.000000 0.000000 0.000000 0.036228 0.000000 0.004499
# 5 -0.002869 -0.001155 -0.004479 0.000000 0.024479 0.000000
# 6 0.000000 0.000000 0.000000 0.004499 0.000000 0.026731
#
#
# Mechanical properties :
#
#
# Convention : Reuss Voigt Hill
#
# Bulk Modulus (GPa) = 37.11259 50.83720 43.97490
# Shear Modulus (GPa) = 30.92549 35.69660 33.31104
#
# Velocity S-wave (km/s) = 3.67578 3.94916 3.81492
# Velocity P-wave (km/s) = 5.85061 6.55783 6.21429
#
# Compressibility (1/GPa) = 0.02694503
#
# Stress axis : x y z
#
# Youngs Moduli (GPa) = 100.72204 44.20290 73.79729
#
# Poissons Ratio (x) = 0.25992 0.14132
# Poissons Ratio (y) = 0.59226 0.13160
# Poissons Ratio (z) = 0.19288 0.07883
#
# Static dielectric constant tensor:
#      x y z
#    x 5.449460 0.000000 0.806420 
#    y 0.000000 4.662160 0.000000 
#    z 0.806420 0.000000 4.583810 
# 
# 
# High freq. dielectric constant tensor:
#      x y z
#    x 1.922490 0.000000 0.018630 
#    y 0.000000 1.882560 0.000000 
#    z 0.018630 0.000000 1.915410 
# 
# From -- ./inp_files/28016.got.cif
#   From: 2010.03.12/outbox.cif.g09.slc.cpg/sg14_15_cif.got.tgz:28016.got - 2010.03.31 13:35:05.
