data_PCOD8129734
_publ_section_title
;
Structure prediction by ZEFSAII (Michael W. Deem and Ramdas Pophale) SiO2 
 PCOD8129734
Probable space group: C 2/C
;
_chemical_formula_sum "Si O2"
_cell_formula_units_Z 44
_cell_length_a 14.952159
_cell_length_b 16.872969
_cell_length_c 13.110890
_cell_angle_alpha 90.000000
_cell_angle_beta 124.286705
_cell_angle_gamma 90.000000
_cell_volume 2732.927061
_symmetry_space_group_name_H-M "C 2/C"
_symmetry_group_IT_number 15
_symmetry_cell_setting 'monoclinic'
loop_
_space_group_symop_operation_xyz
x,y,z
-x,y,1/2-z
-x,-y,-z
x,-y,1/2+z
1/2+x,1/2+y,z
1/2-x,1/2+y,1/2-z
1/2-x,1/2-y,-z
1/2+x,1/2-y,1/2+z
loop_
_atom_site_type_symbol
_atom_site_label
_atom_site_fract_x
_atom_site_fract_y
_atom_site_fract_z
Si Si1 0.608862 0.988626 0.010283
Si Si2 0.053250 0.206814 0.176966
Si Si3 0.662347 0.314966 0.054992
Si Si4 0.743761 0.853961 0.599530
Si Si5 0.000000 0.533459 0.750000
Si Si6 0.844822 0.369034 0.300969
O O1 0.683173 0.064488 0.079217
O O2 0.664460 0.910539 0.093896
O O3 0.579375 0.979335 0.871344
O O4 0.500000 0.000000 0.000000
O O5 0.146966 0.143366 0.262155
O O6 0.105208 0.281936 0.153843
O O7 0.000000 0.235026 0.250000
O O8 0.964598 0.165883 0.045237
O O9 0.669614 0.220902 0.082954
O O10 0.719582 0.363590 0.182767
O O11 0.731727 0.341611 0.002809
O O12 0.923116 0.585464 0.772739
#
# Coordination Sequence:
#
# PCOD8129734 Si02
#       6
#     8   8   8   8   4   8
#     4  10  19  26  41  63  90 119 140 173 222 263
#     4   9  16  26  46  67  88 116 141 178 227 262
#     4   9  15  26  44  62  87 117 141 178 222 257
#     4   9  16  26  41  64  92 113 142 180 218 265
#     4  10  16  28  38  58  92 112 136 178 212 260
#     4  10  17  26  43  65  90 114 144 172 220 262
#
# _framework density 16.099954
#
# number of rings (size 3 to 8) (size 9 to 14) (size 15 to 20)
#    0.000    2.545    2.727    3.273    0.000    0.000 
#    0.000    0.909    0.000    0.000    0.000   31.818 
#    0.000    0.000    0.000    0.000    0.000    0.000 
#
# Total GULP energy -272538.742025 kJ/mol
# GULP energy per Si atom -12388.124638 kJ/mol
# Density = 1.606331 g / cm^3
# Si number density = 16.099954 Si / 1000 Ang^3
#
#
#
# Elastic Constant Matrix: (Units=GPa)
#
#
# Indices 1 2 3 4 5 6 
#
# 1 39.4462 27.8062 33.8388 0.0000 17.5803 0.0000
# 2 27.8062 75.2174 52.4336 0.0000 6.6246 0.0000
# 3 33.8388 52.4336 138.5418 0.0000 29.9569 0.0000
# 4 0.0000 0.0000 0.0000 28.2793 0.0000 -0.2796
# 5 17.5803 6.6246 29.9569 0.0000 28.2467 0.0000
# 6 0.0000 0.0000 0.0000 -0.2796 0.0000 21.5661
#
#
#
# Elastic Compliance Matrix: (Units=1/GPa)
#
#
# Indices 1 2 3 4 5 6 
#
# 1 0.047880 -0.015170 -0.000362 0.000000 -0.025858 0.000000
# 2 -0.015170 0.023205 -0.007710 0.000000 0.012176 0.000000
# 3 -0.000362 -0.007710 0.012696 0.000000 -0.011432 0.000000
# 4 0.000000 0.000000 0.000000 0.035366 0.000000 0.000459
# 5 -0.025858 0.012176 -0.011432 0.000000 0.060764 0.000000
# 6 0.000000 0.000000 0.000000 0.000459 0.000000 0.046375
#
#
# Mechanical properties :
#
#
# Convention : Reuss Voigt Hill
#
# Bulk Modulus (GPa) = 26.81208 53.48476 40.14842
# Shear Modulus (GPa) = 17.53141 24.89353 21.21247
#
# Velocity S-wave (km/s) = 3.30344 3.93642 3.63374
# Velocity P-wave (km/s) = 5.58927 7.34528 6.52660
#
# Compressibility (1/GPa) = 0.03729662
#
# Stress axis : x y z
#
# Youngs Moduli (GPa) = 20.88575 43.09398 78.76377
#
# Poissons Ratio (x) = 0.65375 0.02849
# Poissons Ratio (y) = 0.31685 0.60726
# Poissons Ratio (z) = 0.00756 0.33225
#
# Static dielectric constant tensor:
#      x y z
#    x 3.174850 0.000000 0.019390 
#    y 0.000000 3.024380 0.000000 
#    z 0.019390 0.000000 3.872600 
# 
# 
# High freq. dielectric constant tensor:
#      x y z
#    x 1.577910 0.000000 0.036030 
#    y 0.000000 1.588370 0.000000 
#    z 0.036030 0.000000 1.630790 
# 
# From -- ./inp_files/87179.got.cif
#   From: 2010.06.25/outbox.cif.g09.slc.cpg/sg15_44_cif.got.tgz:87179.got - 2010.06.28 07:06:18.
