data_PCOD8129891
_publ_section_title
;
Structure prediction by ZEFSAII (Michael W. Deem and Ramdas Pophale) SiO2 
 PCOD8129891
Probable space group: C 2/C
;
_chemical_formula_sum "Si O2"
_cell_formula_units_Z 52
_cell_length_a 20.729908
_cell_length_b 11.271047
_cell_length_c 13.166174
_cell_angle_alpha 90.000000
_cell_angle_beta 79.904818
_cell_angle_gamma 90.000000
_cell_volume 3028.620465
_symmetry_space_group_name_H-M "C 2/C"
_symmetry_group_IT_number 15
_symmetry_cell_setting 'monoclinic'
loop_
_space_group_symop_operation_xyz
x,y,z
-x,y,1/2-z
-x,-y,-z
x,-y,1/2+z
1/2+x,1/2+y,z
1/2-x,1/2+y,1/2-z
1/2-x,1/2-y,-z
1/2+x,1/2-y,1/2+z
loop_
_atom_site_type_symbol
_atom_site_label
_atom_site_fract_x
_atom_site_fract_y
_atom_site_fract_z
Si Si1 0.541803 0.890058 0.085648
Si Si2 0.103524 0.421472 0.709377
Si Si3 0.978947 0.871078 0.871693
Si Si4 0.103749 0.462194 0.408985
Si Si5 0.063188 0.107910 0.546078
Si Si6 0.500000 0.270378 0.250000
Si Si7 0.824040 0.709872 0.475344
O O1 0.556614 0.757109 0.119977
O O2 0.465690 0.893595 0.074746
O O3 0.553581 0.989310 0.167356
O O4 0.591709 0.920935 0.980889
O O5 0.133167 0.493336 0.795073
O O6 0.062790 0.309003 0.758503
O O7 0.163486 0.374976 0.624888
O O8 0.000000 0.900619 0.750000
O O9 0.927471 0.969289 0.927347
O O10 0.038871 0.874104 0.936665
O O11 0.157708 0.369876 0.432857
O O12 0.010691 0.155891 0.643483
O O13 0.132298 0.172139 0.540613
O O14 0.750000 0.750000 0.500000
#
# Coordination Sequence:
#
# PCOD8129891 Si02
#       7
#     8   8   8   8   8   4   8
#     4  10  18  28  53  91 109 129 165 232 286 309
#     4  10  18  30  59  82 106 131 178 232 270 311
#     4  11  20  32  50  82 116 136 170 219 288 329
#     4  10  17  32  55  83 107 134 175 229 271 312
#     4  10  21  34  52  76 110 148 173 220 267 336
#     4  10  16  32  52  84 110 132 178 216 284 320
#     4  10  22  38  55  74 108 150 185 213 255 328
#
# _framework density 17.169533999999999
#
# number of rings (size 3 to 8) (size 9 to 14) (size 15 to 20)
#    0.000    1.846    3.846    1.846    0.000    0.000 
#    0.000    1.538    0.000    1.846    0.000    0.000 
#    0.000    0.000    0.000    0.000    0.000    0.000 
#
# Total GULP energy -322238.283483 kJ/mol
# GULP energy per Si atom -12393.780134 kJ/mol
# Density = 1.713046 g / cm^3
# Si number density = 17.169534 Si / 1000 Ang^3
#
#
#
# Elastic Constant Matrix: (Units=GPa)
#
#
# Indices 1 2 3 4 5 6 
#
# 1 93.4523 44.9120 42.7229 0.0000 -2.0769 0.0000
# 2 44.9120 109.3750 34.3685 0.0000 -0.5864 0.0000
# 3 42.7229 34.3685 113.5885 0.0000 7.8186 0.0000
# 4 0.0000 0.0000 0.0000 25.5549 0.0000 2.1742
# 5 -2.0769 -0.5864 7.8186 0.0000 12.2416 0.0000
# 6 0.0000 0.0000 0.0000 2.1742 0.0000 22.8832
#
#
#
# Elastic Compliance Matrix: (Units=1/GPa)
#
#
# Indices 1 2 3 4 5 6 
#
# 1 0.015238 -0.004765 -0.004656 0.000000 0.005331 0.000000
# 2 -0.004765 0.011670 -0.001801 0.000000 0.000901 0.000000
# 3 -0.004656 -0.001801 0.011673 0.000000 -0.008332 0.000000
# 4 0.000000 0.000000 0.000000 0.039450 0.000000 -0.003748
# 5 0.005331 0.000901 -0.008332 0.000000 0.087957 0.000000
# 6 0.000000 0.000000 0.000000 -0.003748 0.000000 0.044056
#
#
# Mechanical properties :
#
#
# Convention : Reuss Voigt Hill
#
# Bulk Modulus (GPa) = 61.97033 62.26917 62.11975
# Shear Modulus (GPa) = 21.01990 25.09676 23.05833
#
# Velocity S-wave (km/s) = 3.50273 3.82737 3.66864
# Velocity P-wave (km/s) = 7.24779 7.47514 7.36234
#
# Compressibility (1/GPa) = 0.01613675
#
# Stress axis : x y z
#
# Youngs Moduli (GPa) = 65.62524 85.68760 85.66462
#
# Poissons Ratio (x) = 0.40833 0.39889
# Poissons Ratio (y) = 0.31273 0.15426
# Poissons Ratio (z) = 0.30558 0.15430
#
# Static dielectric constant tensor:
#      x y z
#    x 2.597970 0.000000 0.055820 
#    y 0.000000 3.442700 0.000000 
#    z 0.055820 0.000000 3.548940 
# 
# 
# High freq. dielectric constant tensor:
#      x y z
#    x 1.594120 0.000000 0.003660 
#    y 0.000000 1.681020 0.000000 
#    z 0.003660 0.000000 1.680860 
# 
# From -- ./inp_files/166952.got.cif
#   From: 2010.06.25/outbox.cif.g09.slc.cpg/sg15_84_cif.got.tgz:166952.got - 2010.06.28 07:06:18.
