data_PCOD8129687
_publ_section_title
;
Structure prediction by ZEFSAII (Michael W. Deem and Ramdas Pophale) SiO2 
 PCOD8129687
Probable space group: C 2/C
;
_chemical_formula_sum "Si O2"
_cell_formula_units_Z 60
_cell_length_a 19.756198
_cell_length_b 17.701338
_cell_length_c 31.713029
_cell_angle_alpha 90.000000
_cell_angle_beta 17.659449
_cell_angle_gamma 90.000000
_cell_volume 3364.369612
_symmetry_space_group_name_H-M "C 2/C"
_symmetry_group_IT_number 15
_symmetry_cell_setting 'monoclinic'
loop_
_space_group_symop_operation_xyz
x,y,z
-x,y,1/2-z
-x,-y,-z
x,-y,1/2+z
1/2+x,1/2+y,z
1/2-x,1/2+y,1/2-z
1/2-x,1/2-y,-z
1/2+x,1/2-y,1/2+z
loop_
_atom_site_type_symbol
_atom_site_label
_atom_site_fract_x
_atom_site_fract_y
_atom_site_fract_z
Si Si1 0.939955 0.714769 0.576062
Si Si2 0.133862 0.535061 0.362673
Si Si3 0.760801 0.574835 0.105988
Si Si4 0.934897 0.095584 0.698179
Si Si5 0.682053 0.822609 0.567131
Si Si6 0.807902 0.673677 0.230389
Si Si7 0.865837 0.738145 0.527422
Si Si8 0.500000 0.613549 0.750000
O O1 0.697295 0.674606 0.720689
O O2 0.926509 0.784137 0.618175
O O3 0.965764 0.752583 0.514402
O O4 0.134412 0.654849 0.472442
O O5 0.184939 0.575802 0.376553
O O6 0.296500 0.466266 0.255588
O O7 0.199035 0.592202 0.287074
O O8 0.881453 0.499258 0.513260
O O9 0.500000 0.573532 0.250000
O O10 0.166522 0.106397 0.536586
O O11 0.968705 0.063869 0.726246
O O12 0.750000 0.750000 0.500000
O O13 0.428744 0.839841 0.704112
O O14 0.710440 0.805779 0.600505
O O15 0.929445 0.730653 0.126267
O O16 0.724334 0.661364 0.609610
#
# Coordination Sequence:
#
# PCOD8129687 Si02
#       8
#     8   8   8   8   8   8   8   4
#     4  10  19  34  54  74 111 143 180 231 272 326
#     4  10  23  34  50  80 119 144 177 234 278 333
#     4  10  22  37  54  82 112 153 184 220 286 347
#     4  10  18  28  47  77 108 140 168 217 283 337
#     4  10  16  28  49  79 105 141 175 224 278 333
#     4  11  19  33  49  79 115 141 184 226 279 327
#     4  10  17  29  48  79 107 134 173 226 278 332
#     4  10  16  24  46  74 108 132 166 208 282 336
#
# _framework density 17.833950000000002
#
# number of rings (size 3 to 8) (size 9 to 14) (size 15 to 20)
#    0.000    1.867    6.667    0.800    4.667    0.000 
#    0.000    0.667    0.000    0.800    0.000    0.000 
#    0.000    0.000    0.000    0.000    0.000    0.000 
#
# Total GULP energy -371649.319539 kJ/mol
# GULP energy per Si atom -12388.310651 kJ/mol
# Density = 1.779336 g / cm^3
# Si number density = 17.833950 Si / 1000 Ang^3
#
#
#
# Elastic Constant Matrix: (Units=GPa)
#
#
# Indices 1 2 3 4 5 6 
#
# 1 76.7345 49.9531 29.6054 -0.0946 2.7267 -0.0230
# 2 49.9531 82.1972 38.5777 0.0586 4.0144 0.0468
# 3 29.6054 38.5777 79.6332 -0.1779 -8.3448 0.1325
# 4 -0.0946 0.0586 -0.1779 12.0506 0.0420 11.1103
# 5 2.7267 4.0144 -8.3448 0.0420 21.8134 0.0731
# 6 -0.0230 0.0468 0.1325 11.1103 0.0731 28.4239
#
#
#
# Elastic Compliance Matrix: (Units=1/GPa)
#
#
# Indices 1 2 3 4 5 6 
#
# 1 0.021895 -0.012095 -0.002431 0.000237 -0.001441 -0.000040
# 2 -0.012095 0.023236 -0.007345 -0.000465 -0.005574 0.000182
# 3 -0.002431 -0.007345 0.017913 0.000530 0.008508 -0.000303
# 4 0.000237 -0.000465 0.000530 0.129760 0.000179 -0.050723
# 5 -0.001441 -0.005574 0.008508 0.000179 0.050305 -0.000231
# 6 -0.000040 0.000182 -0.000303 -0.050723 -0.000231 0.055010
#
#
# Mechanical properties :
#
#
# Convention : Reuss Voigt Hill
#
# Bulk Modulus (GPa) = 51.80991 52.75970 52.28480
# Shear Modulus (GPa) = 14.35561 20.48615 17.42088
#
# Velocity S-wave (km/s) = 2.84026 3.39295 3.12883
# Velocity P-wave (km/s) = 6.31430 6.70802 6.51414
#
# Compressibility (1/GPa) = 0.01930133
#
# Stress axis : x y z
#
# Youngs Moduli (GPa) = 45.67258 43.03646 55.82490
#
# Poissons Ratio (x) = 0.52052 0.13572
# Poissons Ratio (y) = 0.55240 0.41006
# Poissons Ratio (z) = 0.11104 0.31612
#
# Static dielectric constant tensor:
#      x y z
#    x 3.396130 -0.000210 0.029930 
#    y -0.000210 3.203760 0.000840 
#    z 0.029930 0.000840 3.190910 
# 
# 
# High freq. dielectric constant tensor:
#      x y z
#    x 1.671780 0.000000 0.001380 
#    y 0.000000 1.663410 0.000070 
#    z 0.001380 0.000070 1.668960 
# 
# From -- ./inp_files/316622.got.cif
#   From: 2010.06.25/outbox.cif.g09.slc.cpg/sg15_159_cif.got.tgz:316622.got - 2010.06.28 07:06:18.
