data_PCOD8129188
_publ_section_title
;
Structure prediction by ZEFSAII (Michael W. Deem and Ramdas Pophale) SiO2 
 PCOD8129188
Probable space group: P 21/C
;
_chemical_formula_sum "Si O2"
_cell_formula_units_Z 28
_cell_length_a 8.178749
_cell_length_b 14.456735
_cell_length_c 13.537266
_cell_angle_alpha 90.000000
_cell_angle_beta 51.828645
_cell_angle_gamma 90.000000
_cell_volume 1258.352461
_symmetry_space_group_name_H-M "P 21/C"
_symmetry_group_IT_number 14
_symmetry_cell_setting 'monoclinic'
loop_
_space_group_symop_operation_xyz
x,y,z
-x,1/2+y,1/2-z
-x,-y,-z
x,1/2-y,1/2+z
loop_
_atom_site_type_symbol
_atom_site_label
_atom_site_fract_x
_atom_site_fract_y
_atom_site_fract_z
Si Si1 0.979540 0.742386 0.963505
Si Si2 0.972751 0.570534 0.096866
Si Si3 0.331957 0.826889 0.714036
Si Si4 0.180036 0.485392 0.203952
Si Si5 0.552236 0.859146 0.818843
Si Si6 0.372986 0.301801 0.058092
Si Si7 0.910200 0.080308 0.967907
O O1 0.777368 0.713760 0.978731
O O2 0.146513 0.758785 0.813875
O O3 0.041644 0.667061 0.022536
O O4 0.963034 0.832786 0.036933
O O5 0.740671 0.569374 0.230936
O O6 0.128350 0.541136 0.124515
O O7 0.000000 0.500000 0.000000
O O8 0.511190 0.810596 0.728920
O O9 0.400297 0.801216 0.577773
O O10 0.276329 0.937058 0.741325
O O11 0.339181 0.401824 0.121122
O O12 0.976111 0.439288 0.330050
O O13 0.637634 0.781163 0.860938
O O14 0.340733 0.908262 0.936287
O O15 0.000000 0.000000 0.000000
#
# Coordination Sequence:
#
# PCOD8129188 Si02
#       7
#     4   4   4   4   4   4   4
#     4  11  24  48  71 100 151 188 239 303 366 429
#     4  12  25  48  70 106 147 187 248 301 365 441
#     4  11  25  47  67 107 141 190 241 300 363 431
#     4  12  25  46  76 102 149 192 238 306 371 426
#     4  11  25  46  73 106 141 188 248 292 362 441
#     4  12  26  45  74 108 141 192 244 299 365 439
#     4  11  25  50  70 102 147 188 239 305 361 428
#
# _framework density 22.251318000000001
#
# number of rings (size 3 to 8) (size 9 to 14) (size 15 to 20)
#    0.000    0.571    5.714    2.143    6.000    0.571 
#    2.571    0.000    0.000    0.000    0.000    0.000 
#    0.000    0.000    0.000    0.000    0.000    0.000 
#
# Total GULP energy -347017.773430 kJ/mol
# GULP energy per Si atom -12393.491908 kJ/mol
# Density = 2.220067 g / cm^3
# Si number density = 22.251318 Si / 1000 Ang^3
#
#
#
# Elastic Constant Matrix: (Units=GPa)
#
#
# Indices 1 2 3 4 5 6 
#
# 1 58.3661 31.0497 24.3892 0.0000 12.9438 0.0000
# 2 31.0497 133.4276 55.9724 0.0000 9.3851 0.0000
# 3 24.3892 55.9724 158.7424 0.0000 5.0987 0.0000
# 4 0.0000 0.0000 0.0000 48.8621 0.0000 9.9378
# 5 12.9438 9.3851 5.0987 0.0000 28.5816 0.0000
# 6 0.0000 0.0000 0.0000 9.9378 0.0000 42.4606
#
#
#
# Elastic Compliance Matrix: (Units=1/GPa)
#
#
# Indices 1 2 3 4 5 6 
#
# 1 0.021686 -0.003729 -0.001751 0.000000 -0.008284 0.000000
# 2 -0.003729 0.009597 -0.002780 0.000000 -0.000966 0.000000
# 3 -0.001751 -0.002780 0.007537 0.000000 0.000361 0.000000
# 4 0.000000 0.000000 0.000000 0.021489 0.000000 -0.005029
# 5 -0.008284 -0.000966 0.000361 0.000000 0.038992 0.000000
# 6 0.000000 0.000000 0.000000 -0.005029 0.000000 0.024728
#
#
# Mechanical properties :
#
#
# Convention : Reuss Voigt Hill
#
# Bulk Modulus (GPa) = 44.84344 63.70653 54.27498
# Shear Modulus (GPa) = 33.78795 39.92250 36.85523
#
# Velocity S-wave (km/s) = 3.90098 4.24035 4.07420
# Velocity P-wave (km/s) = 6.36295 7.25718 6.82473
#
# Compressibility (1/GPa) = 0.02229981
#
# Stress axis : x y z
#
# Youngs Moduli (GPa) = 46.11286 104.20339 132.67812
#
# Poissons Ratio (x) = 0.38861 0.23229
# Poissons Ratio (y) = 0.17197 0.36881
# Poissons Ratio (z) = 0.08073 0.28966
#
# Static dielectric constant tensor:
#      x y z
#    x 3.776180 0.000000 -0.160950 
#    y 0.000000 3.492980 0.000000 
#    z -0.160950 0.000000 4.317780 
# 
# 
# High freq. dielectric constant tensor:
#      x y z
#    x 1.868110 0.000000 0.010630 
#    y 0.000000 1.876170 0.000000 
#    z 0.010630 0.000000 1.903850 
# 
# From -- ./inp_files/41132.got.cif
#   From: 2010.03.12/outbox.cif.g09.slc.cpg/sg14_21_cif.got.tgz:41132.got - 2010.03.31 13:35:05.
