data_PCOD8129726
_publ_section_title
;
Structure prediction by ZEFSAII (Michael W. Deem and Ramdas Pophale) SiO2 
 PCOD8129726
Probable space group: C 2/C
;
_chemical_formula_sum "Si O2"
_cell_formula_units_Z 64
_cell_length_a 21.220569
_cell_length_b 23.474303
_cell_length_c 8.300207
_cell_angle_alpha 90.000000
_cell_angle_beta 66.974556
_cell_angle_gamma 90.000000
_cell_volume 3805.246728
_symmetry_space_group_name_H-M "C 2/C"
_symmetry_group_IT_number 15
_symmetry_cell_setting 'monoclinic'
loop_
_space_group_symop_operation_xyz
x,y,z
-x,y,1/2-z
-x,-y,-z
x,-y,1/2+z
1/2+x,1/2+y,z
1/2-x,1/2+y,1/2-z
1/2-x,1/2-y,-z
1/2+x,1/2-y,1/2+z
loop_
_atom_site_type_symbol
_atom_site_label
_atom_site_fract_x
_atom_site_fract_y
_atom_site_fract_z
Si Si1 0.500000 0.746050 0.438510
Si Si2 0.272530 0.663218 0.668295
Si Si3 0.645732 0.227901 0.796317
Si Si4 0.227470 0.163218 0.213356
Si Si5 0.135285 0.937650 0.805635
Si Si6 0.500000 0.620183 0.563493
Si Si7 0.135285 0.937650 0.423796
Si Si8 0.145732 0.272099 0.912219
O O1 0.500000 0.756919 0.250000
O O2 0.568374 0.775559 0.445041
O O3 0.500000 0.678308 0.463492
O O4 0.431626 0.775559 0.581789
O O5 0.194049 0.675149 0.806390
O O6 0.273152 0.665699 0.476848
O O7 0.302004 0.602798 0.697957
O O8 0.321537 0.713277 0.685197
O O9 0.678463 0.286723 0.828271
O O10 0.642486 0.229526 0.607514
O O11 0.197996 0.102798 0.301965
O O12 0.305951 0.175149 0.194488
O O13 0.125733 0.935684 0.624267
O O14 0.155183 1.000000 0.844817
O O15 0.065481 0.917804 0.956967
O O16 0.500000 0.636063 0.750000
O O17 0.434519 0.582196 0.587929
#
# Coordination Sequence:
#
# PCOD8129726 Si02
#       8
#     8   8   8   8   8   8   8   8
#     4  10  16  27  49  72  93 119 152 185 224 265
#     4   8  14  25  43  66  91 114 144 184 226 264
#     4   8  13  23  43  70  91 112 143 184 226 265
#     4   8  14  25  43  66  91 114 144 184 226 264
#     4  11  21  34  49  65  88 121 157 190 223 261
#     4  12  23  33  44  64  95 125 155 185 217 265
#     4  11  21  34  49  65  88 121 157 190 223 261
#     4   8  13  23  43  70  91 112 143 184 226 265
#
# _framework density 16.818881999999999
#
# number of rings (size 3 to 8) (size 9 to 14) (size 15 to 20)
#    0.000    2.500    2.500    3.750    0.000    0.000 
#    0.000    0.000    0.000    4.500    0.000    0.875 
#    0.000    0.000    0.000    0.000    0.000    0.000 
#
# Total GULP energy -396473.692537 kJ/mol
# GULP energy per Si atom -12389.802892 kJ/mol
# Density = 1.678060 g / cm^3
# Si number density = 16.818882 Si / 1000 Ang^3
#
#
#
# Elastic Constant Matrix: (Units=GPa)
#
#
# Indices 1 2 3 4 5 6 
#
# 1 122.4624 68.5958 34.4652 0.0000 -50.7253 0.0000
# 2 68.5958 99.2561 17.6000 0.0000 -32.4269 0.0000
# 3 34.4652 17.6000 24.7095 0.0000 -11.4330 0.0000
# 4 0.0000 0.0000 0.0000 24.1081 0.0000 -14.1600
# 5 -50.7253 -32.4269 -11.4330 0.0000 29.0971 0.0000
# 6 0.0000 0.0000 0.0000 -14.1600 0.0000 46.3767
#
#
#
# Elastic Compliance Matrix: (Units=1/GPa)
#
#
# Indices 1 2 3 4 5 6 
#
# 1 0.044647 -0.006178 -0.030612 0.000000 0.058921 0.000000
# 2 -0.006178 0.016997 0.000357 0.000000 0.008311 0.000000
# 3 -0.030612 0.000357 0.071383 0.000000 -0.024919 0.000000
# 4 0.000000 0.000000 0.000000 0.050544 0.000000 0.015432
# 5 0.058921 0.008311 -0.024919 0.000000 0.136556 0.000000
# 6 0.000000 0.000000 0.000000 0.015432 0.000000 0.026274
#
#
# Mechanical properties :
#
#
# Convention : Reuss Voigt Hill
#
# Bulk Modulus (GPa) = 16.62193 54.19442 35.40818
# Shear Modulus (GPa) = 11.38117 28.30085 19.84101
#
# Velocity S-wave (km/s) = 2.60415 4.10650 3.43838
# Velocity P-wave (km/s) = 4.35275 7.40114 6.07138
#
# Compressibility (1/GPa) = 0.06016150
#
# Stress axis : x y z
#
# Youngs Moduli (GPa) = 22.39774 58.83446 14.00887
#
# Poissons Ratio (x) = 0.36350 0.42883
# Poissons Ratio (y) = 0.13838 -0.00500
# Poissons Ratio (z) = 0.68563 -0.02100
#
# Static dielectric constant tensor:
#      x y z
#    x 3.604790 0.000000 -0.398570 
#    y 0.000000 3.207290 0.000000 
#    z -0.398570 0.000000 2.977970 
# 
# 
# High freq. dielectric constant tensor:
#      x y z
#    x 1.647190 0.000000 -0.016080 
#    y 0.000000 1.618290 0.000000 
#    z -0.016080 0.000000 1.621900 
# 
# From -- ./inp_files/63258.got.cif
#   From: 2010.06.25/outbox.cif.g09.slc.cpg/sg15_32_cif.got.tgz:63258.got - 2010.06.28 07:06:18.
