data_PCOD8129249
_publ_section_title
;
Structure prediction by ZEFSAII (Michael W. Deem and Ramdas Pophale) SiO2 
 PCOD8129249
Probable space group: P 21/C
;
_chemical_formula_sum "Si O2"
_cell_formula_units_Z 20
_cell_length_a 24.004642
_cell_length_b 5.818149
_cell_length_c 14.120871
_cell_angle_alpha 90.000000
_cell_angle_beta 152.603012
_cell_angle_gamma 90.000000
_cell_volume 907.494333
_symmetry_space_group_name_H-M "P 21/C"
_symmetry_group_IT_number 14
_symmetry_cell_setting 'monoclinic'
loop_
_space_group_symop_operation_xyz
x,y,z
-x,1/2+y,1/2-z
-x,-y,-z
x,1/2-y,1/2+z
loop_
_atom_site_type_symbol
_atom_site_label
_atom_site_fract_x
_atom_site_fract_y
_atom_site_fract_z
Si Si1 0.366782 0.056550 0.264427
Si Si2 0.866975 0.226953 0.053832
Si Si3 0.566310 0.538748 0.343062
Si Si4 0.248646 0.114644 0.724381
Si Si5 0.964062 0.903810 0.047336
O O1 0.365553 0.095320 0.150836
O O2 0.328844 0.286951 0.260283
O O3 0.500000 0.000000 0.500000
O O4 0.269928 0.862771 0.144008
O O5 0.853913 0.464720 0.979492
O O6 0.955640 0.086327 0.119406
O O7 0.927996 0.239754 0.250559
O O8 0.496730 0.290138 0.227297
O O9 0.662822 0.482837 0.570415
O O10 0.169587 0.295843 0.665819
O O11 0.000000 0.000000 0.000000
#
# Coordination Sequence:
#
# PCOD8129249 Si02
#       5
#     4   4   4   4   4
#     4  11  25  47  71 103 144 189 236 307 367 439
#     4  11  25  46  71 102 144 188 245 305 372 441
#     4  12  28  46  74 108 146 191 247 298 369 444
#     4  11  26  45  71 101 143 190 241 301 370 437
#     4  11  26  45  70 105 141 190 249 305 372 441
#
# _framework density 22.038706000000001
#
# number of rings (size 3 to 8) (size 9 to 14) (size 15 to 20)
#    0.000    0.800    4.000    1.200   11.200    2.400 
#    0.000    0.000    0.000    0.000    0.000    0.000 
#    0.000    0.000    0.000    0.000    0.000    0.000 
#
# Total GULP energy -247765.223076 kJ/mol
# GULP energy per Si atom -12388.261154 kJ/mol
# Density = 2.198855 g / cm^3
# Si number density = 22.038706 Si / 1000 Ang^3
#
#
#
# Elastic Constant Matrix: (Units=GPa)
#
#
# Indices 1 2 3 4 5 6 
#
# 1 140.4781 18.3596 39.7348 0.0000 -8.8964 0.0000
# 2 18.3596 71.7047 21.8942 0.0000 3.8404 0.0000
# 3 39.7348 21.8942 126.7963 0.0000 -6.1793 0.0000
# 4 0.0000 0.0000 0.0000 31.4494 0.0000 -11.5331
# 5 -8.8964 3.8404 -6.1793 0.0000 38.7409 0.0000
# 6 0.0000 0.0000 0.0000 -11.5331 0.0000 13.6215
#
#
#
# Elastic Compliance Matrix: (Units=1/GPa)
#
#
# Indices 1 2 3 4 5 6 
#
# 1 0.008033 -0.001479 -0.002182 0.000000 0.001643 0.000000
# 2 -0.001479 0.015132 -0.002257 0.000000 -0.002199 0.000000
# 3 -0.002182 -0.002257 0.009017 0.000000 0.001161 0.000000
# 4 0.000000 0.000000 0.000000 0.046116 0.000000 0.039046
# 5 0.001643 -0.002199 0.001161 0.000000 0.026593 0.000000
# 6 0.000000 0.000000 0.000000 0.039046 0.000000 0.106473
#
#
# Mechanical properties :
#
#
# Convention : Reuss Voigt Hill
#
# Bulk Modulus (GPa) = 49.14764 55.43958 52.29361
# Shear Modulus (GPa) = 21.74108 34.02839 27.88474
#
# Velocity S-wave (km/s) = 3.14426 3.93368 3.56091
# Velocity P-wave (km/s) = 5.96077 6.77066 6.37859
#
# Compressibility (1/GPa) = 0.02034686
#
# Stress axis : x y z
#
# Youngs Moduli (GPa) = 124.48601 66.08728 110.90580
#
# Poissons Ratio (x) = 0.09772 0.24199
# Poissons Ratio (y) = 0.18406 0.25027
# Poissons Ratio (z) = 0.27162 0.14913
#
# Static dielectric constant tensor:
#      x y z
#    x 4.035530 0.000000 -0.097640 
#    y 0.000000 3.862340 0.000000 
#    z -0.097640 0.000000 3.714540 
# 
# 
# High freq. dielectric constant tensor:
#      x y z
#    x 1.872470 0.000000 0.000450 
#    y 0.000000 1.865220 0.000000 
#    z 0.000450 0.000000 1.886990 
# 
# From -- ./inp_files/34626.got.cif
#   From: 2010.03.12/outbox.cif.g09.slc.cpg/sg14_18_cif.got.tgz:34626.got - 2010.03.31 13:35:05.
