data_PCOD8129514
_publ_section_title
;
Structure prediction by ZEFSAII (Michael W. Deem and Ramdas Pophale) SiO2 
 PCOD8129514
Probable space group: P 21/C
;
_chemical_formula_sum "Si O2"
_cell_formula_units_Z 24
_cell_length_a 18.048431
_cell_length_b 9.449665
_cell_length_c 24.200677
_cell_angle_alpha 90.000000
_cell_angle_beta 19.240163
_cell_angle_gamma 90.000000
_cell_volume 1360.117507
_symmetry_space_group_name_H-M "P 21/C"
_symmetry_group_IT_number 14
_symmetry_cell_setting 'monoclinic'
loop_
_space_group_symop_operation_xyz
x,y,z
-x,1/2+y,1/2-z
-x,-y,-z
x,1/2-y,1/2+z
loop_
_atom_site_type_symbol
_atom_site_label
_atom_site_fract_x
_atom_site_fract_y
_atom_site_fract_z
Si Si1 0.665510 0.664442 0.000561
Si Si2 0.001263 0.835526 0.832682
Si Si3 0.837737 0.331705 0.662255
Si Si4 0.162238 0.168295 0.837758
Si Si5 0.334515 0.835526 0.499426
Si Si6 0.001238 0.164442 0.832695
O O1 0.668340 0.499982 0.014854
O O2 0.790643 0.691131 0.854680
O O3 0.782872 0.749977 0.967139
O O4 0.413665 0.724133 0.171553
O O5 0.072843 0.775850 0.841961
O O6 0.209387 0.808842 0.645305
O O7 0.935581 0.999982 0.881231
O O8 0.833865 0.500000 0.666134
O O9 0.999983 0.273358 0.500009
O O10 0.413631 0.224150 0.671570
O O11 0.072811 0.224133 0.841977
O O12 0.217167 0.749973 0.532841
#
# Coordination Sequence:
#
# PCOD8129514 Si02
#       6
#     4   4   4   4   4   4
#     4   9  17  30  48  68  89 115 148 184 220 259
#     4   9  17  30  48  68  89 115 148 184 220 259
#     4   9  17  29  46  67  90 118 150 181 216 262
#     4   9  17  29  46  67  90 118 150 181 216 262
#     4   9  17  30  48  68  89 115 148 184 220 259
#     4   9  17  30  48  68  89 115 148 184 220 259
#
# _framework density 17.645534999999999
#
# number of rings (size 3 to 8) (size 9 to 14) (size 15 to 20)
#    0.000    3.000    0.000    1.000    0.000    5.333 
#    0.000    1.667    0.000   10.000    0.000    0.000 
#    0.000    0.000    0.000    0.000    0.000    0.000 
#
# Total GULP energy -297617.150270 kJ/mol
# GULP energy per Si atom -12400.714595 kJ/mol
# Density = 1.760537 g / cm^3
# Si number density = 17.645535 Si / 1000 Ang^3
#
#
#
# Elastic Constant Matrix: (Units=GPa)
#
#
# Indices 1 2 3 4 5 6 
#
# 1 172.8238 46.2800 108.1757 0.0000 -25.6022 0.0000
# 2 46.2800 34.4177 35.8835 0.0000 -9.1331 0.0000
# 3 108.1757 35.8835 124.0500 0.0000 -17.4571 0.0000
# 4 0.0000 0.0000 0.0000 18.0457 0.0000 -7.8929
# 5 -25.6022 -9.1331 -17.4571 0.0000 24.9811 0.0000
# 6 0.0000 0.0000 0.0000 -7.8929 0.0000 27.0079
#
#
#
# Elastic Compliance Matrix: (Units=1/GPa)
#
#
# Indices 1 2 3 4 5 6 
#
# 1 0.015075 -0.008481 -0.009931 0.000000 0.005409 0.000000
# 2 -0.008481 0.047694 -0.005734 0.000000 0.004738 0.000000
# 3 -0.009931 -0.005734 0.018469 0.000000 0.000632 0.000000
# 4 0.000000 0.000000 0.000000 0.063536 0.000000 0.018568
# 5 0.005409 0.004738 0.000632 0.000000 0.047748 0.000000
# 6 0.000000 0.000000 0.000000 0.018568 0.000000 0.042453
#
#
# Mechanical properties :
#
#
# Convention : Reuss Voigt Hill
#
# Bulk Modulus (GPa) = 30.35266 79.10777 54.73021
# Shear Modulus (GPa) = 16.99237 23.40377 20.19807
#
# Velocity S-wave (km/s) = 3.10656 3.64583 3.38695
# Velocity P-wave (km/s) = 5.48692 7.91528 6.81021
#
# Compressibility (1/GPa) = 0.03294604
#
# Stress axis : x y z
#
# Youngs Moduli (GPa) = 66.33480 20.96690 54.14368
#
# Poissons Ratio (x) = 0.17782 0.53773
# Poissons Ratio (y) = 0.56259 0.31045
# Poissons Ratio (z) = 0.65880 0.12022
#
# Static dielectric constant tensor:
#      x y z
#    x 3.430490 0.000000 -0.052970 
#    y 0.000000 2.908030 0.000000 
#    z -0.052970 0.000000 3.370370 
# 
# 
# High freq. dielectric constant tensor:
#      x y z
#    x 1.692220 0.000000 -0.006190 
#    y 0.000000 1.639080 0.000000 
#    z -0.006190 0.000000 1.685190 
# 
# From -- ./inp_files/8541.got.cif
#   From: 2010.03.12/outbox.cif.g09.slc.cpg/sg14_5_cif.got.tgz:8541.got - 2010.03.31 13:35:05.
