data_PCOD8129619
_publ_section_title
;
Structure prediction by ZEFSAII (Michael W. Deem and Ramdas Pophale) SiO2 
 PCOD8129619
Probable space group: C 2/C
;
_chemical_formula_sum "Si O2"
_cell_formula_units_Z 44
_cell_length_a 18.271566
_cell_length_b 21.547734
_cell_length_c 10.523884
_cell_angle_alpha 90.000000
_cell_angle_beta 148.432587
_cell_angle_gamma 90.000000
_cell_volume 2169.058562
_symmetry_space_group_name_H-M "C 2/C"
_symmetry_group_IT_number 15
_symmetry_cell_setting 'monoclinic'
loop_
_space_group_symop_operation_xyz
x,y,z
-x,y,1/2-z
-x,-y,-z
x,-y,1/2+z
1/2+x,1/2+y,z
1/2-x,1/2+y,1/2-z
1/2-x,1/2-y,-z
1/2+x,1/2-y,1/2+z
loop_
_atom_site_type_symbol
_atom_site_label
_atom_site_fract_x
_atom_site_fract_y
_atom_site_fract_z
Si Si1 0.100909 0.825504 0.782449
Si Si2 0.729840 0.990791 0.839667
Si Si3 0.000000 0.611660 0.750000
Si Si4 0.988344 0.413527 0.587390
Si Si5 0.411659 0.195784 0.834152
Si Si6 0.797658 0.054376 0.182401
O O1 0.046479 0.768206 0.614162
O O2 0.109289 0.884304 0.701257
O O3 0.000000 0.839743 0.750000
O O4 0.249132 0.810283 0.063172
O O5 0.630938 0.932124 0.725711
O O6 0.832957 0.974632 0.873139
O O7 0.639445 0.051235 0.669583
O O8 0.823586 0.007416 0.102511
O O9 0.008197 0.657129 0.881092
O O10 0.867780 0.566926 0.559183
O O11 0.952950 0.339072 0.526928
O O12 0.000000 0.433476 0.750000
#
# Coordination Sequence:
#
# PCOD8129619 Si02
#       6
#     8   8   4   8   8   8
#     4  10  21  35  55  79 106 150 196 231 263 324
#     4  11  19  30  52  85 119 140 178 228 291 338
#     4  10  14  28  50  84 104 122 168 232 284 312
#     4  11  19  29  53  87 122 141 168 239 302 334
#     4  10  19  32  56  82 111 135 185 235 281 324
#     4  11  20  33  54  84 114 145 179 235 287 327
#
# _framework density 20.285298999999998
#
# number of rings (size 3 to 8) (size 9 to 14) (size 15 to 20)
#    0.000    1.455    8.182    1.091    0.000    0.000 
#    0.000    0.909    0.000    6.545    0.000    0.000 
#    0.000    0.000    0.000    0.000    0.000    0.000 
#
# Total GULP energy -272653.121627 kJ/mol
# GULP energy per Si atom -12393.323710 kJ/mol
# Density = 2.023913 g / cm^3
# Si number density = 20.285299 Si / 1000 Ang^3
#
#
#
# Elastic Constant Matrix: (Units=GPa)
#
#
# Indices 1 2 3 4 5 6 
#
# 1 129.9518 48.5567 25.5399 0.0000 -25.6863 0.0000
# 2 48.5567 116.0422 24.4203 0.0000 -5.1074 0.0000
# 3 25.5399 24.4203 17.7513 0.0000 -12.2488 0.0000
# 4 0.0000 0.0000 0.0000 22.2445 0.0000 -11.4846
# 5 -25.6863 -5.1074 -12.2488 0.0000 25.3864 0.0000
# 6 0.0000 0.0000 0.0000 -11.4846 0.0000 24.2655
#
#
#
# Elastic Compliance Matrix: (Units=1/GPa)
#
#
# Indices 1 2 3 4 5 6 
#
# 1 0.011834 -0.003028 -0.007524 0.000000 0.007734 0.000000
# 2 -0.003028 0.014233 -0.023029 0.000000 -0.011312 0.000000
# 3 -0.007524 -0.023029 0.135504 0.000000 0.053134 0.000000
# 4 0.000000 0.000000 0.000000 0.059492 0.000000 0.028157
# 5 0.007734 -0.011312 0.053134 0.000000 0.070578 0.000000
# 6 0.000000 0.000000 0.000000 0.028157 0.000000 0.054537
#
#
# Mechanical properties :
#
#
# Convention : Reuss Voigt Hill
#
# Bulk Modulus (GPa) = 10.59222 51.19769 30.89495
# Shear Modulus (GPa) = 11.24078 25.39452 18.31765
#
# Velocity S-wave (km/s) = 2.35656 3.54201 3.00826
# Velocity P-wave (km/s) = 3.55492 6.48239 5.22776
#
# Compressibility (1/GPa) = 0.09440893
#
# Stress axis : x y z
#
# Youngs Moduli (GPa) = 84.50169 70.25891 7.37988
#
# Poissons Ratio (x) = 0.21275 0.05552
# Poissons Ratio (y) = 0.25588 0.16995
# Poissons Ratio (z) = 0.63577 1.61799
#
# Static dielectric constant tensor:
#      x y z
#    x 3.995920 0.000000 -0.194330 
#    y 0.000000 3.879710 0.000000 
#    z -0.194330 0.000000 3.182940 
# 
# 
# High freq. dielectric constant tensor:
#      x y z
#    x 1.804770 0.000000 -0.006190 
#    y 0.000000 1.791160 0.000000 
#    z -0.006190 0.000000 1.732240 
# 
# From -- ./inp_files/108016.got.cif
#   From: 2010.06.25/outbox.cif.g09.slc.cpg/sg15_55_cif.got.tgz:108016.got - 2010.06.28 07:06:18.
