data_PCOD8129843
_publ_section_title
;
Structure prediction by ZEFSAII (Michael W. Deem and Ramdas Pophale) SiO2 
 PCOD8129843
Probable space group: C 2/C
;
_chemical_formula_sum "Si O2"
_cell_formula_units_Z 52
_cell_length_a 9.550316
_cell_length_b 25.838002
_cell_length_c 11.384303
_cell_angle_alpha 90.000000
_cell_angle_beta 101.986852
_cell_angle_gamma 90.000000
_cell_volume 2747.949080
_symmetry_space_group_name_H-M "C 2/C"
_symmetry_group_IT_number 15
_symmetry_cell_setting 'monoclinic'
loop_
_space_group_symop_operation_xyz
x,y,z
-x,y,1/2-z
-x,-y,-z
x,-y,1/2+z
1/2+x,1/2+y,z
1/2-x,1/2+y,1/2-z
1/2-x,1/2-y,-z
1/2+x,1/2-y,1/2+z
loop_
_atom_site_type_symbol
_atom_site_label
_atom_site_fract_x
_atom_site_fract_y
_atom_site_fract_z
Si Si1 0.500000 0.331838 0.250000
Si Si2 0.080608 0.999368 0.888029
Si Si3 0.171411 0.895238 0.461353
Si Si4 0.220833 0.251384 0.803267
Si Si5 0.449235 0.613583 0.116547
Si Si6 0.405963 0.810494 0.504800
Si Si7 0.231748 0.301841 0.567902
O O1 0.548888 0.367609 0.364312
O O2 0.368555 0.295747 0.269427
O O3 0.197825 0.045767 0.919912
O O4 0.000000 0.011008 0.750000
O O5 0.139647 0.940767 0.888271
O O6 0.000000 0.000000 0.000000
O O7 0.320202 0.864575 0.484840
O O8 0.099694 0.894669 0.576463
O O9 0.360844 0.228350 0.891993
O O10 0.267167 0.290836 0.710485
O O11 0.120385 0.281289 0.877848
O O12 0.500000 0.634346 0.250000
O O13 0.342679 0.655314 0.040067
O O14 0.572209 0.824012 0.522345
O O15 0.250000 0.250000 0.500000
#
# Coordination Sequence:
#
# PCOD8129843 Si02
#       7
#     4   8   8   8   8   8   8
#     4  10  16  30  56  80 102 142 188 226 260 322
#     4   9  18  36  59  88 112 143 194 245 288 335
#     4  10  19  35  59  81 105 146 193 230 276 338
#     4  10  20  35  54  76 112 148 191 222 271 343
#     4  10  22  35  56  83 113 143 185 238 285 335
#     4  10  22  36  55  79 110 151 193 225 277 345
#     4  12  24  35  53  81 120 149 183 232 296 324
#
# _framework density 18.923203999999998
#
# number of rings (size 3 to 8) (size 9 to 14) (size 15 to 20)
#    0.000    1.846    2.308    1.846    6.462    0.000 
#    0.000    0.769    0.000    0.000    0.000    4.308 
#    0.000    0.000    0.000    0.000    0.000    0.000 
#
# Total GULP energy -322155.938413 kJ/mol
# GULP energy per Si atom -12390.613016 kJ/mol
# Density = 1.888013 g / cm^3
# Si number density = 18.923204 Si / 1000 Ang^3
#
#
#
# Elastic Constant Matrix: (Units=GPa)
#
#
# Indices 1 2 3 4 5 6 
#
# 1 79.5325 49.7562 24.3839 0.0000 7.6447 0.0000
# 2 49.7562 127.9164 21.9552 0.0000 15.1010 0.0000
# 3 24.3839 21.9552 87.5046 0.0000 3.6635 0.0000
# 4 0.0000 0.0000 0.0000 27.7276 0.0000 1.8999
# 5 7.6447 15.1010 3.6635 0.0000 14.7142 0.0000
# 6 0.0000 0.0000 0.0000 1.8999 0.0000 22.9111
#
#
#
# Elastic Compliance Matrix: (Units=1/GPa)
#
#
# Indices 1 2 3 4 5 6 
#
# 1 0.017547 -0.006009 -0.003293 0.000000 -0.002130 0.000000
# 2 -0.006009 0.011266 -0.000807 0.000000 -0.008239 0.000000
# 3 -0.003293 -0.000807 0.012573 0.000000 -0.000591 0.000000
# 4 0.000000 0.000000 0.000000 0.036271 0.000000 -0.003008
# 5 -0.002130 -0.008239 -0.000591 0.000000 0.077672 0.000000
# 6 0.000000 0.000000 0.000000 -0.003008 0.000000 0.043896
#
#
# Mechanical properties :
#
#
# Convention : Reuss Voigt Hill
#
# Bulk Modulus (GPa) = 47.24089 54.12711 50.68400
# Shear Modulus (GPa) = 22.07520 26.32779 24.20149
#
# Velocity S-wave (km/s) = 3.41921 3.73406 3.58010
# Velocity P-wave (km/s) = 6.37234 6.87434 6.62810
#
# Compressibility (1/GPa) = 0.02116810
#
# Stress axis : x y z
#
# Youngs Moduli (GPa) = 56.99040 88.76193 79.53647
#
# Poissons Ratio (x) = 0.53334 0.26190
# Poissons Ratio (y) = 0.34243 0.06422
# Poissons Ratio (z) = 0.18766 0.07166
#
# Static dielectric constant tensor:
#      x y z
#    x 3.135940 0.000000 -0.029130 
#    y 0.000000 3.871860 0.000000 
#    z -0.029130 0.000000 3.708270 
# 
# 
# High freq. dielectric constant tensor:
#      x y z
#    x 1.690930 0.000000 -0.000870 
#    y 0.000000 1.744980 0.000000 
#    z -0.000870 0.000000 1.751850 
# 
# From -- ./inp_files/80738.got.cif
#   From: 2010.06.25/outbox.cif.g09.slc.cpg/sg15_41_cif.got.tgz:80738.got - 2010.06.28 07:06:18.
