data_PCOD8129181
_publ_section_title
;
Structure prediction by ZEFSAII (Michael W. Deem and Ramdas Pophale) SiO2 
 PCOD8129181
Probable space group: P 21/C
;
_chemical_formula_sum "Si O2"
_cell_formula_units_Z 32
_cell_length_a 8.946936
_cell_length_b 12.243589
_cell_length_c 13.408136
_cell_angle_alpha 90.000000
_cell_angle_beta 63.347515
_cell_angle_gamma 90.000000
_cell_volume 1312.696938
_symmetry_space_group_name_H-M "P 21/C"
_symmetry_group_IT_number 14
_symmetry_cell_setting 'monoclinic'
loop_
_space_group_symop_operation_xyz
x,y,z
-x,1/2+y,1/2-z
-x,-y,-z
x,1/2-y,1/2+z
loop_
_atom_site_type_symbol
_atom_site_label
_atom_site_fract_x
_atom_site_fract_y
_atom_site_fract_z
Si Si1 0.308381 0.138968 0.818031
Si Si2 0.925088 0.362636 0.930980
Si Si3 0.292157 0.662188 0.481772
Si Si4 0.175606 0.103506 0.532888
Si Si5 0.511793 0.235931 0.406414
Si Si6 0.123195 0.060759 0.062685
Si Si7 0.863340 0.731832 0.293989
Si Si8 0.269548 0.912517 0.780075
O O1 0.468273 0.177493 0.832715
O O2 0.258435 0.236052 0.759471
O O3 0.344283 0.033829 0.737534
O O4 0.159474 0.102622 0.939269
O O5 0.821899 0.474559 0.945810
O O6 0.975482 0.323260 0.805258
O O7 0.812055 0.270148 0.013299
O O8 0.084292 0.377768 0.955187
O O9 0.443597 0.693704 0.509506
O O10 0.178627 0.564409 0.563422
O O11 0.363426 0.624188 0.354145
O O12 0.361852 0.151808 0.471720
O O13 0.082310 0.164882 0.653013
O O14 0.675939 0.167003 0.325729
O O15 0.224163 0.140229 0.108676
O O16 0.928848 0.083157 0.142106
#
# Coordination Sequence:
#
# PCOD8129181 Si02
#       8
#     4   4   4   4   4   4   4   4
#     4  11  25  46  71 103 147 191 246 306 365 437
#     4  11  25  48  73 107 149 196 245 304 360 451
#     4  11  26  45  75 105 146 188 250 303 370 433
#     4  11  27  47  72 109 152 192 246 308 374 437
#     4  12  27  47  68 115 149 191 245 309 381 439
#     4  11  24  47  76 109 142 191 256 307 355 454
#     4  12  22  42  79 102 139 196 243 300 361 433
#     4  11  26  45  73 104 147 196 248 305 370 445
#
# _framework density 24.377293999999999
#
# number of rings (size 3 to 8) (size 9 to 14) (size 15 to 20)
#    0.000    0.750    2.500    4.500    7.000    4.500 
#    2.250    0.000    0.000    0.000    0.000    0.000 
#    0.000    0.000    0.000    0.000    0.000    0.000 
#
# Total GULP energy -396725.639051 kJ/mol
# GULP energy per Si atom -12397.676220 kJ/mol
# Density = 2.432181 g / cm^3
# Si number density = 24.377294 Si / 1000 Ang^3
#
#
#
# Elastic Constant Matrix: (Units=GPa)
#
#
# Indices 1 2 3 4 5 6 
#
# 1 107.4312 51.3568 26.6922 0.0000 5.5890 0.0000
# 2 51.3568 174.3870 35.2111 0.0000 5.7523 0.0000
# 3 26.6922 35.2111 73.4100 0.0000 10.0783 0.0000
# 4 0.0000 0.0000 0.0000 44.9252 0.0000 7.7841
# 5 5.5890 5.7523 10.0783 0.0000 31.6000 0.0000
# 6 0.0000 0.0000 0.0000 7.7841 0.0000 38.2702
#
#
#
# Elastic Compliance Matrix: (Units=1/GPa)
#
#
# Indices 1 2 3 4 5 6 
#
# 1 0.011339 -0.002772 -0.002706 0.000000 -0.000638 0.000000
# 2 -0.002772 0.007028 -0.002358 0.000000 -0.000037 0.000000
# 3 -0.002706 -0.002358 0.016327 0.000000 -0.004300 0.000000
# 4 0.000000 0.000000 0.000000 0.023072 0.000000 -0.004693
# 5 -0.000638 -0.000037 -0.004300 0.000000 0.033136 0.000000
# 6 0.000000 0.000000 0.000000 -0.004693 0.000000 0.027085
#
#
# Mechanical properties :
#
#
# Convention : Reuss Voigt Hill
#
# Bulk Modulus (GPa) = 52.56855 64.63869 58.60362
# Shear Modulus (GPa) = 35.71437 39.09028 37.40233
#
# Velocity S-wave (km/s) = 3.83177 4.00878 3.92128
# Velocity P-wave (km/s) = 6.41779 6.92825 6.67790
#
# Compressibility (1/GPa) = 0.01902278
#
# Stress axis : x y z
#
# Youngs Moduli (GPa) = 88.19252 142.28719 61.24732
#
# Poissons Ratio (x) = 0.39441 0.16572
# Poissons Ratio (y) = 0.24446 0.14442
# Poissons Ratio (z) = 0.23862 0.33552
#
# Static dielectric constant tensor:
#      x y z
#    x 4.118840 0.000000 0.325120 
#    y 0.000000 4.971620 0.000000 
#    z 0.325120 0.000000 4.526840 
# 
# 
# High freq. dielectric constant tensor:
#      x y z
#    x 1.957850 0.000000 0.027190 
#    y 0.000000 1.988980 0.000000 
#    z 0.027190 0.000000 1.965170 
# 
# From -- ./inp_files/40279.got.cif
#   From: 2010.03.12/outbox.cif.g09.slc.cpg/sg14_21_cif.got.tgz:40279.got - 2010.03.31 13:35:05.
