data_PCOD8129387
_publ_section_title
;
Structure prediction by ZEFSAII (Michael W. Deem and Ramdas Pophale) SiO2 
 PCOD8129387
Probable space group: P 21/C
;
_chemical_formula_sum "Si O2"
_cell_formula_units_Z 20
_cell_length_a 24.365979
_cell_length_b 6.745903
_cell_length_c 15.990934
_cell_angle_alpha 90.000000
_cell_angle_beta 19.014192
_cell_angle_gamma 90.000000
_cell_volume 856.351370
_symmetry_space_group_name_H-M "P 21/C"
_symmetry_group_IT_number 14
_symmetry_cell_setting 'monoclinic'
loop_
_space_group_symop_operation_xyz
x,y,z
-x,1/2+y,1/2-z
-x,-y,-z
x,1/2-y,1/2+z
loop_
_atom_site_type_symbol
_atom_site_label
_atom_site_fract_x
_atom_site_fract_y
_atom_site_fract_z
Si Si1 0.894437 0.618856 0.583222
Si Si2 0.650254 0.118753 0.327406
Si Si3 0.187486 0.749983 0.062507
Si Si4 0.550074 0.919330 0.784181
Si Si5 0.281444 0.080671 0.052811
O O1 0.726647 0.499983 0.796727
O O2 0.838523 0.830387 0.702039
O O3 0.000000 0.500000 0.500000
O O4 0.007916 0.646032 0.336418
O O5 0.580413 0.330297 0.460159
O O6 0.500000 0.000000 0.500000
O O7 0.803428 0.146030 0.040908
O O8 0.194910 0.900387 0.129592
O O9 0.343898 0.599539 0.831536
O O10 0.680107 0.749980 0.569899
O O11 0.454206 0.000018 0.841609
#
# Coordination Sequence:
#
# PCOD8129387 Si02
#       5
#     4   4   4   4   4
#     4  12  27  48  73 109 151 196 245 303 373 438
#     4  12  27  48  73 109 151 196 245 303 373 438
#     4  12  26  44  76 106 146 196 244 310 370 432
#     4  12  23  45  76 105 146 194 252 300 361 443
#     4  12  23  45  76 105 146 194 252 300 361 443
#
# _framework density 23.354897999999999
#
# number of rings (size 3 to 8) (size 9 to 14) (size 15 to 20)
#    0.000    0.000    6.000    4.800    0.000    4.800 
#    0.000    0.000    0.000    0.000    0.000    0.000 
#    0.000    0.000    0.000    0.000    0.000    0.000 
#
# Total GULP energy -248064.988228 kJ/mol
# GULP energy per Si atom -12403.249411 kJ/mol
# Density = 2.330174 g / cm^3
# Si number density = 23.354898 Si / 1000 Ang^3
#
#
#
# Elastic Constant Matrix: (Units=GPa)
#
#
# Indices 1 2 3 4 5 6 
#
# 1 91.9841 38.3362 38.5145 0.0000 -2.5483 0.0000
# 2 38.3362 114.1179 37.2862 0.0000 -0.9528 0.0000
# 3 38.5145 37.2862 118.1295 0.0000 25.5317 0.0000
# 4 0.0000 0.0000 0.0000 44.9588 0.0000 10.6924
# 5 -2.5483 -0.9528 25.5317 0.0000 49.9383 0.0000
# 6 0.0000 0.0000 0.0000 10.6924 0.0000 32.8303
#
#
#
# Elastic Compliance Matrix: (Units=1/GPa)
#
#
# Indices 1 2 3 4 5 6 
#
# 1 0.014075 -0.003357 -0.004127 0.000000 0.002764 0.000000
# 2 -0.003357 0.010749 -0.002592 0.000000 0.001359 0.000000
# 3 -0.004127 -0.002592 0.012013 0.000000 -0.006402 0.000000
# 4 0.000000 0.000000 0.000000 0.024110 0.000000 -0.007852
# 5 0.002764 0.001359 -0.006402 0.000000 0.023465 0.000000
# 6 0.000000 0.000000 0.000000 -0.007852 0.000000 0.033017
#
#
# Mechanical properties :
#
#
# Convention : Reuss Voigt Hill
#
# Bulk Modulus (GPa) = 59.93415 61.38948 60.66182
# Shear Modulus (GPa) = 34.93058 39.55177 37.24117
#
# Velocity S-wave (km/s) = 3.87155 4.11969 3.99755
# Velocity P-wave (km/s) = 6.76042 6.99798 6.88022
#
# Compressibility (1/GPa) = 0.01668498
#
# Stress axis : x y z
#
# Youngs Moduli (GPa) = 71.04802 93.03380 83.24651
#
# Poissons Ratio (x) = 0.31230 0.34354
# Poissons Ratio (y) = 0.23850 0.21577
# Poissons Ratio (z) = 0.29320 0.24114
#
# Static dielectric constant tensor:
#      x y z
#    x 4.032660 0.000000 0.156240 
#    y 0.000000 4.478330 0.000000 
#    z 0.156240 0.000000 4.209250 
# 
# 
# High freq. dielectric constant tensor:
#      x y z
#    x 1.917980 0.000000 0.011570 
#    y 0.000000 1.935250 0.000000 
#    z 0.011570 0.000000 1.931090 
# 
# From -- ./inp_files/56506.got.cif
#   From: 2010.03.12/outbox.cif.g09.slc.cpg/sg14_29_cif.got.tgz:56506.got - 2010.03.31 13:35:05.
