data_PCOD8129000
_publ_section_title
;
Structure prediction by ZEFSAII (Michael W. Deem and Ramdas Pophale) SiO2 
 PCOD8129000
Probable space group: P 21/C
;
_chemical_formula_sum "Si O2"
_cell_formula_units_Z 20
_cell_length_a 7.054516
_cell_length_b 11.350028
_cell_length_c 9.312236
_cell_angle_alpha 90.000000
_cell_angle_beta 81.866680
_cell_angle_gamma 90.000000
_cell_volume 738.121206
_symmetry_space_group_name_H-M "P 21/C"
_symmetry_group_IT_number 14
_symmetry_cell_setting 'monoclinic'
loop_
_space_group_symop_operation_xyz
x,y,z
-x,1/2+y,1/2-z
-x,-y,-z
x,1/2-y,1/2+z
loop_
_atom_site_type_symbol
_atom_site_label
_atom_site_fract_x
_atom_site_fract_y
_atom_site_fract_z
Si Si1 0.307702 0.697347 0.516557
Si Si2 0.525486 0.121098 0.300479
Si Si3 0.791722 0.905394 0.314144
Si Si4 0.881846 0.722832 0.529178
Si Si5 0.176959 0.476070 0.687398
O O1 0.368508 0.677985 0.346890
O O2 0.460664 0.785096 0.571808
O O3 0.312591 0.572798 0.598390
O O4 0.098426 0.757635 0.550125
O O5 0.302442 0.095624 0.289701
O O6 0.622748 0.999244 0.337926
O O7 0.777754 0.830766 0.461874
O O8 0.762313 0.816675 0.182469
O O9 0.999233 0.965907 0.286943
O O10 0.905983 0.609935 0.424295
#
# Coordination Sequence:
#
# PCOD8129000 Si02
#       5
#     4   4   4   4   4
#     4  11  23  48  70 106 146 189 237 301 353 433
#     4  12  26  46  73 106 148 188 242 296 360 429
#     4  11  25  49  70 109 141 192 241 298 359 430
#     4  11  23  46  77  98 146 191 238 295 368 420
#     4  11  24  44  76  98 143 196 235 290 365 420
#
# _framework density 27.095822999999999
#
# number of rings (size 3 to 8) (size 9 to 14) (size 15 to 20)
#    0.000    0.800    4.000    4.200    2.800    0.800 
#    3.600    4.000    0.000    0.000    0.000    0.000 
#    0.000    0.000    0.000    0.000    0.000    0.000 
#
# Total GULP energy -248201.179943 kJ/mol
# GULP energy per Si atom -12410.058997 kJ/mol
# Density = 2.703415 g / cm^3
# Si number density = 27.095823 Si / 1000 Ang^3
#
#
#
# Elastic Constant Matrix: (Units=GPa)
#
#
# Indices 1 2 3 4 5 6 
#
# 1 83.8797 3.7427 16.7130 0.0000 16.7092 0.0000
# 2 3.7427 99.4816 64.3496 0.0000 16.5851 0.0000
# 3 16.7130 64.3496 106.0479 0.0000 20.7298 0.0000
# 4 0.0000 0.0000 0.0000 59.0647 0.0000 27.0152
# 5 16.7092 16.5851 20.7298 0.0000 40.9011 0.0000
# 6 0.0000 0.0000 0.0000 27.0152 0.0000 39.5452
#
#
#
# Elastic Compliance Matrix: (Units=1/GPa)
#
#
# Indices 1 2 3 4 5 6 
#
# 1 0.013278 0.001739 -0.002164 0.000000 -0.005033 0.000000
# 2 0.001739 0.016895 -0.010043 0.000000 -0.002471 0.000000
# 3 -0.002164 -0.010043 0.016534 0.000000 -0.003423 0.000000
# 4 0.000000 0.000000 0.000000 0.024625 0.000000 -0.016822
# 5 -0.005033 -0.002471 -0.003423 0.000000 0.029242 0.000000
# 6 0.000000 0.000000 0.000000 -0.016822 0.000000 0.036780
#
#
# Mechanical properties :
#
#
# Convention : Reuss Voigt Hill
#
# Bulk Modulus (GPa) = 38.80248 51.00220 44.90234
# Shear Modulus (GPa) = 29.96169 41.54245 35.75207
#
# Velocity S-wave (km/s) = 3.32892 3.91982 3.63639
# Velocity P-wave (km/s) = 5.39696 6.27299 5.85139
#
# Compressibility (1/GPa) = 0.02577155
#
# Stress axis : x y z
#
# Youngs Moduli (GPa) = 75.31246 59.18960 60.48170
#
# Poissons Ratio (x) = -0.10296 0.13090
# Poissons Ratio (y) = -0.13100 0.60741
# Poissons Ratio (z) = 0.16300 0.59443
#
# Static dielectric constant tensor:
#      x y z
#    x 4.721880 0.000000 0.202960 
#    y 0.000000 5.118120 0.000000 
#    z 0.202960 0.000000 4.910910 
# 
# 
# High freq. dielectric constant tensor:
#      x y z
#    x 2.102440 0.000000 0.002980 
#    y 0.000000 2.105400 0.000000 
#    z 0.002980 0.000000 2.098950 
# 
# From -- ./inp_files/7939.got.cif
#   From: 2010.03.12/outbox.cif.g09.slc.cpg/sg14_4_cif.got.tgz:7939.got - 2010.03.31 13:35:05.
