data_PCOD8129021
_publ_section_title
;
Structure prediction by ZEFSAII (Michael W. Deem and Ramdas Pophale) SiO2 
 PCOD8129021
Probable space group: P 21/C
;
_chemical_formula_sum "Si O2"
_cell_formula_units_Z 20
_cell_length_a 15.192159
_cell_length_b 6.488535
_cell_length_c 9.576758
_cell_angle_alpha 90.000000
_cell_angle_beta 102.600539
_cell_angle_gamma 90.000000
_cell_volume 921.290358
_symmetry_space_group_name_H-M "P 21/C"
_symmetry_group_IT_number 14
_symmetry_cell_setting 'monoclinic'
loop_
_space_group_symop_operation_xyz
x,y,z
-x,1/2+y,1/2-z
-x,-y,-z
x,1/2-y,1/2+z
loop_
_atom_site_type_symbol
_atom_site_label
_atom_site_fract_x
_atom_site_fract_y
_atom_site_fract_z
Si Si1 0.618815 0.206807 0.262287
Si Si2 0.963676 0.195289 0.406190
Si Si3 0.317453 0.994965 0.984486
Si Si4 0.113395 0.989226 0.890752
Si Si5 0.557358 0.859271 0.415886
O O1 0.667245 0.395308 0.357860
O O2 0.511954 0.248414 0.212778
O O3 0.663338 0.178515 0.125904
O O4 0.628445 0.996613 0.354035
O O5 0.905867 0.339010 0.487054
O O6 0.048722 0.313724 0.370332
O O7 0.898092 0.130211 0.258548
O O8 0.000000 0.000000 0.500000
O O9 0.215014 0.071980 0.937596
O O10 0.384340 0.187419 0.982555
O O11 0.500000 0.000000 0.500000
#
# Coordination Sequence:
#
# PCOD8129021 Si02
#       5
#     4   4   4   4   4
#     4  12  24  45  68  97 139 180 223 286 342 393
#     4  11  23  48  73  96 141 179 214 285 356 404
#     4  12  27  42  71 105 132 178 237 280 329 417
#     4  11  25  45  71 103 134 178 228 278 343 412
#     4  12  24  45  67  95 142 185 225 278 347 397
#
# _framework density 21.708680999999999
#
# number of rings (size 3 to 8) (size 9 to 14) (size 15 to 20)
#    0.000    0.400    6.000    3.000    0.000    3.200 
#    0.000    0.000    0.000    0.000    0.000    0.000 
#    0.000    0.000    0.000    0.000    0.000    0.000 
#
# Total GULP energy -248139.844837 kJ/mol
# GULP energy per Si atom -12406.992242 kJ/mol
# Density = 2.165927 g / cm^3
# Si number density = 21.708681 Si / 1000 Ang^3
#
#
#
# Elastic Constant Matrix: (Units=GPa)
#
#
# Indices 1 2 3 4 5 6 
#
# 1 115.4840 36.3761 42.9955 0.0000 26.8133 0.0000
# 2 36.3761 99.7014 42.0460 0.0000 10.0075 0.0000
# 3 42.9955 42.0460 120.3500 0.0000 11.1758 0.0000
# 4 0.0000 0.0000 0.0000 40.9133 0.0000 -2.0952
# 5 26.8133 10.0075 11.1758 0.0000 31.6781 0.0000
# 6 0.0000 0.0000 0.0000 -2.0952 0.0000 25.2279
#
#
#
# Elastic Compliance Matrix: (Units=1/GPa)
#
#
# Indices 1 2 3 4 5 6 
#
# 1 0.012538 -0.002515 -0.002780 0.000000 -0.008838 0.000000
# 2 -0.002515 0.012438 -0.003391 0.000000 -0.000604 0.000000
# 3 -0.002780 -0.003391 0.010513 0.000000 -0.000285 0.000000
# 4 0.000000 0.000000 0.000000 0.024546 0.000000 0.002039
# 5 -0.008838 -0.000604 -0.000285 0.000000 0.039339 0.000000
# 6 0.000000 0.000000 0.000000 0.002039 0.000000 0.039808
#
#
# Mechanical properties :
#
#
# Convention : Reuss Voigt Hill
#
# Bulk Modulus (GPa) = 55.19387 64.26341 59.72864
# Shear Modulus (GPa) = 30.75128 33.83837 32.29483
#
# Velocity S-wave (km/s) = 3.76778 3.95238 3.86119
# Velocity P-wave (km/s) = 6.66395 7.10601 6.88853
#
# Compressibility (1/GPa) = 0.01811795
#
# Stress axis : x y z
#
# Youngs Moduli (GPa) = 79.75498 80.39729 95.11722
#
# Poissons Ratio (x) = 0.20221 0.26443
# Poissons Ratio (y) = 0.20060 0.32252
# Poissons Ratio (z) = 0.22172 0.27261
#
# Static dielectric constant tensor:
#      x y z
#    x 3.787830 0.000000 -0.032890 
#    y 0.000000 3.991620 0.000000 
#    z -0.032890 0.000000 4.143530 
# 
# 
# High freq. dielectric constant tensor:
#      x y z
#    x 1.840310 0.000000 0.000810 
#    y 0.000000 1.858820 0.000000 
#    z 0.000810 0.000000 1.868870 
# 
# From -- ./inp_files/17235.got.cif
#   From: 2010.03.12/outbox.cif.g09.slc.cpg/sg14_9_cif.got.tgz:17235.got - 2010.03.31 13:35:05.
