data_PCOD8129594
_publ_section_title
;
Structure prediction by ZEFSAII (Michael W. Deem and Ramdas Pophale) SiO2 
 PCOD8129594
Probable space group: C 2/C
;
_chemical_formula_sum "Si O2"
_cell_formula_units_Z 32
_cell_length_a 24.000000
_cell_length_b 9.000000
_cell_length_c 30.000000
_cell_angle_alpha 90.000000
_cell_angle_beta 30.000000
_cell_angle_gamma 90.000000
_cell_volume 3240.000000
_symmetry_space_group_name_H-M "C 2/C"
_symmetry_group_IT_number 15
_symmetry_cell_setting 'monoclinic'
loop_
_space_group_symop_operation_xyz
x,y,z
-x,y,1/2-z
-x,-y,-z
x,-y,1/2+z
1/2+x,1/2+y,z
1/2-x,1/2+y,1/2-z
1/2-x,1/2-y,-z
1/2+x,1/2-y,1/2+z
loop_
_atom_site_type_symbol
_atom_site_label
_atom_site_fract_x
_atom_site_fract_y
_atom_site_fract_z
Si Si1 0.651732 0.240223 0.509173
Si Si2 0.906516 0.631492 0.675919
Si Si3 0.299945 0.144612 0.653962
Si Si4 0.063895 0.719772 0.334748
Si Si5 0.414776 0.256661 0.352758
Si Si6 0.747624 0.505278 0.497292
Si Si7 0.996668 0.831728 0.024886
Si Si8 0.224232 0.693438 0.360911
O O1 0.518685 0.229219 0.593120
O O2 0.677177 0.404669 0.511156
O O3 0.681406 0.108223 0.522302
O O4 0.724857 0.218676 0.413663
O O5 0.841848 0.628006 0.674726
O O6 0.938473 0.459706 0.661993
O O7 0.826658 0.712068 0.768183
O O8 0.187370 0.237516 0.734273
O O9 0.389577 0.240653 0.563541
O O10 0.272129 0.983068 0.652166
O O11 0.983293 0.765955 0.350769
O O12 0.024281 0.812088 0.406794
O O13 0.500000 0.259084 0.250000
O O14 0.333244 0.401114 0.413042
O O15 0.333911 0.110814 0.409504
O O16 0.893592 0.750511 0.074335
O O17 0.000000 0.000000 0.000000
#
# Coordination Sequence:
#
# PCOD8129594 Si02
#       8
#     8   8   8   8   8   8   8   8
#     4  11  25  45  73  98 138 180 232 296 346 407
#     4  12  23  45  68 105 141 183 228 287 349 424
#     4  12  25  42  69 104 147 181 228 281 347 431
#     4  12  27  45  69 102 145 183 225 291 345 415
#     4  11  27  47  73  99 137 182 239 289 352 408
#     4  10  26  49  69 101 132 180 241 295 347 407
#     4  12  26  43  69 103 142 186 228 275 352 428
#     4  12  26  41  71 102 139 188 231 279 352 423
#
# _framework density 9.8765429999999999
#
# number of rings (size 3 to 8) (size 9 to 14) (size 15 to 20)
#    0.000    0.500    5.000    1.875    8.750    1.000 
#    0.000    2.500    0.000    0.000    0.000    0.000 
#    0.000    0.000    0.000    0.000    0.000    0.000 
#
# Total GULP energy -396533.794587 kJ/mol
# GULP energy per Si atom -12391.681081 kJ/mol
# Density = 0.985406 g / cm^3
# Si number density = 9.876543 Si / 1000 Ang^3
#
#
#
# Elastic Constant Matrix: (Units=GPa)
#
#
# Indices 1 2 3 4 5 6 
#
# 1 85.1011 34.8397 26.3809 0.0023 8.8098 -0.0513
# 2 34.8397 132.9972 55.7120 0.0139 21.2172 -0.0809
# 3 26.3809 55.7120 171.5440 -0.0064 19.0604 0.0056
# 4 0.0023 0.0139 -0.0064 49.9586 0.0009 -0.4706
# 5 8.8098 21.2172 19.0604 0.0009 38.9559 0.0176
# 6 -0.0513 -0.0809 0.0056 -0.4706 0.0176 38.2299
#
#
#
# Elastic Compliance Matrix: (Units=1/GPa)
#
#
# Indices 1 2 3 4 5 6 
#
# 1 0.013357 -0.002932 -0.000998 0.000000 -0.000936 0.000012
# 2 -0.002932 0.009837 -0.002350 -0.000003 -0.003545 0.000019
# 3 -0.000998 -0.002350 0.006957 0.000002 -0.001898 -0.000006
# 4 0.000000 -0.000003 0.000002 0.020019 0.000000 0.000246
# 5 -0.000936 -0.003545 -0.001898 0.000000 0.028741 -0.000022
# 6 0.000012 0.000019 -0.000006 0.000246 -0.000022 0.026161
#
#
# Mechanical properties :
#
#
# Convention : Reuss Voigt Hill
#
# Bulk Modulus (GPa) = 56.84517 69.27860 63.06189
# Shear Modulus (GPa) = 40.48745 43.60952 42.04849
#
# Velocity S-wave (km/s) = 4.53225 4.70375 4.61879
# Velocity P-wave (km/s) = 7.49858 8.04045 7.77424
#
# Compressibility (1/GPa) = 0.01759164
#
# Stress axis : x y z
#
# Youngs Moduli (GPa) = 74.86604 101.65858 143.73974
#
# Poissons Ratio (x) = 0.29803 0.14346
# Poissons Ratio (y) = 0.21948 0.33779
# Poissons Ratio (z) = 0.07472 0.23890
#
# Static dielectric constant tensor:
#      x y z
#    x 3.941230 -0.000130 0.084450 
#    y -0.000130 4.241990 0.000100 
#    z 0.084450 0.000100 4.355940 
# 
# 
# High freq. dielectric constant tensor:
#      x y z
#    x 1.788550 -0.000010 0.000590 
#    y -0.000010 1.810960 0.000000 
#    z 0.000590 0.000000 1.812590 
# 
# From -- ./inp_files/318599.got.cif
#   From: 2010.06.25/outbox.ucp.g09.slc.cvg/sg15_160_cif.got.tgz:318599.got - 2010.06.28 14:40:10.
