data_PCOD8129486
_publ_section_title
;
Structure prediction by ZEFSAII (Michael W. Deem and Ramdas Pophale) SiO2 
 PCOD8129486
Probable space group: P 21/C
;
_chemical_formula_sum "Si O2"
_cell_formula_units_Z 20
_cell_length_a 8.811604
_cell_length_b 10.406414
_cell_length_c 9.095651
_cell_angle_alpha 90.000000
_cell_angle_beta 84.002423
_cell_angle_gamma 90.000000
_cell_volume 829.480418
_symmetry_space_group_name_H-M "P 21/C"
_symmetry_group_IT_number 14
_symmetry_cell_setting 'monoclinic'
loop_
_space_group_symop_operation_xyz
x,y,z
-x,1/2+y,1/2-z
-x,-y,-z
x,1/2-y,1/2+z
loop_
_atom_site_type_symbol
_atom_site_label
_atom_site_fract_x
_atom_site_fract_y
_atom_site_fract_z
Si Si1 0.575396 0.485941 0.650492
Si Si2 0.116449 0.620585 0.482419
Si Si3 0.244304 0.334212 0.178755
Si Si4 0.709329 0.601781 0.148089
Si Si5 0.917565 0.128681 0.689991
O O1 0.500000 0.500000 0.500000
O O2 0.727392 0.402290 0.620212
O O3 0.626045 0.619374 0.720090
O O4 0.460351 0.421693 0.776272
O O5 0.160496 0.657758 0.645494
O O6 0.046535 0.746358 0.413254
O O7 0.000000 0.500000 0.500000
O O8 0.204186 0.190818 0.240928
O O9 0.090910 0.422057 0.201835
O O10 0.310432 0.330443 0.007588
O O11 0.812325 0.474196 0.116685
#
# Coordination Sequence:
#
# PCOD8129486 Si02
#       5
#     4   4   4   4   4
#     4  12  27  49  78 109 164 204 259 324 395 465
#     4  12  27  51  77 113 156 208 260 322 390 468
#     4  12  27  49  78 110 164 204 264 324 388 471
#     4  12  28  49  78 120 155 210 263 325 401 459
#     4  12  27  48  82 112 155 205 267 320 390 468
#
# _framework density 24.111481999999999
#
# number of rings (size 3 to 8) (size 9 to 14) (size 15 to 20)
#    0.000    0.000    4.000    4.800    5.600    1.600 
#    0.000    0.000    0.000    0.000    0.000    0.000 
#    0.000    0.000    0.000    0.000    0.000    0.000 
#
# Total GULP energy -247978.353850 kJ/mol
# GULP energy per Si atom -12398.917692 kJ/mol
# Density = 2.405660 g / cm^3
# Si number density = 24.111482 Si / 1000 Ang^3
#
#
#
# Elastic Constant Matrix: (Units=GPa)
#
#
# Indices 1 2 3 4 5 6 
#
# 1 136.5321 38.1870 53.7404 0.0000 -13.3793 0.0000
# 2 38.1870 112.2827 78.8869 0.0000 8.7793 0.0000
# 3 53.7404 78.8869 154.2590 0.0000 -3.9339 0.0000
# 4 0.0000 0.0000 0.0000 45.4887 0.0000 -1.5995
# 5 -13.3793 8.7793 -3.9339 0.0000 47.7200 0.0000
# 6 0.0000 0.0000 0.0000 -1.5995 0.0000 32.0508
#
#
#
# Elastic Compliance Matrix: (Units=1/GPa)
#
#
# Indices 1 2 3 4 5 6 
#
# 1 0.008914 -0.001722 -0.002157 0.000000 0.002638 0.000000
# 2 -0.001722 0.014722 -0.007025 0.000000 -0.003770 0.000000
# 3 -0.002157 -0.007025 0.010867 0.000000 0.001583 0.000000
# 4 0.000000 0.000000 0.000000 0.022022 0.000000 0.001099
# 5 0.002638 -0.003770 0.001583 0.000000 0.022519 0.000000
# 6 0.000000 0.000000 0.000000 0.001099 0.000000 0.031255
#
#
# Mechanical properties :
#
#
# Convention : Reuss Voigt Hill
#
# Bulk Modulus (GPa) = 78.77758 82.74473 80.76115
# Shear Modulus (GPa) = 36.67300 40.53585 38.60442
#
# Velocity S-wave (km/s) = 3.90420 4.10467 4.00569
# Velocity P-wave (km/s) = 7.28470 7.54033 7.41362
#
# Compressibility (1/GPa) = 0.01269397
#
# Stress axis : x y z
#
# Youngs Moduli (GPa) = 112.18799 67.92471 92.02057
#
# Poissons Ratio (x) = 0.11697 0.19852
# Poissons Ratio (y) = 0.19319 0.64645
# Poissons Ratio (z) = 0.24203 0.47717
#
# Static dielectric constant tensor:
#      x y z
#    x 4.452950 0.000000 -0.138880 
#    y 0.000000 4.179090 0.000000 
#    z -0.138880 0.000000 4.597330 
# 
# 
# High freq. dielectric constant tensor:
#      x y z
#    x 1.963370 0.000000 -0.005230 
#    y 0.000000 1.941000 0.000000 
#    z -0.005230 0.000000 1.983220 
# 
# From -- ./inp_files/7885.got.cif
#   From: 2010.03.12/outbox.cif.g09.slc.cpg/sg14_4_cif.got.tgz:7885.got - 2010.03.31 13:35:05.
