data_PCOD8129544
_publ_section_title
;
Structure prediction by ZEFSAII (Michael W. Deem and Ramdas Pophale) SiO2 
 PCOD8129544
Probable space group: C 2/C
;
_chemical_formula_sum "Si O2"
_cell_formula_units_Z 32
_cell_length_a 18.000000
_cell_length_b 21.000000
_cell_length_c 18.000000
_cell_angle_alpha 90.000000
_cell_angle_beta 150.000000
_cell_angle_gamma 90.000000
_cell_volume 3402.000000
_symmetry_space_group_name_H-M "C 2/C"
_symmetry_group_IT_number 15
_symmetry_cell_setting 'monoclinic'
loop_
_space_group_symop_operation_xyz
x,y,z
-x,y,1/2-z
-x,-y,-z
x,-y,1/2+z
1/2+x,1/2+y,z
1/2-x,1/2+y,1/2-z
1/2-x,1/2-y,-z
1/2+x,1/2-y,1/2+z
loop_
_atom_site_type_symbol
_atom_site_label
_atom_site_fract_x
_atom_site_fract_y
_atom_site_fract_z
Si Si1 0.330829 0.999187 0.614631
Si Si2 0.118758 0.406209 0.580987
Si Si3 0.376467 0.317640 0.013473
Si Si4 0.793573 0.630999 0.006778
Si Si5 0.136205 0.056265 0.319963
Si Si6 0.065857 0.690991 0.162492
Si Si7 0.609092 0.573536 0.714631
Si Si8 0.173820 0.469725 0.222267
O O1 0.500000 0.017420 0.750000
O O2 0.250709 0.038236 0.481999
O O3 0.275084 0.020056 0.648328
O O4 0.305737 0.924387 0.578626
O O5 0.267621 0.400760 0.656412
O O6 0.079550 0.341147 0.592028
O O7 0.142016 0.460644 0.662352
O O8 0.974550 0.426148 0.407815
O O9 0.495379 0.261927 0.098341
O O10 0.460253 0.385317 0.071176
O O11 0.311633 0.316595 0.042571
O O12 0.234515 0.307508 0.837654
O O13 0.959216 0.653080 0.127552
O O14 0.716245 0.611420 0.863175
O O15 0.000000 0.089283 0.250000
O O16 0.069057 0.994426 0.218340
O O17 0.693752 0.563528 0.709689
#
# Coordination Sequence:
#
# PCOD8129544 Si02
#       8
#     8   8   8   8   8   8   8   8
#     4  11  19  32  57  89 116 155 197 239 288 354
#     4  10  20  37  57  84 119 160 192 242 296 355
#     4  12  25  39  58  85 115 161 205 239 284 347
#     4  11  21  37  57  83 123 158 200 240 283 343
#     4  10  21  35  57  89 125 151 187 246 302 347
#     4  12  25  40  58  85 120 161 202 243 288 346
#     4  10  21  38  58  84 123 162 193 239 293 346
#     4  10  19  35  60  85 117 157 200 237 294 355
#
# _framework density 9.4062319999999993
#
# number of rings (size 3 to 8) (size 9 to 14) (size 15 to 20)
#    0.000    1.250    2.500    5.625    0.000    2.000 
#    0.000    3.125    0.000    0.000    0.000    4.375 
#    0.000    0.000    0.000    0.000    0.000    0.000 
#
# Total GULP energy -396573.009981 kJ/mol
# GULP energy per Si atom -12392.906562 kJ/mol
# Density = 0.938482 g / cm^3
# Si number density = 9.406232 Si / 1000 Ang^3
#
#
#
# Elastic Constant Matrix: (Units=GPa)
#
#
# Indices 1 2 3 4 5 6 
#
# 1 176.1461 53.3325 40.7113 -0.0009 11.4607 -0.0006
# 2 53.3325 68.2259 28.8890 -0.0016 0.0120 -0.0011
# 3 40.7113 28.8890 93.8289 -0.0018 10.1667 -0.0028
# 4 -0.0009 -0.0016 -0.0018 24.4681 -0.0016 5.7731
# 5 11.4607 0.0120 10.1667 -0.0016 43.2553 -0.0013
# 6 -0.0006 -0.0011 -0.0028 5.7731 -0.0013 39.4198
#
#
#
# Elastic Compliance Matrix: (Units=1/GPa)
#
#
# Indices 1 2 3 4 5 6 
#
# 1 0.007787 -0.005444 -0.001518 0.000000 -0.001705 0.000000
# 2 -0.005444 0.020727 -0.004284 0.000001 0.002444 0.000000
# 3 -0.001518 -0.004284 0.012921 0.000000 -0.002634 0.000001
# 4 0.000000 0.000001 0.000000 0.042332 0.000001 -0.006200
# 5 -0.001705 0.002444 -0.002634 0.000001 0.024189 0.000000
# 6 0.000000 0.000000 0.000001 -0.006200 0.000000 0.026276
#
#
# Mechanical properties :
#
#
# Convention : Reuss Voigt Hill
#
# Bulk Modulus (GPa) = 52.79246 64.89627 58.84436
# Shear Modulus (GPa) = 30.66776 35.77986 33.22381
#
# Velocity S-wave (km/s) = 4.04193 4.36584 4.20700
# Velocity P-wave (km/s) = 7.06444 7.74502 7.41255
#
# Compressibility (1/GPa) = 0.01894210
#
# Stress axis : x y z
#
# Youngs Moduli (GPa) = 128.41519 48.24710 77.39564
#
# Poissons Ratio (x) = 0.26267 0.11747
# Poissons Ratio (y) = 0.69914 0.33157
# Poissons Ratio (z) = 0.19491 0.20669
#
# Static dielectric constant tensor:
#      x y z
#    x 3.936690 0.000000 0.236090 
#    y 0.000000 3.320270 0.000000 
#    z 0.236090 0.000000 3.641560 
# 
# 
# High freq. dielectric constant tensor:
#      x y z
#    x 1.758460 0.000000 0.016170 
#    y 0.000000 1.692790 0.000000 
#    z 0.016170 0.000000 1.750100 
# 
# From -- ./inp_files/211982.got.cif
#   From: 2010.06.25/outbox.ucp.g09.slc.cvg/sg15_106_cif.got.tgz:211982.got - 2010.06.28 14:40:10.
