data_PCOD8129679
_publ_section_title
;
Structure prediction by ZEFSAII (Michael W. Deem and Ramdas Pophale) SiO2 
 PCOD8129679
Probable space group: C 2/C
;
_chemical_formula_sum "Si O2"
_cell_formula_units_Z 48
_cell_length_a 14.672915
_cell_length_b 26.826463
_cell_length_c 8.571997
_cell_angle_alpha 90.000000
_cell_angle_beta 144.116645
_cell_angle_gamma 90.000000
_cell_volume 1977.702534
_symmetry_space_group_name_H-M "C 2/C"
_symmetry_group_IT_number 15
_symmetry_cell_setting 'monoclinic'
loop_
_space_group_symop_operation_xyz
x,y,z
-x,y,1/2-z
-x,-y,-z
x,-y,1/2+z
1/2+x,1/2+y,z
1/2-x,1/2+y,1/2-z
1/2-x,1/2-y,-z
1/2+x,1/2-y,1/2+z
loop_
_atom_site_type_symbol
_atom_site_label
_atom_site_fract_x
_atom_site_fract_y
_atom_site_fract_z
Si Si1 0.315714 0.851611 0.712882
Si Si2 0.124820 0.189015 0.681976
Si Si3 0.063798 0.718886 0.511417
Si Si4 0.133734 0.994167 0.047607
Si Si5 0.557445 0.599239 0.008711
Si Si6 0.837021 0.452521 0.581026
O O1 0.202248 0.812637 0.462541
O O2 0.469578 0.822294 0.983482
O O3 0.227411 0.874588 0.740924
O O4 0.364305 0.895183 0.661042
O O5 0.977518 0.226449 0.480496
O O6 0.057155 0.133682 0.546146
O O7 0.250967 0.207596 0.728377
O O8 0.000000 0.710951 0.250000
O O9 0.274750 0.016568 0.141597
O O10 0.208533 0.952590 0.263806
O O11 0.068388 0.040301 0.070568
O O12 0.000000 0.971592 0.750000
O O13 0.500000 0.597349 0.750000
O O14 0.000000 0.476212 0.750000
#
# Coordination Sequence:
#
# PCOD8129679 Si02
#       6
#     8   8   8   8   8   8
#     4   9  17  27  41  62  94 134 170 207 260 318
#     4  10  16  24  38  60  92 131 166 202 258 327
#     4  10  16  22  36  60  90 132 163 200 257 328
#     4  10  21  35  55  77 105 146 190 230 277 326
#     4   8  15  28  42  61  90 130 167 209 257 314
#     4  11  21  36  54  78 108 147 188 232 276 325
#
# _framework density 24.270586999999999
#
# number of rings (size 3 to 8) (size 9 to 14) (size 15 to 20)
#    0.000    2.333    0.000    8.000    0.000    0.000 
#    0.000    0.000    0.000    0.000    0.000    0.000 
#    0.000    0.000    0.000  685.500    0.000    7.167 
#
# Total GULP energy -297423.829762 kJ/mol
# GULP energy per Si atom -12392.659573 kJ/mol
# Density = 2.421535 g / cm^3
# Si number density = 24.270587 Si / 1000 Ang^3
#
#
#
# Elastic Constant Matrix: (Units=GPa)
#
#
# Indices 1 2 3 4 5 6 
#
# 1 76.4360 30.8315 33.1960 0.0000 34.5874 0.0000
# 2 30.8315 139.3062 27.2497 0.0000 15.0715 0.0000
# 3 33.1960 27.2497 51.2717 0.0000 16.9430 0.0000
# 4 0.0000 0.0000 0.0000 19.8979 0.0000 7.4585
# 5 34.5874 15.0715 16.9430 0.0000 37.2838 0.0000
# 6 0.0000 0.0000 0.0000 7.4585 0.0000 19.3829
#
#
#
# Elastic Compliance Matrix: (Units=1/GPa)
#
#
# Indices 1 2 3 4 5 6 
#
# 1 0.027225 -0.001908 -0.010027 0.000000 -0.019928 0.000000
# 2 -0.001908 0.008220 -0.003083 0.000000 -0.000152 0.000000
# 3 -0.010027 -0.003083 0.028416 0.000000 -0.002365 0.000000
# 4 0.000000 0.000000 0.000000 0.058727 0.000000 -0.022598
# 5 -0.019928 -0.000152 -0.002365 0.000000 0.046444 0.000000
# 6 0.000000 0.000000 0.000000 -0.022598 0.000000 0.060288
#
#
# Mechanical properties :
#
#
# Convention : Reuss Voigt Hill
#
# Bulk Modulus (GPa) = 29.56514 49.95204 39.75859
# Shear Modulus (GPa) = 18.47528 27.02869 22.75198
#
# Velocity S-wave (km/s) = 2.76202 3.34074 3.06507
# Velocity P-wave (km/s) = 4.73070 5.95875 5.37988
#
# Compressibility (1/GPa) = 0.03382362
#
# Stress axis : x y z
#
# Youngs Moduli (GPa) = 36.73152 121.65048 35.19094
#
# Poissons Ratio (x) = 0.23210 0.35287
# Poissons Ratio (y) = 0.07008 0.10851
# Poissons Ratio (z) = 0.36832 0.37510
#
# Static dielectric constant tensor:
#      x y z
#    x 4.847390 0.000000 0.861230 
#    y 0.000000 4.546970 0.000000 
#    z 0.861230 0.000000 3.829910 
# 
# 
# High freq. dielectric constant tensor:
#      x y z
#    x 1.970440 0.000000 0.063060 
#    y 0.000000 1.975230 0.000000 
#    z 0.063060 0.000000 1.888960 
# 
# From -- ./inp_files/44678.got.cif
#   From: 2010.06.25/outbox.cif.g09.slc.cpg/sg15_23_cif.got.tgz:44678.got - 2010.06.28 07:06:18.
