data_PCOD8129254
_publ_section_title
;
Structure prediction by ZEFSAII (Michael W. Deem and Ramdas Pophale) SiO2 
 PCOD8129254
Probable space group: P 21/C
;
_chemical_formula_sum "Si O2"
_cell_formula_units_Z 24
_cell_length_a 14.896081
_cell_length_b 15.034820
_cell_length_c 8.927877
_cell_angle_alpha 90.000000
_cell_angle_beta 28.202593
_cell_angle_gamma 90.000000
_cell_volume 944.938580
_symmetry_space_group_name_H-M "P 21/C"
_symmetry_group_IT_number 14
_symmetry_cell_setting 'monoclinic'
loop_
_space_group_symop_operation_xyz
x,y,z
-x,1/2+y,1/2-z
-x,-y,-z
x,1/2-y,1/2+z
loop_
_atom_site_type_symbol
_atom_site_label
_atom_site_fract_x
_atom_site_fract_y
_atom_site_fract_z
Si Si1 0.861061 0.423527 0.282176
Si Si2 0.920553 0.651610 0.289101
Si Si3 0.450510 0.246270 0.753685
Si Si4 0.284137 0.750726 0.885584
Si Si5 0.493356 0.041595 0.174633
Si Si6 0.832654 0.509596 0.633717
O O1 0.817270 0.317660 0.350368
O O2 0.692575 0.479871 0.458471
O O3 0.888102 0.443316 0.417569
O O4 0.037564 0.425768 0.901085
O O5 0.772272 0.721174 0.437151
O O6 0.818307 0.608016 0.582664
O O7 0.125261 0.686964 0.045497
O O8 0.541982 0.206893 0.772779
O O9 0.593374 0.201198 0.423593
O O10 0.452561 0.353214 0.730521
O O11 0.352682 0.990255 0.495220
O O12 0.500000 0.000000 0.000000
O O13 0.000000 0.500000 0.500000
#
# Coordination Sequence:
#
# PCOD8129254 Si02
#       6
#     4   4   4   4   4   4
#     4  11  26  49  72 109 152 202 249 321 386 454
#     4  12  26  50  76 110 157 198 259 328 379 467
#     4  11  27  44  76 111 146 200 257 312 391 450
#     4  11  25  46  73 108 148 194 255 314 382 453
#     4  11  25  50  76 111 156 204 256 317 391 467
#     4  12  29  45  76 111 152 205 259 310 395 462
#
# _framework density 25.398475000000001
#
# number of rings (size 3 to 8) (size 9 to 14) (size 15 to 20)
#    0.000    0.667    3.333    4.000    9.333    1.333 
#    0.000    0.000    0.000    0.000    0.000    0.000 
#    0.000    0.000    0.000    0.000    0.000    0.000 
#
# Total GULP energy -297334.196940 kJ/mol
# GULP energy per Si atom -12388.924872 kJ/mol
# Density = 2.534067 g / cm^3
# Si number density = 25.398475 Si / 1000 Ang^3
#
#
#
# Elastic Constant Matrix: (Units=GPa)
#
#
# Indices 1 2 3 4 5 6 
#
# 1 213.5200 57.4466 78.7130 0.0000 -3.6449 0.0000
# 2 57.4466 51.2587 34.4503 0.0000 -7.7459 0.0000
# 3 78.7130 34.4503 172.2740 0.0000 17.4455 0.0000
# 4 0.0000 0.0000 0.0000 40.5651 0.0000 2.6960
# 5 -3.6449 -7.7459 17.4455 0.0000 59.5501 0.0000
# 6 0.0000 0.0000 0.0000 2.6960 0.0000 41.7108
#
#
#
# Elastic Compliance Matrix: (Units=1/GPa)
#
#
# Indices 1 2 3 4 5 6 
#
# 1 0.007229 -0.006760 -0.001965 0.000000 0.000139 0.000000
# 2 -0.006760 0.030026 -0.003369 0.000000 0.004479 0.000000
# 3 -0.001965 -0.003369 0.007660 0.000000 -0.002803 0.000000
# 4 0.000000 0.000000 0.000000 0.024758 0.000000 -0.001600
# 5 0.000139 0.004479 -0.002803 0.000000 0.018205 0.000000
# 6 0.000000 0.000000 0.000000 -0.001600 0.000000 0.024078
#
#
# Mechanical properties :
#
#
# Convention : Reuss Voigt Hill
#
# Bulk Modulus (GPa) = 48.24763 86.47473 67.36118
# Shear Modulus (GPa) = 34.95187 46.12805 40.53996
#
# Velocity S-wave (km/s) = 3.71366 4.26628 3.99953
# Velocity P-wave (km/s) = 6.11767 7.64129 6.92153
#
# Compressibility (1/GPa) = 0.02072641
#
# Stress axis : x y z
#
# Youngs Moduli (GPa) = 138.33273 33.30433 130.54434
#
# Poissons Ratio (x) = 0.22513 0.25655
# Poissons Ratio (y) = 0.93511 0.43985
# Poissons Ratio (z) = 0.27186 0.11222
#
# Static dielectric constant tensor:
#      x y z
#    x 4.636020 0.000000 0.042390 
#    y 0.000000 4.302460 0.000000 
#    z 0.042390 0.000000 4.612400 
# 
# 
# High freq. dielectric constant tensor:
#      x y z
#    x 2.039870 0.000000 0.011400 
#    y 0.000000 2.004580 0.000000 
#    z 0.011400 0.000000 2.032450 
# 
# From -- ./inp_files/16611.got.cif
#   From: 2010.03.12/outbox.cif.g09.slc.cpg/sg14_9_cif.got.tgz:16611.got - 2010.03.31 13:35:05.
