data_PCOD8129245
_publ_section_title
;
Structure prediction by ZEFSAII (Michael W. Deem and Ramdas Pophale) SiO2 
 PCOD8129245
Probable space group: P 21/C
;
_chemical_formula_sum "Si O2"
_cell_formula_units_Z 24
_cell_length_a 8.564116
_cell_length_b 13.073814
_cell_length_c 12.237971
_cell_angle_alpha 90.000000
_cell_angle_beta 58.012869
_cell_angle_gamma 90.000000
_cell_volume 1162.186120
_symmetry_space_group_name_H-M "P 21/C"
_symmetry_group_IT_number 14
_symmetry_cell_setting 'monoclinic'
loop_
_space_group_symop_operation_xyz
x,y,z
-x,1/2+y,1/2-z
-x,-y,-z
x,1/2-y,1/2+z
loop_
_atom_site_type_symbol
_atom_site_label
_atom_site_fract_x
_atom_site_fract_y
_atom_site_fract_z
Si Si1 0.843317 0.990802 0.649848
Si Si2 0.362072 0.811239 0.335512
Si Si3 0.965335 0.509207 0.688981
Si Si4 0.036246 0.659406 0.480232
Si Si5 0.310752 0.204511 0.391705
Si Si6 0.609691 0.902916 0.418258
O O1 0.692529 0.079917 0.695269
O O2 0.929817 0.996334 0.736920
O O3 0.737927 0.883279 0.678052
O O4 0.000000 0.000000 0.500000
O O5 0.484227 0.746681 0.205193
O O6 0.475344 0.826450 0.404675
O O7 0.177012 0.752352 0.434480
O O8 0.078574 0.582391 0.564626
O O9 0.766448 0.558753 0.778837
O O10 0.941168 0.398158 0.643497
O O11 0.830639 0.702497 0.566100
O O12 0.297742 0.157754 0.517076
O O13 0.500000 0.000000 0.500000
#
# Coordination Sequence:
#
# PCOD8129245 Si02
#       6
#     4   4   4   4   4   4
#     4  12  24  46  69  99 136 182 230 278 338 406
#     4  12  26  43  71 103 135 179 230 282 342 406
#     4  11  25  46  69  97 141 178 224 285 339 405
#     4  11  26  46  68 100 137 180 224 281 346 403
#     4  12  26  44  68 103 135 179 232 277 344 410
#     4  12  23  44  68  99 139 177 225 281 337 409
#
# _framework density 20.650735999999998
#
# number of rings (size 3 to 8) (size 9 to 14) (size 15 to 20)
#    0.000    0.333    6.667    1.000    4.667    1.333 
#    0.000    1.667    0.000    0.000    0.000    0.000 
#    0.000    0.000    0.000    0.000    0.000    0.000 
#
# Total GULP energy -297789.264557 kJ/mol
# GULP energy per Si atom -12407.886023 kJ/mol
# Density = 2.060373 g / cm^3
# Si number density = 20.650736 Si / 1000 Ang^3
#
#
#
# Elastic Constant Matrix: (Units=GPa)
#
#
# Indices 1 2 3 4 5 6 
#
# 1 102.7208 35.8524 42.1351 0.0000 17.1757 0.0000
# 2 35.8524 102.4157 40.0381 0.0000 9.5394 0.0000
# 3 42.1351 40.0381 98.6955 0.0000 12.8318 0.0000
# 4 0.0000 0.0000 0.0000 37.0414 0.0000 -2.7027
# 5 17.1757 9.5394 12.8318 0.0000 49.1624 0.0000
# 6 0.0000 0.0000 0.0000 -2.7027 0.0000 49.3748
#
#
#
# Elastic Compliance Matrix: (Units=1/GPa)
#
#
# Indices 1 2 3 4 5 6 
#
# 1 0.012787 -0.002637 -0.004011 0.000000 -0.002909 0.000000
# 2 -0.002637 0.012202 -0.003764 0.000000 -0.000464 0.000000
# 3 -0.004011 -0.003764 0.013554 0.000000 -0.001406 0.000000
# 4 0.000000 0.000000 0.000000 0.027105 0.000000 0.001484
# 5 -0.002909 -0.000464 -0.001406 0.000000 0.021814 0.000000
# 6 0.000000 0.000000 0.000000 0.001484 0.000000 0.020334
#
#
# Mechanical properties :
#
#
# Convention : Reuss Voigt Hill
#
# Bulk Modulus (GPa) = 56.43617 59.98701 58.21159
# Shear Modulus (GPa) = 37.16700 39.50280 38.33490
#
# Velocity S-wave (km/s) = 4.24700 4.37842 4.31321
# Velocity P-wave (km/s) = 7.17200 7.39406 7.28387
#
# Compressibility (1/GPa) = 0.01771913
#
# Stress axis : x y z
#
# Youngs Moduli (GPa) = 78.20244 81.95381 73.77768
#
# Poissons Ratio (x) = 0.21615 0.29593
# Poissons Ratio (y) = 0.20625 0.27768
# Poissons Ratio (z) = 0.31367 0.30845
#
# Static dielectric constant tensor:
#      x y z
#    x 3.753750 0.000000 0.024210 
#    y 0.000000 3.959420 0.000000 
#    z 0.024210 0.000000 4.183870 
# 
# 
# High freq. dielectric constant tensor:
#      x y z
#    x 1.815750 0.000000 0.001540 
#    y 0.000000 1.824380 0.000000 
#    z 0.001540 0.000000 1.808500 
# 
# From -- ./inp_files/24110.got.cif
#   From: 2010.03.12/outbox.cif.g09.slc.cpg/sg14_13_cif.got.tgz:24110.got - 2010.03.31 13:35:05.
