data_PCOD8129690
_publ_section_title
;
Structure prediction by ZEFSAII (Michael W. Deem and Ramdas Pophale) SiO2 
 PCOD8129690
Probable space group: C 2/C
;
_chemical_formula_sum "Si O2"
_cell_formula_units_Z 40
_cell_length_a 11.174806
_cell_length_b 37.335699
_cell_length_c 5.275674
_cell_angle_alpha 90.000000
_cell_angle_beta 81.210064
_cell_angle_gamma 90.000000
_cell_volume 2175.260908
_symmetry_space_group_name_H-M "C 2/C"
_symmetry_group_IT_number 15
_symmetry_cell_setting 'monoclinic'
loop_
_space_group_symop_operation_xyz
x,y,z
-x,y,1/2-z
-x,-y,-z
x,-y,1/2+z
1/2+x,1/2+y,z
1/2-x,1/2+y,1/2-z
1/2-x,1/2-y,-z
1/2+x,1/2-y,1/2+z
loop_
_atom_site_type_symbol
_atom_site_label
_atom_site_fract_x
_atom_site_fract_y
_atom_site_fract_z
Si Si1 0.135529 0.782296 0.779734
Si Si2 0.135270 0.400821 0.928815
Si Si3 0.135025 0.370815 0.425771
Si Si4 0.865078 0.484897 0.568021
Si Si5 0.772932 0.703800 0.731887
O O1 0.147725 0.739552 0.798600
O O2 0.218070 0.799512 0.531837
O O3 0.000000 0.792622 0.750000
O O4 0.169655 0.797287 0.046655
O O5 0.201454 0.381521 0.668405
O O6 0.131638 0.442877 0.884947
O O7 0.202596 0.391426 0.171139
O O8 0.001516 0.384483 0.001295
O O9 0.136996 0.328728 0.362372
O O10 0.797907 0.495918 0.327990
O O11 0.000000 0.500000 0.500000
#
# Coordination Sequence:
#
# PCOD8129690 Si02
#       5
#     8   8   8   8   8
#     4  10  21  37  53  70  95 118 157 201 242 307
#     4  10  19  28  42  68  90 131 166 189 235 271
#     4  10  18  30  43  63  93 116 157 203 225 278
#     4  10  16  25  39  56  87 125 169 194 208 263
#     4  10  21  35  51  75  90 122 160 194 254 288
#
# _framework density 18.388598000000002
#
# number of rings (size 3 to 8) (size 9 to 14) (size 15 to 20)
#    0.000    2.000    0.000    7.800    2.800    0.000 
#    7.200    0.000    0.000    0.000    0.000    0.000 
#    0.000    0.000    0.000    0.000    0.000  852.000 
#
# Total GULP energy -247771.953758 kJ/mol
# GULP energy per Si atom -12388.597688 kJ/mol
# Density = 1.834674 g / cm^3
# Si number density = 18.388598 Si / 1000 Ang^3
#
#
#
# Elastic Constant Matrix: (Units=GPa)
#
#
# Indices 1 2 3 4 5 6 
#
# 1 26.7211 4.1832 8.0870 0.0000 6.3298 0.0000
# 2 4.1832 129.5066 53.4482 0.0000 -3.8969 0.0000
# 3 8.0870 53.4482 175.1561 0.0000 33.5261 0.0000
# 4 0.0000 0.0000 0.0000 41.0586 0.0000 -1.1225
# 5 6.3298 -3.8969 33.5261 0.0000 20.7460 0.0000
# 6 0.0000 0.0000 0.0000 -1.1225 0.0000 10.4406
#
#
#
# Elastic Compliance Matrix: (Units=1/GPa)
#
#
# Indices 1 2 3 4 5 6 
#
# 1 0.041092 -0.002662 0.002042 0.000000 -0.016338 0.000000
# 2 -0.002662 0.010246 -0.005107 0.000000 0.010990 0.000000
# 3 0.002042 -0.005107 0.010824 0.000000 -0.019075 0.000000
# 4 0.000000 0.000000 0.000000 0.024427 0.000000 0.002626
# 5 -0.016338 0.010990 -0.019075 0.000000 0.086077 0.000000
# 6 0.000000 0.000000 0.000000 0.002626 0.000000 0.096063
#
#
# Mechanical properties :
#
#
# Convention : Reuss Voigt Hill
#
# Bulk Modulus (GPa) = 19.72025 51.42451 35.57238
# Shear Modulus (GPa) = 16.83008 32.16004 24.49506
#
# Velocity S-wave (km/s) = 3.02858 4.18654 3.65372
# Velocity P-wave (km/s) = 4.79346 7.16907 6.09807
#
# Compressibility (1/GPa) = 0.05070929
#
# Stress axis : x y z
#
# Youngs Moduli (GPa) = 24.33536 97.59806 92.38305
#
# Poissons Ratio (x) = 0.25978 -0.18866
# Poissons Ratio (y) = 0.06477 0.47183
# Poissons Ratio (z) = -0.04970 0.49846
#
# Static dielectric constant tensor:
#      x y z
#    x 2.648550 0.000000 0.179120 
#    y 0.000000 3.377920 0.000000 
#    z 0.179120 0.000000 3.020330 
# 
# 
# High freq. dielectric constant tensor:
#      x y z
#    x 1.622120 0.000000 0.040090 
#    y 0.000000 1.717440 0.000000 
#    z 0.040090 0.000000 1.753530 
# 
# From -- ./inp_files/5591.got.cif
#   From: 2010.06.25/outbox.cif.g09.slc.cpg/sg15_3_cif.got.tgz:5591.got - 2010.06.28 07:06:18.
