data_PCOD8129794
_publ_section_title
;
Structure prediction by ZEFSAII (Michael W. Deem and Ramdas Pophale) SiO2 
 PCOD8129794
Probable space group: C 2/C
;
_chemical_formula_sum "Si O2"
_cell_formula_units_Z 60
_cell_length_a 27.279728
_cell_length_b 25.920707
_cell_length_c 5.198226
_cell_angle_alpha 90.000000
_cell_angle_beta 74.161757
_cell_angle_gamma 90.000000
_cell_volume 3536.171979
_symmetry_space_group_name_H-M "C 2/C"
_symmetry_group_IT_number 15
_symmetry_cell_setting 'monoclinic'
loop_
_space_group_symop_operation_xyz
x,y,z
-x,y,1/2-z
-x,-y,-z
x,-y,1/2+z
1/2+x,1/2+y,z
1/2-x,1/2+y,1/2-z
1/2-x,1/2-y,-z
1/2+x,1/2-y,1/2+z
loop_
_atom_site_type_symbol
_atom_site_label
_atom_site_fract_x
_atom_site_fract_y
_atom_site_fract_z
Si Si1 0.522150 0.942171 0.466349
Si Si2 0.804795 0.689728 0.402952
Si Si3 0.299611 0.870846 0.414279
Si Si4 0.184298 0.195694 0.572475
Si Si5 0.137143 0.467790 0.294328
Si Si6 0.320844 0.365564 0.916552
Si Si7 0.610590 0.535479 0.129959
Si Si8 0.000000 0.965847 0.750000
O O1 0.500000 0.912467 0.250000
O O2 0.582569 0.940650 0.356538
O O3 0.500000 0.000000 0.500000
O O4 0.500000 0.913313 0.750000
O O5 0.818829 0.662625 0.648090
O O6 0.833312 0.744969 0.369645
O O7 0.744748 0.696447 0.458398
O O8 0.823519 0.655206 0.135569
O O9 0.319289 0.928252 0.345807
O O10 0.239079 0.875405 0.516910
O O11 0.160440 0.168119 0.354981
O O12 0.164760 0.165339 0.848417
O O13 0.143083 0.486386 0.579258
O O14 0.347743 0.420609 0.891880
O O15 0.618010 0.496244 0.356369
O O16 0.554406 0.563902 0.193352
O O17 0.000000 0.000000 0.500000
#
# Coordination Sequence:
#
# PCOD8129794 Si02
#       8
#     8   8   8   8   8   8   8   4
#     4  10  16  30  47  63  82 109 153 208 232 250
#     4   9  17  33  48  66  92 123 154 196 246 262
#     4  10  21  31  44  68 100 126 153 191 229 298
#     4   9  17  30  52  68  89 121 158 204 229 268
#     4  12  21  31  46  66  95 126 154 190 235 278
#     4  10  19  31  46  72  97 124 165 185 224 284
#     4  10  19  31  48  67 100 133 156 190 227 268
#     4   8  16  30  46  66  88 122 162 198 224 252
#
# _framework density 16.967502
#
# number of rings (size 3 to 8) (size 9 to 14) (size 15 to 20)
#    0.000    2.133    2.667    2.400    0.000    4.267 
#    0.000    0.000    0.000    0.000    0.000    0.000 
#   20.000    0.000    0.000    0.000    0.000    0.000 
#
# Total GULP energy -371757.072930 kJ/mol
# GULP energy per Si atom -12391.902431 kJ/mol
# Density = 1.692888 g / cm^3
# Si number density = 16.967502 Si / 1000 Ang^3
#
#
#
# Elastic Constant Matrix: (Units=GPa)
#
#
# Indices 1 2 3 4 5 6 
#
# 1 42.6847 32.0418 33.4002 0.0000 8.0115 0.0000
# 2 32.0418 78.7329 36.8984 0.0000 -1.2852 0.0000
# 3 33.4002 36.8984 130.5883 0.0000 17.3481 0.0000
# 4 0.0000 0.0000 0.0000 13.3634 0.0000 4.9422
# 5 8.0115 -1.2852 17.3481 0.0000 16.3415 0.0000
# 6 0.0000 0.0000 0.0000 4.9422 0.0000 3.1414
#
#
#
# Elastic Compliance Matrix: (Units=1/GPa)
#
#
# Indices 1 2 3 4 5 6 
#
# 1 0.041125 -0.015163 -0.003955 0.000000 -0.017156 0.000000
# 2 -0.015163 0.020839 -0.003743 0.000000 0.013046 0.000000
# 3 -0.003955 -0.003743 0.011070 0.000000 -0.010107 0.000000
# 4 0.000000 0.000000 0.000000 0.178947 0.000000 -0.281523
# 5 -0.017156 0.013046 -0.010107 0.000000 0.081360 0.000000
# 6 0.000000 0.000000 0.000000 -0.281523 0.000000 0.761222
#
#
# Mechanical properties :
#
#
# Convention : Reuss Voigt Hill
#
# Bulk Modulus (GPa) = 36.61510 50.74299 43.67904
# Shear Modulus (GPa) = 4.35014 16.54694 10.44854
#
# Velocity S-wave (km/s) = 1.60293 3.12623 2.48422
# Velocity P-wave (km/s) = 5.00522 6.55759 5.83328
#
# Compressibility (1/GPa) = 0.02731114
#
# Stress axis : x y z
#
# Youngs Moduli (GPa) = 24.31639 47.98635 90.33827
#
# Poissons Ratio (x) = 0.72762 0.35728
# Poissons Ratio (y) = 0.36871 0.33816
# Poissons Ratio (z) = 0.09617 0.17962
#
# Static dielectric constant tensor:
#      x y z
#    x 3.215260 0.000000 0.169260 
#    y 0.000000 2.885950 0.000000 
#    z 0.169260 0.000000 3.190550 
# 
# 
# High freq. dielectric constant tensor:
#      x y z
#    x 1.629210 0.000000 0.019910 
#    y 0.000000 1.620920 0.000000 
#    z 0.019910 0.000000 1.682140 
# 
# From -- ./inp_files/17612.got.cif
#   From: 2010.06.25/outbox.cif.g09.slc.cpg/sg15_9_cif.got.tgz:17612.got - 2010.06.28 07:06:18.
