data_PCOD8129066
_publ_section_title
;
Structure prediction by ZEFSAII (Michael W. Deem and Ramdas Pophale) SiO2 
 PCOD8129066
Probable space group: P 21/C
;
_chemical_formula_sum "Si O2"
_cell_formula_units_Z 32
_cell_length_a 19.886328
_cell_length_b 6.083025
_cell_length_c 24.049207
_cell_angle_alpha 90.000000
_cell_angle_beta 149.957491
_cell_angle_gamma 90.000000
_cell_volume 1456.473460
_symmetry_space_group_name_H-M "P 21/C"
_symmetry_group_IT_number 14
_symmetry_cell_setting 'monoclinic'
loop_
_space_group_symop_operation_xyz
x,y,z
-x,1/2+y,1/2-z
-x,-y,-z
x,1/2-y,1/2+z
loop_
_atom_site_type_symbol
_atom_site_label
_atom_site_fract_x
_atom_site_fract_y
_atom_site_fract_z
Si Si1 0.249746 0.753135 0.928121
Si Si2 0.838519 0.373994 0.017463
Si Si3 0.411893 0.399270 0.985079
Si Si4 0.495224 0.508903 0.389364
Si Si5 0.559079 0.500385 0.776255
Si Si6 0.017706 0.079878 0.075339
Si Si7 0.918805 0.308438 0.797312
Si Si8 0.737662 0.837658 0.210468
O O1 0.196534 0.764115 0.952751
O O2 0.351455 0.553017 0.989619
O O3 0.126082 0.740969 0.796819
O O4 0.345538 0.964283 0.990750
O O5 0.887885 0.220135 0.001910
O O6 0.957937 0.529478 0.122036
O O7 0.710616 0.515266 0.906751
O O8 0.283868 0.284320 0.863598
O O9 0.500000 0.500000 0.000000
O O10 0.518320 0.247319 0.093293
O O11 0.439021 0.507535 0.287880
O O12 0.404574 0.340675 0.359777
O O13 0.495924 0.747606 0.745778
O O14 0.153238 0.220720 0.172586
O O15 0.030929 0.888976 0.129391
O O16 0.000000 0.000000 0.000000
O O17 0.791013 0.417564 0.736167
#
# Coordination Sequence:
#
# PCOD8129066 Si02
#       8
#     4   4   4   4   4   4   4   4
#     4  12  24  47  72 108 146 194 249 314 397 464
#     4  11  29  47  71 109 146 196 256 315 390 468
#     4  12  23  40  69 106 148 188 249 313 390 467
#     4  12  26  42  76 105 153 189 253 324 387 464
#     4  12  29  53  77 113 156 205 263 318 400 472
#     4  11  28  48  72 101 145 201 258 311 388 471
#     4  11  26  45  72 102 147 190 244 316 382 463
#     4  11  24  43  67 108 137 193 243 309 388 455
#
# _framework density 21.970877999999999
#
# number of rings (size 3 to 8) (size 9 to 14) (size 15 to 20)
#    0.000    0.500    5.000    1.875    7.000    2.000 
#    0.000    0.000    0.000    0.000    0.000    0.000 
#    0.000    0.000    0.000    0.000    0.000    0.000 
#
# Total GULP energy -396496.551288 kJ/mol
# GULP energy per Si atom -12390.517228 kJ/mol
# Density = 2.192087 g / cm^3
# Si number density = 21.970878 Si / 1000 Ang^3
#
#
#
# Elastic Constant Matrix: (Units=GPa)
#
#
# Indices 1 2 3 4 5 6 
#
# 1 112.6343 26.2860 29.7937 0.0000 1.1382 0.0000
# 2 26.2860 79.5147 2.0289 0.0000 6.7794 0.0000
# 3 29.7937 2.0289 82.6774 0.0000 -0.3034 0.0000
# 4 0.0000 0.0000 0.0000 30.0695 0.0000 -11.9873
# 5 1.1382 6.7794 -0.3034 0.0000 42.1028 0.0000
# 6 0.0000 0.0000 0.0000 -11.9873 0.0000 26.5474
#
#
#
# Elastic Compliance Matrix: (Units=1/GPa)
#
#
# Indices 1 2 3 4 5 6 
#
# 1 0.010677 -0.003454 -0.003762 0.000000 0.000240 0.000000
# 2 -0.003454 0.013877 0.000896 0.000000 -0.002135 0.000000
# 3 -0.003762 0.000896 0.013429 0.000000 0.000054 0.000000
# 4 0.000000 0.000000 0.000000 0.040557 0.000000 0.018313
# 5 0.000240 -0.002135 0.000054 0.000000 0.024089 0.000000
# 6 0.000000 0.000000 0.000000 0.018313 0.000000 0.045938
#
#
# Mechanical properties :
#
#
# Convention : Reuss Voigt Hill
#
# Bulk Modulus (GPa) = 39.45716 43.44930 41.45323
# Shear Modulus (GPa) = 29.47167 34.19180 31.83173
#
# Velocity S-wave (km/s) = 3.66648 3.94919 3.81046
# Velocity P-wave (km/s) = 5.99349 6.37288 6.18610
#
# Compressibility (1/GPa) = 0.02534394
#
# Stress axis : x y z
#
# Youngs Moduli (GPa) = 93.65868 72.06022 74.46537
#
# Poissons Ratio (x) = 0.24891 0.28014
# Poissons Ratio (y) = 0.32351 -0.06675
# Poissons Ratio (z) = 0.35234 -0.06459
#
# Static dielectric constant tensor:
#      x y z
#    x 4.076550 0.000000 0.212150 
#    y 0.000000 4.524420 0.000000 
#    z 0.212150 0.000000 4.551340 
# 
# 
# High freq. dielectric constant tensor:
#      x y z
#    x 1.864270 0.000000 -0.002310 
#    y 0.000000 1.872350 0.000000 
#    z -0.002310 0.000000 1.879560 
# 
# From -- ./inp_files/74554.got.cif
#   From: 2010.03.12/outbox.cif.g09.slc.cpg/sg14_38_cif.got.tgz:74554.got - 2010.03.31 13:35:05.
