data_PCOD8129174
_publ_section_title
;
Structure prediction by ZEFSAII (Michael W. Deem and Ramdas Pophale) SiO2 
 PCOD8129174
Probable space group: P 21/C
;
_chemical_formula_sum "Si O2"
_cell_formula_units_Z 32
_cell_length_a 18.252625
_cell_length_b 12.156708
_cell_length_c 14.630870
_cell_angle_alpha 90.000000
_cell_angle_beta 151.946470
_cell_angle_gamma 90.000000
_cell_volume 1526.803003
_symmetry_space_group_name_H-M "P 21/C"
_symmetry_group_IT_number 14
_symmetry_cell_setting 'monoclinic'
loop_
_space_group_symop_operation_xyz
x,y,z
-x,1/2+y,1/2-z
-x,-y,-z
x,1/2-y,1/2+z
loop_
_atom_site_type_symbol
_atom_site_label
_atom_site_fract_x
_atom_site_fract_y
_atom_site_fract_z
Si Si1 0.584889 0.903671 0.150147
Si Si2 0.099016 0.486824 0.200540
Si Si3 0.695035 0.308426 0.566335
Si Si4 0.330760 0.759992 0.665205
Si Si5 0.836668 0.574533 0.244096
Si Si6 0.318878 0.202901 0.913526
Si Si7 0.821549 0.365548 0.337764
Si Si8 0.170010 0.518889 0.961563
O O1 0.700901 0.834171 0.213372
O O2 0.685461 0.948439 0.344170
O O3 0.469571 0.812195 0.063857
O O4 0.500000 0.000000 0.000000
O O5 0.232250 0.574695 0.333360
O O6 0.189023 0.371738 0.321532
O O7 0.000000 0.500000 0.000000
O O8 0.991533 0.514619 0.168810
O O9 0.673720 0.301669 0.435158
O O10 0.796112 0.210109 0.720514
O O11 0.288659 0.674468 0.700231
O O12 0.199757 0.854155 0.519561
O O13 0.499828 0.817759 0.861332
O O14 0.706659 0.668413 0.096015
O O15 0.788384 0.492619 0.273643
O O16 0.997286 0.640048 0.436593
O O17 0.845929 0.501755 0.163250
#
# Coordination Sequence:
#
# PCOD8129174 Si02
#       8
#     4   4   4   4   4   4   4   4
#     4  12  21  42  69  98 136 175 224 284 333 394
#     4  12  23  39  71 103 130 173 229 285 338 397
#     4  12  23  43  69 100 132 179 227 276 343 396
#     4  12  24  43  70 100 135 179 228 277 339 409
#     4  11  26  46  65  98 143 180 223 277 342 412
#     4  12  24  42  67 102 136 177 222 281 338 404
#     4  11  24  47  68  93 141 183 219 279 341 401
#     4  12  23  43  68 102 136 174 229 281 337 405
#
# _framework density 20.958828
#
# number of rings (size 3 to 8) (size 9 to 14) (size 15 to 20)
#    0.000    0.250    6.250    3.750    0.000    0.500 
#    0.000    3.750    0.000    0.000    0.000    0.000 
#    0.000    0.000    0.000    0.000    0.000    0.000 
#
# Total GULP energy -396781.757597 kJ/mol
# GULP energy per Si atom -12399.429925 kJ/mol
# Density = 2.091112 g / cm^3
# Si number density = 20.958828 Si / 1000 Ang^3
#
#
#
# Elastic Constant Matrix: (Units=GPa)
#
#
# Indices 1 2 3 4 5 6 
#
# 1 109.2297 34.3290 36.6427 0.0000 -7.0927 0.0000
# 2 34.3290 99.1062 30.2810 0.0000 3.7904 0.0000
# 3 36.6427 30.2810 85.7205 0.0000 3.9330 0.0000
# 4 0.0000 0.0000 0.0000 33.6012 0.0000 3.3733
# 5 -7.0927 3.7904 3.9330 0.0000 31.4441 0.0000
# 6 0.0000 0.0000 0.0000 3.3733 0.0000 41.0352
#
#
#
# Elastic Compliance Matrix: (Units=1/GPa)
#
#
# Indices 1 2 3 4 5 6 
#
# 1 0.011684 -0.002921 -0.004123 0.000000 0.003503 0.000000
# 2 -0.002921 0.012065 -0.002933 0.000000 -0.001746 0.000000
# 3 -0.004123 -0.002933 0.014575 0.000000 -0.002399 0.000000
# 4 0.000000 0.000000 0.000000 0.030009 0.000000 -0.002467
# 5 0.003503 -0.001746 -0.002399 0.000000 0.033103 0.000000
# 6 0.000000 0.000000 0.000000 -0.002467 0.000000 0.024572
#
#
# Mechanical properties :
#
#
# Convention : Reuss Voigt Hill
#
# Bulk Modulus (GPa) = 54.44200 55.17353 54.80776
# Shear Modulus (GPa) = 32.87625 34.06968 33.47296
#
# Velocity S-wave (km/s) = 3.96487 4.03619 4.00069
# Velocity P-wave (km/s) = 6.85509 6.93563 6.89548
#
# Compressibility (1/GPa) = 0.01836817
#
# Stress axis : x y z
#
# Youngs Moduli (GPa) = 85.58853 82.88392 68.61247
#
# Poissons Ratio (x) = 0.24213 0.28291
# Poissons Ratio (y) = 0.25003 0.20125
# Poissons Ratio (z) = 0.35290 0.24311
#
# Static dielectric constant tensor:
#      x y z
#    x 3.816640 0.000000 -0.009920 
#    y 0.000000 3.804130 0.000000 
#    z -0.009920 0.000000 3.685250 
# 
# 
# High freq. dielectric constant tensor:
#      x y z
#    x 1.824240 0.000000 0.002650 
#    y 0.000000 1.822460 0.000000 
#    z 0.002650 0.000000 1.825680 
# 
# From -- ./inp_files/49039.got.cif
#   From: 2010.03.12/outbox.cif.g09.slc.cpg/sg14_25_cif.got.tgz:49039.got - 2010.03.31 13:35:05.
