data_PCOD8129692
_publ_section_title
;
Structure prediction by ZEFSAII (Michael W. Deem and Ramdas Pophale) SiO2 
 PCOD8129692
Probable space group: C 2/C
;
_chemical_formula_sum "Si O2"
_cell_formula_units_Z 56
_cell_length_a 29.525001
_cell_length_b 25.873568
_cell_length_c 5.306384
_cell_angle_alpha 90.000000
_cell_angle_beta 108.439119
_cell_angle_gamma 90.000000
_cell_volume 3845.524968
_symmetry_space_group_name_H-M "C 2/C"
_symmetry_group_IT_number 15
_symmetry_cell_setting 'monoclinic'
loop_
_space_group_symop_operation_xyz
x,y,z
-x,y,1/2-z
-x,-y,-z
x,-y,1/2+z
1/2+x,1/2+y,z
1/2-x,1/2+y,1/2-z
1/2-x,1/2-y,-z
1/2+x,1/2-y,1/2+z
loop_
_atom_site_type_symbol
_atom_site_label
_atom_site_fract_x
_atom_site_fract_y
_atom_site_fract_z
Si Si1 0.922770 0.865890 0.052785
Si Si2 0.681423 0.775286 0.152473
Si Si3 0.141183 0.739470 0.082618
Si Si4 0.553233 0.305232 0.904977
Si Si5 0.684647 0.348204 0.627784
Si Si6 0.553076 0.479136 0.541813
Si Si7 0.217871 0.170711 0.687175
O O1 0.947111 0.841222 0.344891
O O2 0.926477 0.832182 0.808337
O O3 0.866712 0.874138 0.005484
O O4 0.948592 0.919651 0.040562
O O5 0.651707 0.793415 0.347352
O O6 0.682284 0.713566 0.154536
O O7 0.734627 0.796356 0.261763
O O8 0.655217 0.794929 0.852085
O O9 0.172617 0.791494 0.139201
O O10 0.085687 0.754911 0.010588
O O11 0.500000 0.286529 0.750000
O O12 0.718004 0.362781 0.446101
O O13 0.709575 0.367185 0.932216
O O14 0.500000 0.500000 0.500000
O O15 0.578961 0.511068 0.358209
#
# Coordination Sequence:
#
# PCOD8129692 Si02
#       7
#     8   8   8   8   8   8   8
#     4  12  21  36  48  57  76  94 116 165 203 246
#     4  10  16  25  42  58  81 101 114 139 169 215
#     4  10  16  29  35  56  80  92 126 142 165 221
#     4  12  23  31  45  60  72 100 124 154 196 238
#     4  10  16  27  40  59  78  95 117 135 178 230
#     4  10  23  37  48  60  70  85 119 164 208 255
#     4  10  16  25  41  60  82  99 114 137 169 220
#
# _framework density 14.562379999999999
#
# number of rings (size 3 to 8) (size 9 to 14) (size 15 to 20)
#    0.000    1.429    5.714    5.571    6.000    0.000 
#    0.000    0.000    0.000    0.000    0.000    0.000 
#    0.000    0.000    0.000    0.000    0.000    0.000 
#
# Total GULP energy -346891.753650 kJ/mol
# GULP energy per Si atom -12388.991202 kJ/mol
# Density = 1.452924 g / cm^3
# Si number density = 14.562380 Si / 1000 Ang^3
#
#
#
# Elastic Constant Matrix: (Units=GPa)
#
#
# Indices 1 2 3 4 5 6 
#
# 1 72.3588 21.1226 40.1268 0.0000 0.9413 0.0000
# 2 21.1226 12.6426 9.4373 0.0000 5.5892 0.0000
# 3 40.1268 9.4373 138.4382 0.0000 -23.1458 0.0000
# 4 0.0000 0.0000 0.0000 9.4942 0.0000 -3.2050
# 5 0.9413 5.5892 -23.1458 0.0000 35.6215 0.0000
# 6 0.0000 0.0000 0.0000 -3.2050 0.0000 14.4477
#
#
#
# Elastic Compliance Matrix: (Units=1/GPa)
#
#
# Indices 1 2 3 4 5 6 
#
# 1 0.031106 -0.049920 -0.004982 0.000000 0.003773 0.000000
# 2 -0.049920 0.176437 -0.002206 0.000000 -0.027798 0.000000
# 3 -0.004982 -0.002206 0.009982 0.000000 0.006964 0.000000
# 4 0.000000 0.000000 0.000000 0.113853 0.000000 0.025257
# 5 0.003773 -0.027798 0.006964 0.000000 0.036860 0.000000
# 6 0.000000 0.000000 0.000000 0.025257 0.000000 0.074818
#
#
# Mechanical properties :
#
#
# Convention : Reuss Voigt Hill
#
# Bulk Modulus (GPa) = 9.67963 40.53478 25.10721
# Shear Modulus (GPa) = 8.45011 22.09622 15.27316
#
# Velocity S-wave (km/s) = 2.41149 3.89954 3.24205
# Velocity P-wave (km/s) = 3.79673 6.94053 5.59402
#
# Compressibility (1/GPa) = 0.10330970
#
# Stress axis : x y z
#
# Youngs Moduli (GPa) = 32.14798 5.66775 100.17729
#
# Poissons Ratio (x) = 0.28293 0.49912
# Poissons Ratio (y) = 1.60481 0.22098
# Poissons Ratio (z) = 0.16017 0.01250
#
# Static dielectric constant tensor:
#      x y z
#    x 2.710140 0.000000 0.047090 
#    y 0.000000 2.213810 0.000000 
#    z 0.047090 0.000000 2.906640 
# 
# 
# High freq. dielectric constant tensor:
#      x y z
#    x 1.550730 0.000000 -0.023900 
#    y 0.000000 1.457960 0.000000 
#    z -0.023900 0.000000 1.599270 
# 
# From -- ./inp_files/16534.got.cif
#   From: 2010.06.25/outbox.cif.g09.slc.cpg/sg15_9_cif.got.tgz:16534.got - 2010.06.28 07:06:18.
