data_PCOD8129101
_publ_section_title
;
Structure prediction by ZEFSAII (Michael W. Deem and Ramdas Pophale) SiO2 
 PCOD8129101
Probable space group: P 21/C
;
_chemical_formula_sum "Si O2"
_cell_formula_units_Z 28
_cell_length_a 14.633056
_cell_length_b 8.881336
_cell_length_c 18.976152
_cell_angle_alpha 90.000000
_cell_angle_beta 33.166028
_cell_angle_gamma 90.000000
_cell_volume 1349.155463
_symmetry_space_group_name_H-M "P 21/C"
_symmetry_group_IT_number 14
_symmetry_cell_setting 'monoclinic'
loop_
_space_group_symop_operation_xyz
x,y,z
-x,1/2+y,1/2-z
-x,-y,-z
x,1/2-y,1/2+z
loop_
_atom_site_type_symbol
_atom_site_label
_atom_site_fract_x
_atom_site_fract_y
_atom_site_fract_z
Si Si1 0.944548 0.880459 0.980331
Si Si2 0.545205 0.001164 0.638849
Si Si3 0.496608 0.978773 0.084840
Si Si4 0.699539 0.316167 0.794548
Si Si5 0.858818 0.026969 0.894177
Si Si6 0.817609 0.364802 0.870753
Si Si7 0.374280 0.201650 0.280333
O O1 0.107609 0.791363 0.849845
O O2 0.865922 0.986279 0.971305
O O3 0.817586 0.756477 0.093126
O O4 0.000000 0.000000 0.000000
O O5 0.391522 0.953085 0.687032
O O6 0.580079 0.889938 0.679949
O O7 0.716519 0.021606 0.485719
O O8 0.497648 0.158433 0.704013
O O9 0.396354 0.830460 0.168791
O O10 0.409898 0.114236 0.184143
O O11 0.500000 0.000000 0.000000
O O12 0.687866 0.951832 0.980445
O O13 0.699182 0.339759 0.879058
O O14 0.857903 0.206323 0.882386
O O15 0.010309 0.949839 0.755144
#
# Coordination Sequence:
#
# PCOD8129101 Si02
#       7
#     4   4   4   4   4   4   4
#     4  11  25  45  68 100 144 180 231 287 348 413
#     4  12  24  44  71 100 140 180 237 282 351 420
#     4  12  25  46  71 101 141 176 239 291 347 420
#     4  11  24  44  69 101 138 185 233 290 344 414
#     4  11  25  46  68 102 139 181 232 288 348 410
#     4  11  26  44  71 101 137 186 232 286 354 409
#     4  12  26  43  72 104 136 190 224 289 355 413
#
# _framework density 20.753723000000001
#
# number of rings (size 3 to 8) (size 9 to 14) (size 15 to 20)
#    0.000    0.571    4.286    3.000    6.000    2.857 
#    0.000    0.000    0.000    0.000    0.000    0.000 
#    0.000    0.000    0.000    0.000    0.000    0.000 
#
# Total GULP energy -347228.911175 kJ/mol
# GULP energy per Si atom -12401.032542 kJ/mol
# Density = 2.070649 g / cm^3
# Si number density = 20.753723 Si / 1000 Ang^3
#
#
#
# Elastic Constant Matrix: (Units=GPa)
#
#
# Indices 1 2 3 4 5 6 
#
# 1 154.4471 71.0546 76.1025 0.0000 -0.2755 0.0000
# 2 71.0546 119.7686 57.2549 0.0000 5.9054 0.0000
# 3 76.1025 57.2549 141.9260 0.0000 -0.8515 0.0000
# 4 0.0000 0.0000 0.0000 39.3420 0.0000 -5.7699
# 5 -0.2755 5.9054 -0.8515 0.0000 29.5019 0.0000
# 6 0.0000 0.0000 0.0000 -5.7699 0.0000 32.2304
#
#
#
# Elastic Compliance Matrix: (Units=1/GPa)
#
#
# Indices 1 2 3 4 5 6 
#
# 1 0.010353 -0.004377 -0.003780 0.000000 0.000864 0.000000
# 2 -0.004377 0.012339 -0.002646 0.000000 -0.002587 0.000000
# 3 -0.003780 -0.002646 0.010145 0.000000 0.000787 0.000000
# 4 0.000000 0.000000 0.000000 0.026103 0.000000 0.004673
# 5 0.000864 -0.002587 0.000787 0.000000 0.034445 0.000000
# 6 0.000000 0.000000 0.000000 0.004673 0.000000 0.031863
#
#
# Mechanical properties :
#
#
# Convention : Reuss Voigt Hill
#
# Bulk Modulus (GPa) = 89.05091 91.66287 90.35689
# Shear Modulus (GPa) = 33.20087 34.33017 33.76552
#
# Velocity S-wave (km/s) = 4.00403 4.07156 4.03794
# Velocity P-wave (km/s) = 8.02359 8.14655 8.08530
#
# Compressibility (1/GPa) = 0.01122953
#
# Stress axis : x y z
#
# Youngs Moduli (GPa) = 96.59238 81.04468 98.57018
#
# Poissons Ratio (x) = 0.35477 0.37261
# Poissons Ratio (y) = 0.42283 0.26081
# Poissons Ratio (z) = 0.36514 0.21444
#
# Static dielectric constant tensor:
#      x y z
#    x 3.847030 0.000000 0.114650 
#    y 0.000000 2.237080 0.000000 
#    z 0.114650 0.000000 4.232340 
# 
# 
# High freq. dielectric constant tensor:
#      x y z
#    x 1.822690 0.000000 0.002880 
#    y 0.000000 1.817000 0.000000 
#    z 0.002880 0.000000 1.835130 
# 
# From -- ./inp_files/68159.got.cif
#   From: 2010.03.12/outbox.cif.g09.slc.cpg/sg14_35_cif.got.tgz:68159.got - 2010.03.31 13:35:05.
