data_PCOD8129961
_publ_section_title
;
Structure prediction by ZEFSAII (Michael W. Deem and Ramdas Pophale) SiO2 
 PCOD8129961
Probable space group: C 2/C
;
_chemical_formula_sum "Si O2"
_cell_formula_units_Z 32
_cell_length_a 9.197219
_cell_length_b 15.359390
_cell_length_c 26.515888
_cell_angle_alpha 90.000000
_cell_angle_beta 26.990462
_cell_angle_gamma 90.000000
_cell_volume 1699.971016
_symmetry_space_group_name_H-M "C 2/C"
_symmetry_group_IT_number 15
_symmetry_cell_setting 'monoclinic'
loop_
_space_group_symop_operation_xyz
x,y,z
-x,y,1/2-z
-x,-y,-z
x,-y,1/2+z
1/2+x,1/2+y,z
1/2-x,1/2+y,1/2-z
1/2-x,1/2-y,-z
1/2+x,1/2-y,1/2+z
loop_
_atom_site_type_symbol
_atom_site_label
_atom_site_fract_x
_atom_site_fract_y
_atom_site_fract_z
Si Si1 0.910831 0.090896 0.502354
Si Si2 0.828641 0.633179 0.749420
Si Si3 0.659764 0.451975 0.825718
Si Si4 0.013606 0.702732 0.304902
O O1 0.582652 0.128565 0.625516
O O2 0.877558 0.070374 0.452698
O O3 0.178373 0.164791 0.428911
O O4 0.000000 0.000000 0.500000
O O5 0.608686 0.545610 0.815574
O O6 0.592737 0.713468 0.813723
O O7 0.000000 0.644713 0.750000
O O8 0.707241 0.371159 0.772472
O O9 0.000000 0.456600 0.750000
O O10 0.000000 0.728610 0.250000
#
# Coordination Sequence:
#
# PCOD8129961 Si02
#       4
#     8   8   8   8
#     4  10  16  34  57  73 101 145 174 207 253 313
#     4  11  19  32  56  81 103 133 177 222 251 298
#     4   8  16  31  50  72 100 137 175 197 247 317
#     4   9  20  34  52  80 106 134 177 209 255 319
#
# _framework density 18.823848999999999
#
# number of rings (size 3 to 8) (size 9 to 14) (size 15 to 20)
#    0.000    3.000    7.500    0.000    0.000    5.000 
#    0.000    1.250    0.000    3.000    0.000    0.000 
#    0.000    0.000    0.000    0.000    0.000    0.000 
#
# Total GULP energy -198271.123044 kJ/mol
# GULP energy per Si atom -12391.945190 kJ/mol
# Density = 1.878101 g / cm^3
# Si number density = 18.823849 Si / 1000 Ang^3
#
#
#
# Elastic Constant Matrix: (Units=GPa)
#
#
# Indices 1 2 3 4 5 6 
#
# 1 24.0045 32.0124 8.1819 0.0613 8.4688 1.5908
# 2 32.0124 157.4531 37.3636 0.8780 4.9448 0.3700
# 3 8.1819 37.3636 120.5073 0.8368 21.0443 2.2507
# 4 0.0613 0.8780 0.8368 26.2333 -0.1696 0.6802
# 5 8.4688 4.9448 21.0443 -0.1696 12.1527 -1.5771
# 6 1.5908 0.3700 2.2507 0.6802 -1.5771 32.6935
#
#
#
# Elastic Compliance Matrix: (Units=1/GPa)
#
#
# Indices 1 2 3 4 5 6 
#
# 1 0.092860 -0.019682 0.014459 -0.000315 -0.082951 -0.009286
# 2 -0.019682 0.011042 -0.005426 -0.000083 0.018892 0.002119
# 3 0.014459 -0.005426 0.015073 -0.000469 -0.034409 -0.003330
# 4 -0.000315 -0.000083 -0.000469 0.038165 0.001511 -0.000673
# 5 -0.082951 0.018892 -0.034409 0.001511 0.194025 0.015519
# 6 -0.009286 0.002119 -0.003330 -0.000673 0.015519 0.032007
#
#
# Mechanical properties :
#
#
# Convention : Reuss Voigt Hill
#
# Bulk Modulus (GPa) = 10.23767 50.78674 30.51220
# Shear Modulus (GPa) = 11.44088 29.17637 20.30862
#
# Velocity S-wave (km/s) = 2.46801 3.94123 3.28819
# Velocity P-wave (km/s) = 3.68400 6.91011 5.53722
#
# Compressibility (1/GPa) = 0.09767852
#
# Stress axis : x y z
#
# Youngs Moduli (GPa) = 10.76885 90.55959 66.34376
#
# Poissons Ratio (x) = 1.78243 -0.95928
# Poissons Ratio (y) = 0.21196 0.35995
# Poissons Ratio (z) = -0.15571 0.49133
#
# Static dielectric constant tensor:
#      x y z
#    x 2.842140 -0.000250 0.412270 
#    y -0.000250 4.039890 -0.000620 
#    z 0.412270 -0.000620 3.889030 
# 
# 
# High freq. dielectric constant tensor:
#      x y z
#    x 1.655400 0.000000 0.030130 
#    y 0.000000 1.755250 0.000010 
#    z 0.030130 0.000010 1.733580 
# 
# From -- ./inp_files/84705.got.cif
#   From: 2010.06.25/outbox.cif.g09.slc.cpg/sg15_43_cif.got.tgz:84705.got - 2010.06.28 07:06:18.
