data_PCOD8129143
_publ_section_title
;
Structure prediction by ZEFSAII (Michael W. Deem and Ramdas Pophale) SiO2 
 PCOD8129143
Probable space group: P 21/C
;
_chemical_formula_sum "Si O2"
_cell_formula_units_Z 20
_cell_length_a 20.699742
_cell_length_b 4.952171
_cell_length_c 14.448595
_cell_angle_alpha 90.000000
_cell_angle_beta 28.128408
_cell_angle_gamma 90.000000
_cell_volume 698.266296
_symmetry_space_group_name_H-M "P 21/C"
_symmetry_group_IT_number 14
_symmetry_cell_setting 'monoclinic'
loop_
_space_group_symop_operation_xyz
x,y,z
-x,1/2+y,1/2-z
-x,-y,-z
x,1/2-y,1/2+z
loop_
_atom_site_type_symbol
_atom_site_label
_atom_site_fract_x
_atom_site_fract_y
_atom_site_fract_z
Si Si1 0.821464 0.035156 0.535943
Si Si2 0.905860 0.753404 0.252136
Si Si3 0.274813 0.167024 0.691184
Si Si4 0.563505 0.323963 0.570615
Si Si5 0.668059 0.436770 0.628945
O O1 0.888227 0.988132 0.350729
O O2 0.778119 0.753630 0.640165
O O3 0.690010 0.233332 0.687530
O O4 0.934036 0.179056 0.459363
O O5 0.852484 0.835461 0.218528
O O6 0.816728 0.500056 0.398994
O O7 0.400234 0.368968 0.503440
O O8 0.333962 0.866002 0.617819
O O9 0.582479 0.279113 0.657298
O O10 0.408733 0.218184 0.744067
#
# Coordination Sequence:
#
# PCOD8129143 Si02
#       5
#     4   4   4   4   4
#     4  12  25  44  74 105 143 195 242 300 355 437
#     4  11  24  47  68 108 143 194 240 295 364 428
#     4  11  27  46  73 107 148 186 242 300 360 423
#     4  11  25  46  71 106 141 194 237 298 359 422
#     4  11  24  45  74 100 147 193 241 292 365 427
#
# _framework density 28.642368999999999
#
# number of rings (size 3 to 8) (size 9 to 14) (size 15 to 20)
#    0.000    0.800    4.000    3.000    5.600    1.600 
#    0.000    4.000    0.000    0.000    0.000    0.000 
#    0.000    0.000    0.000    0.000    0.000    0.000 
#
# Total GULP energy -248065.289528 kJ/mol
# GULP energy per Si atom -12403.264476 kJ/mol
# Density = 2.857718 g / cm^3
# Si number density = 28.642369 Si / 1000 Ang^3
#
#
#
# Elastic Constant Matrix: (Units=GPa)
#
#
# Indices 1 2 3 4 5 6 
#
# 1 108.4980 0.2548 16.3815 0.0000 -4.9387 0.0000
# 2 0.2548 60.9685 -21.8734 0.0000 -8.9666 0.0000
# 3 16.3815 -21.8734 62.5499 0.0000 -8.1092 0.0000
# 4 0.0000 0.0000 0.0000 39.0759 0.0000 3.1270
# 5 -4.9387 -8.9666 -8.1092 0.0000 36.2503 0.0000
# 6 0.0000 0.0000 0.0000 3.1270 0.0000 41.7523
#
#
#
# Elastic Compliance Matrix: (Units=1/GPa)
#
#
# Indices 1 2 3 4 5 6 
#
# 1 0.009665 -0.000987 -0.002819 0.000000 0.000442 0.000000
# 2 -0.000987 0.020359 0.008253 0.000000 0.006748 0.000000
# 3 -0.002819 0.008253 0.020418 0.000000 0.006225 0.000000
# 4 0.000000 0.000000 0.000000 0.025746 0.000000 -0.001928
# 5 0.000442 0.006748 0.006225 0.000000 0.030708 0.000000
# 6 0.000000 0.000000 0.000000 -0.001928 0.000000 0.024095
#
#
# Mechanical properties :
#
#
# Convention : Reuss Voigt Hill
#
# Bulk Modulus (GPa) = 16.85302 24.61582 20.73442
# Shear Modulus (GPa) = 35.24216 39.23260 37.23738
#
# Velocity S-wave (km/s) = 3.51154 3.70501 3.60957
# Velocity P-wave (km/s) = 4.72630 5.18803 4.96254
#
# Compressibility (1/GPa) = 0.05933656
#
# Stress axis : x y z
#
# Youngs Moduli (GPa) = 103.46820 49.11794 48.97538
#
# Poissons Ratio (x) = 0.04846 0.13806
# Poissons Ratio (y) = 0.10209 -0.40418
# Poissons Ratio (z) = 0.29167 -0.40535
#
# Static dielectric constant tensor:
#      x y z
#    x 5.410370 0.000000 -0.187090 
#    y 0.000000 4.941680 0.000000 
#    z -0.187090 0.000000 4.807890 
# 
# 
# High freq. dielectric constant tensor:
#      x y z
#    x 2.177270 0.000000 -0.009960 
#    y 0.000000 2.161560 0.000000 
#    z -0.009960 0.000000 2.147560 
# 
# From -- ./inp_files/49562.got.cif
#   From: 2010.03.12/outbox.cif.g09.slc.cpg/sg14_25_cif.got.tgz:49562.got - 2010.03.31 13:35:05.
