data_PCOD8129719
_publ_section_title
;
Structure prediction by ZEFSAII (Michael W. Deem and Ramdas Pophale) SiO2 
 PCOD8129719
Probable space group: C 2/C
;
_chemical_formula_sum "Si O2"
_cell_formula_units_Z 64
_cell_length_a 11.455211
_cell_length_b 31.754449
_cell_length_c 10.435778
_cell_angle_alpha 90.000000
_cell_angle_beta 68.164762
_cell_angle_gamma 90.000000
_cell_volume 3523.715668
_symmetry_space_group_name_H-M "C 2/C"
_symmetry_group_IT_number 15
_symmetry_cell_setting 'monoclinic'
loop_
_space_group_symop_operation_xyz
x,y,z
-x,y,1/2-z
-x,-y,-z
x,-y,1/2+z
1/2+x,1/2+y,z
1/2-x,1/2+y,1/2-z
1/2-x,1/2-y,-z
1/2+x,1/2-y,1/2+z
loop_
_atom_site_type_symbol
_atom_site_label
_atom_site_fract_x
_atom_site_fract_y
_atom_site_fract_z
Si Si1 0.151327 0.525453 0.173740
Si Si2 0.349352 0.308698 0.481045
Si Si3 0.861754 0.260293 0.783753
Si Si4 0.693704 0.115932 0.100029
Si Si5 0.837988 0.295411 0.518082
Si Si6 0.621931 0.028656 0.460493
Si Si7 0.433063 0.121885 0.081002
Si Si8 0.060288 0.214029 0.094650
O O1 0.220022 0.565895 0.084074
O O2 0.202650 0.518456 0.298189
O O3 0.000000 0.535670 0.250000
O O4 0.186381 0.485846 0.068218
O O5 0.229543 0.287349 0.592805
O O6 0.361687 0.288846 0.332706
O O7 0.316579 0.358722 0.498115
O O8 0.476754 0.299047 0.506625
O O9 0.821571 0.266978 0.654115
O O10 0.000000 0.279790 0.750000
O O11 0.578158 0.125995 0.055205
O O12 0.659226 0.127870 0.260280
O O13 0.906252 0.339850 0.497118
O O14 0.924468 0.264823 0.396313
O O15 0.699767 0.305013 0.518476
O O16 0.592304 0.078045 0.481922
O O17 0.500000 0.000000 0.500000
O O18 0.000000 0.196116 0.250000
#
# Coordination Sequence:
#
# PCOD8129719 Si02
#       8
#     8   8   8   8   8   8   8   8
#     4   9  15  27  47  70 103 138 160 200 261 316
#     4  11  22  30  54  77  96 133 179 221 249 306
#     4  11  20  34  51  74  98 130 173 217 262 287
#     4  10  16  27  46  76  99 120 170 211 241 297
#     4  11  22  34  54  67 101 141 171 216 261 299
#     4   9  15  28  45  70 101 133 162 198 262 318
#     4  10  17  28  48  73  98 131 167 206 250 304
#     4  11  22  37  47  69 101 138 176 210 261 306
#
# _framework density 18.162647
#
# number of rings (size 3 to 8) (size 9 to 14) (size 15 to 20)
#    0.000    1.750    7.500    0.750    1.750    0.000 
#    0.000    1.875    5.500    0.000    0.000    0.875 
#    0.000    1.000    0.000    0.000    0.000    0.000 
#
# Total GULP energy -396457.970843 kJ/mol
# GULP energy per Si atom -12389.311589 kJ/mol
# Density = 1.812131 g / cm^3
# Si number density = 18.162647 Si / 1000 Ang^3
#
#
#
# Elastic Constant Matrix: (Units=GPa)
#
#
# Indices 1 2 3 4 5 6 
#
# 1 82.4346 36.6200 18.3517 0.0000 -0.7505 0.0000
# 2 36.6200 115.2043 24.6280 0.0000 5.6793 0.0000
# 3 18.3517 24.6280 44.2054 0.0000 6.4458 0.0000
# 4 0.0000 0.0000 0.0000 26.6271 0.0000 3.0674
# 5 -0.7505 5.6793 6.4458 0.0000 15.8415 0.0000
# 6 0.0000 0.0000 0.0000 3.0674 0.0000 18.9424
#
#
#
# Elastic Compliance Matrix: (Units=1/GPa)
#
#
# Indices 1 2 3 4 5 6 
#
# 1 0.014950 -0.003971 -0.004577 0.000000 0.003994 0.000000
# 2 -0.003971 0.010937 -0.004088 0.000000 -0.002446 0.000000
# 3 -0.004577 -0.004088 0.028296 0.000000 -0.010265 0.000000
# 4 0.000000 0.000000 0.000000 0.038270 0.000000 -0.006197
# 5 0.003994 -0.002446 -0.010265 0.000000 0.068368 0.000000
# 6 0.000000 0.000000 0.000000 -0.006197 0.000000 0.053795
#
#
# Mechanical properties :
#
#
# Convention : Reuss Voigt Hill
#
# Bulk Modulus (GPa) = 34.58790 44.56039 39.57414
# Shear Modulus (GPa) = 20.03818 23.09852 21.56835
#
# Velocity S-wave (km/s) = 3.32514 3.57004 3.44977
# Velocity P-wave (km/s) = 5.81609 6.44833 6.14035
#
# Compressibility (1/GPa) = 0.02891185
#
# Stress axis : x y z
#
# Youngs Moduli (GPa) = 66.88991 91.43349 35.34063
#
# Poissons Ratio (x) = 0.36305 0.16174
# Poissons Ratio (y) = 0.26560 0.14448
# Poissons Ratio (z) = 0.30613 0.37380
#
# Static dielectric constant tensor:
#      x y z
#    x 3.224130 0.000000 0.249540 
#    y 0.000000 3.491320 0.000000 
#    z 0.249540 0.000000 3.677190 
# 
# 
# High freq. dielectric constant tensor:
#      x y z
#    x 1.671150 0.000000 0.016780 
#    y 0.000000 1.693700 0.000000 
#    z 0.016780 0.000000 1.688450 
# 
# From -- ./inp_files/92445.got.cif
#   From: 2010.06.25/outbox.cif.g09.slc.cpg/sg15_47_cif.got.tgz:92445.got - 2010.06.28 07:06:18.
