data_PCOD8129366
_publ_section_title
;
Structure prediction by ZEFSAII (Michael W. Deem and Ramdas Pophale) SiO2 
 PCOD8129366
Probable space group: P 21/C
;
_chemical_formula_sum "Si O2"
_cell_formula_units_Z 32
_cell_length_a 16.612133
_cell_length_b 19.228565
_cell_length_c 15.759342
_cell_angle_alpha 90.000000
_cell_angle_beta 17.919268
_cell_angle_gamma 90.000000
_cell_volume 1548.833878
_symmetry_space_group_name_H-M "P 21/C"
_symmetry_group_IT_number 14
_symmetry_cell_setting 'monoclinic'
loop_
_space_group_symop_operation_xyz
x,y,z
-x,1/2+y,1/2-z
-x,-y,-z
x,1/2-y,1/2+z
loop_
_atom_site_type_symbol
_atom_site_label
_atom_site_fract_x
_atom_site_fract_y
_atom_site_fract_z
Si Si1 0.993471 0.049482 0.426240
Si Si2 0.542198 0.082330 0.288479
Si Si3 0.045204 0.437978 0.390824
Si Si4 0.964903 0.709478 0.093437
Si Si5 0.973805 0.821084 0.955530
Si Si6 0.539760 0.255212 0.801346
Si Si7 0.476058 0.656621 0.839219
Si Si8 0.497468 0.473401 0.307860
O O1 0.743518 0.031166 0.621730
O O2 0.980176 0.128217 0.472317
O O3 0.000000 0.000000 0.500000
O O4 0.243824 0.039010 0.117592
O O5 0.326698 0.049579 0.566859
O O6 0.492334 0.164076 0.331897
O O7 0.513309 0.049408 0.223944
O O8 0.827615 0.062503 0.036141
O O9 0.036320 0.365546 0.448764
O O10 0.000000 0.500000 0.500000
O O11 0.985259 0.741854 0.978182
O O12 0.676749 0.722953 0.419482
O O13 0.175779 0.743365 0.944644
O O14 0.722071 0.835164 0.152544
O O15 0.221928 0.840956 0.651802
O O16 0.526517 0.219263 0.723782
O O17 0.486230 0.582967 0.783032
#
# Coordination Sequence:
#
# PCOD8129366 Si02
#       8
#     4   4   4   4   4   4   4   4
#     4  12  26  46  74  99 133 185 233 280 342 393
#     4  12  24  42  68  98 134 178 220 271 337 403
#     4  12  23  41  63  97 139 177 213 271 333 401
#     4  12  23  46  68  95 137 179 222 279 340 401
#     4  12  24  39  67  99 132 168 230 271 325 406
#     4  12  23  44  69  93 135 185 217 270 345 402
#     4  12  24  41  66 100 130 178 220 273 336 398
#     4  12  25  45  69 101 140 177 227 281 335 412
#
# _framework density 20.660705
#
# number of rings (size 3 to 8) (size 9 to 14) (size 15 to 20)
#    0.000    0.000    5.000    6.000    0.000    2.000 
#    0.000    0.000    0.000    0.000    0.000    0.000 
#    0.000    0.000    0.000    0.000    0.000    0.000 
#
# Total GULP energy -397060.351864 kJ/mol
# GULP energy per Si atom -12408.135996 kJ/mol
# Density = 2.061368 g / cm^3
# Si number density = 20.660705 Si / 1000 Ang^3
#
#
#
# Elastic Constant Matrix: (Units=GPa)
#
#
# Indices 1 2 3 4 5 6 
#
# 1 106.4270 119.6232 81.5063 0.0000 26.1750 0.0000
# 2 119.6232 15.6089 -25.1617 0.0000 -84.5793 0.0000
# 3 81.5063 -25.1617 121.7827 0.0000 -35.0394 0.0000
# 4 0.0000 0.0000 0.0000 28.0693 0.0000 6.5733
# 5 26.1750 -84.5793 -35.0394 0.0000 -9.6955 0.0000
# 6 0.0000 0.0000 0.0000 6.5733 0.0000 60.3883
#
#
#
# Elastic Compliance Matrix: (Units=1/GPa)
#
#
# Indices 1 2 3 4 5 6 
#
# 1 0.006402 0.001377 -0.001218 0.000000 0.009671 0.000000
# 2 0.001377 0.002586 -0.002848 0.000000 -0.008551 0.000000
# 3 -0.001218 -0.002848 0.007177 0.000000 -0.004383 0.000000
# 4 0.000000 0.000000 0.000000 0.036558 0.000000 -0.003979
# 5 0.009671 -0.008551 -0.004383 0.000000 0.013404 0.000000
# 6 0.000000 0.000000 0.000000 -0.003979 0.000000 0.016993
#
#
# Mechanical properties :
#
#
# Convention : Reuss Voigt Hill
#
# Bulk Modulus (GPa) = 92.68864 66.19491 79.44178
# Shear Modulus (GPa) = 54.29303 20.27578 37.28440
#
# Velocity S-wave (km/s) = 5.13181 3.13608 4.25267
# Velocity P-wave (km/s) = 8.94839 6.72472 7.91503
#
# Compressibility (1/GPa) = 0.01078881
#
# Stress axis : x y z
#
# Youngs Moduli (GPa) = 156.19617 386.67502 139.33548
#
# Poissons Ratio (x) = -0.53250 0.16967
# Poissons Ratio (y) = -0.21510 0.39678
# Poissons Ratio (z) = 0.19020 1.10113
#
# Static dielectric constant tensor:
#      x y z
#    x 3.863380 0.000000 -0.005260 
#    y 0.000000 3.678770 0.000000 
#    z -0.005260 0.000000 3.972060 
# 
# 
# High freq. dielectric constant tensor:
#      x y z
#    x 1.815710 0.000000 -0.005510 
#    y 0.000000 1.821900 0.000000 
#    z -0.005510 0.000000 1.830770 
# 
# From -- ./inp_files/47603.got.cif
#   From: 2010.03.12/outbox.cif.g09.slc.cpg/sg14_24_cif.got.tgz:47603.got - 2010.03.31 13:35:05.
