data_PCOD8129424
_publ_section_title
;
Structure prediction by ZEFSAII (Michael W. Deem and Ramdas Pophale) SiO2 
 PCOD8129424
Probable space group: P 21/C
;
_chemical_formula_sum "Si O2"
_cell_formula_units_Z 16
_cell_length_a 18.342490
_cell_length_b 4.755892
_cell_length_c 8.402560
_cell_angle_alpha 90.000000
_cell_angle_beta 117.431284
_cell_angle_gamma 90.000000
_cell_volume 650.581285
_symmetry_space_group_name_H-M "P 21/C"
_symmetry_group_IT_number 14
_symmetry_cell_setting 'monoclinic'
loop_
_space_group_symop_operation_xyz
x,y,z
-x,1/2+y,1/2-z
-x,-y,-z
x,1/2-y,1/2+z
loop_
_atom_site_type_symbol
_atom_site_label
_atom_site_fract_x
_atom_site_fract_y
_atom_site_fract_z
Si Si1 0.714468 0.640761 0.577906
Si Si2 0.032602 0.866899 0.371957
Si Si3 0.469409 0.356375 0.129119
Si Si4 0.222214 0.627512 0.038771
O O1 0.621640 0.741858 0.478889
O O2 0.772999 0.909246 0.604015
O O3 0.733709 0.512857 0.767567
O O4 0.729697 0.411752 0.455325
O O5 0.984761 0.577060 0.292193
O O6 0.128525 0.799491 0.483138
O O7 0.000000 0.000000 0.500000
O O8 0.471743 0.592825 0.269993
O O9 0.500000 0.500000 0.000000
#
# Coordination Sequence:
#
# PCOD8129424 Si02
#       4
#     4   4   4   4
#     4  12  27  47  73 104 143 190 238 295 361 430
#     4  12  25  44  71 105 142 189 242 298 357 426
#     4  12  27  50  77 109 145 189 240 296 357 429
#     4  12  25  47  71 104 145 190 239 297 361 427
#
# _framework density 24.593388000000001
#
# number of rings (size 3 to 8) (size 9 to 14) (size 15 to 20)
#    0.000    0.000    0.000   10.500    0.000    4.000 
#    0.000    2.500    0.000    0.000    0.000    0.000 
#    0.000    0.000    0.000    0.000    0.000    0.000 
#
# Total GULP energy -198543.297496 kJ/mol
# GULP energy per Si atom -12408.956093 kJ/mol
# Density = 2.453741 g / cm^3
# Si number density = 24.593388 Si / 1000 Ang^3
#
#
#
# Elastic Constant Matrix: (Units=GPa)
#
#
# Indices 1 2 3 4 5 6 
#
# 1 174.0828 63.3650 64.6840 0.0000 18.0030 0.0000
# 2 63.3650 131.0113 37.3045 0.0000 28.4562 0.0000
# 3 64.6840 37.3045 106.4877 0.0000 25.8752 0.0000
# 4 0.0000 0.0000 0.0000 39.6893 0.0000 -7.3988
# 5 18.0030 28.4562 25.8752 0.0000 31.4162 0.0000
# 6 0.0000 0.0000 0.0000 -7.3988 0.0000 58.3025
#
#
#
# Elastic Compliance Matrix: (Units=1/GPa)
#
#
# Indices 1 2 3 4 5 6 
#
# 1 0.008343 -0.003155 -0.004370 0.000000 0.001676 0.000000
# 2 -0.003155 0.010904 0.000071 0.000000 -0.008127 0.000000
# 3 -0.004370 0.000071 0.014287 0.000000 -0.009327 0.000000
# 4 0.000000 0.000000 0.000000 0.025806 0.000000 0.003275
# 5 0.001676 -0.008127 -0.009327 0.000000 0.045914 0.000000
# 6 0.000000 0.000000 0.000000 0.003275 0.000000 0.017568
#
#
# Mechanical properties :
#
#
# Convention : Reuss Voigt Hill
#
# Bulk Modulus (GPa) = 53.68605 82.47656 68.08131
# Shear Modulus (GPa) = 34.73736 42.29682 38.51709
#
# Velocity S-wave (km/s) = 3.76236 4.15160 3.96176
# Velocity P-wave (km/s) = 6.38362 7.52263 6.97641
#
# Compressibility (1/GPa) = 0.01862681
#
# Stress axis : x y z
#
# Youngs Moduli (GPa) = 119.85809 91.71106 69.99596
#
# Poissons Ratio (x) = 0.28935 0.30587
# Poissons Ratio (y) = 0.37815 -0.00500
# Poissons Ratio (z) = 0.52377 -0.00656
#
# Static dielectric constant tensor:
#      x y z
#    x 3.021780 0.000000 -0.211380 
#    y 0.000000 5.262380 0.000000 
#    z -0.211380 0.000000 4.628600 
# 
# 
# High freq. dielectric constant tensor:
#      x y z
#    x 1.985610 0.000000 -0.004600 
#    y 0.000000 2.007630 0.000000 
#    z -0.004600 0.000000 1.987450 
# 
# From -- ./inp_files/17178.got.cif
#   From: 2010.03.12/outbox.cif.g09.slc.cpg/sg14_9_cif.got.tgz:17178.got - 2010.03.31 13:35:05.
