data_PCOD8129724
_publ_section_title
;
Structure prediction by ZEFSAII (Michael W. Deem and Ramdas Pophale) SiO2 
 PCOD8129724
Probable space group: C 2/C
;
_chemical_formula_sum "Si O2"
_cell_formula_units_Z 64
_cell_length_a 10.129758
_cell_length_b 21.421011
_cell_length_c 22.248846
_cell_angle_alpha 90.000000
_cell_angle_beta 49.855472
_cell_angle_gamma 90.000000
_cell_volume 3690.446355
_symmetry_space_group_name_H-M "C 2/C"
_symmetry_group_IT_number 15
_symmetry_cell_setting 'monoclinic'
loop_
_space_group_symop_operation_xyz
x,y,z
-x,y,1/2-z
-x,-y,-z
x,-y,1/2+z
1/2+x,1/2+y,z
1/2-x,1/2+y,1/2-z
1/2-x,1/2-y,-z
1/2+x,1/2-y,1/2+z
loop_
_atom_site_type_symbol
_atom_site_label
_atom_site_fract_x
_atom_site_fract_y
_atom_site_fract_z
Si Si1 0.193964 0.304307 0.189022
Si Si2 0.621222 0.562087 0.582252
Si Si3 0.462449 0.364549 0.024149
Si Si4 0.991102 0.253813 0.056584
Si Si5 0.286914 0.420787 0.960883
Si Si6 0.635142 0.370377 0.258183
Si Si7 0.827891 0.799062 0.892304
Si Si8 0.107597 0.388173 0.412610
O O1 0.292048 0.344298 0.110177
O O2 0.291419 0.312705 0.223798
O O3 0.187720 0.231041 0.169776
O O4 0.000000 0.330969 0.250000
O O5 0.589466 0.591709 0.525645
O O6 0.644285 0.488381 0.575255
O O7 0.459773 0.578779 0.672170
O O8 0.801810 0.588304 0.553545
O O9 0.566873 0.302736 0.970733
O O10 0.395138 0.401617 0.986984
O O11 0.864992 0.312847 0.092939
O O12 0.006362 0.229719 0.121276
O O13 0.169883 0.282177 0.981351
O O14 0.333229 0.374768 0.890824
O O15 0.082631 0.417481 0.035117
O O16 0.500000 0.341579 0.250000
O O17 0.787909 0.407653 0.178483
#
# Coordination Sequence:
#
# PCOD8129724 Si02
#       8
#     8   8   8   8   8   8   8   8
#     4  10  16  27  48  72  93 117 157 196 234 280
#     4  10  20  31  46  71  99 127 157 187 231 282
#     4   9  18  30  47  72  97 121 153 196 236 275
#     4   8  14  27  46  68  92 114 145 192 235 264
#     4  10  18  32  50  68  95 127 160 191 226 275
#     4   9  19  32  45  66  97 125 151 192 240 281
#     4   8  15  26  44  70  93 114 147 192 230 263
#     4  10  18  31  50  67  89 124 160 196 233 275
#
# _framework density 17.342075000000001
#
# number of rings (size 3 to 8) (size 9 to 14) (size 15 to 20)
#    0.000    2.750    0.000    4.500    0.000    0.500 
#    0.000    3.125    0.000    0.000    0.000    3.500 
#    0.000    9.000    0.000    0.000    0.000    0.000 
#
# Total GULP energy -396453.973242 kJ/mol
# GULP energy per Si atom -12389.186664 kJ/mol
# Density = 1.730260 g / cm^3
# Si number density = 17.342075 Si / 1000 Ang^3
#
#
#
# Elastic Constant Matrix: (Units=GPa)
#
#
# Indices 1 2 3 4 5 6 
#
# 1 105.3481 63.8079 31.7133 -0.0001 17.9999 0.0002
# 2 63.8079 132.8926 27.1655 0.0000 6.4124 0.0000
# 3 31.7133 27.1655 47.9837 -0.0001 3.5753 0.0001
# 4 -0.0001 0.0000 -0.0001 11.8563 0.0002 0.9389
# 5 17.9999 6.4124 3.5753 0.0002 16.4607 -0.0001
# 6 0.0002 0.0000 0.0001 0.9389 -0.0001 24.7431
#
#
#
# Elastic Compliance Matrix: (Units=1/GPa)
#
#
# Indices 1 2 3 4 5 6 
#
# 1 0.018382 -0.006576 -0.007236 0.000000 -0.015967 0.000000
# 2 -0.006576 0.010949 -0.002105 0.000000 0.003383 0.000000
# 3 -0.007236 -0.002105 0.026594 0.000000 0.002956 0.000000
# 4 0.000000 0.000000 0.000000 0.084598 -0.000001 -0.003210
# 5 -0.015967 0.003383 0.002956 -0.000001 0.076251 0.000000
# 6 0.000000 0.000000 0.000000 -0.003210 0.000000 0.040537
#
#
# Mechanical properties :
#
#
# Convention : Reuss Voigt Hill
#
# Bulk Modulus (GPa) = 41.50846 59.06640 50.28743
# Shear Modulus (GPa) = 16.82502 21.51452 19.16977
#
# Velocity S-wave (km/s) = 3.11816 3.52603 3.32835
# Velocity P-wave (km/s) = 6.07873 7.12115 6.62049
#
# Compressibility (1/GPa) = 0.02409148
#
# Stress axis : x y z
#
# Youngs Moduli (GPa) = 54.40072 91.32841 37.60231
#
# Poissons Ratio (x) = 0.60062 0.27210
# Poissons Ratio (y) = 0.35776 0.07914
# Poissons Ratio (z) = 0.39365 0.19220
#
# Static dielectric constant tensor:
#      x y z
#    x 3.310960 0.000000 0.076930 
#    y 0.000000 3.330930 0.000000 
#    z 0.076930 0.000000 3.187310 
# 
# 
# High freq. dielectric constant tensor:
#      x y z
#    x 1.668430 0.000000 0.007450 
#    y 0.000000 1.653430 0.000000 
#    z 0.007450 0.000000 1.655980 
# 
# From -- ./inp_files/266094.got.cif
#   From: 2010.06.25/outbox.cif.g09.slc.cpg/sg15_134_cif.got.tgz:266094.got - 2010.06.28 07:06:18.
