data_PCOD8129537
_publ_section_title
;
Structure prediction by ZEFSAII (Michael W. Deem and Ramdas Pophale) SiO2 
 PCOD8129537
Probable space group: C 2/C
;
_chemical_formula_sum "Si O2"
_cell_formula_units_Z 28
_cell_length_a 24.000000
_cell_length_b 15.000000
_cell_length_c 24.000000
_cell_angle_alpha 90.000000
_cell_angle_beta 20.000000
_cell_angle_gamma 90.000000
_cell_volume 2955.054038
_symmetry_space_group_name_H-M "C 2/C"
_symmetry_group_IT_number 15
_symmetry_cell_setting 'monoclinic'
loop_
_space_group_symop_operation_xyz
x,y,z
-x,y,1/2-z
-x,-y,-z
x,-y,1/2+z
1/2+x,1/2+y,z
1/2-x,1/2+y,1/2-z
1/2-x,1/2-y,-z
1/2+x,1/2-y,1/2+z
loop_
_atom_site_type_symbol
_atom_site_label
_atom_site_fract_x
_atom_site_fract_y
_atom_site_fract_z
Si Si1 0.975625 0.378471 0.831336
Si Si2 0.974311 0.473023 0.601782
Si Si3 0.536457 0.310381 0.927416
Si Si4 0.781634 0.224107 0.875112
Si Si5 0.515385 0.345280 0.072695
Si Si6 0.881983 0.022134 0.559457
Si Si7 0.099372 0.366616 0.930124
O O1 0.015885 0.444316 0.843789
O O2 0.095383 0.294075 0.714546
O O3 0.000000 0.431023 0.750000
O O4 0.792242 0.340217 0.007835
O O5 0.805541 0.523748 0.746177
O O6 0.986198 0.388704 0.549022
O O7 0.112038 0.546003 0.457435
O O8 0.725087 0.329191 0.748070
O O9 0.467137 0.323429 0.054892
O O10 0.436266 0.381753 0.983625
O O11 0.501136 0.209311 0.942303
O O12 0.855790 0.156972 0.760197
O O13 0.636057 0.270363 0.979954
O O14 0.596151 0.442604 0.005512
O O15 0.000000 0.000000 0.500000
#
# Coordination Sequence:
#
# PCOD8129537 Si02
#       7
#     8   8   8   8   8   8   8
#     4  11  22  37  55  80 111 147 188 229 271 316
#     4  11  22  36  53  81 112 146 180 228 269 337
#     4  11  20  33  51  79 112 147 178 223 264 337
#     4  10  20  33  55  76 108 145 192 222 261 322
#     4  10  18  31  51  79 109 150 176 222 273 313
#     4  10  19  33  50  74 110 143 180 221 270 320
#     4  11  22  34  54  81 111 144 186 215 281 323
#
# _framework density 9.4752919999999996
#
# number of rings (size 3 to 8) (size 9 to 14) (size 15 to 20)
#    0.000    1.429    4.286    3.857    2.000    2.286 
#    0.000    0.000    0.000    0.000    0.000    4.000 
#    0.000    0.000    0.000    0.000    0.000    0.000 
#
# Total GULP energy -346963.168409 kJ/mol
# GULP energy per Si atom -12391.541729 kJ/mol
# Density = 0.945373 g / cm^3
# Si number density = 9.475292 Si / 1000 Ang^3
#
#
#
# Elastic Constant Matrix: (Units=GPa)
#
#
# Indices 1 2 3 4 5 6 
#
# 1 56.4456 15.4393 27.6887 0.0061 21.4983 -0.0061
# 2 15.4393 96.1283 35.9176 -0.0197 10.4528 0.0088
# 3 27.6887 35.9176 74.1950 -0.0284 17.5223 0.0107
# 4 0.0061 -0.0197 -0.0284 17.7283 0.0106 4.2176
# 5 21.4983 10.4528 17.5223 0.0106 17.2870 -0.0004
# 6 -0.0061 0.0088 0.0107 4.2176 -0.0004 12.8389
#
#
#
# Elastic Compliance Matrix: (Units=1/GPa)
#
#
# Indices 1 2 3 4 5 6 
#
# 1 0.034372 0.000090 -0.003633 0.000002 -0.039118 0.000018
# 2 0.000090 0.012748 -0.005730 0.000008 -0.002013 -0.000006
# 3 -0.003633 -0.005730 0.020670 0.000043 -0.012970 -0.000030
# 4 0.000002 0.000008 0.000043 0.061189 -0.000088 -0.020101
# 5 -0.039118 -0.002013 -0.012970 -0.000088 0.120858 0.000026
# 6 0.000018 -0.000006 -0.000030 -0.020101 0.000026 0.084492
#
#
# Mechanical properties :
#
#
# Convention : Reuss Voigt Hill
#
# Bulk Modulus (GPa) = 20.30590 42.76225 31.53407
# Shear Modulus (GPa) = 13.53954 19.41905 16.47930
#
# Velocity S-wave (km/s) = 2.67585 3.20460 2.95209
# Velocity P-wave (km/s) = 4.50392 6.02551 5.31940
#
# Compressibility (1/GPa) = 0.04924677
#
# Stress axis : x y z
#
# Youngs Moduli (GPa) = 29.09319 78.44399 48.37838
#
# Poissons Ratio (x) = -0.00709 0.17575
# Poissons Ratio (y) = -0.00263 0.27719
# Poissons Ratio (z) = 0.10569 0.44945
#
# Static dielectric constant tensor:
#      x y z
#    x 2.956250 -0.000040 0.073320 
#    y -0.000040 4.250460 0.000130 
#    z 0.073320 0.000130 3.909910 
# 
# 
# High freq. dielectric constant tensor:
#      x y z
#    x 1.663500 0.000000 -0.004260 
#    y 0.000000 1.728660 0.000010 
#    z -0.004260 0.000010 1.748410 
# 
# From -- ./inp_files/282087.got.cif
#   From: 2010.06.25/outbox.ucp.g09.slc.cvg/sg15_142_cif.got.tgz:282087.got - 2010.06.28 14:40:10.
