data_PCOD8129513
_publ_section_title
;
Structure prediction by ZEFSAII (Michael W. Deem and Ramdas Pophale) SiO2 
 PCOD8129513
Probable space group: P 21/C
;
_chemical_formula_sum "Si O2"
_cell_formula_units_Z 32
_cell_length_a 19.849229
_cell_length_b 16.603273
_cell_length_c 9.268912
_cell_angle_alpha 90.000000
_cell_angle_beta 37.594228
_cell_angle_gamma 90.000000
_cell_volume 1863.556076
_symmetry_space_group_name_H-M "P 21/C"
_symmetry_group_IT_number 14
_symmetry_cell_setting 'monoclinic'
loop_
_space_group_symop_operation_xyz
x,y,z
-x,1/2+y,1/2-z
-x,-y,-z
x,1/2-y,1/2+z
loop_
_atom_site_type_symbol
_atom_site_label
_atom_site_fract_x
_atom_site_fract_y
_atom_site_fract_z
Si Si1 0.174998 0.771187 0.295440
Si Si2 0.321508 0.764002 0.793434
Si Si3 0.362938 0.481466 0.885372
Si Si4 0.723643 0.062416 0.199959
Si Si5 0.138331 0.020562 0.617841
Si Si6 0.220333 0.556343 0.706211
Si Si7 0.073420 0.889672 0.946537
Si Si8 0.573648 0.107650 0.954615
O O1 0.207717 0.761847 0.406605
O O2 0.141975 0.864018 0.318727
O O3 0.079731 0.707151 0.413173
O O4 0.289443 0.752468 0.014962
O O5 0.348645 0.856986 0.709753
O O6 0.421368 0.703554 0.584970
O O7 0.404997 0.561066 0.731386
O O8 0.452606 0.410669 0.722051
O O9 0.348007 0.502419 0.079852
O O10 0.249354 0.449564 0.008337
O O11 0.836188 0.083653 0.090800
O O12 0.754742 0.019624 0.994645
O O13 0.158348 0.007879 0.412765
O O14 0.096713 0.935986 0.756845
O O15 0.048019 0.090028 0.789344
O O16 0.335483 0.581816 0.583529
#
# Coordination Sequence:
#
# PCOD8129513 Si02
#       8
#     4   4   4   4   4   4   4   4
#     4   9  15  25  42  65  88 107 136 177 216 252
#     4   9  15  25  42  65  88 107 136 177 216 252
#     4   9  17  29  43  63  89 117 148 174 207 257
#     4   9  17  27  42  67  91 111 138 177 221 259
#     4   9  17  29  43  63  89 117 148 174 207 257
#     4   9  17  27  42  67  91 111 138 177 221 259
#     4   9  16  27  44  63  87 117 145 179 212 246
#     4   9  16  27  44  63  87 117 145 179 212 246
#
# _framework density 17.171471
#
# number of rings (size 3 to 8) (size 9 to 14) (size 15 to 20)
#    0.000    3.000    0.000    3.750    0.000    1.000 
#    0.000    0.000    0.000    0.000    0.000   64.750 
#    0.000    2.000    0.000    0.000    0.000    0.000 
#
# Total GULP energy -396566.311465 kJ/mol
# GULP energy per Si atom -12392.697233 kJ/mol
# Density = 1.713239 g / cm^3
# Si number density = 17.171471 Si / 1000 Ang^3
#
#
#
# Elastic Constant Matrix: (Units=GPa)
#
#
# Indices 1 2 3 4 5 6 
#
# 1 38.5218 24.9984 42.9600 0.0000 8.2018 0.0000
# 2 24.9984 65.5942 46.6618 0.0000 -10.0566 0.0000
# 3 42.9600 46.6618 117.1111 0.0000 6.1649 0.0000
# 4 0.0000 0.0000 0.0000 28.8423 0.0000 -6.5503
# 5 8.2018 -10.0566 6.1649 0.0000 38.5994 0.0000
# 6 0.0000 0.0000 0.0000 -6.5503 0.0000 20.6477
#
#
#
# Elastic Compliance Matrix: (Units=1/GPa)
#
#
# Indices 1 2 3 4 5 6 
#
# 1 0.051041 -0.011685 -0.013450 0.000000 -0.011742 0.000000
# 2 -0.011685 0.025979 -0.006607 0.000000 0.010306 0.000000
# 3 -0.013450 -0.006607 0.016182 0.000000 -0.001448 0.000000
# 4 0.000000 0.000000 0.000000 0.037363 0.000000 0.011853
# 5 -0.011742 0.010306 -0.001448 0.000000 0.031319 0.000000
# 6 0.000000 0.000000 0.000000 0.011853 0.000000 0.052192
#
#
# Mechanical properties :
#
#
# Convention : Reuss Voigt Hill
#
# Bulk Modulus (GPa) = 33.64941 50.05195 41.85068
# Shear Modulus (GPa) = 17.39346 24.72501 21.05924
#
# Velocity S-wave (km/s) = 3.18611 3.79870 3.50581
# Velocity P-wave (km/s) = 5.75966 6.96073 6.38848
#
# Compressibility (1/GPa) = 0.02971821
#
# Stress axis : x y z
#
# Youngs Moduli (GPa) = 19.59198 38.49317 61.79888
#
# Poissons Ratio (x) = 0.44978 0.83118
# Poissons Ratio (y) = 0.22892 0.40832
# Poissons Ratio (z) = 0.26351 0.25433
#
# Static dielectric constant tensor:
#      x y z
#    x 3.110400 0.000000 0.221220 
#    y 0.000000 3.072950 0.000000 
#    z 0.221220 0.000000 3.218210 
# 
# 
# High freq. dielectric constant tensor:
#      x y z
#    x 1.643750 0.000000 0.030330 
#    y 0.000000 1.632340 0.000000 
#    z 0.030330 0.000000 1.656230 
# 
# From -- ./inp_files/19069.got.cif
#   From: 2010.03.12/outbox.cif.g09.slc.cpg/sg14_10_cif.got.tgz:19069.got - 2010.03.31 13:35:05.
