data_PCOD8129166
_publ_section_title
;
Structure prediction by ZEFSAII (Michael W. Deem and Ramdas Pophale) SiO2 
 PCOD8129166
Probable space group: P 21/C
;
_chemical_formula_sum "Si O2"
_cell_formula_units_Z 28
_cell_length_a 12.072864
_cell_length_b 13.915581
_cell_length_c 7.945798
_cell_angle_alpha 90.000000
_cell_angle_beta 65.733487
_cell_angle_gamma 90.000000
_cell_volume 1216.954317
_symmetry_space_group_name_H-M "P 21/C"
_symmetry_group_IT_number 14
_symmetry_cell_setting 'monoclinic'
loop_
_space_group_symop_operation_xyz
x,y,z
-x,1/2+y,1/2-z
-x,-y,-z
x,1/2-y,1/2+z
loop_
_atom_site_type_symbol
_atom_site_label
_atom_site_fract_x
_atom_site_fract_y
_atom_site_fract_z
Si Si1 0.874120 0.846027 0.266859
Si Si2 0.750000 0.152771 0.750000
Si Si3 0.825414 0.057035 0.374155
Si Si4 0.977799 0.292047 0.627786
Si Si5 0.522200 0.207953 0.372214
Si Si6 0.625881 0.846026 0.233141
Si Si7 0.674586 0.057035 0.125846
O O1 0.901677 0.763617 0.385684
O O2 0.750000 0.822743 0.250001
O O3 0.869643 0.947879 0.365202
O O4 0.987008 0.846183 0.066101
O O5 0.745955 0.085534 0.586722
O O6 0.631931 0.218727 0.833027
O O7 0.868068 0.218728 0.666973
O O8 0.754045 0.085534 0.913278
O O9 0.750000 0.071308 0.250000
O O10 0.941469 0.127535 0.288076
O O11 0.401676 0.263616 0.385684
O O12 0.487008 0.153818 0.566102
O O13 0.558530 0.127534 0.211925
O O14 0.630358 0.947879 0.134797
#
# Coordination Sequence:
#
# PCOD8129166 Si02
#       7
#     4   4   4   4   4   4   4
#     4  11  26  45  69 105 147 189 228 292 362 423
#     4  12  24  44  80 110 134 184 250 298 342 412
#     4  11  24  46  74 107 141 185 239 294 352 418
#     4  12  22  47  74 105 143 183 241 297 348 420
#     4  12  22  47  74 105 143 183 241 297 348 420
#     4  11  26  45  69 105 147 189 228 292 362 423
#     4  11  24  46  74 107 141 185 239 294 352 418
#
# _framework density 23.008258000000001
#
# number of rings (size 3 to 8) (size 9 to 14) (size 15 to 20)
#    0.000    0.571    4.286    4.286    0.000    3.429 
#   12.857    0.000    0.000    0.000    0.000    0.000 
#    0.000    0.000    0.000    0.000    0.000    0.000 
#
# Total GULP energy -347295.930093 kJ/mol
# GULP energy per Si atom -12403.426075 kJ/mol
# Density = 2.295589 g / cm^3
# Si number density = 23.008258 Si / 1000 Ang^3
#
#
#
# Elastic Constant Matrix: (Units=GPa)
#
#
# Indices 1 2 3 4 5 6 
#
# 1 96.1843 49.0908 8.9764 0.0000 -7.0702 0.0000
# 2 49.0908 123.7039 27.8117 0.0000 -7.7268 0.0000
# 3 8.9764 27.8117 139.5223 0.0000 -1.4873 0.0000
# 4 0.0000 0.0000 0.0000 42.2618 0.0000 -9.4071
# 5 -7.0702 -7.7268 -1.4873 0.0000 31.1304 0.0000
# 6 0.0000 0.0000 0.0000 -9.4071 0.0000 26.6084
#
#
#
# Elastic Compliance Matrix: (Units=1/GPa)
#
#
# Indices 1 2 3 4 5 6 
#
# 1 0.013132 -0.005149 0.000200 0.000000 0.001714 0.000000
# 2 -0.005149 0.010611 -0.001769 0.000000 0.001380 0.000000
# 3 0.000200 -0.001769 0.007507 0.000000 -0.000035 0.000000
# 4 0.000000 0.000000 0.000000 0.025683 0.000000 0.009080
# 5 0.001714 0.001380 -0.000035 0.000000 0.032853 0.000000
# 6 0.000000 0.000000 0.000000 0.009080 0.000000 0.040792
#
#
# Mechanical properties :
#
#
# Convention : Reuss Voigt Hill
#
# Bulk Modulus (GPa) = 56.13925 59.01870 57.57898
# Shear Modulus (GPa) = 33.34372 38.23557 35.78965
#
# Velocity S-wave (km/s) = 3.81097 4.08096 3.94828
# Velocity P-wave (km/s) = 6.61946 6.92188 6.77236
#
# Compressibility (1/GPa) = 0.01781285
#
# Stress axis : x y z
#
# Youngs Moduli (GPa) = 76.14911 94.24016 133.21356
#
# Poissons Ratio (x) = 0.48526 -0.02662
# Poissons Ratio (y) = 0.39211 0.23568
# Poissons Ratio (z) = -0.01522 0.16673
#
# Static dielectric constant tensor:
#      x y z
#    x 4.082960 0.000000 -0.010960 
#    y 0.000000 4.335860 0.000000 
#    z -0.010960 0.000000 4.238560 
# 
# 
# High freq. dielectric constant tensor:
#      x y z
#    x 1.899700 0.000000 -0.003940 
#    y 0.000000 1.913510 0.000000 
#    z -0.003940 0.000000 1.919360 
# 
# From -- ./inp_files/13010.got.cif
#   From: 2010.03.12/outbox.cif.g09.slc.cpg/sg14_7_cif.got.tgz:13010.got - 2010.03.31 13:35:05.
