data_PCOD8129848
_publ_section_title
;
Structure prediction by ZEFSAII (Michael W. Deem and Ramdas Pophale) SiO2 
 PCOD8129848
Probable space group: C 2/C
;
_chemical_formula_sum "Si O2"
_cell_formula_units_Z 60
_cell_length_a 11.073424
_cell_length_b 14.437507
_cell_length_c 24.044098
_cell_angle_alpha 90.000000
_cell_angle_beta 124.347795
_cell_angle_gamma 90.000000
_cell_volume 3173.708245
_symmetry_space_group_name_H-M "C 2/C"
_symmetry_group_IT_number 15
_symmetry_cell_setting 'monoclinic'
loop_
_space_group_symop_operation_xyz
x,y,z
-x,y,1/2-z
-x,-y,-z
x,-y,1/2+z
1/2+x,1/2+y,z
1/2-x,1/2+y,1/2-z
1/2-x,1/2-y,-z
1/2+x,1/2-y,1/2+z
loop_
_atom_site_type_symbol
_atom_site_label
_atom_site_fract_x
_atom_site_fract_y
_atom_site_fract_z
Si Si1 0.151856 0.718156 0.888574
Si Si2 0.200818 0.950056 0.027018
Si Si3 0.216670 0.974107 0.345377
Si Si4 0.407281 0.803937 0.415013
Si Si5 0.500000 0.713252 0.250000
Si Si6 0.376424 0.591414 0.408893
Si Si7 0.596849 0.545509 0.206717
Si Si8 0.655934 0.891417 0.540360
O O1 0.272895 0.639578 0.927465
O O2 0.113658 0.722667 0.813152
O O3 0.214782 0.815713 0.926104
O O4 0.008697 0.694328 0.886990
O O5 0.223295 0.040772 0.070967
O O6 0.315970 0.956174 0.006341
O O7 0.040984 0.941471 0.960208
O O8 0.266335 0.868885 0.368779
O O9 0.206618 0.990504 0.276302
O O10 0.337066 0.045139 0.402727
O O11 0.060448 0.993440 0.334171
O O12 0.350435 0.700397 0.410908
O O13 0.498648 0.841689 0.492382
O O14 0.581287 0.649760 0.225832
O O15 0.333213 0.555216 0.336026
#
# Coordination Sequence:
#
# PCOD8129848 Si02
#       8
#     8   8   8   8   4   8   8   8
#     4  11  18  33  55  83 107 139 172 227 273 306
#     4  10  20  31  56  78 110 133 179 218 267 310
#     4  10  20  33  54  80 106 139 181 222 264 316
#     4  11  20  31  55  81 109 135 175 222 274 313
#     4  10  16  30  58  74 100 134 182 214 262 314
#     4  11  19  35  54  78 103 146 176 218 260 321
#     4  10  19  36  55  74 105 143 181 218 260 323
#     4  11  17  36  54  81 107 140 171 229 272 313
#
# _framework density 18.905328999999998
#
# number of rings (size 3 to 8) (size 9 to 14) (size 15 to 20)
#    0.000    1.600    8.000    1.200    0.000    1.067 
#    0.000    0.667    0.000    8.000    0.000    0.000 
#    0.000    0.000    0.000    0.000    0.000    0.000 
#
# Total GULP energy -371920.534872 kJ/mol
# GULP energy per Si atom -12397.351162 kJ/mol
# Density = 1.886230 g / cm^3
# Si number density = 18.905329 Si / 1000 Ang^3
#
#
#
# Elastic Constant Matrix: (Units=GPa)
#
#
# Indices 1 2 3 4 5 6 
#
# 1 27.2488 28.9400 24.0263 0.0000 -3.5113 0.0000
# 2 28.9400 117.7327 55.9982 0.0000 -10.2397 0.0000
# 3 24.0263 55.9982 132.8283 0.0000 -8.9535 0.0000
# 4 0.0000 0.0000 0.0000 32.1267 0.0000 5.0919
# 5 -3.5113 -10.2397 -8.9535 0.0000 10.1779 0.0000
# 6 0.0000 0.0000 0.0000 5.0919 0.0000 19.9297
#
#
#
# Elastic Compliance Matrix: (Units=1/GPa)
#
#
# Indices 1 2 3 4 5 6 
#
# 1 0.052345 -0.010225 -0.004926 0.000000 0.003438 0.000000
# 2 -0.010225 0.013138 -0.003228 0.000000 0.006851 0.000000
# 3 -0.004926 -0.003228 0.010042 0.000000 0.003888 0.000000
# 4 0.000000 0.000000 0.000000 0.032440 0.000000 -0.008288
# 5 0.003438 0.006851 0.003888 0.000000 0.109750 0.000000
# 6 0.000000 0.000000 0.000000 -0.008288 0.000000 0.052294
#
#
# Mechanical properties :
#
#
# Convention : Reuss Voigt Hill
#
# Bulk Modulus (GPa) = 25.79405 55.08210 40.43807
# Shear Modulus (GPa) = 15.64016 23.70322 19.67169
#
# Velocity S-wave (km/s) = 2.87938 3.54472 3.22923
# Velocity P-wave (km/s) = 4.97271 6.77882 5.94476
#
# Compressibility (1/GPa) = 0.03876864
#
# Stress axis : x y z
#
# Youngs Moduli (GPa) = 19.10408 76.11365 99.57954
#
# Poissons Ratio (x) = 0.77826 0.49051
# Poissons Ratio (y) = 0.19534 0.32140
# Poissons Ratio (z) = 0.09410 0.24566
#
# Static dielectric constant tensor:
#      x y z
#    x 2.947670 0.000000 -0.030370 
#    y 0.000000 3.544760 0.000000 
#    z -0.030370 0.000000 3.847030 
# 
# 
# High freq. dielectric constant tensor:
#      x y z
#    x 1.677000 0.000000 -0.002620 
#    y 0.000000 1.731060 0.000000 
#    z -0.002620 0.000000 1.752670 
# 
# From -- ./inp_files/238401.got.cif
#   From: 2010.06.25/outbox.cif.g09.slc.cpg/sg15_120_cif.got.tgz:238401.got - 2010.06.28 07:06:18.
