data_PCOD8129655
_publ_section_title
;
Structure prediction by ZEFSAII (Michael W. Deem and Ramdas Pophale) SiO2 
 PCOD8129655
Probable space group: C 2/C
;
_chemical_formula_sum "Si O2"
_cell_formula_units_Z 64
_cell_length_a 16.927371
_cell_length_b 11.191562
_cell_length_c 20.951158
_cell_angle_alpha 90.000000
_cell_angle_beta 112.590077
_cell_angle_gamma 90.000000
_cell_volume 3664.545795
_symmetry_space_group_name_H-M "C 2/C"
_symmetry_group_IT_number 15
_symmetry_cell_setting 'monoclinic'
loop_
_space_group_symop_operation_xyz
x,y,z
-x,y,1/2-z
-x,-y,-z
x,-y,1/2+z
1/2+x,1/2+y,z
1/2-x,1/2+y,1/2-z
1/2-x,1/2-y,-z
1/2+x,1/2-y,1/2+z
loop_
_atom_site_type_symbol
_atom_site_label
_atom_site_fract_x
_atom_site_fract_y
_atom_site_fract_z
Si Si1 0.413504 0.612165 0.097771
Si Si2 0.991138 0.081181 0.935591
Si Si3 0.732445 0.889162 0.589447
Si Si4 0.175572 0.868891 0.063411
Si Si5 0.408631 0.024415 0.895073
Si Si6 0.057752 0.342853 0.968473
Si Si7 0.986943 0.651458 0.671388
Si Si8 0.668542 0.016216 0.938072
O O1 0.471262 0.492461 0.112200
O O2 0.332562 0.578442 0.117302
O O3 0.474814 0.711664 0.146924
O O4 0.379134 0.655168 0.017957
O O5 0.045351 0.202195 0.958309
O O6 0.889224 0.104935 0.898047
O O7 0.000000 0.000000 0.000000
O O8 0.728700 0.747444 0.600066
O O9 0.680750 0.912905 0.508066
O O10 0.687082 0.967376 0.631403
O O11 0.241495 0.979734 0.072608
O O12 0.428937 0.092076 0.835205
O O13 0.471879 0.912682 0.923468
O O14 0.419628 0.125881 0.951996
O O15 0.135918 0.382771 0.945461
O O16 0.902529 0.580573 0.625779
O O17 0.000000 0.642090 0.750000
#
# Coordination Sequence:
#
# PCOD8129655 Si02
#       8
#     8   8   8   8   8   8   8   8
#     4  10  19  31  47  75 105 129 163 196 243 306
#     4  10  19  27  45  76 110 130 152 191 254 305
#     4  10  15  29  55  76  98 126 162 208 244 289
#     4  10  15  29  51  78  98 129 159 203 242 297
#     4   9  17  28  50  77  96 123 170 203 249 289
#     4   9  16  28  47  76 105 126 150 214 255 287
#     4  11  20  32  51  72 100 130 168 210 245 292
#     4   9  17  29  51  77 100 123 170 205 248 288
#
# _framework density 17.464646999999999
#
# number of rings (size 3 to 8) (size 9 to 14) (size 15 to 20)
#    0.000    2.250    3.750    3.000    0.000    0.000 
#    0.000   11.250    2.750    3.000    0.000    0.000 
#    0.000    0.000    0.000    0.000    0.000    0.000 
#
# Total GULP energy -396541.899165 kJ/mol
# GULP energy per Si atom -12391.934349 kJ/mol
# Density = 1.742490 g / cm^3
# Si number density = 17.464647 Si / 1000 Ang^3
#
#
#
# Elastic Constant Matrix: (Units=GPa)
#
#
# Indices 1 2 3 4 5 6 
#
# 1 144.6224 62.6486 26.8805 0.0000 -30.0305 0.0000
# 2 62.6486 121.5403 33.1015 0.0000 -18.9787 0.0000
# 3 26.8805 33.1015 52.3823 0.0000 -11.5784 0.0000
# 4 0.0000 0.0000 0.0000 10.4985 0.0000 -6.8976
# 5 -30.0305 -18.9787 -11.5784 0.0000 16.6049 0.0000
# 6 0.0000 0.0000 0.0000 -6.8976 0.0000 30.6566
#
#
#
# Elastic Compliance Matrix: (Units=1/GPa)
#
#
# Indices 1 2 3 4 5 6 
#
# 1 0.012155 -0.003430 -0.000092 0.000000 0.017998 0.000000
# 2 -0.003430 0.011964 -0.004905 0.000000 0.004052 0.000000
# 3 -0.000092 -0.004905 0.024780 0.000000 0.011507 0.000000
# 4 0.000000 0.000000 0.000000 0.111775 0.000000 0.025149
# 5 0.017998 0.004052 0.011507 0.000000 0.105428 0.000000
# 6 0.000000 0.000000 0.000000 0.025149 0.000000 0.038278
#
#
# Mechanical properties :
#
#
# Convention : Reuss Voigt Hill
#
# Bulk Modulus (GPa) = 31.20462 62.64514 46.92488
# Shear Modulus (GPa) = 15.06415 24.61296 19.83855
#
# Velocity S-wave (km/s) = 2.94011 3.75814 3.37401
# Velocity P-wave (km/s) = 5.42510 7.40129 6.48887
#
# Compressibility (1/GPa) = 0.03204654
#
# Stress axis : x y z
#
# Youngs Moduli (GPa) = 82.27367 83.58334 40.35437
#
# Poissons Ratio (x) = 0.28667 0.00370
# Poissons Ratio (y) = 0.28218 0.19793
# Poissons Ratio (z) = 0.00755 0.40996
#
# Static dielectric constant tensor:
#      x y z
#    x 3.839390 0.000000 -0.319910 
#    y 0.000000 3.338780 0.000000 
#    z -0.319910 0.000000 2.692310 
# 
# 
# High freq. dielectric constant tensor:
#      x y z
#    x 1.690820 0.000000 -0.018610 
#    y 0.000000 1.670050 0.000000 
#    z -0.018610 0.000000 1.602270 
# 
# From -- ./inp_files/210340.got.cif
#   From: 2010.06.25/outbox.cif.g09.slc.cpg/sg15_106_cif.got.tgz:210340.got - 2010.06.28 07:06:18.
