data_PCOD8129403
_publ_section_title
;
Structure prediction by ZEFSAII (Michael W. Deem and Ramdas Pophale) SiO2 
 PCOD8129403
Probable space group: P 21/C
;
_chemical_formula_sum "Si O2"
_cell_formula_units_Z 24
_cell_length_a 14.669604
_cell_length_b 16.934693
_cell_length_c 9.831032
_cell_angle_alpha 90.000000
_cell_angle_beta 153.533448
_cell_angle_gamma 90.000000
_cell_volume 1088.462292
_symmetry_space_group_name_H-M "P 21/C"
_symmetry_group_IT_number 14
_symmetry_cell_setting 'monoclinic'
loop_
_space_group_symop_operation_xyz
x,y,z
-x,1/2+y,1/2-z
-x,-y,-z
x,1/2-y,1/2+z
loop_
_atom_site_type_symbol
_atom_site_label
_atom_site_fract_x
_atom_site_fract_y
_atom_site_fract_z
Si Si1 0.071611 0.914752 0.140675
Si Si2 0.964182 0.657044 0.225145
Si Si3 0.254751 0.824324 0.879400
Si Si4 0.444634 0.411714 0.388778
Si Si5 0.470079 0.657472 0.220893
Si Si6 0.908357 0.831262 0.185175
O O1 0.318422 0.913994 0.476895
O O2 0.978061 0.891737 0.161702
O O3 0.006383 0.850605 0.941374
O O4 0.000000 0.000000 0.000000
O O5 0.879939 0.744714 0.082704
O O6 0.167800 0.645563 0.407520
O O7 0.797595 0.591689 0.960530
O O8 0.074610 0.827166 0.527221
O O9 0.431816 0.886528 0.080385
O O10 0.359145 0.738899 0.033774
O O11 0.500000 0.500000 0.500000
O O12 0.502889 0.347256 0.580931
O O13 0.687444 0.641462 0.442167
#
# Coordination Sequence:
#
# PCOD8129403 Si02
#       6
#     4   4   4   4   4   4
#     4  12  28  47  71 109 153 182 234 310 365 416
#     4  12  24  43  73 108 137 191 246 293 354 432
#     4  12  24  45  77 103 140 190 246 293 348 431
#     4  12  27  45  72 110 149 186 237 302 366 422
#     4  12  25  45  76 105 140 195 248 290 357 436
#     4  12  24  45  75 104 141 191 245 293 353 431
#
# _framework density 22.049454999999998
#
# number of rings (size 3 to 8) (size 9 to 14) (size 15 to 20)
#    0.000    0.000    8.333    1.000    0.000    4.000 
#    0.000    0.000    0.000    0.000    0.000    0.000 
#    0.000    0.000    0.000    0.000    0.000    0.000 
#
# Total GULP energy -297647.395494 kJ/mol
# GULP energy per Si atom -12401.974812 kJ/mol
# Density = 2.199927 g / cm^3
# Si number density = 22.049455 Si / 1000 Ang^3
#
#
#
# Elastic Constant Matrix: (Units=GPa)
#
#
# Indices 1 2 3 4 5 6 
#
# 1 140.8999 49.8718 47.1898 0.0000 19.5488 0.0000
# 2 49.8718 59.1162 9.5662 0.0000 13.2282 0.0000
# 3 47.1898 9.5662 103.0964 0.0000 7.1218 0.0000
# 4 0.0000 0.0000 0.0000 32.0764 0.0000 -1.0281
# 5 19.5488 13.2282 7.1218 0.0000 39.3522 0.0000
# 6 0.0000 0.0000 0.0000 -1.0281 0.0000 20.5588
#
#
#
# Elastic Compliance Matrix: (Units=1/GPa)
#
#
# Indices 1 2 3 4 5 6 
#
# 1 0.012107 -0.008991 -0.004558 0.000000 -0.002167 0.000000
# 2 -0.008991 0.025140 0.002084 0.000000 -0.004361 0.000000
# 3 -0.004558 0.002084 0.011630 0.000000 -0.000541 0.000000
# 4 0.000000 0.000000 0.000000 0.031226 0.000000 0.001562
# 5 -0.002167 -0.004361 -0.000541 0.000000 0.028052 0.000000
# 6 0.000000 0.000000 0.000000 0.001562 0.000000 0.048719
#
#
# Mechanical properties :
#
#
# Convention : Reuss Voigt Hill
#
# Bulk Modulus (GPa) = 38.54024 57.37421 47.95723
# Shear Modulus (GPa) = 26.53210 31.49647 29.01429
#
# Velocity S-wave (km/s) = 3.47262 3.78358 3.63143
# Velocity P-wave (km/s) = 5.79619 6.72045 6.27536
#
# Compressibility (1/GPa) = 0.02594690
#
# Stress axis : x y z
#
# Youngs Moduli (GPa) = 82.59873 39.77783 85.98612
#
# Poissons Ratio (x) = 0.35765 0.39189
# Poissons Ratio (y) = 0.74265 -0.17920
# Poissons Ratio (z) = 0.37645 -0.08290
#
# Static dielectric constant tensor:
#      x y z
#    x 4.364550 0.000000 0.037650 
#    y 0.000000 3.765940 0.000000 
#    z 0.037650 0.000000 4.291130 
# 
# 
# High freq. dielectric constant tensor:
#      x y z
#    x 1.880260 0.000000 0.003330 
#    y 0.000000 1.856580 0.000000 
#    z 0.003330 0.000000 1.881330 
# 
# From -- ./inp_files/16719.got.cif
#   From: 2010.03.12/outbox.cif.g09.slc.cpg/sg14_9_cif.got.tgz:16719.got - 2010.03.31 13:35:05.
