data_PCOD8129505
_publ_section_title
;
Structure prediction by ZEFSAII (Michael W. Deem and Ramdas Pophale) SiO2 
 PCOD8129505
Probable space group: P 21/C
;
_chemical_formula_sum "Si O2"
_cell_formula_units_Z 24
_cell_length_a 30.316610
_cell_length_b 9.880534
_cell_length_c 12.240320
_cell_angle_alpha 90.000000
_cell_angle_beta 163.334454
_cell_angle_gamma 90.000000
_cell_volume 1051.500523
_symmetry_space_group_name_H-M "P 21/C"
_symmetry_group_IT_number 14
_symmetry_cell_setting 'monoclinic'
loop_
_space_group_symop_operation_xyz
x,y,z
-x,1/2+y,1/2-z
-x,-y,-z
x,1/2-y,1/2+z
loop_
_atom_site_type_symbol
_atom_site_label
_atom_site_fract_x
_atom_site_fract_y
_atom_site_fract_z
Si Si1 0.651292 0.938186 0.077522
Si Si2 0.151290 0.061812 0.077519
Si Si3 0.066650 0.902645 0.248415
Si Si4 0.142967 0.303349 0.338443
Si Si5 0.566649 0.097355 0.248413
Si Si6 0.357031 0.196652 0.161551
O O1 0.762090 0.822221 0.387010
O O2 0.748087 0.079710 0.308205
O O3 0.500428 0.951182 0.793557
O O4 0.598908 0.908088 0.828989
O O5 0.262088 0.177778 0.387006
O O6 0.248087 0.920288 0.308204
O O7 0.098905 0.091911 0.828982
O O8 0.000427 0.048816 0.793555
O O9 0.014648 0.750277 0.093163
O O10 0.000000 0.000000 0.000000
O O11 0.249998 0.373792 0.499995
O O12 0.514645 0.249723 0.093157
O O13 0.500000 0.000000 0.000000
#
# Coordination Sequence:
#
# PCOD8129505 Si02
#       6
#     4   4   4   4   4   4
#     4   9  16  28  49  71  95 130 165 201 249 295
#     4   9  16  28  49  71  95 130 165 201 249 295
#     4   9  16  28  49  72  95 129 166 202 247 296
#     4   8  15  28  47  69  95 130 165 199 245 298
#     4   9  16  28  49  72  95 129 166 202 247 296
#     4   8  15  28  47  69  95 130 165 199 245 298
#
# _framework density 22.824525999999999
#
# number of rings (size 3 to 8) (size 9 to 14) (size 15 to 20)
#    0.000    3.333    0.000    3.000    0.000    0.000 
#    0.000    1.667    0.000   58.000    0.000    0.000 
#    0.000    0.000    0.000    0.000    0.000    0.000 
#
# Total GULP energy -297411.879793 kJ/mol
# GULP energy per Si atom -12392.161658 kJ/mol
# Density = 2.277258 g / cm^3
# Si number density = 22.824526 Si / 1000 Ang^3
#
#
#
# Elastic Constant Matrix: (Units=GPa)
#
#
# Indices 1 2 3 4 5 6 
#
# 1 195.6095 26.4801 32.0414 0.0000 -12.3966 0.0000
# 2 26.4801 20.2194 14.3655 0.0000 -5.3153 0.0000
# 3 32.0414 14.3655 56.7530 0.0000 -4.3710 0.0000
# 4 0.0000 0.0000 0.0000 22.0092 0.0000 -6.7330
# 5 -12.3966 -5.3153 -4.3710 0.0000 20.2249 0.0000
# 6 0.0000 0.0000 0.0000 -6.7330 0.0000 34.9360
#
#
#
# Elastic Compliance Matrix: (Units=1/GPa)
#
#
# Indices 1 2 3 4 5 6 
#
# 1 0.006423 -0.006658 -0.001802 0.000000 0.001797 0.000000
# 2 -0.006658 0.070628 -0.013223 0.000000 0.011623 0.000000
# 3 -0.001802 -0.013223 0.021998 0.000000 0.000174 0.000000
# 4 0.000000 0.000000 0.000000 0.048282 0.000000 0.009305
# 5 0.001797 0.011623 0.000174 0.000000 0.053638 0.000000
# 6 0.000000 0.000000 0.000000 0.009305 0.000000 0.030417
#
#
# Mechanical properties :
#
#
# Convention : Reuss Voigt Hill
#
# Bulk Modulus (GPa) = 17.95950 46.48398 32.22174
# Shear Modulus (GPa) = 17.04660 28.74702 22.89681
#
# Velocity S-wave (km/s) = 2.73583 3.55276 3.17072
# Velocity P-wave (km/s) = 4.22673 6.10242 5.24904
#
# Compressibility (1/GPa) = 0.05568082
#
# Stress axis : x y z
#
# Youngs Moduli (GPa) = 155.69735 14.15876 45.45813
#
# Poissons Ratio (x) = 0.09428 0.08193
# Poissons Ratio (y) = 1.03670 0.60110
# Poissons Ratio (z) = 0.28061 0.18722
#
# Static dielectric constant tensor:
#      x y z
#    x 4.565260 0.000000 -0.094140 
#    y 0.000000 3.760210 0.000000 
#    z -0.094140 0.000000 4.256580 
# 
# 
# High freq. dielectric constant tensor:
#      x y z
#    x 1.922040 0.000000 -0.007150 
#    y 0.000000 1.848850 0.000000 
#    z -0.007150 0.000000 1.873150 
# 
# From -- ./inp_files/24632.got.cif
#   From: 2010.03.12/outbox.cif.g09.slc.cpg/sg14_13_cif.got.tgz:24632.got - 2010.03.31 13:35:05.
