data_PCOD8129370
_publ_section_title
;
Structure prediction by ZEFSAII (Michael W. Deem and Ramdas Pophale) SiO2 
 PCOD8129370
Probable space group: P 21/C
;
_chemical_formula_sum "Si O2"
_cell_formula_units_Z 28
_cell_length_a 31.066392
_cell_length_b 8.555525
_cell_length_c 30.634735
_cell_angle_alpha 90.000000
_cell_angle_beta 170.430316
_cell_angle_gamma 90.000000
_cell_volume 1353.647163
_symmetry_space_group_name_H-M "P 21/C"
_symmetry_group_IT_number 14
_symmetry_cell_setting 'monoclinic'
loop_
_space_group_symop_operation_xyz
x,y,z
-x,1/2+y,1/2-z
-x,-y,-z
x,1/2-y,1/2+z
loop_
_atom_site_type_symbol
_atom_site_label
_atom_site_fract_x
_atom_site_fract_y
_atom_site_fract_z
Si Si1 0.250102 0.898479 0.372005
Si Si2 0.250146 0.286642 0.831003
Si Si3 0.750075 0.153233 0.378188
Si Si4 0.750105 0.516813 0.032689
Si Si5 0.749860 0.283912 0.474844
Si Si6 0.749983 0.893987 0.255375
Si Si7 0.750068 0.800201 0.354013
O O1 0.249972 0.001179 0.415418
O O2 0.500061 0.790957 0.620173
O O3 0.250379 0.024866 0.333128
O O4 0.000078 0.791053 0.120129
O O5 0.249980 0.243198 0.780036
O O6 0.999986 0.216435 0.603798
O O7 0.500296 0.216191 0.104036
O O8 0.749752 0.205468 0.427565
O O9 0.750267 0.966641 0.377565
O O10 0.000846 0.610063 0.267887
O O11 0.499564 0.610190 0.766580
O O12 0.750012 0.346479 0.011916
O O13 0.749886 0.811639 0.301871
O O14 0.000000 0.000000 0.500000
O O15 0.500000 0.000000 0.000000
#
# Coordination Sequence:
#
# PCOD8129370 Si02
#       7
#     4   4   4   4   4   4   4
#     4  12  26  44  66 100 141 174 221 281 344 397
#     4  12  23  45  72  93 136 187 218 275 338 403
#     4  12  23  44  70  96 129 186 226 259 338 414
#     4  12  27  47  70 101 139 174 224 282 336 403
#     4  12  26  46  70 102 133 177 223 277 337 404
#     4  12  23  43  67 102 134 173 235 285 326 395
#     4  12  26  41  71 102 134 179 229 281 331 398
#
# _framework density 20.684857999999998
#
# number of rings (size 3 to 8) (size 9 to 14) (size 15 to 20)
#    0.000    0.000    5.714    4.286    4.000    1.143 
#    0.000    0.000    0.000    0.000    0.000    0.000 
#    0.000    0.000    0.000    0.000    0.000    0.000 
#
# Total GULP energy -347442.643467 kJ/mol
# GULP energy per Si atom -12408.665838 kJ/mol
# Density = 2.063778 g / cm^3
# Si number density = 20.684858 Si / 1000 Ang^3
#
#
#
# Elastic Constant Matrix: (Units=GPa)
#
#
# Indices 1 2 3 4 5 6 
#
# 1 68.5676 14.7378 18.2211 0.0000 5.5832 0.0000
# 2 14.7378 146.2928 74.4922 0.0000 8.0782 0.0000
# 3 18.2211 74.4922 196.1828 0.0000 11.6619 0.0000
# 4 0.0000 0.0000 0.0000 54.3316 0.0000 -0.0150
# 5 5.5832 8.0782 11.6619 0.0000 46.9050 0.0000
# 6 0.0000 0.0000 0.0000 -0.0150 0.0000 54.2629
#
#
#
# Elastic Compliance Matrix: (Units=1/GPa)
#
#
# Indices 1 2 3 4 5 6 
#
# 1 0.015160 -0.000961 -0.000960 0.000000 -0.001400 0.000000
# 2 -0.000961 0.008556 -0.003125 0.000000 -0.000582 0.000000
# 3 -0.000960 -0.003125 0.006429 0.000000 -0.000946 0.000000
# 4 0.000000 0.000000 0.000000 0.018405 0.000000 0.000005
# 5 -0.001400 -0.000582 -0.000946 0.000000 0.021822 0.000000
# 6 0.000000 0.000000 0.000000 0.000005 0.000000 0.018429
#
#
# Mechanical properties :
#
#
# Convention : Reuss Voigt Hill
#
# Bulk Modulus (GPa) = 49.86741 69.54947 59.70844
# Shear Modulus (GPa) = 47.35888 51.33938 49.34913
#
# Velocity S-wave (km/s) = 4.79011 4.98735 4.88972
# Velocity P-wave (km/s) = 7.39960 8.17687 7.79793
#
# Compressibility (1/GPa) = 0.02005318
#
# Stress axis : x y z
#
# Youngs Moduli (GPa) = 65.96383 116.88071 155.54072
#
# Poissons Ratio (x) = 0.11234 0.14929
# Poissons Ratio (y) = 0.06340 0.48603
# Poissons Ratio (z) = 0.06331 0.36523
#
# Static dielectric constant tensor:
#      x y z
#    x 4.141220 0.000000 -0.018290 
#    y 0.000000 3.965860 0.000000 
#    z -0.018290 0.000000 4.004840 
# 
# 
# High freq. dielectric constant tensor:
#      x y z
#    x 1.817120 0.000000 0.002540 
#    y 0.000000 1.826490 0.000000 
#    z 0.002540 0.000000 1.836330 
# 
# From -- ./inp_files/80880.got.cif
#   From: 2010.03.12/outbox.cif.g09.slc.cpg/sg14_41_cif.got.tgz:80880.got - 2010.03.31 13:35:05.
