data_PCOD8129185
_publ_section_title
;
Structure prediction by ZEFSAII (Michael W. Deem and Ramdas Pophale) SiO2 
 PCOD8129185
Probable space group: P 21/C
;
_chemical_formula_sum "Si O2"
_cell_formula_units_Z 28
_cell_length_a 11.642490
_cell_length_b 8.325967
_cell_length_c 14.297065
_cell_angle_alpha 90.000000
_cell_angle_beta 63.877426
_cell_angle_gamma 90.000000
_cell_volume 1244.323366
_symmetry_space_group_name_H-M "P 21/C"
_symmetry_group_IT_number 14
_symmetry_cell_setting 'monoclinic'
loop_
_space_group_symop_operation_xyz
x,y,z
-x,1/2+y,1/2-z
-x,-y,-z
x,1/2-y,1/2+z
loop_
_atom_site_type_symbol
_atom_site_label
_atom_site_fract_x
_atom_site_fract_y
_atom_site_fract_z
Si Si1 0.091521 0.538359 0.243023
Si Si2 0.656634 0.058792 0.639136
Si Si3 0.820793 0.648952 0.943805
Si Si4 0.331616 0.442861 0.532737
Si Si5 0.898955 0.261641 0.096736
Si Si6 0.878175 0.331430 0.394275
Si Si7 0.485212 0.128989 0.152350
O O1 0.177757 0.395798 0.168048
O O2 0.145149 0.621791 0.316077
O O3 0.079710 0.663031 0.162314
O O4 0.952637 0.474986 0.318087
O O5 0.780827 0.116902 0.651458
O O6 0.566063 0.207890 0.640266
O O7 0.719749 0.973245 0.526625
O O8 0.579044 0.928629 0.727827
O O9 0.773982 0.829234 0.976628
O O10 0.968020 0.645630 0.928595
O O11 0.268727 0.618731 0.574980
O O12 0.435900 0.476088 0.415271
O O13 0.382356 0.347442 0.605799
O O14 0.906253 0.177797 0.993905
#
# Coordination Sequence:
#
# PCOD8129185 Si02
#       7
#     4   4   4   4   4   4   4
#     4  12  24  41  68 105 145 182 224 285 364 431
#     4  12  26  46  71 104 137 186 239 290 349 422
#     4  12  26  44  72 105 143 181 233 293 366 423
#     4  11  24  48  69 100 139 189 233 295 345 419
#     4  12  25  43  74 105 148 180 232 298 363 423
#     4  12  23  44  68 103 147 183 232 282 359 422
#     4  11  26  46  73  97 141 188 241 288 344 413
#
# _framework density 22.502189000000001
#
# number of rings (size 3 to 8) (size 9 to 14) (size 15 to 20)
#    0.000    0.286    5.714    2.571    0.000    4.000 
#    0.000    0.000    0.000    0.000    0.000    0.000 
#    0.000    0.000    0.000    0.000    0.000    0.000 
#
# Total GULP energy -346931.932780 kJ/mol
# GULP energy per Si atom -12390.426171 kJ/mol
# Density = 2.245097 g / cm^3
# Si number density = 22.502189 Si / 1000 Ang^3
#
#
#
# Elastic Constant Matrix: (Units=GPa)
#
#
# Indices 1 2 3 4 5 6 
#
# 1 81.1441 54.0072 55.3206 0.0000 -8.6377 0.0000
# 2 54.0072 87.3809 39.3669 0.0000 -11.9316 0.0000
# 3 55.3206 39.3669 152.1865 0.0000 -0.4408 0.0000
# 4 0.0000 0.0000 0.0000 51.0950 0.0000 -9.5497
# 5 -8.6377 -11.9316 -0.4408 0.0000 26.0193 0.0000
# 6 0.0000 0.0000 0.0000 -9.5497 0.0000 37.4310
#
#
#
# Elastic Compliance Matrix: (Units=1/GPa)
#
#
# Indices 1 2 3 4 5 6 
#
# 1 0.024763 -0.012358 -0.005798 0.000000 0.002455 0.000000
# 2 -0.012358 0.020089 -0.000690 0.000000 0.005098 0.000000
# 3 -0.005798 -0.000690 0.008851 0.000000 -0.002091 0.000000
# 4 0.000000 0.000000 0.000000 0.020551 0.000000 0.005243
# 5 0.002455 0.005098 -0.002091 0.000000 0.041551 0.000000
# 6 0.000000 0.000000 0.000000 0.005243 0.000000 0.028054
#
#
# Mechanical properties :
#
#
# Convention : Reuss Voigt Hill
#
# Bulk Modulus (GPa) = 62.45220 68.67791 65.56506
# Shear Modulus (GPa) = 26.75443 34.37684 30.56563
#
# Velocity S-wave (km/s) = 3.45189 3.91283 3.68957
# Velocity P-wave (km/s) = 6.61071 7.14146 6.88120
#
# Compressibility (1/GPa) = 0.01601224
#
# Stress axis : x y z
#
# Youngs Moduli (GPa) = 40.38339 49.77879 112.98575
#
# Poissons Ratio (x) = 0.61515 0.65505
# Poissons Ratio (y) = 0.49905 0.07792
# Poissons Ratio (z) = 0.23413 0.03433
#
# Static dielectric constant tensor:
#      x y z
#    x 4.016480 0.000000 -0.256030 
#    y 0.000000 4.572270 0.000000 
#    z -0.256030 0.000000 4.428040 
# 
# 
# High freq. dielectric constant tensor:
#      x y z
#    x 1.869100 0.000000 -0.013490 
#    y 0.000000 1.895660 0.000000 
#    z -0.013490 0.000000 1.911400 
# 
# From -- ./inp_files/43284.got.cif
#   From: 2010.03.12/outbox.cif.g09.slc.cpg/sg14_22_cif.got.tgz:43284.got - 2010.03.31 13:35:05.
