data_PCOD8129389
_publ_section_title
;
Structure prediction by ZEFSAII (Michael W. Deem and Ramdas Pophale) SiO2 
 PCOD8129389
Probable space group: P 21/C
;
_chemical_formula_sum "Si O2"
_cell_formula_units_Z 32
_cell_length_a 16.300052
_cell_length_b 19.470331
_cell_length_c 15.458967
_cell_angle_alpha 90.000000
_cell_angle_beta 161.512178
_cell_angle_gamma 90.000000
_cell_volume 1555.762375
_symmetry_space_group_name_H-M "P 21/C"
_symmetry_group_IT_number 14
_symmetry_cell_setting 'monoclinic'
loop_
_space_group_symop_operation_xyz
x,y,z
-x,1/2+y,1/2-z
-x,-y,-z
x,1/2-y,1/2+z
loop_
_atom_site_type_symbol
_atom_site_label
_atom_site_fract_x
_atom_site_fract_y
_atom_site_fract_z
Si Si1 0.500128 0.226328 0.387072
Si Si2 0.999916 0.422031 0.970693
Si Si3 0.500005 0.767574 0.407935
Si Si4 0.999873 0.852519 0.177373
Si Si5 0.999998 0.003373 0.102189
Si Si6 0.500051 0.883475 0.137336
Si Si7 0.000048 0.680998 0.870479
Si Si8 0.500018 0.918716 0.332447
O O1 0.500148 0.229601 0.489671
O O2 0.500078 0.302167 0.347160
O O3 0.751479 0.187734 0.606221
O O4 0.248908 0.187678 0.103643
O O5 0.749682 0.406812 0.664358
O O6 0.000000 0.500000 0.000000
O O7 0.250132 0.406739 0.164824
O O8 0.999795 0.374448 0.054184
O O9 0.750595 0.728664 0.624822
O O10 0.500046 0.842640 0.368957
O O11 0.249539 0.728659 0.123663
O O12 0.999881 0.859846 0.280524
O O13 0.999994 0.927506 0.138819
O O14 0.250071 0.042790 0.384049
O O15 0.750009 0.042817 0.884020
O O16 0.000000 0.000000 0.000000
O O17 0.500117 0.920758 0.229199
#
# Coordination Sequence:
#
# PCOD8129389 Si02
#       8
#     4   4   4   4   4   4   4   4
#     4  12  23  46  69 101 136 176 227 282 343 396
#     4  12  26  46  69 102 144 183 220 279 344 415
#     4  12  24  46  69 103 133 183 222 285 340 400
#     4  12  26  41  71 100 137 179 227 288 333 407
#     4  12  26  49  68 103 137 184 228 280 349 410
#     4  12  25  45  71 104 138 181 233 280 339 406
#     4  12  24  44  68 102 138 176 230 275 340 406
#     4  12  26  43  73 100 139 180 233 286 334 408
#
# _framework density 20.568695000000002
#
# number of rings (size 3 to 8) (size 9 to 14) (size 15 to 20)
#    0.000    0.000    2.500    8.250    3.500    0.000 
#    0.000    0.000    0.000    0.000    0.000    0.000 
#    0.000    0.000    0.000    0.000    0.000    0.000 
#
# Total GULP energy -397053.161193 kJ/mol
# GULP energy per Si atom -12407.911287 kJ/mol
# Density = 2.052188 g / cm^3
# Si number density = 20.568695 Si / 1000 Ang^3
#
#
#
# Elastic Constant Matrix: (Units=GPa)
#
#
# Indices 1 2 3 4 5 6 
#
# 1 188.9918 77.4393 74.2827 0.0000 7.5860 0.0000
# 2 77.4393 196.6343 101.4500 0.0000 6.9986 0.0000
# 3 74.2827 101.4500 219.5382 0.0000 1.4173 0.0000
# 4 0.0000 0.0000 0.0000 43.8588 0.0000 2.5992
# 5 7.5860 6.9986 1.4173 0.0000 68.7420 0.0000
# 6 0.0000 0.0000 0.0000 2.5992 0.0000 34.6058
#
#
#
# Elastic Compliance Matrix: (Units=1/GPa)
#
#
# Indices 1 2 3 4 5 6 
#
# 1 0.006621 -0.001884 -0.001366 0.000000 -0.000511 0.000000
# 2 -0.001884 0.007240 -0.002705 0.000000 -0.000473 0.000000
# 3 -0.001366 -0.002705 0.006265 0.000000 0.000297 0.000000
# 4 0.000000 0.000000 0.000000 0.022902 0.000000 -0.001720
# 5 -0.000511 -0.000473 0.000297 0.000000 0.014646 0.000000
# 6 0.000000 0.000000 0.000000 -0.001720 0.000000 0.029026
#
#
# Mechanical properties :
#
#
# Convention : Reuss Voigt Hill
#
# Bulk Modulus (GPa) = 121.72631 123.50092 122.61362
# Shear Modulus (GPa) = 49.33396 52.90748 51.12072
#
# Velocity S-wave (km/s) = 4.90276 5.07722 4.99075
# Velocity P-wave (km/s) = 9.55815 9.72339 9.64113
#
# Compressibility (1/GPa) = 0.00821515
#
# Stress axis : x y z
#
# Youngs Moduli (GPa) = 151.03856 138.11770 159.60772
#
# Poissons Ratio (x) = 0.26028 0.21804
# Poissons Ratio (y) = 0.28462 0.43175
# Poissons Ratio (z) = 0.20633 0.37362
#
# Static dielectric constant tensor:
#      x y z
#    x 4.119170 0.000000 -0.010130 
#    y 0.000000 3.961960 0.000000 
#    z -0.010130 0.000000 4.084390 
# 
# 
# High freq. dielectric constant tensor:
#      x y z
#    x 1.831660 0.000000 0.000330 
#    y 0.000000 1.822710 0.000000 
#    z 0.000330 0.000000 1.832820 
# 
# From -- ./inp_files/47684.got.cif
#   From: 2010.03.12/outbox.cif.g09.slc.cpg/sg14_24_cif.got.tgz:47684.got - 2010.03.31 13:35:05.
