data_PCOD8129881
_publ_section_title
;
Structure prediction by ZEFSAII (Michael W. Deem and Ramdas Pophale) SiO2 
 PCOD8129881
Probable space group: C 2/C
;
_chemical_formula_sum "Si O2"
_cell_formula_units_Z 56
_cell_length_a 11.810413
_cell_length_b 8.408723
_cell_length_c 25.824965
_cell_angle_alpha 90.000000
_cell_angle_beta 73.329517
_cell_angle_gamma 90.000000
_cell_volume 2456.897090
_symmetry_space_group_name_H-M "C 2/C"
_symmetry_group_IT_number 15
_symmetry_cell_setting 'monoclinic'
loop_
_space_group_symop_operation_xyz
x,y,z
-x,y,1/2-z
-x,-y,-z
x,-y,1/2+z
1/2+x,1/2+y,z
1/2-x,1/2+y,1/2-z
1/2-x,1/2-y,-z
1/2+x,1/2-y,1/2+z
loop_
_atom_site_type_symbol
_atom_site_label
_atom_site_fract_x
_atom_site_fract_y
_atom_site_fract_z
Si Si1 0.303176 0.443150 0.885126
Si Si2 0.990466 0.292380 0.408063
Si Si3 0.115350 0.958698 0.952783
Si Si4 0.297334 0.651724 0.648014
Si Si5 0.489543 0.340851 0.309216
Si Si6 0.802243 0.426405 0.498751
Si Si7 0.541391 0.970446 0.189036
O O1 0.397727 0.343717 0.905401
O O2 0.242664 0.337166 0.847835
O O3 0.370326 0.592731 0.851376
O O4 0.201218 0.488399 0.940780
O O5 0.933808 0.418211 0.456585
O O6 0.025567 0.380265 0.349645
O O7 0.101222 0.203260 0.420625
O O8 0.139108 0.112482 0.914244
O O9 0.226700 0.942940 0.976483
O O10 0.000000 0.000000 0.000000
O O11 0.388314 0.604691 0.680756
O O12 0.182160 0.542580 0.667971
O O13 0.500000 0.407513 0.250000
O O14 0.489768 0.152932 0.311739
O O15 0.750000 0.250000 0.500000
O O16 0.500000 0.899990 0.250000
#
# Coordination Sequence:
#
# PCOD8129881 Si02
#       7
#     8   8   8   8   8   8   8
#     4  10  19  36  64  97 127 168 218 268 316 399
#     4  10  19  35  60  93 127 170 214 265 321 392
#     4  12  17  31  66  98 126 173 214 257 328 395
#     4  11  22  42  65  95 126 173 217 262 336 387
#     4  11  25  44  63  93 129 168 224 278 330 391
#     4  10  16  31  58  96 130 166 213 259 322 389
#     4  10  24  47  62  89 134 170 221 284 319 389
#
# _framework density 22.792978000000002
#
# number of rings (size 3 to 8) (size 9 to 14) (size 15 to 20)
#    0.000    1.429    8.571    0.000    0.000    4.571 
#    7.714    0.714    0.000    4.286    0.000    0.000 
#    0.000    0.000    0.000    0.000    0.000    0.000 
#
# Total GULP energy -347038.585427 kJ/mol
# GULP energy per Si atom -12394.235194 kJ/mol
# Density = 2.274110 g / cm^3
# Si number density = 22.792978 Si / 1000 Ang^3
#
#
#
# Elastic Constant Matrix: (Units=GPa)
#
#
# Indices 1 2 3 4 5 6 
#
# 1 61.3791 14.5612 13.7844 0.0000 -7.3232 0.0000
# 2 14.5612 52.8046 35.2611 0.0000 -7.2685 0.0000
# 3 13.7844 35.2611 143.3592 0.0000 -1.8990 0.0000
# 4 0.0000 0.0000 0.0000 -335.0041 0.0000 -152.8016
# 5 -7.3232 -7.2685 -1.8990 0.0000 18.9031 0.0000
# 6 0.0000 0.0000 0.0000 -152.8016 0.0000 -26.2185
#
#
#
# Elastic Compliance Matrix: (Units=1/GPa)
#
#
# Indices 1 2 3 4 5 6 
#
# 1 0.017992 -0.003712 -0.000745 0.000000 0.005468 0.000000
# 2 -0.003712 0.024757 -0.005633 0.000000 0.007516 0.000000
# 3 -0.000745 -0.005633 0.008411 0.000000 -0.001609 0.000000
# 4 0.000000 0.000000 0.000000 0.001800 0.000000 -0.010491
# 5 0.005468 0.007516 -0.001609 0.000000 0.057748 0.000000
# 6 0.000000 0.000000 0.000000 -0.010491 0.000000 0.023001
#
#
# Mechanical properties :
#
#
# Convention : Reuss Voigt Hill
#
# Bulk Modulus (GPa) = 32.27617 42.75071 37.51344
# Shear Modulus (GPa) = 30.44781 -55.53482 -12.54351
#
# Velocity S-wave (km/s) = 3.65888 -4.94143 -2.34844
# Velocity P-wave (km/s) = 5.66050 3.70948 3.02332
#
# Compressibility (1/GPa) = 0.03098261
#
# Stress axis : x y z
#
# Youngs Moduli (GPa) = 55.57907 40.39221 118.88812
#
# Poissons Ratio (x) = 0.14992 0.08853
# Poissons Ratio (y) = 0.20628 0.66969
# Poissons Ratio (z) = 0.04139 0.22753
#
# Static dielectric constant tensor:
#      x y z
#    x 4.121080 0.000000 0.027660 
#    y 0.000000 3.866550 0.000000 
#    z 0.027660 0.000000 4.629560 
# 
# 
# High freq. dielectric constant tensor:
#      x y z
#    x 1.886580 0.000000 0.003010 
#    y 0.000000 1.877210 0.000000 
#    z 0.003010 0.000000 1.910470 
# 
# From -- ./inp_files/291529.got.cif
#   From: 2010.06.25/outbox.cif.g09.slc.cpg/sg15_146_cif.got.tgz:291529.got - 2010.06.28 07:06:18.
