data_PCOD8129991
_publ_section_title
;
Structure prediction by ZEFSAII (Michael W. Deem and Ramdas Pophale) SiO2 
 PCOD8129991
Probable space group: C 2/C
;
_chemical_formula_sum "Si O2"
_cell_formula_units_Z 52
_cell_length_a 18.656093
_cell_length_b 13.982559
_cell_length_c 14.023588
_cell_angle_alpha 90.000000
_cell_angle_beta 42.519341
_cell_angle_gamma 90.000000
_cell_volume 2472.349037
_symmetry_space_group_name_H-M "C 2/C"
_symmetry_group_IT_number 15
_symmetry_cell_setting 'monoclinic'
loop_
_space_group_symop_operation_xyz
x,y,z
-x,y,1/2-z
-x,-y,-z
x,-y,1/2+z
1/2+x,1/2+y,z
1/2-x,1/2+y,1/2-z
1/2-x,1/2-y,-z
1/2+x,1/2-y,1/2+z
loop_
_atom_site_type_symbol
_atom_site_label
_atom_site_fract_x
_atom_site_fract_y
_atom_site_fract_z
Si Si1 0.168803 0.483537 0.313628
Si Si2 0.843828 0.942237 0.498945
Si Si3 0.465893 0.421966 0.666996
Si Si4 0.526442 0.864922 0.042217
Si Si5 0.498555 0.315987 0.053620
Si Si6 0.500000 0.250681 0.750000
Si Si7 0.311811 0.588132 0.822845
O O1 0.260243 0.509453 0.150417
O O2 0.129587 0.578395 0.406766
O O3 0.209662 0.408191 0.353983
O O4 0.073524 0.435640 0.347051
O O5 0.782151 0.909757 0.463646
O O6 0.895965 0.846246 0.491980
O O7 0.937207 0.017968 0.377877
O O8 0.516068 0.390843 0.517687
O O9 0.426185 0.326884 0.764426
O O10 0.364852 0.486192 0.745513
O O11 0.492919 0.791033 0.992738
O O12 0.555942 0.815474 0.115050
O O13 0.393193 0.325311 0.221872
#
# Coordination Sequence:
#
# PCOD8129991 Si02
#       7
#     8   8   8   8   8   4   8
#     4  11  24  45  58  88 128 167 206 245 316 358
#     4  11  20  36  66  92 121 161 202 248 307 372
#     4  10  16  35  60  97 126 143 185 262 321 352
#     4  10  26  43  61  83 130 170 197 263 300 363
#     4  10  19  39  59  92 124 155 199 252 309 356
#     4  10  20  40  66  94 118 154 204 254 330 354
#     4  11  20  36  66  92 121 161 202 248 307 372
#
# _framework density 21.032630000000001
#
# number of rings (size 3 to 8) (size 9 to 14) (size 15 to 20)
#    0.000    1.538    4.615    2.308    2.154    1.231 
#    0.000    6.154    0.000    0.000    0.000    0.000 
#    0.000    0.000    0.000    0.000    0.000    0.000 
#
# Total GULP energy -322242.691039 kJ/mol
# GULP energy per Si atom -12393.949655 kJ/mol
# Density = 2.098476 g / cm^3
# Si number density = 21.032630 Si / 1000 Ang^3
#
#
#
# Elastic Constant Matrix: (Units=GPa)
#
#
# Indices 1 2 3 4 5 6 
#
# 1 69.4257 -2.0686 42.4319 0.0000 14.2969 0.0000
# 2 -2.0686 73.5625 40.2394 0.0000 2.7894 0.0000
# 3 42.4319 40.2394 98.6832 0.0000 10.6224 0.0000
# 4 0.0000 0.0000 0.0000 16.0531 0.0000 4.2665
# 5 14.2969 2.7894 10.6224 0.0000 34.6031 0.0000
# 6 0.0000 0.0000 0.0000 4.2665 0.0000 21.6116
#
#
#
# Elastic Compliance Matrix: (Units=1/GPa)
#
#
# Indices 1 2 3 4 5 6 
#
# 1 0.023765 0.007878 -0.012726 0.000000 -0.006547 0.000000
# 2 0.007878 0.020130 -0.011449 0.000000 -0.001363 0.000000
# 3 -0.012726 -0.011449 0.020278 0.000000 -0.000044 0.000000
# 4 0.000000 0.000000 0.000000 0.065743 0.000000 -0.012979
# 5 -0.006547 -0.001363 -0.000044 0.000000 0.031728 0.000000
# 6 0.000000 0.000000 0.000000 -0.012979 0.000000 0.048834
#
#
# Mechanical properties :
#
#
# Convention : Reuss Voigt Hill
#
# Bulk Modulus (GPa) = 31.66646 44.76407 38.21527
# Shear Modulus (GPa) = 19.71635 25.19148 22.45391
#
# Velocity S-wave (km/s) = 3.06505 3.46458 3.27092
# Velocity P-wave (km/s) = 5.25496 6.11014 5.69861
#
# Compressibility (1/GPa) = 0.03157915
#
# Stress axis : x y z
#
# Youngs Moduli (GPa) = 42.07912 49.67808 49.31353
#
# Poissons Ratio (x) = -0.39135 0.62756
# Poissons Ratio (y) = -0.33149 0.56457
# Poissons Ratio (z) = 0.53549 0.56875
#
# Static dielectric constant tensor:
#      x y z
#    x 3.737990 0.000000 0.314830 
#    y 0.000000 3.678650 0.000000 
#    z 0.314830 0.000000 3.681530 
# 
# 
# High freq. dielectric constant tensor:
#      x y z
#    x 1.815170 0.000000 0.028980 
#    y 0.000000 1.812010 0.000000 
#    z 0.028980 0.000000 1.818200 
# 
# From -- ./inp_files/161831.got.cif
#   From: 2010.06.25/outbox.cif.g09.slc.cpg/sg15_81_cif.got.tgz:161831.got - 2010.06.28 07:06:18.
