data_PCOD8129922
_publ_section_title
;
Structure prediction by ZEFSAII (Michael W. Deem and Ramdas Pophale) SiO2 
 PCOD8129922
Probable space group: C 2/C
;
_chemical_formula_sum "Si O2"
_cell_formula_units_Z 40
_cell_length_a 7.791058
_cell_length_b 31.549972
_cell_length_c 10.198809
_cell_angle_alpha 90.000000
_cell_angle_beta 124.052641
_cell_angle_gamma 90.000000
_cell_volume 2077.063069
_symmetry_space_group_name_H-M "C 2/C"
_symmetry_group_IT_number 15
_symmetry_cell_setting 'monoclinic'
loop_
_space_group_symop_operation_xyz
x,y,z
-x,y,1/2-z
-x,-y,-z
x,-y,1/2+z
1/2+x,1/2+y,z
1/2-x,1/2+y,1/2-z
1/2-x,1/2-y,-z
1/2+x,1/2-y,1/2+z
loop_
_atom_site_type_symbol
_atom_site_label
_atom_site_fract_x
_atom_site_fract_y
_atom_site_fract_z
Si Si1 0.213991 0.417796 0.600724
Si Si2 0.136933 0.193680 0.046718
Si Si3 0.000000 0.842420 0.750000
Si Si4 0.534438 0.453007 0.563324
Si Si5 0.666727 0.105907 0.435949
Si Si6 0.000000 0.243161 0.750000
O O1 0.296799 0.371337 0.676393
O O2 0.308537 0.432781 0.502144
O O3 0.305622 0.451694 0.745552
O O4 0.964009 0.411091 0.492264
O O5 0.255495 0.154169 0.028951
O O6 0.298388 0.228094 0.166067
O O7 0.994370 0.183733 0.112255
O O8 0.988728 0.213696 0.873750
O O9 0.500000 0.500000 0.500000
O O10 0.633696 0.424437 0.490848
O O11 0.500000 0.099097 0.250000
#
# Coordination Sequence:
#
# PCOD8129922 Si02
#       6
#     8   8   4   8   8   4
#     4   9  17  31  53  81  97 152 190 231 278 358
#     4  11  19  38  56  88 112 160 189 244 288 352
#     4  10  16  32  64  79 108 148 205 228 274 360
#     4   9  17  29  48  80 106 132 184 241 277 336
#     4  10  16  32  59  76 102 152 193 226 286 352
#     4  10  24  34  56  85 128 146 191 244 304 336
#
# _framework density 19.257960000000001
#
# number of rings (size 3 to 8) (size 9 to 14) (size 15 to 20)
#    0.000    2.400    7.000    0.000    0.000    1.600 
#    0.000    2.000    0.000    0.000    0.000    0.000 
#    0.000    0.000    0.000    0.000    0.000    0.000 
#
# Total GULP energy -247780.703629 kJ/mol
# GULP energy per Si atom -12389.035181 kJ/mol
# Density = 1.921413 g / cm^3
# Si number density = 19.257960 Si / 1000 Ang^3
#
#
#
# Elastic Constant Matrix: (Units=GPa)
#
#
# Indices 1 2 3 4 5 6 
#
# 1 162.1377 68.4499 33.2860 0.0000 -2.7451 0.0000
# 2 68.4499 140.0636 51.1685 0.0000 -4.4983 0.0000
# 3 33.2860 51.1685 62.7050 0.0000 -7.9370 0.0000
# 4 0.0000 0.0000 0.0000 26.4879 0.0000 -14.5452
# 5 -2.7451 -4.4983 -7.9370 0.0000 15.3546 0.0000
# 6 0.0000 0.0000 0.0000 -14.5452 0.0000 21.5378
#
#
#
# Elastic Compliance Matrix: (Units=1/GPa)
#
#
# Indices 1 2 3 4 5 6 
#
# 1 0.007868 -0.003297 -0.001530 0.000000 -0.000350 0.000000
# 2 -0.003297 0.011582 -0.007860 0.000000 -0.001260 0.000000
# 3 -0.001530 -0.007860 0.024448 0.000000 0.010061 0.000000
# 4 0.000000 0.000000 0.000000 0.060006 0.000000 0.040524
# 5 -0.000350 -0.001260 0.010061 0.000000 0.069896 0.000000
# 6 0.000000 0.000000 0.000000 0.040524 0.000000 0.073797
#
#
# Mechanical properties :
#
#
# Convention : Reuss Voigt Hill
#
# Bulk Modulus (GPa) = 53.99011 74.52389 64.25700
# Shear Modulus (GPa) = 17.91172 26.80952 22.36062
#
# Velocity S-wave (km/s) = 3.05305 3.73517 3.41120
# Velocity P-wave (km/s) = 6.36587 7.57520 6.99671
#
# Compressibility (1/GPa) = 0.01852191
#
# Stress axis : x y z
#
# Youngs Moduli (GPa) = 127.09988 86.33983 40.90367
#
# Poissons Ratio (x) = 0.28469 0.06259
# Poissons Ratio (y) = 0.41908 0.32152
# Poissons Ratio (z) = 0.19449 0.67866
#
# Static dielectric constant tensor:
#      x y z
#    x 4.129860 0.000000 -0.063900 
#    y 0.000000 3.501490 0.000000 
#    z -0.063900 0.000000 3.080550 
# 
# 
# High freq. dielectric constant tensor:
#      x y z
#    x 1.767270 0.000000 -0.004320 
#    y 0.000000 1.750320 0.000000 
#    z -0.004320 0.000000 1.690010 
# 
# From -- ./inp_files/81917.got.cif
#   From: 2010.06.25/outbox.cif.g09.slc.cpg/sg15_41_cif.got.tgz:81917.got - 2010.06.28 07:06:18.
