data_PCOD8129546
_publ_section_title
;
Structure prediction by ZEFSAII (Michael W. Deem and Ramdas Pophale) SiO2 
 PCOD8129546
Probable space group: C 2/C
;
_chemical_formula_sum "Si O2"
_cell_formula_units_Z 32
_cell_length_a 18.000000
_cell_length_b 9.000000
_cell_length_c 30.000000
_cell_angle_alpha 90.000000
_cell_angle_beta 40.000000
_cell_angle_gamma 90.000000
_cell_volume 3123.947783
_symmetry_space_group_name_H-M "C 2/C"
_symmetry_group_IT_number 15
_symmetry_cell_setting 'monoclinic'
loop_
_space_group_symop_operation_xyz
x,y,z
-x,y,1/2-z
-x,-y,-z
x,-y,1/2+z
1/2+x,1/2+y,z
1/2-x,1/2+y,1/2-z
1/2-x,1/2-y,-z
1/2+x,1/2-y,1/2+z
loop_
_atom_site_type_symbol
_atom_site_label
_atom_site_fract_x
_atom_site_fract_y
_atom_site_fract_z
Si Si1 0.758503 0.225576 0.603688
Si Si2 0.667120 0.044571 0.913034
Si Si3 0.094683 0.883052 0.238629
Si Si4 0.141676 0.673389 0.297634
Si Si5 0.517980 0.323671 0.671811
Si Si6 0.475027 0.023077 0.439304
Si Si7 0.810996 0.624281 0.773275
Si Si8 0.871627 0.772422 0.964280
O O1 0.825386 0.366582 0.592220
O O2 0.638869 0.291353 0.640022
O O3 0.735423 0.107787 0.654208
O O4 0.846963 0.158558 0.525177
O O5 0.786529 0.120669 0.843969
O O6 0.571789 0.077027 0.919718
O O7 0.617166 0.100657 0.983994
O O8 0.099129 0.785375 0.280129
O O9 0.000000 0.809367 0.250000
O O10 0.053659 0.047546 0.271024
O O11 0.200111 0.529774 0.247870
O O12 0.241269 0.746008 0.280975
O O13 0.030957 0.640629 0.379645
O O14 0.444344 0.173302 0.710887
O O15 0.544190 0.367208 0.607428
O O16 0.411431 0.897092 0.441523
O O17 0.750000 0.750000 0.000000
#
# Coordination Sequence:
#
# PCOD8129546 Si02
#       8
#     8   8   8   8   8   8   8   8
#     4  10  19  35  62  92 124 162 208 247 308 374
#     4  10  19  37  66  88 123 165 210 251 306 382
#     4  12  24  42  61  91 126 169 213 258 316 369
#     4  12  26  41  62  92 125 161 212 263 314 371
#     4  11  19  36  65  89 124 164 207 251 304 370
#     4  10  19  38  63  93 123 162 212 253 312 370
#     4  12  22  39  61  91 121 162 205 259 312 365
#     4   9  20  34  59  98 126 160 208 255 306 377
#
# _framework density 10.243449
#
# number of rings (size 3 to 8) (size 9 to 14) (size 15 to 20)
#    0.000    1.250    5.000    1.875    0.000    1.000 
#    0.000    1.875    0.000    2.250    0.000    0.000 
#    0.000    0.000    0.000    0.000    0.000    0.000 
#
# Total GULP energy -396450.526451 kJ/mol
# GULP energy per Si atom -12389.078952 kJ/mol
# Density = 1.022013 g / cm^3
# Si number density = 10.243449 Si / 1000 Ang^3
#
#
#
# Elastic Constant Matrix: (Units=GPa)
#
#
# Indices 1 2 3 4 5 6 
#
# 1 60.8376 21.8820 35.7937 -0.0001 10.1691 0.0044
# 2 21.8820 45.8045 27.9074 -0.0010 3.8864 0.0106
# 3 35.7937 27.9074 176.8740 -0.0002 28.7886 0.0009
# 4 -0.0001 -0.0010 -0.0002 21.2661 -0.0002 6.6210
# 5 10.1691 3.8864 28.7886 -0.0002 39.6838 0.0005
# 6 0.0044 0.0106 0.0009 6.6210 0.0005 16.8413
#
#
#
# Elastic Compliance Matrix: (Units=1/GPa)
#
#
# Indices 1 2 3 4 5 6 
#
# 1 0.021448 -0.008455 -0.002547 0.000000 -0.002820 0.000000
# 2 -0.008455 0.027494 -0.002882 0.000007 0.001565 -0.000018
# 3 -0.002547 -0.002882 0.007338 -0.000001 -0.004389 0.000003
# 4 0.000000 0.000007 -0.000001 0.053582 0.000001 -0.021065
# 5 -0.002820 0.001565 -0.004389 0.000001 0.028952 -0.000001
# 6 0.000000 -0.000018 0.000003 -0.021065 -0.000001 0.067659
#
#
# Mechanical properties :
#
#
# Convention : Reuss Voigt Hill
#
# Bulk Modulus (GPa) = 35.07242 50.52025 42.79634
# Shear Modulus (GPa) = 20.51310 28.75378 24.63344
#
# Velocity S-wave (km/s) = 3.16773 3.75042 3.47133
# Velocity P-wave (km/s) = 5.52594 6.59299 6.08291
#
# Compressibility (1/GPa) = 0.02851243
#
# Stress axis : x y z
#
# Youngs Moduli (GPa) = 46.62335 36.37139 136.27284
#
# Poissons Ratio (x) = 0.30753 0.34714
# Poissons Ratio (y) = 0.39421 0.39269
# Poissons Ratio (z) = 0.11877 0.10481
#
# Static dielectric constant tensor:
#      x y z
#    x 5.148450 0.000000 2.025070 
#    y 0.000000 3.242680 0.000000 
#    z 2.025070 0.000000 7.216040 
# 
# 
# High freq. dielectric constant tensor:
#      x y z
#    x 1.804000 0.000000 0.008930 
#    y 0.000000 1.742840 0.000000 
#    z 0.008930 0.000000 1.839010 
# 
# From -- ./inp_files/315682.got.cif
#   From: 2010.06.25/outbox.ucp.g09.slc.cvg/sg15_158_cif.got.tgz:315682.got - 2010.06.28 14:40:10.
