data_PCOD8129602
_publ_section_title
;
Structure prediction by ZEFSAII (Michael W. Deem and Ramdas Pophale) SiO2 
 PCOD8129602
Probable space group: C 2/C
;
_chemical_formula_sum "Si O2"
_cell_formula_units_Z 32
_cell_length_a 18.000000
_cell_length_b 9.000000
_cell_length_c 30.000000
_cell_angle_alpha 90.000000
_cell_angle_beta 40.000000
_cell_angle_gamma 90.000000
_cell_volume 3123.947783
_symmetry_space_group_name_H-M "C 2/C"
_symmetry_group_IT_number 15
_symmetry_cell_setting 'monoclinic'
loop_
_space_group_symop_operation_xyz
x,y,z
-x,y,1/2-z
-x,-y,-z
x,-y,1/2+z
1/2+x,1/2+y,z
1/2-x,1/2+y,1/2-z
1/2-x,1/2-y,-z
1/2+x,1/2-y,1/2+z
loop_
_atom_site_type_symbol
_atom_site_label
_atom_site_fract_x
_atom_site_fract_y
_atom_site_fract_z
Si Si1 0.480534 0.134190 0.594962
Si Si2 0.948245 0.610563 0.372617
Si Si3 0.350545 0.207649 0.063257
Si Si4 0.161678 0.326605 0.714590
Si Si5 0.726808 0.469817 0.923164
Si Si6 0.139265 0.088159 0.315784
Si Si7 0.734581 0.490370 0.178699
Si Si8 0.999957 0.834670 0.072803
O O1 0.572558 0.137662 0.511944
O O2 0.460698 0.294412 0.626488
O O3 0.526630 0.042684 0.615080
O O4 0.361804 0.062245 0.633649
O O5 0.817114 0.592762 0.417089
O O6 0.952272 0.742101 0.407168
O O7 0.031119 0.631572 0.290592
O O8 0.285978 0.352433 0.073717
O O9 0.249990 0.096456 0.128109
O O10 0.432661 0.234863 0.068060
O O11 0.225420 0.421575 0.647142
O O12 0.237703 0.352327 0.723717
O O13 0.161423 0.155325 0.698542
O O14 0.601798 0.408812 0.996438
O O15 0.162169 0.066504 0.252389
O O16 0.095651 0.942561 0.361680
#
# Coordination Sequence:
#
# PCOD8129602 Si02
#       8
#     8   8   8   8   8   8   8   8
#     4  11  24  40  67 100 132 169 221 281 332 392
#     4  12  26  44  66  94 140 179 219 269 340 413
#     4  12  24  43  69 103 130 169 230 283 332 392
#     4  11  23  42  67  97 129 175 227 275 331 399
#     4  12  27  43  66  96 137 183 216 269 343 410
#     4  11  21  40  69 100 130 166 228 282 330 383
#     4  11  23  39  70 101 128 169 226 288 331 381
#     4  12  22  46  67  99 129 176 226 276 331 396
#
# _framework density 10.243449
#
# number of rings (size 3 to 8) (size 9 to 14) (size 15 to 20)
#    0.000    0.500    6.250    3.000    5.250    0.500 
#    0.000    0.000    0.000    0.000    0.000    0.000 
#    0.000    0.000    0.000    0.000    0.000    0.000 
#
# Total GULP energy -396621.233509 kJ/mol
# GULP energy per Si atom -12394.413547 kJ/mol
# Density = 1.022013 g / cm^3
# Si number density = 10.243449 Si / 1000 Ang^3
#
#
#
# Elastic Constant Matrix: (Units=GPa)
#
#
# Indices 1 2 3 4 5 6 
#
# 1 44.2912 23.6297 12.2572 -0.0003 -0.4053 0.0033
# 2 23.6297 105.3523 45.1252 0.0002 8.6850 0.0026
# 3 12.2572 45.1252 184.2024 -0.0007 22.5637 0.0007
# 4 -0.0003 0.0002 -0.0007 51.9464 -0.0002 11.0360
# 5 -0.4053 8.6850 22.5637 -0.0002 34.2277 0.0006
# 6 0.0033 0.0026 0.0007 11.0360 0.0006 26.6155
#
#
#
# Elastic Compliance Matrix: (Units=1/GPa)
#
#
# Indices 1 2 3 4 5 6 
#
# 1 0.025807 -0.005717 -0.000579 0.000001 0.002138 -0.000003
# 2 -0.005717 0.011907 -0.002348 0.000000 -0.001541 0.000000
# 3 -0.000579 -0.002348 0.006495 0.000000 -0.003693 0.000000
# 4 0.000001 0.000000 0.000000 0.021110 0.000000 -0.008753
# 5 0.002138 -0.001541 -0.003693 0.000000 0.032067 -0.000001
# 6 -0.000003 0.000000 0.000000 -0.008753 -0.000001 0.041202
#
#
# Mechanical properties :
#
#
# Convention : Reuss Voigt Hill
#
# Bulk Modulus (GPa) = 37.14317 55.09667 46.11992
# Shear Modulus (GPa) = 30.33092 39.41350 34.87221
#
# Velocity S-wave (km/s) = 3.85191 4.39092 4.13021
# Velocity P-wave (km/s) = 6.16056 7.25664 6.73095
#
# Compressibility (1/GPa) = 0.02692285
#
# Stress axis : x y z
#
# Youngs Moduli (GPa) = 38.74843 83.98538 153.97011
#
# Poissons Ratio (x) = 0.48013 0.08909
# Poissons Ratio (y) = 0.22152 0.36147
# Poissons Ratio (z) = 0.02242 0.19717
#
# Static dielectric constant tensor:
#      x y z
#    x 3.524060 0.000000 0.105240 
#    y 0.000000 4.042600 0.000000 
#    z 0.105240 0.000000 4.250070 
# 
# 
# High freq. dielectric constant tensor:
#      x y z
#    x 1.774530 0.000000 0.014750 
#    y 0.000000 1.817450 0.000000 
#    z 0.014750 0.000000 1.849710 
# 
# From -- ./inp_files/315660.got.cif
#   From: 2010.06.25/outbox.ucp.g09.slc.cvg/sg15_158_cif.got.tgz:315660.got - 2010.06.28 14:40:10.
