data_PCOD8129769
_publ_section_title
;
Structure prediction by ZEFSAII (Michael W. Deem and Ramdas Pophale) SiO2 
 PCOD8129769
Probable space group: C 2/C
;
_chemical_formula_sum "Si O2"
_cell_formula_units_Z 64
_cell_length_a 21.141512
_cell_length_b 18.310767
_cell_length_c 21.474559
_cell_angle_alpha 90.000000
_cell_angle_beta 28.305782
_cell_angle_gamma 90.000000
_cell_volume 3941.916076
_symmetry_space_group_name_H-M "C 2/C"
_symmetry_group_IT_number 15
_symmetry_cell_setting 'monoclinic'
loop_
_space_group_symop_operation_xyz
x,y,z
-x,y,1/2-z
-x,-y,-z
x,-y,1/2+z
1/2+x,1/2+y,z
1/2-x,1/2+y,1/2-z
1/2-x,1/2-y,-z
1/2+x,1/2-y,1/2+z
loop_
_atom_site_type_symbol
_atom_site_label
_atom_site_fract_x
_atom_site_fract_y
_atom_site_fract_z
Si Si1 0.271634 0.190702 0.718541
Si Si2 0.055373 0.690849 0.530335
Si Si3 0.206105 0.458510 0.347935
Si Si4 0.659115 0.654953 0.946370
Si Si5 0.055008 0.478825 0.862167
Si Si6 0.703928 0.847847 0.779899
Si Si7 0.566113 0.095370 0.759317
Si Si8 0.563024 0.551581 0.393163
O O1 0.420490 0.209314 0.610830
O O2 0.266921 0.128490 0.669584
O O3 0.184624 0.159900 0.850683
O O4 0.209475 0.266307 0.746636
O O5 0.109803 0.766150 0.512951
O O6 0.158600 0.654743 0.391833
O O7 0.031910 0.635858 0.607419
O O8 0.134576 0.471583 0.343113
O O9 0.343541 0.503414 0.233731
O O10 0.104395 0.483573 0.489554
O O11 0.791843 0.635437 0.869677
O O12 0.549732 0.591040 0.050850
O O13 0.100754 0.394660 0.827815
O O14 0.086980 0.512734 0.766868
O O15 0.848003 0.886058 0.651040
O O16 0.500000 0.092694 0.750000
O O17 0.500000 0.500000 0.500000
#
# Coordination Sequence:
#
# PCOD8129769 Si02
#       8
#     8   8   8   8   8   8   8   8
#     4  10  16  29  45  75 100 127 151 187 244 306
#     4  10  18  33  49  70  99 131 162 198 243 292
#     4  10  17  28  50  71 101 127 152 193 250 309
#     4  10  19  31  46  68 101 126 162 204 240 284
#     4  10  17  32  47  71  94 128 164 200 238 292
#     4  10  19  27  51  72 101 129 151 192 252 306
#     4  11  22  36  51  65  91 135 181 213 234 271
#     4  11  18  26  42  72 101 126 150 187 254 297
#
# _framework density 16.235759000000002
#
# number of rings (size 3 to 8) (size 9 to 14) (size 15 to 20)
#    0.000    1.750    6.250    2.250    0.000    0.500 
#    0.000    0.000    0.000    0.000    0.000    0.875 
#    0.000    0.000    0.000    0.000    0.000    0.000 
#
# Total GULP energy -396724.094334 kJ/mol
# GULP energy per Si atom -12397.627948 kJ/mol
# Density = 1.619881 g / cm^3
# Si number density = 16.235759 Si / 1000 Ang^3
#
#
#
# Elastic Constant Matrix: (Units=GPa)
#
#
# Indices 1 2 3 4 5 6 
#
# 1 53.2352 36.6138 21.3208 -0.0006 -5.7721 0.0012
# 2 36.6138 126.7106 38.1620 -0.0055 -7.9558 0.0001
# 3 21.3208 38.1620 75.7568 -0.0086 -16.4566 0.0006
# 4 -0.0006 -0.0055 -0.0086 31.2154 -0.0009 -4.9937
# 5 -5.7721 -7.9558 -16.4566 -0.0009 15.1690 0.0010
# 6 0.0012 0.0001 0.0006 -4.9937 0.0010 12.4898
#
#
#
# Elastic Compliance Matrix: (Units=1/GPa)
#
#
# Indices 1 2 3 4 5 6 
#
# 1 0.024463 -0.005897 -0.003355 -0.000002 0.002577 -0.000003
# 2 -0.005897 0.010726 -0.003937 0.000001 -0.000889 0.000001
# 3 -0.003355 -0.003937 0.020150 0.000005 0.018520 0.000000
# 4 -0.000002 0.000001 0.000005 0.034225 0.000007 0.013684
# 5 0.002577 -0.000889 0.018520 0.000007 0.086530 -0.000005
# 6 -0.000003 0.000001 0.000000 0.013684 -0.000005 0.085536
#
#
# Mechanical properties :
#
#
# Convention : Reuss Voigt Hill
#
# Bulk Modulus (GPa) = 34.52668 49.76619 42.14643
# Shear Modulus (GPa) = 16.79771 22.41523 19.60647
#
# Velocity S-wave (km/s) = 3.22003 3.71969 3.47884
# Velocity P-wave (km/s) = 5.92763 7.01191 6.49244
#
# Compressibility (1/GPa) = 0.02896311
#
# Stress axis : x y z
#
# Youngs Moduli (GPa) = 40.87799 93.23459 49.62701
#
# Poissons Ratio (x) = 0.54977 0.16649
# Poissons Ratio (y) = 0.24104 0.19536
# Poissons Ratio (z) = 0.13713 0.36703
#
# Static dielectric constant tensor:
#      x y z
#    x 2.445130 -0.000010 -0.228840 
#    y -0.000010 3.353010 0.000020 
#    z -0.228840 0.000020 3.324890 
# 
# 
# High freq. dielectric constant tensor:
#      x y z
#    x 1.537740 0.000000 -0.028130 
#    y 0.000000 1.646120 0.000000 
#    z -0.028130 0.000000 1.638270 
# 
# From -- ./inp_files/253222.got.cif
#   From: 2010.06.25/outbox.cif.g09.slc.cpg/sg15_127_cif.got.tgz:253222.got - 2010.06.28 07:06:18.
