data_PCOD8129136
_publ_section_title
;
Structure prediction by ZEFSAII (Michael W. Deem and Ramdas Pophale) SiO2 
 PCOD8129136
Probable space group: P 21/C
;
_chemical_formula_sum "Si O2"
_cell_formula_units_Z 20
_cell_length_a 6.607916
_cell_length_b 8.193372
_cell_length_c 16.430014
_cell_angle_alpha 90.000000
_cell_angle_beta 94.008500
_cell_angle_gamma 90.000000
_cell_volume 887.363172
_symmetry_space_group_name_H-M "P 21/C"
_symmetry_group_IT_number 14
_symmetry_cell_setting 'monoclinic'
loop_
_space_group_symop_operation_xyz
x,y,z
-x,1/2+y,1/2-z
-x,-y,-z
x,1/2-y,1/2+z
loop_
_atom_site_type_symbol
_atom_site_label
_atom_site_fract_x
_atom_site_fract_y
_atom_site_fract_z
Si Si1 0.379513 0.120710 0.937398
Si Si2 0.758499 0.440403 0.727403
Si Si3 0.146982 0.141372 0.534841
Si Si4 0.508603 0.051576 0.379207
Si Si5 0.109486 0.889766 0.325847
O O1 0.531617 0.261322 0.909158
O O2 0.298941 0.020295 0.859128
O O3 0.184770 0.203205 0.977573
O O4 0.500000 0.000000 0.000000
O O5 0.588749 0.475417 0.790080
O O6 0.766244 0.245893 0.719025
O O7 0.979622 0.501539 0.760465
O O8 0.041898 0.201475 0.615345
O O9 0.369520 0.065636 0.556471
O O10 0.000000 0.000000 0.500000
O O11 0.269862 0.007511 0.376260
#
# Coordination Sequence:
#
# PCOD8129136 Si02
#       5
#     4   4   4   4   4
#     4  12  26  44  71 108 140 181 241 297 355 428
#     4  11  26  43  71 101 137 184 234 289 348 433
#     4  11  25  44  72  99 137 188 227 290 363 417
#     4  11  24  47  71  96 143 186 231 287 361 421
#     4  11  24  45  70  99 139 187 235 286 356 427
#
# _framework density 22.538685000000001
#
# number of rings (size 3 to 8) (size 9 to 14) (size 15 to 20)
#    0.000    0.800    2.000    4.200    5.600    7.200 
#    0.000    0.000    0.000    0.000    0.000    0.000 
#    0.000    0.000    0.000    0.000    0.000    0.000 
#
# Total GULP energy -248059.382149 kJ/mol
# GULP energy per Si atom -12402.969107 kJ/mol
# Density = 2.248739 g / cm^3
# Si number density = 22.538685 Si / 1000 Ang^3
#
#
#
# Elastic Constant Matrix: (Units=GPa)
#
#
# Indices 1 2 3 4 5 6 
#
# 1 117.2579 40.2006 48.8181 0.0000 9.8820 0.0000
# 2 40.2006 120.8712 49.0521 0.0000 2.6767 0.0000
# 3 48.8181 49.0521 119.7135 0.0000 17.3646 0.0000
# 4 0.0000 0.0000 0.0000 44.8460 0.0000 -1.8051
# 5 9.8820 2.6767 17.3646 0.0000 32.6996 0.0000
# 6 0.0000 0.0000 0.0000 -1.8051 0.0000 44.1365
#
#
#
# Elastic Compliance Matrix: (Units=1/GPa)
#
#
# Indices 1 2 3 4 5 6 
#
# 1 0.010770 -0.002217 -0.003291 0.000000 -0.001326 0.000000
# 2 -0.002217 0.010444 -0.003628 0.000000 0.001742 0.000000
# 3 -0.003291 -0.003628 0.011912 0.000000 -0.005034 0.000000
# 4 0.000000 0.000000 0.000000 0.022335 0.000000 0.000913
# 5 -0.001326 0.001742 -0.005034 0.000000 0.033513 0.000000
# 6 0.000000 0.000000 0.000000 0.000913 0.000000 0.022694
#
#
# Mechanical properties :
#
#
# Convention : Reuss Voigt Hill
#
# Bulk Modulus (GPa) = 67.32182 70.44268 68.88225
# Shear Modulus (GPa) = 37.06621 38.98786 38.02703
#
# Velocity S-wave (km/s) = 4.05972 4.16362 4.11200
# Velocity P-wave (km/s) = 7.20481 7.37810 7.29197
#
# Compressibility (1/GPa) = 0.01485403
#
# Stress axis : x y z
#
# Youngs Moduli (GPa) = 92.84794 95.74482 83.94705
#
# Poissons Ratio (x) = 0.21227 0.27630
# Poissons Ratio (y) = 0.20585 0.30457
# Poissons Ratio (z) = 0.30559 0.34737
#
# Static dielectric constant tensor:
#      x y z
#    x 4.094440 0.000000 -0.174530 
#    y 0.000000 3.883170 0.000000 
#    z -0.174530 0.000000 4.347540 
# 
# 
# High freq. dielectric constant tensor:
#      x y z
#    x 1.891390 0.000000 -0.009250 
#    y 0.000000 1.886130 0.000000 
#    z -0.009250 0.000000 1.910880 
# 
# From -- ./inp_files/52631.got.cif
#   From: 2010.03.12/outbox.cif.g09.slc.cpg/sg14_27_cif.got.tgz:52631.got - 2010.03.31 13:35:05.
