data_PCOD8129731
_publ_section_title
;
Structure prediction by ZEFSAII (Michael W. Deem and Ramdas Pophale) SiO2 
 PCOD8129731
Probable space group: C 2/C
;
_chemical_formula_sum "Si O2"
_cell_formula_units_Z 64
_cell_length_a 21.091238
_cell_length_b 23.001467
_cell_length_c 17.984426
_cell_angle_alpha 90.000000
_cell_angle_beta 153.819966
_cell_angle_gamma 90.000000
_cell_volume 3849.310605
_symmetry_space_group_name_H-M "C 2/C"
_symmetry_group_IT_number 15
_symmetry_cell_setting 'monoclinic'
loop_
_space_group_symop_operation_xyz
x,y,z
-x,y,1/2-z
-x,-y,-z
x,-y,1/2+z
1/2+x,1/2+y,z
1/2-x,1/2+y,1/2-z
1/2-x,1/2-y,-z
1/2+x,1/2-y,1/2+z
loop_
_atom_site_type_symbol
_atom_site_label
_atom_site_fract_x
_atom_site_fract_y
_atom_site_fract_z
Si Si1 0.369758 0.201956 0.456436
Si Si2 0.617399 0.030648 0.270504
Si Si3 0.662307 0.068991 0.711005
Si Si4 0.308105 0.005365 0.500749
Si Si5 0.334758 0.861905 0.063636
Si Si6 0.701440 0.811990 0.322537
Si Si7 0.341195 0.505460 0.301666
Si Si8 0.147914 0.399732 0.664397
O O1 0.291284 0.164221 0.438178
O O2 0.538290 0.209867 0.647232
O O3 0.302051 0.265527 0.387711
O O4 0.341554 0.168437 0.347864
O O5 0.695561 0.979215 0.308095
O O6 0.699941 0.038250 0.436525
O O7 0.452522 0.011043 0.108251
O O8 0.634846 0.090286 0.240230
O O9 0.725595 0.130410 0.800513
O O10 0.492030 0.071682 0.520039
O O11 0.746194 0.049677 0.725974
O O12 0.310830 0.069398 0.539586
O O13 0.170506 0.002474 0.300983
O O14 0.500000 0.848861 0.250000
O O15 0.252000 0.827727 0.043310
O O16 0.500000 0.500000 0.500000
O O17 0.282106 0.566567 0.270277
#
# Coordination Sequence:
#
# PCOD8129731 Si02
#       8
#     8   8   8   8   8   8   8   8
#     4  10  20  32  51  68 101 136 177 212 248 294
#     4  10  16  27  55  77  94 127 174 218 243 303
#     4  10  17  33  50  70  97 132 176 209 244 300
#     4  11  16  29  51  79 102 128 166 209 263 301
#     4  10  16  29  48  74  99 134 174 209 244 295
#     4  10  20  32  49  71  98 138 178 213 247 294
#     4  11  21  31  48  75 107 133 160 208 266 316
#     4  10  18  33  50  71  97 136 178 210 247 301
#
# _framework density 16.626353999999999
#
# number of rings (size 3 to 8) (size 9 to 14) (size 15 to 20)
#    0.000    1.750    6.250    1.875    0.000    1.000 
#    0.000    2.500    0.000    0.000    0.000    0.875 
#    0.000    0.000    0.000    0.375    0.000    0.000 
#
# Total GULP energy -396517.890710 kJ/mol
# GULP energy per Si atom -12391.184085 kJ/mol
# Density = 1.658851 g / cm^3
# Si number density = 16.626354 Si / 1000 Ang^3
#
#
#
# Elastic Constant Matrix: (Units=GPa)
#
#
# Indices 1 2 3 4 5 6 
#
# 1 75.9716 47.3543 28.0995 0.0000 -20.5519 0.0000
# 2 47.3543 78.2703 19.3629 0.0000 -3.7036 0.0000
# 3 28.0995 19.3629 67.4039 0.0000 -12.7000 0.0000
# 4 0.0000 0.0000 0.0000 17.6657 0.0000 0.7428
# 5 -20.5519 -3.7036 -12.7000 0.0000 26.3744 0.0000
# 6 0.0000 0.0000 0.0000 0.7428 0.0000 34.3215
#
#
#
# Elastic Compliance Matrix: (Units=1/GPa)
#
#
# Indices 1 2 3 4 5 6 
#
# 1 0.029971 -0.016178 -0.004261 0.000000 0.019031 0.000000
# 2 -0.016178 0.022487 -0.001645 0.000000 -0.010241 0.000000
# 3 -0.004261 -0.001645 0.018054 0.000000 0.005142 0.000000
# 4 0.000000 0.000000 0.000000 0.056658 0.000000 -0.001226
# 5 0.019031 -0.010241 0.005142 0.000000 0.053783 0.000000
# 6 0.000000 0.000000 0.000000 -0.001226 0.000000 0.029163
#
#
# Mechanical properties :
#
#
# Convention : Reuss Voigt Hill
#
# Bulk Modulus (GPa) = 37.96089 45.69770 41.82930
# Shear Modulus (GPa) = 19.00667 24.12758 21.56712
#
# Velocity S-wave (km/s) = 3.38474 3.81355 3.60552
# Velocity P-wave (km/s) = 6.17710 6.85096 6.52274
#
# Compressibility (1/GPa) = 0.02634290
#
# Stress axis : x y z
#
# Youngs Moduli (GPa) = 33.36517 44.47102 55.39028
#
# Poissons Ratio (x) = 0.71946 0.23604
# Poissons Ratio (y) = 0.53979 0.09111
# Poissons Ratio (z) = 0.14218 0.07315
#
# Static dielectric constant tensor:
#      x y z
#    x 3.374150 0.000000 -0.270480 
#    y 0.000000 3.002750 0.000000 
#    z -0.270480 0.000000 2.980710 
# 
# 
# High freq. dielectric constant tensor:
#      x y z
#    x 1.635820 0.000000 -0.012420 
#    y 0.000000 1.614280 0.000000 
#    z -0.012420 0.000000 1.615480 
# 
# From -- ./inp_files/51237.got.cif
#   From: 2010.06.25/outbox.cif.g09.slc.cpg/sg15_26_cif.got.tgz:51237.got - 2010.06.28 07:06:18.
