data_PCOD8129379
_publ_section_title
;
Structure prediction by ZEFSAII (Michael W. Deem and Ramdas Pophale) SiO2 
 PCOD8129379
Probable space group: P 21/C
;
_chemical_formula_sum "Si O2"
_cell_formula_units_Z 28
_cell_length_a 10.269607
_cell_length_b 6.711700
_cell_length_c 18.599392
_cell_angle_alpha 90.000000
_cell_angle_beta 106.104606
_cell_angle_gamma 90.000000
_cell_volume 1231.682018
_symmetry_space_group_name_H-M "P 21/C"
_symmetry_group_IT_number 14
_symmetry_cell_setting 'monoclinic'
loop_
_space_group_symop_operation_xyz
x,y,z
-x,1/2+y,1/2-z
-x,-y,-z
x,1/2-y,1/2+z
loop_
_atom_site_type_symbol
_atom_site_label
_atom_site_fract_x
_atom_site_fract_y
_atom_site_fract_z
Si Si1 0.312986 0.364197 0.263783
Si Si2 0.249703 0.772838 0.578111
Si Si3 0.393829 0.112894 0.533569
Si Si4 0.424678 0.086160 0.158426
Si Si5 0.060575 0.485664 0.143930
Si Si6 0.813922 0.742642 0.115169
Si Si7 0.932825 0.104978 0.058147
O O1 0.348572 0.214326 0.206005
O O2 0.429204 0.528932 0.288513
O O3 0.170142 0.469366 0.224200
O O4 0.295197 0.254919 0.337456
O O5 0.327573 0.602479 0.632927
O O6 0.112899 0.847634 0.595977
O O7 0.206879 0.704444 0.491452
O O8 0.349989 0.959312 0.588653
O O9 0.451873 0.301100 0.586707
O O10 0.264253 0.184779 0.469193
O O11 0.500000 0.000000 0.500000
O O12 0.919364 0.569180 0.153137
O O13 0.036817 0.269538 0.104380
O O14 0.893357 0.950412 0.114763
O O15 0.000000 0.000000 0.000000
#
# Coordination Sequence:
#
# PCOD8129379 Si02
#       7
#     4   4   4   4   4   4   4
#     4  12  30  49  74 106 156 208 245 306 385 457
#     4  12  23  46  77 107 143 192 252 312 372 445
#     4  12  27  48  78 112 143 195 260 321 373 437
#     4  12  28  53  75 107 150 202 259 307 373 455
#     4  12  26  46  72 110 150 196 245 300 387 461
#     4  12  28  47  72 114 152 193 249 320 379 445
#     4  12  23  43  75 110 146 187 243 307 378 444
#
# _framework density 22.733141
#
# number of rings (size 3 to 8) (size 9 to 14) (size 15 to 20)
#    0.000    0.000    5.714    3.857    6.000    1.143 
#    0.000    0.000    0.000    0.000    0.000    0.000 
#    0.000    0.000    0.000    0.000    0.000    0.000 
#
# Total GULP energy -347340.010710 kJ/mol
# GULP energy per Si atom -12405.000382 kJ/mol
# Density = 2.268140 g / cm^3
# Si number density = 22.733141 Si / 1000 Ang^3
#
#
#
# Elastic Constant Matrix: (Units=GPa)
#
#
# Indices 1 2 3 4 5 6 
#
# 1 88.3396 42.4231 39.2273 0.0000 4.8806 0.0000
# 2 42.4231 124.4296 54.9017 0.0000 8.8645 0.0000
# 3 39.2273 54.9017 107.8974 0.0000 14.5722 0.0000
# 4 0.0000 0.0000 0.0000 38.5023 0.0000 14.7336
# 5 4.8806 8.8645 14.5722 0.0000 52.2112 0.0000
# 6 0.0000 0.0000 0.0000 14.7336 0.0000 42.0352
#
#
#
# Elastic Compliance Matrix: (Units=1/GPa)
#
#
# Indices 1 2 3 4 5 6 
#
# 1 0.014527 -0.003385 -0.003589 0.000000 0.000218 0.000000
# 2 -0.003385 0.011157 -0.004399 0.000000 -0.000350 0.000000
# 3 -0.003589 -0.004399 0.013161 0.000000 -0.002591 0.000000
# 4 0.000000 0.000000 0.000000 0.029996 0.000000 -0.010514
# 5 0.000218 -0.000350 -0.002591 0.000000 0.019915 0.000000
# 6 0.000000 0.000000 0.000000 -0.010514 0.000000 0.027475
#
#
# Mechanical properties :
#
#
# Convention : Reuss Voigt Hill
#
# Bulk Modulus (GPa) = 62.11330 65.97452 64.04391
# Shear Modulus (GPa) = 34.64007 38.82404 36.73206
#
# Velocity S-wave (km/s) = 3.90778 4.13706 4.02405
# Velocity P-wave (km/s) = 6.90964 7.20449 7.05860
#
# Compressibility (1/GPa) = 0.01609961
#
# Stress axis : x y z
#
# Youngs Moduli (GPa) = 68.83758 89.63288 75.98240
#
# Poissons Ratio (x) = 0.30341 0.27266
# Poissons Ratio (y) = 0.23302 0.33424
# Poissons Ratio (z) = 0.24702 0.39429
#
# Static dielectric constant tensor:
#      x y z
#    x 4.129190 0.000000 0.090020 
#    y 0.000000 4.321820 0.000000 
#    z 0.090020 0.000000 4.122550 
# 
# 
# High freq. dielectric constant tensor:
#      x y z
#    x 1.899760 0.000000 0.011600 
#    y 0.000000 1.910970 0.000000 
#    z 0.011600 0.000000 1.898350 
# 
# From -- ./inp_files/66520.got.cif
#   From: 2010.03.12/outbox.cif.g09.slc.cpg/sg14_34_cif.got.tgz:66520.got - 2010.03.31 13:35:05.
