data_PCOD8129541
_publ_section_title
;
Structure prediction by ZEFSAII (Michael W. Deem and Ramdas Pophale) SiO2 
 PCOD8129541
Probable space group: C 2/C
;
_chemical_formula_sum "Si O2"
_cell_formula_units_Z 30
_cell_length_a 12.000000
_cell_length_b 18.000000
_cell_length_c 21.000000
_cell_angle_alpha 90.000000
_cell_angle_beta 40.000000
_cell_angle_gamma 90.000000
_cell_volume 2915.684598
_symmetry_space_group_name_H-M "C 2/C"
_symmetry_group_IT_number 15
_symmetry_cell_setting 'monoclinic'
loop_
_space_group_symop_operation_xyz
x,y,z
-x,y,1/2-z
-x,-y,-z
x,-y,1/2+z
1/2+x,1/2+y,z
1/2-x,1/2+y,1/2-z
1/2-x,1/2-y,-z
1/2+x,1/2-y,1/2+z
loop_
_atom_site_type_symbol
_atom_site_label
_atom_site_fract_x
_atom_site_fract_y
_atom_site_fract_z
Si Si1 0.337982 0.997753 0.978552
Si Si2 0.235734 0.849351 0.223188
Si Si3 0.645620 0.769546 0.449841
Si Si4 0.102434 0.349377 0.104346
Si Si5 0.723727 0.779927 0.924965
Si Si6 0.000000 0.112802 0.250000
Si Si7 0.867052 0.144035 0.952226
Si Si8 0.285476 0.009837 0.148881
O O1 0.537525 0.967523 0.891688
O O2 0.322567 0.068233 0.938167
O O3 0.193919 0.941284 0.014399
O O4 0.300320 0.024330 0.066713
O O5 0.266449 0.781883 0.158613
O O6 0.393815 0.851638 0.204695
O O7 0.060419 0.843772 0.340219
O O8 0.237303 0.924354 0.180917
O O9 0.442367 0.791145 0.547600
O O10 0.736502 0.823244 0.458784
O O11 0.660288 0.683755 0.467140
O O12 0.201486 0.304740 0.117183
O O13 0.137812 0.294617 0.030403
O O14 0.879772 0.836632 0.846356
O O15 0.124255 0.061925 0.241100
#
# Coordination Sequence:
#
# PCOD8129541 Si02
#       8
#     8   8   8   8   8   4   8   8
#     4  10  18  35  55  79 113 147 180 234 287 334
#     4  10  20  36  59  83 117 148 186 237 289 339
#     4  10  22  37  53  86 118 153 184 236 280 336
#     4   9  20  38  55  79 111 153 181 233 289 331
#     4  10  21  36  54  79 116 144 187 229 286 328
#     4  12  20  28  56  86 104 138 180 232 280 344
#     4  11  21  34  60  86 113 152 195 224 288 344
#     4  10  19  31  55  84 114 136 177 242 300 322
#
# _framework density 10.289179000000001
#
# number of rings (size 3 to 8) (size 9 to 14) (size 15 to 20)
#    0.000    1.867    2.667    2.000    1.867    0.000 
#    0.000    0.667    0.000    0.000    6.933    0.000 
#    0.000    0.000    0.000    0.000    0.000    0.000 
#
# Total GULP energy -371654.882117 kJ/mol
# GULP energy per Si atom -12388.496071 kJ/mol
# Density = 1.026576 g / cm^3
# Si number density = 10.289179 Si / 1000 Ang^3
#
#
#
# Elastic Constant Matrix: (Units=GPa)
#
#
# Indices 1 2 3 4 5 6 
#
# 1 25.4582 36.1992 40.5181 -0.0032 -32.5966 0.0006
# 2 36.1992 118.6754 60.1590 -0.0010 -22.7804 0.0008
# 3 40.5181 60.1590 97.6411 -0.0042 -32.9615 -0.0005
# 4 -0.0032 -0.0010 -0.0042 28.5708 0.0002 -11.6783
# 5 -32.5966 -22.7804 -32.9615 0.0002 33.6052 -0.0001
# 6 0.0006 0.0008 -0.0005 -11.6783 -0.0001 27.0662
#
#
#
# Elastic Compliance Matrix: (Units=1/GPa)
#
#
# Indices 1 2 3 4 5 6 
#
# 1 -0.120357 0.013546 0.007905 -0.000013 -0.099808 -0.000003
# 2 0.013546 0.010770 -0.008008 0.000000 0.012585 -0.000001
# 3 0.007905 -0.008008 0.018914 0.000004 0.020791 0.000002
# 4 -0.000013 0.000000 0.000004 0.042496 -0.000008 0.018336
# 5 -0.099808 0.012585 0.020791 -0.000008 -0.038131 -0.000001
# 6 -0.000003 -0.000001 0.000002 0.018336 -0.000001 0.044858
#
#
# Mechanical properties :
#
#
# Convention : Reuss Voigt Hill
#
# Bulk Modulus (GPa) = -15.67714 57.28081 20.80184
# Shear Modulus (GPa) = -55.80328 24.84164 -15.48082
#
# Velocity S-wave (km/s) = -5.21309 3.47821 -2.74576
# Velocity P-wave (km/s) = 6.62344 6.63525 0.27979
#
# Compressibility (1/GPa) = -0.06378715
#
# Stress axis : x y z
#
# Youngs Moduli (GPa) = -8.30861 92.85250 52.87168
#
# Poissons Ratio (x) = -1.25779 -0.41797
# Poissons Ratio (y) = 0.11255 0.42341
# Poissons Ratio (z) = 0.06568 0.74358
#
# Static dielectric constant tensor:
#      x y z
#    x 3.905120 0.000000 -0.490820 
#    y 0.000000 3.855080 0.000010 
#    z -0.490820 0.000010 3.780490 
# 
# 
# High freq. dielectric constant tensor:
#      x y z
#    x 1.782970 0.000000 -0.040660 
#    y 0.000000 1.804970 0.000000 
#    z -0.040660 0.000000 1.798840 
# 
# From -- ./inp_files/239961.got.cif
#   From: 2010.06.25/outbox.ucp.g09.slc.cvg/sg15_120_cif.got.tgz:239961.got - 2010.06.28 14:40:10.
