data_PCOD8129927
_publ_section_title
;
Structure prediction by ZEFSAII (Michael W. Deem and Ramdas Pophale) SiO2 
 PCOD8129927
Probable space group: C 2/C
;
_chemical_formula_sum "Si O2"
_cell_formula_units_Z 44
_cell_length_a 11.511147
_cell_length_b 26.523909
_cell_length_c 8.662816
_cell_angle_alpha 90.000000
_cell_angle_beta 58.710818
_cell_angle_gamma 90.000000
_cell_volume 2260.248590
_symmetry_space_group_name_H-M "C 2/C"
_symmetry_group_IT_number 15
_symmetry_cell_setting 'monoclinic'
loop_
_space_group_symop_operation_xyz
x,y,z
-x,y,1/2-z
-x,-y,-z
x,-y,1/2+z
1/2+x,1/2+y,z
1/2-x,1/2+y,1/2-z
1/2-x,1/2-y,-z
1/2+x,1/2-y,1/2+z
loop_
_atom_site_type_symbol
_atom_site_label
_atom_site_fract_x
_atom_site_fract_y
_atom_site_fract_z
Si Si1 0.317659 0.106499 0.282352
Si Si2 0.294678 0.042497 0.773423
Si Si3 0.000000 0.526673 0.250000
Si Si4 0.141051 0.293912 0.574202
Si Si5 0.450135 0.137685 0.612737
Si Si6 0.346161 0.538446 0.307798
O O1 0.374685 0.065935 0.372100
O O2 0.288916 0.159293 0.384380
O O3 0.183984 0.083118 0.295106
O O4 0.430261 0.114134 0.072192
O O5 0.323404 0.099214 0.702936
O O6 0.436214 0.009777 0.661403
O O7 0.177099 0.016488 0.753086
O O8 0.254349 0.043263 0.980071
O O9 0.250000 0.250000 0.500000
O O10 0.106626 0.310706 0.423291
O O11 0.000000 0.276288 0.750000
O O12 0.500000 0.150452 0.750000
O O13 0.500000 0.544209 0.250000
#
# Coordination Sequence:
#
# PCOD8129927 Si02
#       6
#     8   8   4   8   8   8
#     4  10  19  37  61  82 121 154 198 252 296 356
#     4  11  21  33  58  87 124 160 203 239 299 356
#     4  10  16  32  60  88 112 152 196 240 290 344
#     4  10  23  45  66  89 116 157 205 260 319 367
#     4  11  19  37  63  94 115 144 201 260 298 351
#     4  11  23  36  49  83 130 173 200 232 293 366
#
# _framework density 19.466885000000001
#
# number of rings (size 3 to 8) (size 9 to 14) (size 15 to 20)
#    0.000    1.455    5.455    1.636    2.545    2.909 
#    3.273    4.545    0.000    0.000    0.000    0.000 
#    0.000    0.000    0.000    0.000    0.000    0.000 
#
# Total GULP energy -272548.850378 kJ/mol
# GULP energy per Si atom -12388.584108 kJ/mol
# Density = 1.942258 g / cm^3
# Si number density = 19.466885 Si / 1000 Ang^3
#
#
#
# Elastic Constant Matrix: (Units=GPa)
#
#
# Indices 1 2 3 4 5 6 
#
# 1 158.7992 69.2411 32.5795 0.0000 2.3133 0.0000
# 2 69.2411 122.0444 37.6797 0.0000 -6.7416 0.0000
# 3 32.5795 37.6797 68.5834 0.0000 11.8026 0.0000
# 4 0.0000 0.0000 0.0000 18.6272 0.0000 -0.6152
# 5 2.3133 -6.7416 11.8026 0.0000 20.4204 0.0000
# 6 0.0000 0.0000 0.0000 -0.6152 0.0000 33.9791
#
#
#
# Elastic Compliance Matrix: (Units=1/GPa)
#
#
# Indices 1 2 3 4 5 6 
#
# 1 0.008575 -0.004573 -0.001259 0.000000 -0.001753 0.000000
# 2 -0.004573 0.013328 -0.006659 0.000000 0.008767 0.000000
# 3 -0.001259 -0.006659 0.021311 0.000000 -0.014373 0.000000
# 4 0.000000 0.000000 0.000000 0.053717 0.000000 0.000973
# 5 -0.001753 0.008767 -0.014373 0.000000 0.060371 0.000000
# 6 0.000000 0.000000 0.000000 0.000973 0.000000 0.029447
#
#
# Mechanical properties :
#
#
# Convention : Reuss Voigt Hill
#
# Bulk Modulus (GPa) = 54.84948 69.82531 62.33739
# Shear Modulus (GPa) = 22.95579 28.60046 25.77812
#
# Velocity S-wave (km/s) = 3.43771 3.83715 3.64291
# Velocity P-wave (km/s) = 6.63280 7.45508 7.05593
#
# Compressibility (1/GPa) = 0.01823171
#
# Stress axis : x y z
#
# Youngs Moduli (GPa) = 116.61565 75.02762 46.92428
#
# Poissons Ratio (x) = 0.34311 0.05909
# Poissons Ratio (y) = 0.53330 0.31247
# Poissons Ratio (z) = 0.14685 0.49961
#
# Static dielectric constant tensor:
#      x y z
#    x 3.585040 0.000000 0.288330 
#    y 0.000000 3.419770 0.000000 
#    z 0.288330 0.000000 3.551820 
# 
# 
# High freq. dielectric constant tensor:
#      x y z
#    x 1.755340 0.000000 0.023760 
#    y 0.000000 1.737090 0.000000 
#    z 0.023760 0.000000 1.751520 
# 
# From -- ./inp_files/32459.got.cif
#   From: 2010.06.25/outbox.cif.g09.slc.cpg/sg15_17_cif.got.tgz:32459.got - 2010.06.28 07:06:18.
