data_PCOD8129240
_publ_section_title
;
Structure prediction by ZEFSAII (Michael W. Deem and Ramdas Pophale) SiO2 
 PCOD8129240
Probable space group: P 21/C
;
_chemical_formula_sum "Si O2"
_cell_formula_units_Z 16
_cell_length_a 7.155662
_cell_length_b 9.883656
_cell_length_c 9.100479
_cell_angle_alpha 90.000000
_cell_angle_beta 111.895598
_cell_angle_gamma 90.000000
_cell_volume 597.195383
_symmetry_space_group_name_H-M "P 21/C"
_symmetry_group_IT_number 14
_symmetry_cell_setting 'monoclinic'
loop_
_space_group_symop_operation_xyz
x,y,z
-x,1/2+y,1/2-z
-x,-y,-z
x,1/2-y,1/2+z
loop_
_atom_site_type_symbol
_atom_site_label
_atom_site_fract_x
_atom_site_fract_y
_atom_site_fract_z
Si Si1 0.741706 0.949365 0.429718
Si Si2 0.076881 0.167374 0.987402
Si Si3 0.172611 0.928769 0.843419
Si Si4 0.685813 0.347570 0.175699
O O1 0.848055 0.816372 0.524805
O O2 0.519130 0.903366 0.311815
O O3 0.868948 0.008385 0.330345
O O4 0.735732 0.066359 0.546970
O O5 0.032813 0.140532 0.148319
O O6 0.862905 0.143315 0.844971
O O7 0.232256 0.054530 0.968453
O O8 0.341103 0.810497 0.881583
#
# Coordination Sequence:
#
# PCOD8129240 Si02
#       4
#     4   4   4   4
#     4  11  27  48  72 107 146 187 240 298 358 426
#     4  11  25  45  73 105 142 190 240 294 358 426
#     4  11  25  45  72 103 144 188 238 294 356 422
#     4  11  25  46  73 104 142 188 240 299 358 424
#
# _framework density 26.791899999999998
#
# number of rings (size 3 to 8) (size 9 to 14) (size 15 to 20)
#    0.000    1.000    0.000    4.500    0.000   19.000 
#    0.000    0.000    0.000    1.500    0.000    0.000 
#    0.000    0.000    0.000    0.000    0.000    0.000 
#
# Total GULP energy -198315.124357 kJ/mol
# GULP energy per Si atom -12394.695272 kJ/mol
# Density = 2.673092 g / cm^3
# Si number density = 26.791900 Si / 1000 Ang^3
#
#
#
# Elastic Constant Matrix: (Units=GPa)
#
#
# Indices 1 2 3 4 5 6 
#
# 1 69.8316 33.5053 35.3481 0.0000 -0.8257 0.0000
# 2 33.5053 220.4925 47.8576 0.0000 0.8051 0.0000
# 3 35.3481 47.8576 95.0320 0.0000 -8.7223 0.0000
# 4 0.0000 0.0000 0.0000 40.8784 0.0000 0.4308
# 5 -0.8257 0.8051 -8.7223 0.0000 46.8393 0.0000
# 6 0.0000 0.0000 0.0000 0.4308 0.0000 29.7882
#
#
#
# Elastic Compliance Matrix: (Units=1/GPa)
#
#
# Indices 1 2 3 4 5 6 
#
# 1 0.018070 -0.001424 -0.006077 0.000000 -0.000789 0.000000
# 2 -0.001424 0.005219 -0.002146 0.000000 -0.000514 0.000000
# 3 -0.006077 -0.002146 0.014098 0.000000 0.002555 0.000000
# 4 0.000000 0.000000 0.000000 0.024466 0.000000 -0.000354
# 5 -0.000789 -0.000514 0.002555 0.000000 0.021820 0.000000
# 6 0.000000 0.000000 0.000000 -0.000354 0.000000 0.033575
#
#
# Mechanical properties :
#
#
# Convention : Reuss Voigt Hill
#
# Bulk Modulus (GPa) = 55.26564 68.75314 62.00939
# Shear Modulus (GPa) = 35.06940 41.41085 38.24012
#
# Velocity S-wave (km/s) = 3.62187 3.93574 3.78206
# Velocity P-wave (km/s) = 6.17763 6.80963 6.50131
#
# Compressibility (1/GPa) = 0.01809443
#
# Stress axis : x y z
#
# Youngs Moduli (GPa) = 55.34037 191.59456 70.93104
#
# Poissons Ratio (x) = 0.27284 0.43101
# Poissons Ratio (y) = 0.07881 0.15222
# Poissons Ratio (z) = 0.33628 0.41115
#
# Static dielectric constant tensor:
#      x y z
#    x 4.968590 0.000000 -0.301130 
#    y 0.000000 5.573510 0.000000 
#    z -0.301130 0.000000 4.587030 
# 
# 
# High freq. dielectric constant tensor:
#      x y z
#    x 2.062550 0.000000 -0.027610 
#    y 0.000000 2.116580 0.000000 
#    z -0.027610 0.000000 2.062310 
# 
# From -- ./inp_files/7738.got.cif
#   From: 2010.03.12/outbox.cif.g09.slc.cpg/sg14_4_cif.got.tgz:7738.got - 2010.03.31 13:35:05.
