data_PCOD8129636
_publ_section_title
;
Structure prediction by ZEFSAII (Michael W. Deem and Ramdas Pophale) SiO2 
 PCOD8129636
Probable space group: C 2/C
;
_chemical_formula_sum "Si O2"
_cell_formula_units_Z 44
_cell_length_a 13.768602
_cell_length_b 5.289963
_cell_length_c 25.449703
_cell_angle_alpha 90.000000
_cell_angle_beta 90.275140
_cell_angle_gamma 90.000000
_cell_volume 1853.617802
_symmetry_space_group_name_H-M "C 2/C"
_symmetry_group_IT_number 15
_symmetry_cell_setting 'monoclinic'
loop_
_space_group_symop_operation_xyz
x,y,z
-x,y,1/2-z
-x,-y,-z
x,-y,1/2+z
1/2+x,1/2+y,z
1/2-x,1/2+y,1/2-z
1/2-x,1/2-y,-z
1/2+x,1/2-y,1/2+z
loop_
_atom_site_type_symbol
_atom_site_label
_atom_site_fract_x
_atom_site_fract_y
_atom_site_fract_z
Si Si1 0.000000 0.217846 0.750000
Si Si2 0.882382 0.489963 0.004778
Si Si3 0.705859 0.086211 0.273589
Si Si4 0.128119 0.500483 0.876746
Si Si5 0.490703 0.498329 0.641762
Si Si6 0.094650 0.010360 0.037734
O O1 0.090223 0.396640 0.764239
O O2 0.968519 0.041789 0.799250
O O3 0.840034 0.457364 0.063345
O O4 0.840818 0.747648 0.979144
O O5 0.000000 0.500000 0.000000
O O6 0.844686 0.246698 0.971891
O O7 0.753983 0.353721 0.259765
O O8 0.718742 0.038261 0.336512
O O9 0.064011 0.248789 0.877245
O O10 0.074393 0.750035 0.856173
O O11 0.574625 0.455223 0.599411
O O12 0.000000 0.000000 0.000000
#
# Coordination Sequence:
#
# PCOD8129636 Si02
#       6
#     4   8   8   8   8   8
#     4  10  26  42  66  94 130 168 220 262 320 384
#     4  10  15  26  45  81 118 142 196 261 293 362
#     4  11  25  44  64  92 128 171 218 264 316 380
#     4  11  19  32  56  83 122 158 202 259 311 366
#     4  11  19  32  52  86 123 157 200 260 304 370
#     4  10  15  25  46  77 120 145 193 256 299 355
#
# _framework density 23.737363999999999
#
# number of rings (size 3 to 8) (size 9 to 14) (size 15 to 20)
#    0.000    1.455    7.273    2.182    0.000    6.545 
#    0.000    0.000    0.000    0.000    0.000    7.636 
#    0.000    0.000    0.000    0.000    0.000    0.000 
#
# Total GULP energy -272640.123762 kJ/mol
# GULP energy per Si atom -12392.732898 kJ/mol
# Density = 2.368334 g / cm^3
# Si number density = 23.737364 Si / 1000 Ang^3
#
#
#
# Elastic Constant Matrix: (Units=GPa)
#
#
# Indices 1 2 3 4 5 6 
#
# 1 41.8464 15.5242 24.0818 0.0000 -14.2261 0.0000
# 2 15.5242 214.2989 49.3316 0.0000 -13.9297 0.0000
# 3 24.0818 49.3316 216.2265 0.0000 -32.0602 0.0000
# 4 0.0000 0.0000 0.0000 43.4979 0.0000 -10.7674
# 5 -14.2261 -13.9297 -32.0602 0.0000 31.9447 0.0000
# 6 0.0000 0.0000 0.0000 -10.7674 0.0000 10.0017
#
#
#
# Elastic Compliance Matrix: (Units=1/GPa)
#
#
# Indices 1 2 3 4 5 6 
#
# 1 0.028807 -0.001064 -0.001330 0.000000 0.011030 0.000000
# 2 -0.001064 0.005004 -0.000904 0.000000 0.000801 0.000000
# 3 -0.001330 -0.000904 0.005678 0.000000 0.004712 0.000000
# 4 0.000000 0.000000 0.000000 0.031342 0.000000 0.033741
# 5 0.011030 0.000801 0.004712 0.000000 0.041294 0.000000
# 6 0.000000 0.000000 0.000000 0.033741 0.000000 0.136307
#
#
# Mechanical properties :
#
#
# Convention : Reuss Voigt Hill
#
# Bulk Modulus (GPa) = 30.40286 72.24966 51.32626
# Shear Modulus (GPa) = 18.79760 42.65115 30.72437
#
# Velocity S-wave (km/s) = 2.81712 4.24346 3.60161
# Velocity P-wave (km/s) = 4.83915 7.38325 6.24219
#
# Compressibility (1/GPa) = 0.03289164
#
# Stress axis : x y z
#
# Youngs Moduli (GPa) = 34.71418 199.85356 176.12228
#
# Poissons Ratio (x) = 0.21257 0.23428
# Poissons Ratio (y) = 0.03692 0.15929
# Poissons Ratio (z) = 0.04618 0.18075
#
# Static dielectric constant tensor:
#      x y z
#    x 3.540540 0.000000 -0.280950 
#    y 0.000000 5.730890 0.000000 
#    z -0.280950 0.000000 4.791600 
# 
# 
# High freq. dielectric constant tensor:
#      x y z
#    x 1.880130 0.000000 -0.025420 
#    y 0.000000 1.972520 0.000000 
#    z -0.025420 0.000000 1.962140 
# 
# From -- ./inp_files/294236.got.cif
#   From: 2010.06.25/outbox.cif.g09.slc.cpg/sg15_148_cif.got.tgz:294236.got - 2010.06.28 07:06:18.
