data_PCOD8129363
_publ_section_title
;
Structure prediction by ZEFSAII (Michael W. Deem and Ramdas Pophale) SiO2 
 PCOD8129363
Probable space group: P 21/C
;
_chemical_formula_sum "Si O2"
_cell_formula_units_Z 32
_cell_length_a 14.765463
_cell_length_b 20.997001
_cell_length_c 9.246633
_cell_angle_alpha 90.000000
_cell_angle_beta 29.893001
_cell_angle_gamma 90.000000
_cell_volume 1428.730014
_symmetry_space_group_name_H-M "P 21/C"
_symmetry_group_IT_number 14
_symmetry_cell_setting 'monoclinic'
loop_
_space_group_symop_operation_xyz
x,y,z
-x,1/2+y,1/2-z
-x,-y,-z
x,1/2-y,1/2+z
loop_
_atom_site_type_symbol
_atom_site_label
_atom_site_fract_x
_atom_site_fract_y
_atom_site_fract_z
Si Si1 0.522374 0.246605 0.878495
Si Si2 0.639143 0.074938 0.069168
Si Si3 0.297672 0.430614 0.561252
Si Si4 0.151328 0.264317 0.238000
Si Si5 0.359168 0.141963 0.269702
Si Si6 0.054416 0.634857 0.031565
Si Si7 0.158293 0.674606 0.180868
Si Si8 0.594848 0.122772 0.431701
O O1 0.701604 0.233624 0.535388
O O2 0.520707 0.315262 0.952275
O O3 0.343568 0.237804 0.027251
O O4 0.516826 0.191830 0.007377
O O5 0.799875 0.122251 0.796491
O O6 0.444075 0.099255 0.280018
O O7 0.632991 0.071432 0.252658
O O8 0.675086 0.005389 0.956768
O O9 0.298645 0.400782 0.719366
O O10 0.103058 0.417648 0.759569
O O11 0.451376 0.401249 0.246849
O O12 0.026619 0.206267 0.357560
O O13 0.043701 0.298668 0.516067
O O14 0.185975 0.316626 0.063887
O O15 0.152831 0.627281 0.050938
O O16 0.219467 0.636142 0.239036
#
# Coordination Sequence:
#
# PCOD8129363 Si02
#       8
#     4   4   4   4   4   4   4   4
#     4  12  22  46  71 106 144 184 226 311 371 426
#     4  12  27  47  73 100 145 196 242 292 349 435
#     4  12  26  48  72 101 143 196 246 289 350 432
#     4  12  25  41  74 110 141 181 233 303 368 432
#     4  12  24  46  71 104 141 185 241 295 366 426
#     4  12  25  46  68 105 143 183 240 297 362 424
#     4  12  25  43  69 106 146 179 228 298 372 426
#     4  12  25  45  72 105 141 186 240 294 361 426
#
# _framework density 22.397511999999999
#
# number of rings (size 3 to 8) (size 9 to 14) (size 15 to 20)
#    0.000    0.000    5.000    5.625    1.750    0.000 
#    0.000    0.625    0.000    0.000    0.000    0.000 
#    0.000    0.000    0.000    0.000    0.000    0.000 
#
# Total GULP energy -396908.262012 kJ/mol
# GULP energy per Si atom -12403.383188 kJ/mol
# Density = 2.234653 g / cm^3
# Si number density = 22.397512 Si / 1000 Ang^3
#
#
#
# Elastic Constant Matrix: (Units=GPa)
#
#
# Indices 1 2 3 4 5 6 
#
# 1 121.1809 34.1717 41.3251 0.0000 8.6596 0.0000
# 2 34.1717 95.8315 34.7838 0.0000 1.6938 0.0000
# 3 41.3251 34.7838 119.2385 0.0000 4.6520 0.0000
# 4 0.0000 0.0000 0.0000 26.9412 0.0000 7.4465
# 5 8.6596 1.6938 4.6520 0.0000 34.2081 0.0000
# 6 0.0000 0.0000 0.0000 7.4465 0.0000 24.8994
#
#
#
# Elastic Compliance Matrix: (Units=1/GPa)
#
#
# Indices 1 2 3 4 5 6 
#
# 1 0.010027 -0.002580 -0.002643 0.000000 -0.002051 0.000000
# 2 -0.002580 0.012335 -0.002720 0.000000 0.000412 0.000000
# 3 -0.002643 -0.002720 0.010118 0.000000 -0.000572 0.000000
# 4 0.000000 0.000000 0.000000 0.040463 0.000000 -0.012101
# 5 -0.002051 0.000412 -0.000572 0.000000 0.029809 0.000000
# 6 0.000000 0.000000 0.000000 -0.012101 0.000000 0.043781
#
#
# Mechanical properties :
#
#
# Convention : Reuss Voigt Hill
#
# Bulk Modulus (GPa) = 60.25942 61.86801 61.06371
# Shear Modulus (GPa) = 29.77057 32.27442 31.02249
#
# Velocity S-wave (km/s) = 3.64976 3.80015 3.72571
# Velocity P-wave (km/s) = 6.68760 6.85109 6.76984
#
# Compressibility (1/GPa) = 0.01659492
#
# Stress axis : x y z
#
# Youngs Moduli (GPa) = 99.72614 81.06955 98.83124
#
# Poissons Ratio (x) = 0.20917 0.26117
# Poissons Ratio (y) = 0.25731 0.26884
# Poissons Ratio (z) = 0.26353 0.22053
#
# Static dielectric constant tensor:
#      x y z
#    x 4.110970 0.000000 0.119110 
#    y 0.000000 3.963450 0.000000 
#    z 0.119110 0.000000 4.157480 
# 
# 
# High freq. dielectric constant tensor:
#      x y z
#    x 1.892260 0.000000 0.005900 
#    y 0.000000 1.866510 0.000000 
#    z 0.005900 0.000000 1.893300 
# 
# From -- ./inp_files/16992.got.cif
#   From: 2010.03.12/outbox.cif.g09.slc.cpg/sg14_9_cif.got.tgz:16992.got - 2010.03.31 13:35:05.
