data_PCOD8129666
_publ_section_title
;
Structure prediction by ZEFSAII (Michael W. Deem and Ramdas Pophale) SiO2 
 PCOD8129666
Probable space group: C 2/C
;
_chemical_formula_sum "Si O2"
_cell_formula_units_Z 44
_cell_length_a 13.960106
_cell_length_b 9.055389
_cell_length_c 26.834809
_cell_angle_alpha 90.000000
_cell_angle_beta 142.980411
_cell_angle_gamma 90.000000
_cell_volume 2042.463635
_symmetry_space_group_name_H-M "C 2/C"
_symmetry_group_IT_number 15
_symmetry_cell_setting 'monoclinic'
loop_
_space_group_symop_operation_xyz
x,y,z
-x,y,1/2-z
-x,-y,-z
x,-y,1/2+z
1/2+x,1/2+y,z
1/2-x,1/2+y,1/2-z
1/2-x,1/2-y,-z
1/2+x,1/2-y,1/2+z
loop_
_atom_site_type_symbol
_atom_site_label
_atom_site_fract_x
_atom_site_fract_y
_atom_site_fract_z
Si Si1 0.271242 0.678703 0.604306
Si Si2 0.123061 0.325259 0.150902
Si Si3 0.000000 0.363123 0.750000
Si Si4 0.729923 0.510204 0.202025
Si Si5 0.028536 0.853961 0.043325
Si Si6 0.871692 0.597661 0.476555
O O1 0.225135 0.668646 0.643258
O O2 0.440678 0.762501 0.677761
O O3 0.283089 0.511602 0.585631
O O4 0.140857 0.772789 0.519134
O O5 0.184104 0.447421 0.214074
O O6 0.139244 0.160708 0.180150
O O7 0.938888 0.361946 0.059671
O O8 0.141844 0.464875 0.788726
O O9 0.601551 0.393337 0.127371
O O10 0.152916 0.748363 0.064863
O O11 0.000000 0.000000 0.000000
O O12 0.000000 0.500000 0.500000
#
# Coordination Sequence:
#
# PCOD8129666 Si02
#       6
#     8   8   4   8   8   8
#     4   9  19  35  58  74 114 146 192 220 279 336
#     4   9  19  31  52  84 102 139 187 233 255 332
#     4  10  20  38  52  84 112 154 176 234 290 334
#     4  11  21  33  60  80 116 138 192 230 282 321
#     4  10  15  32  56  80  98 152 185 220 260 347
#     4   8  16  31  52  77 104 140 186 220 266 327
#
# _framework density 21.542611000000001
#
# number of rings (size 3 to 8) (size 9 to 14) (size 15 to 20)
#    0.000    2.909    5.455    0.000    7.636    0.000 
#    0.000    1.818    0.000    7.636    0.000    0.000 
#    0.000    0.000    0.000    0.000    0.000    0.000 
#
# Total GULP energy -272544.350356 kJ/mol
# GULP energy per Si atom -12388.379562 kJ/mol
# Density = 2.149358 g / cm^3
# Si number density = 21.542611 Si / 1000 Ang^3
#
#
#
# Elastic Constant Matrix: (Units=GPa)
#
#
# Indices 1 2 3 4 5 6 
#
# 1 10.4798 4.8001 5.9507 0.0000 -1.2000 0.0000
# 2 4.8001 151.0159 58.5466 0.0000 -8.4004 0.0000
# 3 5.9507 58.5466 132.1198 0.0000 -11.7455 0.0000
# 4 0.0000 0.0000 0.0000 37.1852 0.0000 -13.2519
# 5 -1.2000 -8.4004 -11.7455 0.0000 25.1130 0.0000
# 6 0.0000 0.0000 0.0000 -13.2519 0.0000 9.7471
#
#
#
# Elastic Compliance Matrix: (Units=1/GPa)
#
#
# Indices 1 2 3 4 5 6 
#
# 1 0.098440 -0.001638 -0.003483 0.000000 0.002527 0.000000
# 2 -0.001638 0.008050 -0.003402 0.000000 0.001023 0.000000
# 3 -0.003483 -0.003402 0.009513 0.000000 0.003145 0.000000
# 4 0.000000 0.000000 0.000000 0.052169 0.000000 0.070928
# 5 0.002527 0.001023 0.003145 0.000000 0.041754 0.000000
# 6 0.000000 0.000000 0.000000 0.070928 0.000000 0.199026
#
#
# Mechanical properties :
#
#
# Convention : Reuss Voigt Hill
#
# Bulk Modulus (GPa) = 10.10560 48.02337 29.06448
# Shear Modulus (GPa) = 10.89363 29.36359 20.12861
#
# Velocity S-wave (km/s) = 2.25117 3.69595 3.06005
# Velocity P-wave (km/s) = 3.38499 6.36821 5.09962
#
# Compressibility (1/GPa) = 0.09895507
#
# Stress axis : x y z
#
# Youngs Moduli (GPa) = 10.15852 124.22561 105.11846
#
# Poissons Ratio (x) = 0.20348 0.36616
# Poissons Ratio (y) = 0.01664 0.35766
# Poissons Ratio (z) = 0.03539 0.42267
#
# Static dielectric constant tensor:
#      x y z
#    x 3.168160 0.000000 0.238450 
#    y 0.000000 4.885620 0.000000 
#    z 0.238450 0.000000 4.899220 
# 
# 
# High freq. dielectric constant tensor:
#      x y z
#    x 1.766420 0.000000 -0.006740 
#    y 0.000000 1.866490 0.000000 
#    z -0.006740 0.000000 1.860150 
# 
# From -- ./inp_files/295324.got.cif
#   From: 2010.06.25/outbox.cif.g09.slc.cpg/sg15_148_cif.got.tgz:295324.got - 2010.06.28 07:06:18.
