data_PCOD8129569
_publ_section_title
;
Structure prediction by ZEFSAII (Michael W. Deem and Ramdas Pophale) SiO2 
 PCOD8129569
Probable space group: C 2/C
;
_chemical_formula_sum "Si O2"
_cell_formula_units_Z 24
_cell_length_a 9.000000
_cell_length_b 21.000000
_cell_length_c 27.000000
_cell_angle_alpha 90.000000
_cell_angle_beta 150.000000
_cell_angle_gamma 90.000000
_cell_volume 2551.500000
_symmetry_space_group_name_H-M "C 2/C"
_symmetry_group_IT_number 15
_symmetry_cell_setting 'monoclinic'
loop_
_space_group_symop_operation_xyz
x,y,z
-x,y,1/2-z
-x,-y,-z
x,-y,1/2+z
1/2+x,1/2+y,z
1/2-x,1/2+y,1/2-z
1/2-x,1/2-y,-z
1/2+x,1/2-y,1/2+z
loop_
_atom_site_type_symbol
_atom_site_label
_atom_site_fract_x
_atom_site_fract_y
_atom_site_fract_z
Si Si1 0.148414 0.217050 0.648790
Si Si2 0.198382 0.465465 0.628428
Si Si3 0.662054 0.844408 0.944695
Si Si4 0.848158 0.413404 0.993627
Si Si5 0.313302 0.306532 0.150187
Si Si6 0.716576 0.665633 0.134615
O O1 0.500000 0.204454 0.750000
O O2 0.974611 0.165814 0.564133
O O3 0.068070 0.288146 0.605901
O O4 0.051451 0.211723 0.677467
O O5 0.500000 0.471339 0.750000
O O6 0.263903 0.443253 0.590857
O O7 0.978276 0.412565 0.585615
O O8 0.010077 0.531679 0.573359
O O9 0.714653 0.845046 0.902205
O O10 0.087647 0.356224 0.059550
O O11 0.557150 0.381370 0.933139
O O12 0.500000 0.336656 0.250000
O O13 0.147208 0.241663 0.121446
O O14 0.000000 0.646409 0.250000
#
# Coordination Sequence:
#
# PCOD8129569 Si02
#       6
#     8   8   8   8   8   8
#     4  10  21  37  60  92 121 155 201 249 303 357
#     4  11  23  41  63  84 119 167 201 246 298 363
#     4  10  21  39  59  88 121 157 202 244 302 359
#     4  11  23  40  62  88 123 155 207 248 295 365
#     4  10  21  38  61  93 123 154 200 248 308 354
#     4  10  22  39  61  92 120 158 198 250 310 354
#
# _framework density 9.4062319999999993
#
# number of rings (size 3 to 8) (size 9 to 14) (size 15 to 20)
#    0.000    1.667    1.667    2.500    2.333    3.333 
#    0.000    0.833    0.000    0.000    0.000    0.000 
#    0.000    0.000    0.000    0.000    0.000    0.000 
#
# Total GULP energy -297421.272445 kJ/mol
# GULP energy per Si atom -12392.553019 kJ/mol
# Density = 0.938482 g / cm^3
# Si number density = 9.406232 Si / 1000 Ang^3
#
#
#
# Elastic Constant Matrix: (Units=GPa)
#
#
# Indices 1 2 3 4 5 6 
#
# 1 72.5594 35.1554 53.3615 -0.0140 -3.6609 0.0073
# 2 35.1554 130.5938 69.5680 -0.0038 13.5201 -0.0166
# 3 53.3615 69.5680 192.6866 -0.0519 0.7785 0.0805
# 4 -0.0140 -0.0038 -0.0519 48.7849 -0.0162 -18.6793
# 5 -3.6609 13.5201 0.7785 -0.0162 41.6866 0.0166
# 6 0.0073 -0.0166 0.0805 -18.6793 0.0166 103.3726
#
#
#
# Elastic Compliance Matrix: (Units=1/GPa)
#
#
# Indices 1 2 3 4 5 6 
#
# 1 0.018340 -0.003100 -0.003970 0.000002 0.002690 0.000001
# 2 -0.003100 0.010399 -0.002881 -0.000003 -0.003591 0.000004
# 3 -0.003970 -0.002881 0.007328 0.000005 0.000449 -0.000005
# 4 0.000002 -0.000003 0.000005 0.022022 0.000008 0.003979
# 5 0.002690 -0.003591 0.000449 0.000008 0.025381 -0.000004
# 6 0.000001 0.000004 -0.000005 0.003979 -0.000004 0.010393
#
#
# Mechanical properties :
#
#
# Convention : Reuss Voigt Hill
#
# Bulk Modulus (GPa) = 61.87387 79.11217 70.49302
# Shear Modulus (GPa) = 41.96291 54.61914 48.29103
#
# Velocity S-wave (km/s) = 4.72804 5.39412 5.07202
# Velocity P-wave (km/s) = 7.92256 8.99665 8.47664
#
# Compressibility (1/GPa) = 0.01616191
#
# Stress axis : x y z
#
# Youngs Moduli (GPa) = 54.52683 96.16711 136.46807
#
# Poissons Ratio (x) = 0.29816 0.54182
# Poissons Ratio (y) = 0.16906 0.39319
# Poissons Ratio (z) = 0.21649 0.27708
#
# Static dielectric constant tensor:
#      x y z
#    x 3.378200 -0.000030 -0.257180 
#    y -0.000030 3.772400 -0.000030 
#    z -0.257180 -0.000030 3.889320 
# 
# 
# High freq. dielectric constant tensor:
#      x y z
#    x 1.726230 0.000000 -0.018540 
#    y 0.000000 1.742610 0.000000 
#    z -0.018540 0.000000 1.765460 
# 
# From -- ./inp_files/135888.got.cif
#   From: 2010.06.25/outbox.ucp.g09.slc.cvg/sg15_68_cif.got.tgz:135888.got - 2010.06.28 14:40:10.
