data_PCOD8129876
_publ_section_title
;
Structure prediction by ZEFSAII (Michael W. Deem and Ramdas Pophale) SiO2 
 PCOD8129876
Probable space group: C 2/C
;
_chemical_formula_sum "Si O2"
_cell_formula_units_Z 60
_cell_length_a 18.561384
_cell_length_b 12.043714
_cell_length_c 30.601482
_cell_angle_alpha 90.000000
_cell_angle_beta 29.104827
_cell_angle_gamma 90.000000
_cell_volume 3327.475322
_symmetry_space_group_name_H-M "C 2/C"
_symmetry_group_IT_number 15
_symmetry_cell_setting 'monoclinic'
loop_
_space_group_symop_operation_xyz
x,y,z
-x,y,1/2-z
-x,-y,-z
x,-y,1/2+z
1/2+x,1/2+y,z
1/2-x,1/2+y,1/2-z
1/2-x,1/2-y,-z
1/2+x,1/2-y,1/2+z
loop_
_atom_site_type_symbol
_atom_site_label
_atom_site_fract_x
_atom_site_fract_y
_atom_site_fract_z
Si Si1 0.945050 0.287276 0.682589
Si Si2 0.043715 0.927139 0.080110
Si Si3 0.642630 0.001441 0.564084
Si Si4 0.697627 0.442365 0.909289
Si Si5 0.000000 0.683826 0.250000
Si Si6 0.155567 0.709919 0.509117
Si Si7 0.151020 0.352892 0.145677
Si Si8 0.119152 0.866864 0.857510
O O1 0.971304 0.249617 0.719616
O O2 0.776971 0.318385 0.761005
O O3 0.983504 0.186731 0.630913
O O4 0.038343 0.394841 0.619502
O O5 0.086296 0.911484 0.006989
O O6 0.919207 0.023213 0.150439
O O7 0.188476 0.962886 0.029902
O O8 0.616122 0.079293 0.535310
O O9 0.612695 0.074827 0.622969
O O10 0.856798 0.389456 0.834819
O O11 0.734761 0.573774 0.885822
O O12 0.616497 0.399495 0.909643
O O13 0.250000 0.750000 0.500000
O O14 0.260776 0.738731 0.411885
O O15 0.001833 0.774098 0.587462
O O16 0.000000 0.320975 0.250000
#
# Coordination Sequence:
#
# PCOD8129876 Si02
#       8
#     8   8   8   8   4   8   8   8
#     4  11  23  36  62  86 115 152 190 248 285 346
#     4  11  21  37  60  88 111 153 195 237 293 347
#     4  10  20  37  60  79 114 151 194 229 285 346
#     4  10  18  33  57  87 115 141 195 250 285 323
#     4  10  18  36  56  88 108 144 194 242 290 328
#     4  10  20  36  53  80 119 156 178 236 289 347
#     4  10  16  31  56  85 108 142 193 239 281 325
#     4  11  22  36  56  89 121 144 192 247 294 335
#
# _framework density 18.031690000000001
#
# number of rings (size 3 to 8) (size 9 to 14) (size 15 to 20)
#    0.000    1.600    7.333    1.600    1.867    0.000 
#    0.000    0.000    1.467    0.800    0.000    0.000 
#    0.000    0.000    0.000    0.000    0.000    0.000 
#
# Total GULP energy -371758.549461 kJ/mol
# GULP energy per Si atom -12391.951649 kJ/mol
# Density = 1.799065 g / cm^3
# Si number density = 18.031690 Si / 1000 Ang^3
#
#
#
# Elastic Constant Matrix: (Units=GPa)
#
#
# Indices 1 2 3 4 5 6 
#
# 1 62.3679 45.8534 49.0035 0.0000 -27.0764 0.0000
# 2 45.8534 121.0165 72.4264 0.0000 -3.4142 0.0001
# 3 49.0035 72.4264 126.3382 0.0000 -13.0500 0.0005
# 4 0.0000 0.0000 0.0000 21.1418 -0.0004 -7.6913
# 5 -27.0764 -3.4142 -13.0500 -0.0004 25.5559 -0.0001
# 6 0.0000 0.0001 0.0005 -7.6913 -0.0001 32.2546
#
#
#
# Elastic Compliance Matrix: (Units=1/GPa)
#
#
# Indices 1 2 3 4 5 6 
#
# 1 0.057151 -0.015561 -0.007608 0.000001 0.054587 0.000001
# 2 -0.015561 0.016925 -0.005422 0.000000 -0.016995 0.000000
# 3 -0.007608 -0.005422 0.013795 0.000000 -0.001741 0.000000
# 4 0.000001 0.000000 0.000000 0.051793 0.000002 0.012350
# 5 0.054587 -0.016995 -0.001741 0.000002 0.093806 0.000001
# 6 0.000001 0.000000 0.000000 0.012350 0.000001 0.033948
#
#
# Mechanical properties :
#
#
# Convention : Reuss Voigt Hill
#
# Bulk Modulus (GPa) = 32.58635 71.58767 52.08701
# Shear Modulus (GPa) = 14.93293 25.28641 20.10967
#
# Velocity S-wave (km/s) = 2.88088 3.74883 3.34314
# Velocity P-wave (km/s) = 5.40156 7.65020 6.62203
#
# Compressibility (1/GPa) = 0.03068770
#
# Stress axis : x y z
#
# Youngs Moduli (GPa) = 17.49754 59.08313 72.49007
#
# Poissons Ratio (x) = 0.91941 0.55151
# Poissons Ratio (y) = 0.27228 0.39308
# Poissons Ratio (z) = 0.13312 0.32038
#
# Static dielectric constant tensor:
#      x y z
#    x 3.715900 -0.000010 -0.130840 
#    y -0.000010 3.450450 0.000000 
#    z -0.130840 0.000000 3.504610 
# 
# 
# High freq. dielectric constant tensor:
#      x y z
#    x 1.685580 0.000000 -0.017930 
#    y 0.000000 1.679070 0.000000 
#    z -0.017930 0.000000 1.707650 
# 
# From -- ./inp_files/316058.got.cif
#   From: 2010.06.25/outbox.cif.g09.slc.cpg/sg15_159_cif.got.tgz:316058.got - 2010.06.28 07:06:18.
