data_PCOD8129533
_publ_section_title
;
Structure prediction by ZEFSAII (Michael W. Deem and Ramdas Pophale) SiO2 
 PCOD8129533
Probable space group: P 21/C
;
_chemical_formula_sum "Si O2"
_cell_formula_units_Z 28
_cell_length_a 30.000000
_cell_length_b 9.000000
_cell_length_c 30.000000
_cell_angle_alpha 90.000000
_cell_angle_beta 10.000000
_cell_angle_gamma 90.000000
_cell_volume 1406.550239
_symmetry_space_group_name_H-M "P 21/C"
_symmetry_group_IT_number 14
_symmetry_cell_setting 'monoclinic'
loop_
_space_group_symop_operation_xyz
x,y,z
-x,1/2+y,1/2-z
-x,-y,-z
x,1/2-y,1/2+z
loop_
_atom_site_type_symbol
_atom_site_label
_atom_site_fract_x
_atom_site_fract_y
_atom_site_fract_z
Si Si1 0.233231 0.529550 0.633829
Si Si2 0.269299 0.272273 0.152154
Si Si3 0.231124 0.134735 0.042316
Si Si4 0.263247 0.664994 0.454402
Si Si5 0.253870 0.399417 0.752893
Si Si6 0.739193 0.790260 0.653703
Si Si7 0.243616 0.568714 0.372099
O O1 0.255318 0.396632 0.647487
O O2 0.225729 0.446907 0.594530
O O3 0.476786 0.640008 0.392914
O O4 0.980028 0.629808 0.892106
O O5 0.261727 0.243356 0.212525
O O6 0.028040 0.377017 0.379373
O O7 0.524937 0.359019 0.884596
O O8 0.971801 0.234792 0.294958
O O9 0.471461 0.246141 0.797197
O O10 0.247839 0.000722 0.990275
O O11 0.253859 0.637979 0.411061
O O12 0.500000 0.500000 0.500000
O O13 0.259119 0.324135 0.795888
O O14 0.000000 0.500000 0.000000
O O15 0.743356 0.611769 0.641032
#
# Coordination Sequence:
#
# PCOD8129533 Si02
#       7
#     4   4   4   4   4   4   4
#     4  12  23  44  70  95 129 181 221 257 334 401
#     4  12  23  44  71  93 134 183 214 270 330 395
#     4  12  27  44  71  98 133 172 221 271 334 394
#     4  12  26  46  66 100 131 171 217 276 326 396
#     4  12  23  40  67 101 131 169 230 277 318 385
#     4  12  26  42  69 102 132 176 224 276 323 389
#     4  12  26  44  66  97 138 172 217 273 337 392
#
# _framework density 19.906860999999999
#
# number of rings (size 3 to 8) (size 9 to 14) (size 15 to 20)
#    0.000    0.000    5.714    4.286    4.000    1.143 
#    0.000    0.000    0.000    0.000    0.000    0.000 
#    0.000    0.000    0.000    0.000    0.000    0.000 
#
# Total GULP energy -347110.759858 kJ/mol
# GULP energy per Si atom -12396.812852 kJ/mol
# Density = 1.986155 g / cm^3
# Si number density = 19.906861 Si / 1000 Ang^3
#
#
#
# Elastic Constant Matrix: (Units=GPa)
#
#
# Indices 1 2 3 4 5 6 
#
# 1 72.6995 14.4438 20.5442 0.0000 10.9454 0.0000
# 2 14.4438 169.9941 73.0186 0.0000 0.9744 0.0000
# 3 20.5442 73.0186 202.6264 0.0000 2.2853 0.0000
# 4 0.0000 0.0000 0.0000 59.7733 0.0000 4.1932
# 5 10.9454 0.9744 2.2853 0.0000 33.2791 0.0000
# 6 0.0000 0.0000 0.0000 4.1932 0.0000 47.5515
#
#
#
# Elastic Compliance Matrix: (Units=1/GPa)
#
#
# Indices 1 2 3 4 5 6 
#
# 1 0.014965 -0.000728 -0.001200 0.000000 -0.004818 0.000000
# 2 -0.000728 0.006995 -0.002449 0.000000 0.000203 0.000000
# 3 -0.001200 -0.002449 0.005939 0.000000 0.000059 0.000000
# 4 0.000000 0.000000 0.000000 0.016834 0.000000 -0.001484
# 5 -0.004818 0.000203 0.000059 0.000000 0.031624 0.000000
# 6 0.000000 0.000000 0.000000 -0.001484 0.000000 0.021161
#
#
# Mechanical properties :
#
#
# Convention : Reuss Voigt Hill
#
# Bulk Modulus (GPa) = 52.23904 73.48148 62.86026
# Shear Modulus (GPa) = 44.38369 50.60836 47.49602
#
# Velocity S-wave (km/s) = 4.72695 5.04755 4.88988
# Velocity P-wave (km/s) = 7.48938 8.42396 7.97038
#
# Compressibility (1/GPa) = 0.01914277
#
# Stress axis : x y z
#
# Youngs Moduli (GPa) = 66.82451 142.95251 168.38207
#
# Poissons Ratio (x) = 0.10410 0.20214
# Poissons Ratio (y) = 0.04866 0.41242
# Poissons Ratio (z) = 0.08022 0.35013
#
# Static dielectric constant tensor:
#      x y z
#    x 4.004240 0.000000 0.132360 
#    y 0.000000 4.253580 0.000000 
#    z 0.132360 0.000000 4.336190 
# 
# 
# High freq. dielectric constant tensor:
#      x y z
#    x 1.793370 0.000000 0.011550 
#    y 0.000000 1.818790 0.000000 
#    z 0.011550 0.000000 1.822270 
# 
# From -- ./inp_files/80871.got.cif
#   From: 2010.03.12/outbox.ucp.g09.slc.cvg/sg14_41_cif.got.tgz:80871.got - 2010.05.04 20:10:03.
