data_PCOD8129493
_publ_section_title
;
Structure prediction by ZEFSAII (Michael W. Deem and Ramdas Pophale) SiO2 
 PCOD8129493
Probable space group: P 21/C
;
_chemical_formula_sum "Si O2"
_cell_formula_units_Z 16
_cell_length_a 23.109311
_cell_length_b 4.819900
_cell_length_c 13.640748
_cell_angle_alpha 90.000000
_cell_angle_beta 22.534422
_cell_angle_gamma 90.000000
_cell_volume 582.280491
_symmetry_space_group_name_H-M "P 21/C"
_symmetry_group_IT_number 14
_symmetry_cell_setting 'monoclinic'
loop_
_space_group_symop_operation_xyz
x,y,z
-x,1/2+y,1/2-z
-x,-y,-z
x,1/2-y,1/2+z
loop_
_atom_site_type_symbol
_atom_site_label
_atom_site_fract_x
_atom_site_fract_y
_atom_site_fract_z
Si Si1 0.102778 0.198806 0.602236
Si Si2 0.831605 0.550899 0.296449
Si Si3 0.597129 0.035031 0.946307
Si Si4 0.348085 0.949245 0.488712
O O1 0.177114 0.329206 0.581474
O O2 0.001033 0.432394 0.707550
O O3 0.238504 0.102791 0.319825
O O4 0.759956 0.249882 0.404189
O O5 0.734450 0.754582 0.379426
O O6 0.000000 0.500000 0.000000
O O7 0.625687 0.355710 0.937638
O O8 0.500000 0.000000 0.000000
O O9 0.506584 0.911935 0.181727
#
# Coordination Sequence:
#
# PCOD8129493 Si02
#       4
#     4   4   4   4
#     4  12  29  53  82 124 166 220 278 349 426 506
#     4  12  27  53  83 122 173 216 284 351 424 505
#     4  12  29  56  87 122 176 220 288 350 426 510
#     4  12  28  53  84 125 161 231 282 352 422 504
#
# _framework density 27.478166999999999
#
# number of rings (size 3 to 8) (size 9 to 14) (size 15 to 20)
#    0.000    0.000    2.500    5.250    0.000   13.000 
#    0.000    0.000    0.000    0.000    0.000    0.000 
#    0.000    0.000    0.000    0.000    0.000    0.000 
#
# Total GULP energy -198356.963586 kJ/mol
# GULP energy per Si atom -12397.310224 kJ/mol
# Density = 2.741563 g / cm^3
# Si number density = 27.478167 Si / 1000 Ang^3
#
#
#
# Elastic Constant Matrix: (Units=GPa)
#
#
# Indices 1 2 3 4 5 6 
#
# 1 143.6992 5.9708 45.2034 0.0000 0.1331 0.0000
# 2 5.9708 66.9765 70.2597 0.0000 -0.3990 0.0000
# 3 45.2034 70.2597 195.8050 0.0000 -14.2195 0.0000
# 4 0.0000 0.0000 0.0000 54.3889 0.0000 -4.2726
# 5 0.1331 -0.3990 -14.2195 0.0000 48.4202 0.0000
# 6 0.0000 0.0000 0.0000 -4.2726 0.0000 58.3527
#
#
#
# Elastic Compliance Matrix: (Units=1/GPa)
#
#
# Indices 1 2 3 4 5 6 
#
# 1 0.007674 0.001968 -0.002532 0.000000 -0.000748 0.000000
# 2 0.001968 0.024718 -0.009512 0.000000 -0.002595 0.000000
# 3 -0.002532 -0.009512 0.009298 0.000000 0.002659 0.000000
# 4 0.000000 0.000000 0.000000 0.018492 0.000000 0.001354
# 5 -0.000748 -0.002595 0.002659 0.000000 0.021414 0.000000
# 6 0.000000 0.000000 0.000000 0.001354 0.000000 0.017236
#
#
# Mechanical properties :
#
#
# Convention : Reuss Voigt Hill
#
# Bulk Modulus (GPa) = 46.43116 72.14984 59.29050
# Shear Modulus (GPa) = 39.63027 51.23545 45.43286
#
# Velocity S-wave (km/s) = 3.80181 4.32277 4.07063
# Velocity P-wave (km/s) = 6.01713 7.15746 6.61193
#
# Compressibility (1/GPa) = 0.02153726
#
# Stress axis : x y z
#
# Youngs Moduli (GPa) = 130.30270 40.45591 107.54987
#
# Poissons Ratio (x) = -0.07960 0.27233
# Poissons Ratio (y) = -0.25638 1.02304
# Poissons Ratio (z) = 0.32994 0.38483
#
# Static dielectric constant tensor:
#      x y z
#    x 4.262280 0.000000 -0.152370 
#    y 0.000000 1.484660 0.000000 
#    z -0.152370 0.000000 5.401960 
# 
# 
# High freq. dielectric constant tensor:
#      x y z
#    x 2.122200 0.000000 -0.016330 
#    y 0.000000 2.123980 0.000000 
#    z -0.016330 0.000000 2.137560 
# 
# From -- ./inp_files/50940.got.cif
#   From: 2010.03.12/outbox.cif.g09.slc.cpg/sg14_26_cif.got.tgz:50940.got - 2010.03.31 13:35:05.
