data_PCOD8129934
_publ_section_title
;
Structure prediction by ZEFSAII (Michael W. Deem and Ramdas Pophale) SiO2 
 PCOD8129934
Probable space group: C 2/C
;
_chemical_formula_sum "Si O2"
_cell_formula_units_Z 56
_cell_length_a 8.704035
_cell_length_b 21.158043
_cell_length_c 15.716838
_cell_angle_alpha 90.000000
_cell_angle_beta 110.822123
_cell_angle_gamma 90.000000
_cell_volume 2705.379514
_symmetry_space_group_name_H-M "C 2/C"
_symmetry_group_IT_number 15
_symmetry_cell_setting 'monoclinic'
loop_
_space_group_symop_operation_xyz
x,y,z
-x,y,1/2-z
-x,-y,-z
x,-y,1/2+z
1/2+x,1/2+y,z
1/2-x,1/2+y,1/2-z
1/2-x,1/2-y,-z
1/2+x,1/2-y,1/2+z
loop_
_atom_site_type_symbol
_atom_site_label
_atom_site_fract_x
_atom_site_fract_y
_atom_site_fract_z
Si Si1 0.500000 0.417677 0.250000
Si Si2 0.600862 0.773300 0.690361
Si Si3 0.967834 0.097560 0.461748
Si Si4 0.500000 0.088193 0.750000
Si Si5 0.105268 0.702089 0.660506
Si Si6 0.388607 0.318927 0.651877
Si Si7 0.318276 0.522726 0.860805
Si Si8 0.850326 0.175072 0.584061
O O1 0.617657 0.463997 0.221022
O O2 0.603586 0.375264 0.334564
O O3 0.500000 0.805388 0.750000
O O4 0.741862 0.728672 0.755963
O O5 0.697555 0.821015 0.645706
O O6 0.478171 0.732634 0.608791
O O7 0.848654 0.145455 0.489529
O O8 0.089030 0.134734 0.422775
O O9 0.087292 0.063387 0.550504
O O10 0.845284 0.050897 0.387642
O O11 0.570577 0.132549 0.689508
O O12 0.628401 0.042118 0.822400
O O13 0.166018 0.698101 0.573577
O O14 0.946671 0.747501 0.637830
O O15 0.500000 0.345212 0.750000
#
# Coordination Sequence:
#
# PCOD8129934 Si02
#       8
#     4   8   8   4   8   8   8   8
#     4  10  16  32  63  83 102 168 204 250 294 364
#     4   9  16  31  57  92 119 159 206 247 299 387
#     4  10  23  40  57  92 126 163 208 261 315 373
#     4  12  18  38  67  95 114 162 224 260 294 362
#     4  10  17  31  58  93 118 156 206 257 301 372
#     4  10  21  35  60  87 130 162 201 248 322 382
#     4  10  23  39  66  87 118 162 227 258 294 368
#     4  10  17  33  59  86 121 152 206 250 311 366
#
# _framework density 20.699497999999998
#
# number of rings (size 3 to 8) (size 9 to 14) (size 15 to 20)
#    0.000    2.000    5.714    0.857    1.000    1.143 
#    0.000    0.714   12.571    0.000    0.000    0.000 
#    0.000    0.000    0.000    0.000    0.000    0.000 
#
# Total GULP energy -347022.589968 kJ/mol
# GULP energy per Si atom -12393.663927 kJ/mol
# Density = 2.065238 g / cm^3
# Si number density = 20.699498 Si / 1000 Ang^3
#
#
#
# Elastic Constant Matrix: (Units=GPa)
#
#
# Indices 1 2 3 4 5 6 
#
# 1 143.2701 41.4792 35.5041 0.0000 -30.4203 0.0000
# 2 41.4792 69.9686 34.5964 0.0000 -15.0007 0.0000
# 3 35.5041 34.5964 58.2609 0.0000 -22.3218 0.0000
# 4 0.0000 0.0000 0.0000 18.8833 0.0000 -7.2378
# 5 -30.4203 -15.0007 -22.3218 0.0000 40.1038 0.0000
# 6 0.0000 0.0000 0.0000 -7.2378 0.0000 15.8921
#
#
#
# Elastic Compliance Matrix: (Units=1/GPa)
#
#
# Indices 1 2 3 4 5 6 
#
# 1 0.009525 -0.003759 -0.001707 0.000000 0.004869 0.000000
# 2 -0.003759 0.021756 -0.010935 0.000000 -0.000800 0.000000
# 3 -0.001707 -0.010935 0.028770 0.000000 0.010628 0.000000
# 4 0.000000 0.000000 0.000000 0.064156 0.000000 0.029219
# 5 0.004869 -0.000800 0.010628 0.000000 0.034245 0.000000
# 6 0.000000 0.000000 0.000000 0.029219 0.000000 0.076232
#
#
# Mechanical properties :
#
#
# Convention : Reuss Voigt Hill
#
# Bulk Modulus (GPa) = 36.69813 54.96212 45.83013
# Shear Modulus (GPa) = 18.07874 25.63714 21.85794
#
# Velocity S-wave (km/s) = 2.95852 3.52311 3.25309
# Velocity P-wave (km/s) = 5.42568 6.56961 6.02485
#
# Compressibility (1/GPa) = 0.02724934
#
# Stress axis : x y z
#
# Youngs Moduli (GPa) = 104.98842 45.96491 34.75865
#
# Poissons Ratio (x) = 0.17277 0.05933
# Poissons Ratio (y) = 0.39462 0.38008
# Poissons Ratio (z) = 0.17921 0.50262
#
# Static dielectric constant tensor:
#      x y z
#    x 4.302220 0.000000 -0.487370 
#    y 0.000000 3.670820 0.000000 
#    z -0.487370 0.000000 3.687490 
# 
# 
# High freq. dielectric constant tensor:
#      x y z
#    x 1.817450 0.000000 -0.025460 
#    y 0.000000 1.782670 0.000000 
#    z -0.025460 0.000000 1.797330 
# 
# From -- ./inp_files/137502.got.cif
#   From: 2010.06.25/outbox.cif.g09.slc.cpg/sg15_69_cif.got.tgz:137502.got - 2010.06.28 07:06:18.
