data_PCOD8129851
_publ_section_title
;
Structure prediction by ZEFSAII (Michael W. Deem and Ramdas Pophale) SiO2 
 PCOD8129851
Probable space group: C 2/C
;
_chemical_formula_sum "Si O2"
_cell_formula_units_Z 56
_cell_length_a 8.503564
_cell_length_b 26.907681
_cell_length_c 12.727388
_cell_angle_alpha 90.000000
_cell_angle_beta 103.896464
_cell_angle_gamma 90.000000
_cell_volume 2826.933384
_symmetry_space_group_name_H-M "C 2/C"
_symmetry_group_IT_number 15
_symmetry_cell_setting 'monoclinic'
loop_
_space_group_symop_operation_xyz
x,y,z
-x,y,1/2-z
-x,-y,-z
x,-y,1/2+z
1/2+x,1/2+y,z
1/2-x,1/2+y,1/2-z
1/2-x,1/2-y,-z
1/2+x,1/2-y,1/2+z
loop_
_atom_site_type_symbol
_atom_site_label
_atom_site_fract_x
_atom_site_fract_y
_atom_site_fract_z
Si Si1 0.109285 0.845891 0.365863
Si Si2 0.264979 0.843672 0.967125
Si Si3 0.899907 0.023233 0.335257
Si Si4 0.910088 0.072871 0.947008
Si Si5 0.814415 0.120990 0.258407
Si Si6 0.438010 0.809074 0.358138
Si Si7 0.424074 0.298357 0.925753
O O1 0.294981 0.848982 0.355250
O O2 0.099650 0.802806 0.452913
O O3 0.000000 0.829458 0.250000
O O4 0.050823 0.898929 0.403109
O O5 0.303291 0.863701 0.855982
O O6 0.113780 0.806336 0.930877
O O7 0.226922 0.887825 0.043018
O O8 0.420309 0.815552 0.034558
O O9 0.763070 0.065209 0.288235
O O10 0.000000 0.007095 0.250000
O O11 0.019027 0.049064 0.437246
O O12 0.826422 0.971560 0.367171
O O13 0.809228 0.160286 0.352462
O O14 0.000000 0.115979 0.250000
O O15 0.500000 0.815020 0.250000
O O16 0.368937 0.753993 0.368783
#
# Coordination Sequence:
#
# PCOD8129851 Si02
#       7
#     8   8   8   8   8   8   8
#     4  11  23  40  56  83 118 150 194 244 284 342
#     4  10  19  35  57  88 119 151 190 239 283 344
#     4  10  16  30  58  89 106 145 197 236 281 336
#     4  10  19  32  58  87 110 146 194 238 282 335
#     4   9  15  32  56  84 112 140 192 239 277 334
#     4  12  24  37  58  85 118 157 190 231 296 343
#     4  10  20  38  59  83 114 153 198 238 275 336
#
# _framework density 19.809450999999999
#
# number of rings (size 3 to 8) (size 9 to 14) (size 15 to 20)
#    0.000    1.714    5.714    4.286    0.000    1.143 
#    0.000    0.714    0.000    3.429   11.143    0.000 
#    0.000    0.000    0.000    0.000    0.000    0.000 
#
# Total GULP energy -347055.559400 kJ/mol
# GULP energy per Si atom -12394.841407 kJ/mol
# Density = 1.976436 g / cm^3
# Si number density = 19.809451 Si / 1000 Ang^3
#
#
#
# Elastic Constant Matrix: (Units=GPa)
#
#
# Indices 1 2 3 4 5 6 
#
# 1 51.8446 22.9904 29.6891 0.0000 -3.2463 0.0000
# 2 22.9904 97.8917 36.4564 0.0000 -6.3968 0.0000
# 3 29.6891 36.4564 136.0428 0.0000 -11.2124 0.0000
# 4 0.0000 0.0000 0.0000 35.2858 0.0000 -6.8126
# 5 -3.2463 -6.3968 -11.2124 0.0000 24.8230 0.0000
# 6 0.0000 0.0000 0.0000 -6.8126 0.0000 9.9579
#
#
#
# Elastic Compliance Matrix: (Units=1/GPa)
#
#
# Indices 1 2 3 4 5 6 
#
# 1 0.023365 -0.003978 -0.004015 0.000000 0.000217 0.000000
# 2 -0.003978 0.012087 -0.002241 0.000000 0.001583 0.000000
# 3 -0.004015 -0.002241 0.009074 0.000000 0.002996 0.000000
# 4 0.000000 0.000000 0.000000 0.032653 0.000000 0.022339
# 5 0.000217 0.001583 0.002996 0.000000 0.042075 0.000000
# 6 0.000000 0.000000 0.000000 0.022339 0.000000 0.115706
#
#
# Mechanical properties :
#
#
# Convention : Reuss Voigt Hill
#
# Bulk Modulus (GPa) = 41.56365 51.56123 46.56244
# Shear Modulus (GPa) = 18.97901 27.12287 23.05094
#
# Velocity S-wave (km/s) = 3.09864 3.70427 3.41491
# Velocity P-wave (km/s) = 5.81630 6.66188 6.25340
#
# Compressibility (1/GPa) = 0.02405949
#
# Stress axis : x y z
#
# Youngs Moduli (GPa) = 42.79835 82.73026 110.20168
#
# Poissons Ratio (x) = 0.32910 0.44248
# Poissons Ratio (y) = 0.17025 0.24692
# Poissons Ratio (z) = 0.17185 0.18537
#
# Static dielectric constant tensor:
#      x y z
#    x 3.087030 0.000000 -0.231490 
#    y 0.000000 3.879440 0.000000 
#    z -0.231490 0.000000 3.937070 
# 
# 
# High freq. dielectric constant tensor:
#      x y z
#    x 1.709020 0.000000 -0.019580 
#    y 0.000000 1.777120 0.000000 
#    z -0.019580 0.000000 1.796320 
# 
# From -- ./inp_files/82288.got.cif
#   From: 2010.06.25/outbox.cif.g09.slc.cpg/sg15_42_cif.got.tgz:82288.got - 2010.06.28 07:06:18.
