data_PCOD8129465
_publ_section_title
;
Structure prediction by ZEFSAII (Michael W. Deem and Ramdas Pophale) SiO2 
 PCOD8129465
Probable space group: P 21/C
;
_chemical_formula_sum "Si O2"
_cell_formula_units_Z 20
_cell_length_a 9.045522
_cell_length_b 11.386723
_cell_length_c 8.761404
_cell_angle_alpha 90.000000
_cell_angle_beta 67.526485
_cell_angle_gamma 90.000000
_cell_volume 833.881892
_symmetry_space_group_name_H-M "P 21/C"
_symmetry_group_IT_number 14
_symmetry_cell_setting 'monoclinic'
loop_
_space_group_symop_operation_xyz
x,y,z
-x,1/2+y,1/2-z
-x,-y,-z
x,1/2-y,1/2+z
loop_
_atom_site_type_symbol
_atom_site_label
_atom_site_fract_x
_atom_site_fract_y
_atom_site_fract_z
Si Si1 0.892101 0.311541 0.332096
Si Si2 0.621344 0.033346 0.087989
Si Si3 0.636981 0.616280 0.100706
Si Si4 0.859932 0.091168 0.527900
Si Si5 0.250900 0.172628 0.764358
O O1 0.769289 0.390243 0.474064
O O2 0.883748 0.172851 0.371084
O O3 0.847891 0.319193 0.172760
O O4 0.071035 0.361166 0.287775
O O5 0.538299 0.110246 0.254823
O O6 0.687432 0.912259 0.128188
O O7 0.500000 0.000000 0.000000
O O8 0.698233 0.482406 0.072863
O O9 0.748628 0.696724 0.165147
O O10 0.633508 0.666658 0.929898
O O11 0.000000 0.000000 0.500000
#
# Coordination Sequence:
#
# PCOD8129465 Si02
#       5
#     4   4   4   4   4
#     4  12  27  47  79 109 151 202 255 314 383 453
#     4  12  28  48  75 113 156 201 256 318 387 458
#     4  12  27  49  74 111 155 197 252 321 381 456
#     4  12  26  48  77 114 152 194 257 314 378 458
#     4  12  26  49  77 107 151 205 257 313 388 452
#
# _framework density 23.984210000000001
#
# number of rings (size 3 to 8) (size 9 to 14) (size 15 to 20)
#    0.000    0.000    6.000    2.400    5.600    3.200 
#    0.000    0.000    0.000    0.000    0.000    0.000 
#    0.000    0.000    0.000    0.000    0.000    0.000 
#
# Total GULP energy -248117.747424 kJ/mol
# GULP energy per Si atom -12405.887371 kJ/mol
# Density = 2.392962 g / cm^3
# Si number density = 23.984210 Si / 1000 Ang^3
#
#
#
# Elastic Constant Matrix: (Units=GPa)
#
#
# Indices 1 2 3 4 5 6 
#
# 1 53.6502 14.7722 12.3593 0.0000 -8.6711 0.0000
# 2 14.7722 120.5310 54.7837 0.0000 10.9089 0.0000
# 3 12.3593 54.7837 112.7394 0.0000 -2.1340 0.0000
# 4 0.0000 0.0000 0.0000 47.4925 0.0000 -0.7612
# 5 -8.6711 10.9089 -2.1340 0.0000 45.5742 0.0000
# 6 0.0000 0.0000 0.0000 -0.7612 0.0000 28.9690
#
#
#
# Elastic Compliance Matrix: (Units=1/GPa)
#
#
# Indices 1 2 3 4 5 6 
#
# 1 0.020241 -0.002448 -0.000946 0.000000 0.004393 0.000000
# 2 -0.002448 0.011312 -0.005293 0.000000 -0.003421 0.000000
# 3 -0.000946 -0.005293 0.011577 0.000000 0.001629 0.000000
# 4 0.000000 0.000000 0.000000 0.021065 0.000000 0.000554
# 5 0.004393 -0.003421 0.001629 0.000000 0.023673 0.000000
# 6 0.000000 0.000000 0.000000 0.000554 0.000000 0.034534
#
#
# Mechanical properties :
#
#
# Convention : Reuss Voigt Hill
#
# Bulk Modulus (GPa) = 38.82776 50.08347 44.45561
# Shear Modulus (GPa) = 33.70105 38.07416 35.88761
#
# Velocity S-wave (km/s) = 3.75258 3.98863 3.87240
# Velocity P-wave (km/s) = 5.91607 6.49148 6.21044
#
# Compressibility (1/GPa) = 0.02575477
#
# Stress axis : x y z
#
# Youngs Moduli (GPa) = 49.40386 88.39944 86.37978
#
# Poissons Ratio (x) = 0.21643 0.08173
# Poissons Ratio (y) = 0.12096 0.45724
# Poissons Ratio (z) = 0.04674 0.46793
#
# Static dielectric constant tensor:
#      x y z
#    x 4.259620 0.000000 -0.070590 
#    y 0.000000 4.369700 0.000000 
#    z -0.070590 0.000000 4.650510 
# 
# 
# High freq. dielectric constant tensor:
#      x y z
#    x 1.949900 0.000000 -0.003620 
#    y 0.000000 1.959500 0.000000 
#    z -0.003620 0.000000 1.967920 
# 
# From -- ./inp_files/7886.got.cif
#   From: 2010.03.12/outbox.cif.g09.slc.cpg/sg14_4_cif.got.tgz:7886.got - 2010.03.31 13:35:05.
