data_PCOD8129213
_publ_section_title
;
Structure prediction by ZEFSAII (Michael W. Deem and Ramdas Pophale) SiO2 
 PCOD8129213
Probable space group: P 21/C
;
_chemical_formula_sum "Si O2"
_cell_formula_units_Z 24
_cell_length_a 10.859652
_cell_length_b 11.597942
_cell_length_c 18.378180
_cell_angle_alpha 90.000000
_cell_angle_beta 30.457304
_cell_angle_gamma 90.000000
_cell_volume 1173.325024
_symmetry_space_group_name_H-M "P 21/C"
_symmetry_group_IT_number 14
_symmetry_cell_setting 'monoclinic'
loop_
_space_group_symop_operation_xyz
x,y,z
-x,1/2+y,1/2-z
-x,-y,-z
x,1/2-y,1/2+z
loop_
_atom_site_type_symbol
_atom_site_label
_atom_site_fract_x
_atom_site_fract_y
_atom_site_fract_z
Si Si1 0.319850 0.409637 0.127136
Si Si2 0.866811 0.038588 0.773494
Si Si3 0.128284 0.079815 0.492473
Si Si4 0.383733 0.334871 0.525988
Si Si5 0.659707 0.507040 0.728025
Si Si6 0.114354 0.155859 0.010147
O O1 0.355715 0.407319 0.195428
O O2 0.036740 0.436480 0.256348
O O3 0.500000 0.500000 0.000000
O O4 0.390162 0.289620 0.056671
O O5 0.663737 0.136364 0.867019
O O6 0.038860 0.036714 0.616218
O O7 0.731078 0.917668 0.854422
O O8 0.068507 0.213521 0.506818
O O9 0.415236 0.063739 0.340573
O O10 0.000000 0.000000 0.500000
O O11 0.229048 0.340070 0.531497
O O12 0.705858 0.586990 0.634729
O O13 0.859489 0.409481 0.640807
#
# Coordination Sequence:
#
# PCOD8129213 Si02
#       6
#     4   4   4   4   4   4
#     4  12  24  43  71  99 132 176 229 270 336 404
#     4  11  25  43  69 103 131 176 223 278 334 399
#     4  12  27  44  71  99 135 178 229 275 336 403
#     4  11  25  44  71  99 139 174 221 282 334 394
#     4  11  26  46  68 101 135 178 226 277 338 399
#     4  11  25  47  70  96 139 177 220 281 338 395
#
# _framework density 20.454689999999999
#
# number of rings (size 3 to 8) (size 9 to 14) (size 15 to 20)
#    0.000    0.667    5.000    1.000   11.667    0.000 
#    0.000    0.000    0.000    0.000    0.000    0.000 
#    0.000    0.000    0.000    0.000    0.000    0.000 
#
# Total GULP energy -297726.315689 kJ/mol
# GULP energy per Si atom -12405.263154 kJ/mol
# Density = 2.040813 g / cm^3
# Si number density = 20.454690 Si / 1000 Ang^3
#
#
#
# Elastic Constant Matrix: (Units=GPa)
#
#
# Indices 1 2 3 4 5 6 
#
# 1 95.2183 63.5366 38.8598 0.0000 -6.5061 0.0000
# 2 63.5366 160.9367 62.9977 0.0000 3.5994 0.0000
# 3 38.8598 62.9977 119.5419 0.0000 -4.0862 0.0000
# 4 0.0000 0.0000 0.0000 28.0703 0.0000 4.5360
# 5 -6.5061 3.5994 -4.0862 0.0000 38.9165 0.0000
# 6 0.0000 0.0000 0.0000 4.5360 0.0000 31.1099
#
#
#
# Elastic Compliance Matrix: (Units=1/GPa)
#
#
# Indices 1 2 3 4 5 6 
#
# 1 0.014980 -0.005174 -0.002048 0.000000 0.002768 0.000000
# 2 -0.005174 0.009668 -0.003486 0.000000 -0.002125 0.000000
# 3 -0.002048 -0.003486 0.010907 0.000000 0.001125 0.000000
# 4 0.000000 0.000000 0.000000 0.036485 0.000000 -0.005320
# 5 0.002768 -0.002125 0.001125 0.000000 0.026473 0.000000
# 6 0.000000 0.000000 0.000000 -0.005320 0.000000 0.032920
#
#
# Mechanical properties :
#
#
# Convention : Reuss Voigt Hill
#
# Bulk Modulus (GPa) = 70.72923 78.49835 74.61379
# Shear Modulus (GPa) = 31.73369 33.63953 32.68661
#
# Velocity S-wave (km/s) = 3.94307 4.05975 4.00184
# Velocity P-wave (km/s) = 7.44204 7.77402 7.60984
#
# Compressibility (1/GPa) = 0.01413843
#
# Stress axis : x y z
#
# Youngs Moduli (GPa) = 66.75717 103.43045 91.68792
#
# Poissons Ratio (x) = 0.53515 0.18780
# Poissons Ratio (y) = 0.34540 0.31961
# Poissons Ratio (z) = 0.13673 0.36054
#
# Static dielectric constant tensor:
#      x y z
#    x 3.909990 0.000000 -0.029350 
#    y 0.000000 -33.595840 0.000000 
#    z -0.029350 0.000000 3.903880 
# 
# 
# High freq. dielectric constant tensor:
#      x y z
#    x 1.809210 0.000000 -0.006550 
#    y 0.000000 1.808150 0.000000 
#    z -0.006550 0.000000 1.815560 
# 
# From -- ./inp_files/57652.got.cif
#   From: 2010.03.12/outbox.cif.g09.slc.cpg/sg14_29_cif.got.tgz:57652.got - 2010.03.31 13:35:05.
