data_PCOD8129827
_publ_section_title
;
Structure prediction by ZEFSAII (Michael W. Deem and Ramdas Pophale) SiO2 
 PCOD8129827
Probable space group: C 2/C
;
_chemical_formula_sum "Si O2"
_cell_formula_units_Z 56
_cell_length_a 23.833235
_cell_length_b 7.494371
_cell_length_c 14.079433
_cell_angle_alpha 90.000000
_cell_angle_beta 53.031425
_cell_angle_gamma 90.000000
_cell_volume 2009.237883
_symmetry_space_group_name_H-M "C 2/C"
_symmetry_group_IT_number 15
_symmetry_cell_setting 'monoclinic'
loop_
_space_group_symop_operation_xyz
x,y,z
-x,y,1/2-z
-x,-y,-z
x,-y,1/2+z
1/2+x,1/2+y,z
1/2-x,1/2+y,1/2-z
1/2-x,1/2-y,-z
1/2+x,1/2-y,1/2+z
loop_
_atom_site_type_symbol
_atom_site_label
_atom_site_fract_x
_atom_site_fract_y
_atom_site_fract_z
Si Si1 0.848081 0.590149 0.310430
Si Si2 0.358407 0.654928 0.499038
Si Si3 0.748228 0.521988 0.256015
Si Si4 0.842549 0.169880 0.313123
Si Si5 0.996090 0.518956 0.142574
Si Si6 0.008153 0.872746 0.903494
Si Si7 0.354095 0.077806 0.513323
O O1 0.791250 0.646373 0.288364
O O2 0.853402 0.378285 0.308606
O O3 0.828918 0.657991 0.436779
O O4 0.927517 0.647053 0.198879
O O5 0.318748 0.563947 0.626765
O O6 0.319166 0.598766 0.441199
O O7 0.439222 0.588540 0.409182
O O8 0.356698 0.864795 0.514834
O O9 0.721247 0.634837 0.193532
O O10 0.801513 0.370327 0.154244
O O11 0.916361 0.073364 0.216682
O O12 0.000000 0.455199 0.250000
O O13 0.992011 0.343591 0.078081
O O14 0.065441 0.638806 0.048020
O O15 0.000000 0.000000 0.000000
#
# Coordination Sequence:
#
# PCOD8129827 Si02
#       7
#     8   8   8   8   8   8   8
#     4   9  19  35  54  76 102 131 170 215 253 295
#     4  10  20  35  53  76 105 134 168 212 255 299
#     4  12  20  28  50  80 106 134 170 204 250 302
#     4  10  20  35  53  76 105 134 168 212 255 299
#     4   8  16  33  55  76  97 127 169 217 256 287
#     4  10  16  30  53  83  98 124 167 218 253 295
#     4   9  19  35  54  76 102 131 170 215 253 295
#
# _framework density 27.871265000000001
#
# number of rings (size 3 to 8) (size 9 to 14) (size 15 to 20)
#    0.000    2.286    1.429    4.714    0.000    2.857 
#    0.000    0.000    0.000   13.714    0.000    0.000 
#    0.000    0.000    0.000    0.000    0.000    0.000 
#
# Total GULP energy -346866.652703 kJ/mol
# GULP energy per Si atom -12388.094739 kJ/mol
# Density = 2.780783 g / cm^3
# Si number density = 27.871265 Si / 1000 Ang^3
#
#
#
# Elastic Constant Matrix: (Units=GPa)
#
#
# Indices 1 2 3 4 5 6 
#
# 1 176.5106 -10.9922 34.8588 0.0001 0.2878 0.0000
# 2 -10.9922 23.1938 -19.1664 0.0001 4.9021 0.0000
# 3 34.8588 -19.1664 109.2648 0.0001 -6.7123 0.0001
# 4 0.0001 0.0001 0.0001 16.8813 0.0000 -1.6523
# 5 0.2878 4.9021 -6.7123 0.0000 54.4890 0.0000
# 6 0.0000 0.0000 0.0001 -1.6523 0.0000 22.1343
#
#
#
# Elastic Compliance Matrix: (Units=1/GPa)
#
#
# Indices 1 2 3 4 5 6 
#
# 1 0.006098 0.001572 -0.001693 0.000000 -0.000382 0.000000
# 2 0.001572 0.051490 0.008308 0.000000 -0.003617 0.000000
# 3 -0.001693 0.008308 0.011189 0.000000 0.000640 0.000000
# 4 0.000000 0.000000 0.000000 0.059673 0.000000 0.004455
# 5 -0.000382 -0.003617 0.000640 0.000000 0.018759 0.000000
# 6 0.000000 0.000000 0.000000 0.004455 0.000000 0.045511
#
#
# Mechanical properties :
#
#
# Convention : Reuss Voigt Hill
#
# Bulk Modulus (GPa) = 11.74389 35.37439 23.55914
# Shear Modulus (GPa) = 24.42235 38.98553 31.70394
#
# Velocity S-wave (km/s) = 2.96337 3.74407 3.37636
# Velocity P-wave (km/s) = 3.99143 5.60450 4.86528
#
# Compressibility (1/GPa) = 0.08515064
#
# Stress axis : x y z
#
# Youngs Moduli (GPa) = 163.98029 19.42126 89.37347
#
# Poissons Ratio (x) = -0.03052 0.15134
# Poissons Ratio (y) = -0.25772 -0.74255
# Poissons Ratio (z) = 0.27767 -0.16136
#
# Static dielectric constant tensor:
#      x y z
#    x 6.103840 0.000000 -0.430780 
#    y 0.000000 4.242670 0.000000 
#    z -0.430780 0.000000 6.479040 
# 
# 
# High freq. dielectric constant tensor:
#      x y z
#    x 2.150400 0.000000 -0.010720 
#    y 0.000000 2.066080 0.000000 
#    z -0.010720 0.000000 2.141530 
# 
# From -- ./inp_files/117481.got.cif
#   From: 2010.06.25/outbox.cif.g09.slc.cpg/sg15_59_cif.got.tgz:117481.got - 2010.06.28 07:06:18.
