data_PCOD8129581
_publ_section_title
;
Structure prediction by ZEFSAII (Michael W. Deem and Ramdas Pophale) SiO2 
 PCOD8129581
Probable space group: C 2/C
;
_chemical_formula_sum "Si O2"
_cell_formula_units_Z 24
_cell_length_a 15.000000
_cell_length_b 18.000000
_cell_length_c 18.000000
_cell_angle_alpha 90.000000
_cell_angle_beta 150.000000
_cell_angle_gamma 90.000000
_cell_volume 2430.000000
_symmetry_space_group_name_H-M "C 2/C"
_symmetry_group_IT_number 15
_symmetry_cell_setting 'monoclinic'
loop_
_space_group_symop_operation_xyz
x,y,z
-x,y,1/2-z
-x,-y,-z
x,-y,1/2+z
1/2+x,1/2+y,z
1/2-x,1/2+y,1/2-z
1/2-x,1/2-y,-z
1/2+x,1/2-y,1/2+z
loop_
_atom_site_type_symbol
_atom_site_label
_atom_site_fract_x
_atom_site_fract_y
_atom_site_fract_z
Si Si1 0.340475 0.956125 0.016855
Si Si2 0.785931 0.460502 0.733095
Si Si3 0.000000 0.626785 0.750000
Si Si4 0.118623 0.656475 0.079755
Si Si5 0.021954 0.079100 0.599124
Si Si6 0.803629 0.692689 0.748842
Si Si7 0.500000 0.557517 0.750000
O O1 0.336510 0.921580 0.097069
O O2 0.546250 0.985601 0.161491
O O3 0.300312 0.892830 0.927597
O O4 0.183590 0.013746 0.893397
O O5 0.882589 0.393551 0.846809
O O6 0.639686 0.503641 0.678013
O O7 0.676786 0.432015 0.580688
O O8 0.916801 0.673725 0.757144
O O9 0.247219 0.723315 0.194293
O O10 0.923439 0.684476 0.910598
O O11 0.125157 0.143558 0.628967
O O12 0.011198 0.102216 0.679505
#
# Coordination Sequence:
#
# PCOD8129581 Si02
#       7
#     8   8   4   8   8   8   4
#     4  11  22  38  61  95 126 168 208 264 312 373
#     4  11  21  42  66  91 125 167 214 261 310 376
#     4  10  22  39  60  87 134 170 206 258 308 385
#     4  11  22  39  63  90 129 169 208 260 316 376
#     4  11  23  40  65  95 126 166 215 257 318 373
#     4  11  24  40  61  93 130 174 208 256 320 380
#     4  12  24  35  66  97 126 164 210 272 308 371
#
# _framework density 9.8765429999999999
#
# number of rings (size 3 to 8) (size 9 to 14) (size 15 to 20)
#    0.000    1.000    5.000    3.500    2.333    4.667 
#    0.000    0.000    0.000   10.000    0.000    0.000 
#    0.000    0.000    0.000    0.000    0.000    0.000 
#
# Total GULP energy -297335.814093 kJ/mol
# GULP energy per Si atom -12388.992254 kJ/mol
# Density = 0.985406 g / cm^3
# Si number density = 9.876543 Si / 1000 Ang^3
#
#
#
# Elastic Constant Matrix: (Units=GPa)
#
#
# Indices 1 2 3 4 5 6 
#
# 1 83.5776 28.2539 31.5260 -0.0073 -15.2485 -0.0007
# 2 28.2539 85.9422 38.8926 -0.0106 -6.8632 -0.0036
# 3 31.5260 38.8926 146.3424 0.0175 -9.2110 0.0048
# 4 -0.0073 -0.0106 0.0175 47.3350 -0.0026 -3.8319
# 5 -15.2485 -6.8632 -9.2110 -0.0026 42.6142 -0.0028
# 6 -0.0007 -0.0036 0.0048 -3.8319 -0.0028 14.5707
#
#
#
# Elastic Compliance Matrix: (Units=1/GPa)
#
#
# Indices 1 2 3 4 5 6 
#
# 1 0.014694 -0.003614 -0.001937 0.000003 0.004257 0.000002
# 2 -0.003614 0.014197 -0.002972 0.000004 0.000351 0.000006
# 3 -0.001937 -0.002972 0.008077 -0.000004 0.000574 -0.000004
# 4 0.000003 0.000004 -0.000004 0.021586 0.000002 0.005677
# 5 0.004257 0.000351 0.000574 0.000002 0.025170 0.000006
# 6 0.000002 0.000006 -0.000004 0.005677 0.000006 0.070124
#
#
# Mechanical properties :
#
#
# Convention : Reuss Voigt Hill
#
# Bulk Modulus (GPa) = 50.19933 57.02303 53.61118
# Shear Modulus (GPa) = 28.16350 35.38329 31.77340
#
# Velocity S-wave (km/s) = 3.78004 4.23694 4.01500
# Velocity P-wave (km/s) = 6.67235 7.27091 6.97805
#
# Compressibility (1/GPa) = 0.01992058
#
# Stress axis : x y z
#
# Youngs Moduli (GPa) = 68.05453 70.43705 123.81358
#
# Poissons Ratio (x) = 0.25457 0.23983
# Poissons Ratio (y) = 0.24596 0.36802
# Poissons Ratio (z) = 0.13182 0.20937
#
# Static dielectric constant tensor:
#      x y z
#    x 3.638560 -0.000010 -0.244600 
#    y -0.000010 3.495470 -0.000050 
#    z -0.244600 -0.000050 4.199480 
# 
# 
# High freq. dielectric constant tensor:
#      x y z
#    x 1.764160 0.000000 -0.017380 
#    y 0.000000 1.753780 0.000000 
#    z -0.017380 0.000000 1.816090 
# 
# From -- ./inp_files/39671.got.cif
#   From: 2010.06.25/outbox.ucp.g09.slc.cvg/sg15_20_cif.got.tgz:39671.got - 2010.06.28 14:40:10.
