data_PCOD8129346
_publ_section_title
;
Structure prediction by ZEFSAII (Michael W. Deem and Ramdas Pophale) SiO2 
 PCOD8129346
Probable space group: P 21/C
;
_chemical_formula_sum "Si O2"
_cell_formula_units_Z 24
_cell_length_a 5.031180
_cell_length_b 19.270789
_cell_length_c 12.154256
_cell_angle_alpha 90.000000
_cell_angle_beta 64.981065
_cell_angle_gamma 90.000000
_cell_volume 1067.840742
_symmetry_space_group_name_H-M "P 21/C"
_symmetry_group_IT_number 14
_symmetry_cell_setting 'monoclinic'
loop_
_space_group_symop_operation_xyz
x,y,z
-x,1/2+y,1/2-z
-x,-y,-z
x,1/2-y,1/2+z
loop_
_atom_site_type_symbol
_atom_site_label
_atom_site_fract_x
_atom_site_fract_y
_atom_site_fract_z
Si Si1 0.692231 0.492615 0.858948
Si Si2 0.460490 0.417544 0.514214
Si Si3 0.687672 0.852670 0.342425
Si Si4 0.052212 0.159714 0.923367
Si Si5 0.036361 0.810597 0.491319
Si Si6 0.261221 0.410094 0.791477
O O1 0.702778 0.567417 0.800792
O O2 0.554072 0.437061 0.800059
O O3 0.017482 0.470108 0.836368
O O4 0.500000 0.500000 0.000000
O O5 0.500000 0.500000 0.500000
O O6 0.224663 0.396178 0.465017
O O7 0.346804 0.391568 0.652448
O O8 0.757204 0.377252 0.434103
O O9 0.771926 0.813216 0.215367
O O10 0.924205 0.840384 0.395986
O O11 0.375271 0.830731 0.445171
O O12 0.990167 0.227799 0.006313
O O13 0.858005 0.842250 0.625239
#
# Coordination Sequence:
#
# PCOD8129346 Si02
#       6
#     4   4   4   4   4   4
#     4  12  21  41  69 103 140 170 233 282 347 392
#     4  12  26  50  74 103 139 183 238 287 351 416
#     4  12  25  46  69 100 137 180 228 286 334 412
#     4  12  28  46  71 100 140 187 229 283 348 421
#     4  12  26  42  67 101 138 180 228 279 348 405
#     4  12  24  42  70 105 138 180 224 292 343 410
#
# _framework density 22.475259999999999
#
# number of rings (size 3 to 8) (size 9 to 14) (size 15 to 20)
#    0.000    0.000    3.333    7.000    4.667    0.000 
#    0.000    0.000    0.000    0.000    0.000    0.000 
#    0.000    0.000    0.000    0.000    0.000    0.000 
#
# Total GULP energy -297801.149356 kJ/mol
# GULP energy per Si atom -12408.381223 kJ/mol
# Density = 2.242411 g / cm^3
# Si number density = 22.475260 Si / 1000 Ang^3
#
#
#
# Elastic Constant Matrix: (Units=GPa)
#
#
# Indices 1 2 3 4 5 6 
#
# 1 84.9078 25.1704 10.8479 0.0000 4.6803 0.0000
# 2 25.1704 123.5258 10.4724 0.0000 -9.8017 0.0000
# 3 10.8479 10.4724 128.7662 0.0000 9.7946 0.0000
# 4 0.0000 0.0000 0.0000 27.5539 0.0000 -2.4597
# 5 4.6803 -9.8017 9.7946 0.0000 25.3353 0.0000
# 6 0.0000 0.0000 0.0000 -2.4597 0.0000 14.8371
#
#
#
# Elastic Compliance Matrix: (Units=1/GPa)
#
#
# Indices 1 2 3 4 5 6 
#
# 1 0.012872 -0.002828 -0.000608 0.000000 -0.003237 0.000000
# 2 -0.002828 0.009088 -0.000833 0.000000 0.004360 0.000000
# 3 -0.000608 -0.000833 0.008140 0.000000 -0.003357 0.000000
# 4 0.000000 0.000000 0.000000 0.036838 0.000000 0.006107
# 5 -0.003237 0.004360 -0.003357 0.000000 0.043053 0.000000
# 6 0.000000 0.000000 0.000000 0.006107 0.000000 0.068411
#
#
# Mechanical properties :
#
#
# Convention : Reuss Voigt Hill
#
# Bulk Modulus (GPa) = 46.37610 47.79792 47.08701
# Shear Modulus (GPa) = 25.75617 32.92585 29.34101
#
# Velocity S-wave (km/s) = 3.38890 3.83166 3.61706
# Velocity P-wave (km/s) = 5.99933 6.39442 6.20002
#
# Compressibility (1/GPa) = 0.02156283
#
# Stress axis : x y z
#
# Youngs Moduli (GPa) = 77.68803 110.03105 122.84572
#
# Poissons Ratio (x) = 0.31119 0.07471
# Poissons Ratio (y) = 0.21971 0.10228
# Poissons Ratio (z) = 0.04725 0.09161
#
# Static dielectric constant tensor:
#      x y z
#    x 4.494450 0.000000 -0.057210 
#    y 0.000000 4.311840 0.000000 
#    z -0.057210 0.000000 4.167650 
# 
# 
# High freq. dielectric constant tensor:
#      x y z
#    x 1.899450 0.000000 -0.000250 
#    y 0.000000 1.886640 0.000000 
#    z -0.000250 0.000000 1.898200 
# 
# From -- ./inp_files/21167.got.cif
#   From: 2010.03.12/outbox.cif.g09.slc.cpg/sg14_11_cif.got.tgz:21167.got - 2010.03.31 13:35:05.
