data_PCOD8129733
_publ_section_title
;
Structure prediction by ZEFSAII (Michael W. Deem and Ramdas Pophale) SiO2 
 PCOD8129733
Probable space group: C 2/C
;
_chemical_formula_sum "Si O2"
_cell_formula_units_Z 32
_cell_length_a 12.521555
_cell_length_b 30.601116
_cell_length_c 5.104275
_cell_angle_alpha 90.000000
_cell_angle_beta 82.236686
_cell_angle_gamma 90.000000
_cell_volume 1937.897179
_symmetry_space_group_name_H-M "C 2/C"
_symmetry_group_IT_number 15
_symmetry_cell_setting 'monoclinic'
loop_
_space_group_symop_operation_xyz
x,y,z
-x,y,1/2-z
-x,-y,-z
x,-y,1/2+z
1/2+x,1/2+y,z
1/2-x,1/2+y,1/2-z
1/2-x,1/2-y,-z
1/2+x,1/2-y,1/2+z
loop_
_atom_site_type_symbol
_atom_site_label
_atom_site_fract_x
_atom_site_fract_y
_atom_site_fract_z
Si Si1 0.678501 0.798848 0.289523
Si Si2 0.931373 0.384936 0.022356
Si Si3 0.620699 0.980760 0.488145
Si Si4 0.613957 0.251561 0.317743
O O1 0.652829 0.849693 0.336499
O O2 0.662584 0.778886 0.579388
O O3 0.803462 0.791887 0.160342
O O4 0.602217 0.776834 0.090171
O O5 0.873105 0.429199 0.949341
O O6 0.000000 0.399218 0.250000
O O7 0.000000 0.366355 0.750000
O O8 0.500000 0.000000 0.500000
O O9 0.681940 0.006442 0.701017
O O10 0.500000 0.269865 0.250000
#
# Coordination Sequence:
#
# PCOD8129733 Si02
#       4
#     8   8   8   8
#     4  10  21  30  46  70  83 114 159 182 214 274
#     4  12  19  27  44  63  91 117 147 181 210 264
#     4  10  16  28  38  57  85 122 139 162 220 266
#     4  10  19  35  47  60  92 117 144 189 233 253
#
# _framework density 16.512743
#
# number of rings (size 3 to 8) (size 9 to 14) (size 15 to 20)
#    0.000    1.500    5.000    4.500    0.000    0.000 
#    0.000    0.000    0.000    0.000    0.000    0.000 
#    0.000    2.000    0.000    0.000    0.000    4.500 
#
# Total GULP energy -198222.461687 kJ/mol
# GULP energy per Si atom -12388.903855 kJ/mol
# Density = 1.647516 g / cm^3
# Si number density = 16.512743 Si / 1000 Ang^3
#
#
#
# Elastic Constant Matrix: (Units=GPa)
#
#
# Indices 1 2 3 4 5 6 
#
# 1 62.7328 29.4594 15.5003 0.0000 2.9221 0.0000
# 2 29.4594 114.2604 33.4831 0.0000 -8.3000 0.0000
# 3 15.5003 33.4831 107.9572 0.0000 16.5916 0.0000
# 4 0.0000 0.0000 0.0000 30.7988 0.0000 -1.9453
# 5 2.9221 -8.3000 16.5916 0.0000 20.3404 0.0000
# 6 0.0000 0.0000 0.0000 -1.9453 0.0000 10.6143
#
#
#
# Elastic Compliance Matrix: (Units=1/GPa)
#
#
# Indices 1 2 3 4 5 6 
#
# 1 0.018591 -0.004971 -0.000463 0.000000 -0.004322 0.000000
# 2 -0.004971 0.012000 -0.004425 0.000000 0.009221 0.000000
# 3 -0.000463 -0.004425 0.012541 0.000000 -0.011969 0.000000
# 4 0.000000 0.000000 0.000000 0.032849 0.000000 0.006020
# 5 -0.004322 0.009221 -0.011969 0.000000 0.063310 0.000000
# 6 0.000000 0.000000 0.000000 0.006020 0.000000 0.095316
#
#
# Mechanical properties :
#
#
# Convention : Reuss Voigt Hill
#
# Bulk Modulus (GPa) = 42.71129 49.09288 45.90208
# Shear Modulus (GPa) = 19.07439 26.11787 22.59613
#
# Velocity S-wave (km/s) = 3.40241 3.98135 3.70321
# Velocity P-wave (km/s) = 6.43094 7.13650 6.79289
#
# Compressibility (1/GPa) = 0.02341301
#
# Stress axis : x y z
#
# Youngs Moduli (GPa) = 53.78959 83.33151 79.73574
#
# Poissons Ratio (x) = 0.41428 0.03693
# Poissons Ratio (y) = 0.26741 0.35285
# Poissons Ratio (z) = 0.02492 0.36876
#
# Static dielectric constant tensor:
#      x y z
#    x 2.496170 0.000000 -1.127880 
#    y 0.000000 3.051840 0.000000 
#    z -1.127880 0.000000 -0.339820 
# 
# 
# High freq. dielectric constant tensor:
#      x y z
#    x 1.572110 0.000000 0.028990 
#    y 0.000000 1.622930 0.000000 
#    z 0.028990 0.000000 1.669290 
# 
# From -- ./inp_files/4609.got.cif
#   From: 2010.06.25/outbox.cif.g09.slc.cpg/sg15_3_cif.got.tgz:4609.got - 2010.06.28 07:06:18.
