data_PCOD8129781
_publ_section_title
;
Structure prediction by ZEFSAII (Michael W. Deem and Ramdas Pophale) SiO2 
 PCOD8129781
Probable space group: C 2/C
;
_chemical_formula_sum "Si O2"
_cell_formula_units_Z 56
_cell_length_a 16.373586
_cell_length_b 10.633928
_cell_length_c 14.592723
_cell_angle_alpha 90.000000
_cell_angle_beta 75.180963
_cell_angle_gamma 90.000000
_cell_volume 2456.308192
_symmetry_space_group_name_H-M "C 2/C"
_symmetry_group_IT_number 15
_symmetry_cell_setting 'monoclinic'
loop_
_space_group_symop_operation_xyz
x,y,z
-x,y,1/2-z
-x,-y,-z
x,-y,1/2+z
1/2+x,1/2+y,z
1/2-x,1/2+y,1/2-z
1/2-x,1/2-y,-z
1/2+x,1/2-y,1/2+z
loop_
_atom_site_type_symbol
_atom_site_label
_atom_site_fract_x
_atom_site_fract_y
_atom_site_fract_z
Si Si1 0.305996 0.975306 0.049920
Si Si2 0.267260 0.162090 0.210379
Si Si3 0.062144 0.116064 0.989476
Si Si4 0.793134 0.033604 0.097408
Si Si5 0.849225 0.148250 0.812242
Si Si6 0.409177 0.623453 0.308228
Si Si7 0.409385 0.751117 0.976884
O O1 0.316877 0.098697 0.110379
O O2 0.238289 0.884354 0.115206
O O3 0.390656 0.893169 0.014729
O O4 0.274862 0.011988 0.957648
O O5 0.170835 0.202036 0.208947
O O6 0.256840 0.061062 0.295283
O O7 0.326083 0.276191 0.226462
O O8 0.008772 0.235981 0.972162
O O9 0.097444 0.130728 0.081441
O O10 0.143827 0.084815 0.903553
O O11 0.000000 0.000000 0.000000
O O12 0.847921 0.153435 0.047362
O O13 0.901392 0.021226 0.774908
O O14 0.900220 0.235404 0.869625
O O15 0.500000 0.678003 0.250000
#
# Coordination Sequence:
#
# PCOD8129781 Si02
#       7
#     8   8   8   8   8   8   8
#     4  10  18  31  49  81 112 151 199 225 282 353
#     4  11  20  30  54  81 120 155 191 237 286 345
#     4  10  17  29  50  84 120 145 176 243 303 340
#     4  10  16  31  50  79 117 146 183 241 288 337
#     4  10  18  32  50  80 115 155 188 235 290 346
#     4  11  21  32  50  93 119 141 190 242 292 340
#     4  10  16  29  52  77 116 150 190 232 299 347
#
# _framework density 22.798441
#
# number of rings (size 3 to 8) (size 9 to 14) (size 15 to 20)
#    0.000    1.714    8.571    2.571    0.000    0.000 
#    0.000    0.000    0.000    3.429    7.429    1.000 
#    0.000    0.000    0.000    0.000    0.000    0.000 
#
# Total GULP energy -346969.156559 kJ/mol
# GULP energy per Si atom -12391.755591 kJ/mol
# Density = 2.274655 g / cm^3
# Si number density = 22.798441 Si / 1000 Ang^3
#
#
#
# Elastic Constant Matrix: (Units=GPa)
#
#
# Indices 1 2 3 4 5 6 
#
# 1 86.0768 38.3769 23.9788 0.0000 26.7392 0.0000
# 2 38.3769 34.9756 4.0395 0.0000 14.8691 0.0000
# 3 23.9788 4.0395 76.7581 0.0000 34.1013 0.0000
# 4 0.0000 0.0000 0.0000 35.8954 0.0000 4.8096
# 5 26.7392 14.8691 34.1013 0.0000 38.9949 0.0000
# 6 0.0000 0.0000 0.0000 4.8096 0.0000 30.8489
#
#
#
# Elastic Compliance Matrix: (Units=1/GPa)
#
#
# Indices 1 2 3 4 5 6 
#
# 1 0.025826 -0.026482 -0.005385 0.000000 -0.002902 0.000000
# 2 -0.026482 0.063394 0.012442 0.000000 -0.016895 0.000000
# 3 -0.005385 0.012442 0.023750 0.000000 -0.021821 0.000000
# 4 0.000000 0.000000 0.000000 0.028453 0.000000 -0.004436
# 5 -0.002902 -0.016895 -0.021821 0.000000 0.053160 0.000000
# 6 0.000000 0.000000 0.000000 -0.004436 0.000000 0.033108
#
#
# Mechanical properties :
#
#
# Convention : Reuss Voigt Hill
#
# Bulk Modulus (GPa) = 13.49138 36.73343 25.11241
# Shear Modulus (GPa) = 17.16763 29.90884 23.53823
#
# Velocity S-wave (km/s) = 2.74709 3.62592 3.21666
# Velocity P-wave (km/s) = 3.99907 5.80318 4.98345
#
# Compressibility (1/GPa) = 0.07412138
#
# Stress axis : x y z
#
# Youngs Moduli (GPa) = 38.72070 15.77439 42.10537
#
# Poissons Ratio (x) = 0.41773 0.22673
# Poissons Ratio (y) = 1.02539 -0.52389
# Poissons Ratio (z) = 0.20850 -0.19627
#
# Static dielectric constant tensor:
#      x y z
#    x 3.862630 0.000000 0.183860 
#    y 0.000000 3.710400 0.000000 
#    z 0.183860 0.000000 4.175500 
# 
# 
# High freq. dielectric constant tensor:
#      x y z
#    x 1.884190 0.000000 0.021970 
#    y 0.000000 1.851470 0.000000 
#    z 0.021970 0.000000 1.910490 
# 
# From -- ./inp_files/209983.got.cif
#   From: 2010.06.25/outbox.cif.g09.slc.cpg/sg15_105_cif.got.tgz:209983.got - 2010.06.28 07:06:18.
