data_PCOD8129928
_publ_section_title
;
Structure prediction by ZEFSAII (Michael W. Deem and Ramdas Pophale) SiO2 
 PCOD8129928
Probable space group: C 2/C
;
_chemical_formula_sum "Si O2"
_cell_formula_units_Z 56
_cell_length_a 9.635952
_cell_length_b 20.187819
_cell_length_c 14.045050
_cell_angle_alpha 90.000000
_cell_angle_beta 76.376421
_cell_angle_gamma 90.000000
_cell_volume 2655.295638
_symmetry_space_group_name_H-M "C 2/C"
_symmetry_group_IT_number 15
_symmetry_cell_setting 'monoclinic'
loop_
_space_group_symop_operation_xyz
x,y,z
-x,y,1/2-z
-x,-y,-z
x,-y,1/2+z
1/2+x,1/2+y,z
1/2-x,1/2+y,1/2-z
1/2-x,1/2-y,-z
1/2+x,1/2-y,1/2+z
loop_
_atom_site_type_symbol
_atom_site_label
_atom_site_fract_x
_atom_site_fract_y
_atom_site_fract_z
Si Si1 0.771863 0.341249 0.922561
Si Si2 0.410616 0.801383 0.396851
Si Si3 0.578480 0.179849 0.389006
Si Si4 0.995048 0.922319 0.511197
Si Si5 0.275744 0.799608 0.139245
Si Si6 0.125777 0.828338 0.342140
Si Si7 0.120439 0.846581 0.652915
O O1 0.728327 0.280542 0.861394
O O2 0.938346 0.359217 0.873394
O O3 0.662570 0.401550 0.925008
O O4 0.761699 0.324206 0.035280
O O5 0.396973 0.831419 0.503615
O O6 0.572014 0.817413 0.335256
O O7 0.288303 0.833782 0.353142
O O8 0.389704 0.722255 0.402409
O O9 0.550731 0.258190 0.377049
O O10 0.724212 0.151062 0.318405
O O11 0.032973 0.887028 0.404005
O O12 0.108203 0.902964 0.574492
O O13 0.000000 0.000000 0.500000
O O14 0.146401 0.831592 0.223146
O O15 0.000000 0.856282 0.750000
#
# Coordination Sequence:
#
# PCOD8129928 Si02
#       7
#     8   8   8   8   8   8   8
#     4  10  22  38  54  91 125 151 195 241 324 347
#     4  10  16  32  60  93 121 140 187 257 315 351
#     4  10  19  34  63  90 118 144 187 272 304 350
#     4  12  25  43  58  80 127 172 201 240 286 375
#     4  10  19  33  61  92 124 145 184 272 306 361
#     4  11  19  34  60  92 116 154 204 238 319 351
#     4  11  20  38  60  89 115 154 206 243 303 356
#
# _framework density 21.089929999999999
#
# number of rings (size 3 to 8) (size 9 to 14) (size 15 to 20)
#    0.000    1.429    4.286    4.714    0.000    2.286 
#    2.571    0.714    0.000    1.714    0.000    0.000 
#    0.000    0.000    0.000    0.000    0.000    0.000 
#
# Total GULP energy -347022.061524 kJ/mol
# GULP energy per Si atom -12393.645054 kJ/mol
# Density = 2.104193 g / cm^3
# Si number density = 21.089930 Si / 1000 Ang^3
#
#
#
# Elastic Constant Matrix: (Units=GPa)
#
#
# Indices 1 2 3 4 5 6 
#
# 1 98.3386 33.5237 28.4297 0.0000 -35.3349 0.0000
# 2 33.5237 95.3178 18.7463 0.0000 -14.8252 0.0000
# 3 28.4297 18.7463 60.6802 0.0000 -24.5343 0.0000
# 4 0.0000 0.0000 0.0000 12.9744 0.0000 -3.7247
# 5 -35.3349 -14.8252 -24.5343 0.0000 35.5677 0.0000
# 6 0.0000 0.0000 0.0000 -3.7247 0.0000 17.7271
#
#
#
# Elastic Compliance Matrix: (Units=1/GPa)
#
#
# Indices 1 2 3 4 5 6 
#
# 1 0.016905 -0.003480 -0.000890 0.000000 0.014731 0.000000
# 2 -0.003480 0.012147 -0.002043 0.000000 0.000197 0.000000
# 3 -0.000890 -0.002043 0.023334 0.000000 0.014360 0.000000
# 4 0.000000 0.000000 0.000000 0.082022 0.000000 0.017234
# 5 0.014731 0.000197 0.014360 0.000000 0.052738 0.000000
# 6 0.000000 0.000000 0.000000 0.017234 0.000000 0.060032
#
#
# Mechanical properties :
#
#
# Convention : Reuss Voigt Hill
#
# Bulk Modulus (GPa) = 25.27620 46.19291 35.73455
# Shear Modulus (GPa) = 18.30231 24.82964 21.56598
#
# Velocity S-wave (km/s) = 2.94908 3.43494 3.20124
# Velocity P-wave (km/s) = 4.85871 6.13857 5.53575
#
# Compressibility (1/GPa) = 0.03956291
#
# Stress axis : x y z
#
# Youngs Moduli (GPa) = 59.15282 82.32171 42.85619
#
# Poissons Ratio (x) = 0.28645 0.03812
# Poissons Ratio (y) = 0.20583 0.08754
# Poissons Ratio (z) = 0.05262 0.16816
#
# Static dielectric constant tensor:
#      x y z
#    x 4.556910 0.000000 -0.240500 
#    y 0.000000 3.024560 0.000000 
#    z -0.240500 0.000000 4.052630 
# 
# 
# High freq. dielectric constant tensor:
#      x y z
#    x 1.862700 0.000000 -0.006670 
#    y 0.000000 1.722050 0.000000 
#    z -0.006670 0.000000 1.844520 
# 
# From -- ./inp_files/146672.got.cif
#   From: 2010.06.25/outbox.cif.g09.slc.cpg/sg15_74_cif.got.tgz:146672.got - 2010.06.28 07:06:18.
