data_PCOD8129950
_publ_section_title
;
Structure prediction by ZEFSAII (Michael W. Deem and Ramdas Pophale) SiO2 
 PCOD8129950
Probable space group: C 2/C
;
_chemical_formula_sum "Si O2"
_cell_formula_units_Z 52
_cell_length_a 18.239431
_cell_length_b 17.942492
_cell_length_c 8.775748
_cell_angle_alpha 90.000000
_cell_angle_beta 59.519782
_cell_angle_gamma 90.000000
_cell_volume 2475.066482
_symmetry_space_group_name_H-M "C 2/C"
_symmetry_group_IT_number 15
_symmetry_cell_setting 'monoclinic'
loop_
_space_group_symop_operation_xyz
x,y,z
-x,y,1/2-z
-x,-y,-z
x,-y,1/2+z
1/2+x,1/2+y,z
1/2-x,1/2+y,1/2-z
1/2-x,1/2-y,-z
1/2+x,1/2-y,1/2+z
loop_
_atom_site_type_symbol
_atom_site_label
_atom_site_fract_x
_atom_site_fract_y
_atom_site_fract_z
Si Si1 0.500000 0.803158 0.250000
Si Si2 0.000000 0.705570 0.250000
Si Si3 0.384910 0.740645 0.623402
Si Si4 0.619797 0.835176 0.382815
Si Si5 0.714773 0.318819 0.862841
Si Si6 0.000000 0.990433 0.750000
Si Si7 0.788768 0.892028 0.297210
Si Si8 0.618536 0.455907 0.872022
O O1 0.450650 0.752376 0.419906
O O2 0.573526 0.847574 0.267187
O O3 0.935417 0.759817 0.229592
O O4 0.952240 0.649735 0.415353
O O5 0.311252 0.803155 0.710065
O O6 0.346879 0.659415 0.628475
O O7 0.656384 0.752074 0.380802
O O8 0.694266 0.896129 0.323870
O O9 0.682765 0.387703 0.796790
O O10 0.714242 0.345696 0.039847
O O11 0.042977 0.939240 0.832812
O O12 0.074449 0.038332 0.585912
O O13 0.829165 0.973269 0.247484
#
# Coordination Sequence:
#
# PCOD8129950 Si02
#       8
#     4   4   8   8   8   4   8   8
#     4  10  24  37  54 104 118 149 180 262 310 337
#     4  10  16  33  64  90 106 153 184 260 284 337
#     4  10  21  37  64  86 120 146 203 240 298 341
#     4  10  21  37  64  86 120 146 203 240 298 341
#     4  11  21  40  61  90 111 165 201 240 277 370
#     4  10  24  40  50  92 120 166 184 234 278 370
#     4  11  21  40  61  90 111 165 201 240 277 370
#     4  11  24  38  62  81 130 154 198 235 296 336
#
# _framework density 21.009535
#
# number of rings (size 3 to 8) (size 9 to 14) (size 15 to 20)
#    0.000    1.538    4.615    0.923    0.000   12.308 
#    0.000    0.000    0.000    5.538    0.000    0.000 
#    0.000    0.000    0.000    0.000    0.000    0.000 
#
# Total GULP energy -322136.072437 kJ/mol
# GULP energy per Si atom -12389.848940 kJ/mol
# Density = 2.096172 g / cm^3
# Si number density = 21.009535 Si / 1000 Ang^3
#
#
#
# Elastic Constant Matrix: (Units=GPa)
#
#
# Indices 1 2 3 4 5 6 
#
# 1 153.9749 34.0742 34.5099 0.0000 2.3568 0.0000
# 2 34.0742 74.4556 19.9084 0.0000 -10.0463 0.0000
# 3 34.5099 19.9084 70.7411 0.0000 1.2781 0.0000
# 4 0.0000 0.0000 0.0000 7.5891 0.0000 6.9750
# 5 2.3568 -10.0463 1.2781 0.0000 37.0871 0.0000
# 6 0.0000 0.0000 0.0000 6.9750 0.0000 11.6569
#
#
#
# Elastic Compliance Matrix: (Units=1/GPa)
#
#
# Indices 1 2 3 4 5 6 
#
# 1 0.007831 -0.002952 -0.002968 0.000000 -0.001195 0.000000
# 2 -0.002952 0.016280 -0.003227 0.000000 0.004709 0.000000
# 3 -0.002968 -0.003227 0.016515 0.000000 -0.001255 0.000000
# 4 0.000000 0.000000 0.000000 0.292777 0.000000 -0.175186
# 5 -0.001195 0.004709 -0.001255 0.000000 0.028358 0.000000
# 6 0.000000 0.000000 0.000000 -0.175186 0.000000 0.190610
#
#
# Mechanical properties :
#
#
# Convention : Reuss Voigt Hill
#
# Bulk Modulus (GPa) = 44.77697 52.90630 48.84164
# Shear Modulus (GPa) = 8.64890 25.31191 16.98040
#
# Velocity S-wave (km/s) = 2.03115 3.47476 2.84601
# Velocity P-wave (km/s) = 5.18264 6.42926 5.83931
#
# Compressibility (1/GPa) = 0.02233291
#
# Stress axis : x y z
#
# Youngs Moduli (GPa) = 127.69344 61.42622 60.55185
#
# Poissons Ratio (x) = 0.18130 0.17973
# Poissons Ratio (y) = 0.37689 0.19539
# Poissons Ratio (z) = 0.37901 0.19821
#
# Static dielectric constant tensor:
#      x y z
#    x 4.351740 0.000000 -0.000610 
#    y 0.000000 3.274840 0.000000 
#    z -0.000610 0.000000 3.948870 
# 
# 
# High freq. dielectric constant tensor:
#      x y z
#    x 1.851160 0.000000 -0.005500 
#    y 0.000000 1.766230 0.000000 
#    z -0.005500 0.000000 1.831700 
# 
# From -- ./inp_files/48488.got.cif
#   From: 2010.06.25/outbox.cif.g09.slc.cpg/sg15_25_cif.got.tgz:48488.got - 2010.06.28 07:06:18.
