data_PCOD8129822
_publ_section_title
;
Structure prediction by ZEFSAII (Michael W. Deem and Ramdas Pophale) SiO2 
 PCOD8129822
Probable space group: C 2/C
;
_chemical_formula_sum "Si O2"
_cell_formula_units_Z 56
_cell_length_a 21.538771
_cell_length_b 11.555892
_cell_length_c 14.012497
_cell_angle_alpha 90.000000
_cell_angle_beta 56.950736
_cell_angle_gamma 90.000000
_cell_volume 2923.402416
_symmetry_space_group_name_H-M "C 2/C"
_symmetry_group_IT_number 15
_symmetry_cell_setting 'monoclinic'
loop_
_space_group_symop_operation_xyz
x,y,z
-x,y,1/2-z
-x,-y,-z
x,-y,1/2+z
1/2+x,1/2+y,z
1/2-x,1/2+y,1/2-z
1/2-x,1/2-y,-z
1/2+x,1/2-y,1/2+z
loop_
_atom_site_type_symbol
_atom_site_label
_atom_site_fract_x
_atom_site_fract_y
_atom_site_fract_z
Si Si1 0.338695 0.066941 0.802749
Si Si2 0.802802 0.856566 0.424377
Si Si3 0.324676 0.521684 0.097120
Si Si4 0.573838 0.934238 0.908219
Si Si5 0.195354 0.447888 0.960128
Si Si6 0.786571 0.211263 0.266101
Si Si7 0.136998 0.803737 0.319998
O O1 0.345139 0.191676 0.747791
O O2 0.260417 0.012587 0.840647
O O3 0.404218 0.983345 0.713771
O O4 0.348644 0.080339 0.906942
O O5 0.750000 0.750000 0.500000
O O6 0.846063 0.920681 0.476703
O O7 0.867036 0.831434 0.290777
O O8 0.745649 0.940544 0.421568
O O9 0.334891 0.616999 0.170145
O O10 0.372228 0.410665 0.096052
O O11 0.636467 0.975105 0.928323
O O12 0.574445 0.793030 0.900733
O O13 0.500000 0.000000 0.000000
O O14 0.248020 0.339129 0.893453
O O15 0.720334 0.255080 0.254743
#
# Coordination Sequence:
#
# PCOD8129822 Si02
#       7
#     8   8   8   8   8   8   8
#     4  10  19  32  51  81 112 143 181 225 283 340
#     4  11  18  28  54  87 116 146 173 230 295 347
#     4  10  18  29  51  85 117 145 172 226 300 341
#     4  11  23  39  55  74 108 157 196 233 270 316
#     4  10  19  33  52  83 111 139 182 226 286 342
#     4  10  16  30  52  81 116 141 165 227 293 344
#     4  10  18  34  49  78 121 141 189 233 273 343
#
# _framework density 19.155761999999999
#
# number of rings (size 3 to 8) (size 9 to 14) (size 15 to 20)
#    0.000    1.714    5.714    2.143    0.000    1.714 
#    0.000    0.000    0.000    0.857    0.000    0.000 
#    0.000    0.000    0.000    0.000    0.000    0.000 
#
# Total GULP energy -346907.517723 kJ/mol
# GULP energy per Si atom -12389.554204 kJ/mol
# Density = 1.911216 g / cm^3
# Si number density = 19.155762 Si / 1000 Ang^3
#
#
#
# Elastic Constant Matrix: (Units=GPa)
#
#
# Indices 1 2 3 4 5 6 
#
# 1 23.7843 23.1102 30.7769 0.0000 12.3619 0.0000
# 2 23.1102 112.6962 44.1698 0.0000 13.2734 0.0000
# 3 30.7769 44.1698 102.4216 0.0000 27.6832 0.0000
# 4 0.0000 0.0000 0.0000 36.1547 0.0000 7.1024
# 5 12.3619 13.2734 27.6832 0.0000 26.1124 0.0000
# 6 0.0000 0.0000 0.0000 7.1024 0.0000 24.7123
#
#
#
# Elastic Compliance Matrix: (Units=1/GPa)
#
#
# Indices 1 2 3 4 5 6 
#
# 1 0.078839 -0.008046 -0.015752 0.000000 -0.016534 0.000000
# 2 -0.008046 0.011510 -0.002795 0.000000 0.000921 0.000000
# 3 -0.015752 -0.002795 0.018645 0.000000 -0.010889 0.000000
# 4 0.000000 0.000000 0.000000 0.029314 0.000000 -0.008425
# 5 -0.016534 0.000921 -0.010889 0.000000 0.057199 0.000000
# 6 0.000000 0.000000 0.000000 -0.008425 0.000000 0.042887
#
#
# Mechanical properties :
#
#
# Convention : Reuss Voigt Hill
#
# Bulk Modulus (GPa) = 17.91832 48.33510 33.12671
# Shear Modulus (GPa) = 16.11947 26.78554 21.45251
#
# Velocity S-wave (km/s) = 2.90400 3.74344 3.35012
# Velocity P-wave (km/s) = 4.54077 6.63114 5.68289
#
# Compressibility (1/GPa) = 0.05580880
#
# Stress axis : x y z
#
# Youngs Moduli (GPa) = 12.68410 86.87792 53.63233
#
# Poissons Ratio (x) = 0.69903 0.84480
# Poissons Ratio (y) = 0.10206 0.14991
# Poissons Ratio (z) = 0.19980 0.24284
#
# Static dielectric constant tensor:
#      x y z
#    x 3.636650 0.000000 1.206120 
#    y 0.000000 5.254410 0.000000 
#    z 1.206120 0.000000 4.538800 
# 
# 
# High freq. dielectric constant tensor:
#      x y z
#    x 1.687410 0.000000 0.049670 
#    y 0.000000 1.766790 0.000000 
#    z 0.049670 0.000000 1.734470 
# 
# From -- ./inp_files/161236.got.cif
#   From: 2010.06.25/outbox.cif.g09.slc.cpg/sg15_81_cif.got.tgz:161236.got - 2010.06.28 07:06:18.
