data_PCOD8129237
_publ_section_title
;
Structure prediction by ZEFSAII (Michael W. Deem and Ramdas Pophale) SiO2 
 PCOD8129237
Probable space group: P 21/C
;
_chemical_formula_sum "Si O2"
_cell_formula_units_Z 16
_cell_length_a 9.699361
_cell_length_b 9.073666
_cell_length_c 8.587021
_cell_angle_alpha 90.000000
_cell_angle_beta 62.388625
_cell_angle_gamma 90.000000
_cell_volume 669.663843
_symmetry_space_group_name_H-M "P 21/C"
_symmetry_group_IT_number 14
_symmetry_cell_setting 'monoclinic'
loop_
_space_group_symop_operation_xyz
x,y,z
-x,1/2+y,1/2-z
-x,-y,-z
x,1/2-y,1/2+z
loop_
_atom_site_type_symbol
_atom_site_label
_atom_site_fract_x
_atom_site_fract_y
_atom_site_fract_z
Si Si1 0.346971 0.350134 0.949373
Si Si2 0.305117 0.879812 0.690834
Si Si3 0.167342 0.130790 0.233171
Si Si4 0.877556 0.161293 0.911417
O O1 0.530169 0.334613 0.819640
O O2 0.264752 0.406289 0.836416
O O3 0.316164 0.460840 0.107263
O O4 0.280567 0.192257 0.038846
O O5 0.261589 0.757644 0.586623
O O6 0.171493 0.889283 0.890905
O O7 0.034183 0.246432 0.344598
O O8 0.089612 0.979833 0.214589
#
# Coordination Sequence:
#
# PCOD8129237 Si02
#       4
#     4   4   4   4
#     4  11  25  45  70 101 135 173 220 274 333 396
#     4  11  25  45  70 101 135 173 220 274 333 396
#     4  12  26  45  69  98 135 178 223 273 330 393
#     4  12  26  45  69  98 135 178 223 273 330 393
#
# _framework density 23.892586000000001
#
# number of rings (size 3 to 8) (size 9 to 14) (size 15 to 20)
#    0.000    0.500    0.000    7.500    0.000   14.000 
#    0.000    2.500    0.000    0.000    0.000    0.000 
#    0.000    0.000    0.000    0.000    0.000    0.000 
#
# Total GULP energy -198588.628581 kJ/mol
# GULP energy per Si atom -12411.789286 kJ/mol
# Density = 2.383821 g / cm^3
# Si number density = 23.892586 Si / 1000 Ang^3
#
#
#
# Elastic Constant Matrix: (Units=GPa)
#
#
# Indices 1 2 3 4 5 6 
#
# 1 114.1762 21.1937 15.7548 0.0000 1.0527 0.0000
# 2 21.1937 66.8531 -8.0890 0.0000 -10.3777 0.0000
# 3 15.7548 -8.0890 81.3662 0.0000 -2.0646 0.0000
# 4 0.0000 0.0000 0.0000 35.7780 0.0000 2.3141
# 5 1.0527 -10.3777 -2.0646 0.0000 40.6491 0.0000
# 6 0.0000 0.0000 0.0000 2.3141 0.0000 38.0507
#
#
#
# Elastic Compliance Matrix: (Units=1/GPa)
#
#
# Indices 1 2 3 4 5 6 
#
# 1 0.009745 -0.003563 -0.002274 0.000000 -0.001277 0.000000
# 2 -0.003563 0.017103 0.002506 0.000000 0.004586 0.000000
# 3 -0.002274 0.002506 0.013014 0.000000 0.001360 0.000000
# 4 0.000000 0.000000 0.000000 0.028061 0.000000 -0.001707
# 5 -0.001277 0.004586 0.001360 0.000000 0.025874 0.000000
# 6 0.000000 0.000000 0.000000 -0.001707 0.000000 0.026385
#
#
# Mechanical properties :
#
#
# Convention : Reuss Voigt Hill
#
# Bulk Modulus (GPa) = 30.11840 35.56827 32.84333
# Shear Modulus (GPa) = 36.25604 38.46461 37.36032
#
# Velocity S-wave (km/s) = 3.89968 4.01671 3.95863
# Velocity P-wave (km/s) = 5.73671 6.03581 5.88816
#
# Compressibility (1/GPa) = 0.03320230
#
# Stress axis : x y z
#
# Youngs Moduli (GPa) = 102.61426 58.46995 76.84014
#
# Poissons Ratio (x) = 0.20832 0.17470
# Poissons Ratio (y) = 0.36560 -0.19260
# Poissons Ratio (z) = 0.23330 -0.14655
#
# Static dielectric constant tensor:
#      x y z
#    x 4.505150 0.000000 -0.017080 
#    y 0.000000 4.353540 0.000000 
#    z -0.017080 0.000000 4.163670 
# 
# 
# High freq. dielectric constant tensor:
#      x y z
#    x 1.966570 0.000000 0.001350 
#    y 0.000000 1.952940 0.000000 
#    z 0.001350 0.000000 1.950290 
# 
# From -- ./inp_files/7140.got.cif
#   From: 2010.03.12/outbox.cif.g09.slc.cpg/sg14_4_cif.got.tgz:7140.got - 2010.03.31 13:35:05.
