data_PCOD8129239
_publ_section_title
;
Structure prediction by ZEFSAII (Michael W. Deem and Ramdas Pophale) SiO2 
 PCOD8129239
Probable space group: P 21/C
;
_chemical_formula_sum "Si O2"
_cell_formula_units_Z 20
_cell_length_a 23.026132
_cell_length_b 5.042969
_cell_length_c 10.171653
_cell_angle_alpha 90.000000
_cell_angle_beta 137.472174
_cell_angle_gamma 90.000000
_cell_volume 798.384753
_symmetry_space_group_name_H-M "P 21/C"
_symmetry_group_IT_number 14
_symmetry_cell_setting 'monoclinic'
loop_
_space_group_symop_operation_xyz
x,y,z
-x,1/2+y,1/2-z
-x,-y,-z
x,1/2-y,1/2+z
loop_
_atom_site_type_symbol
_atom_site_label
_atom_site_fract_x
_atom_site_fract_y
_atom_site_fract_z
Si Si1 0.278037 0.138465 0.430436
Si Si2 0.611396 0.144722 0.568312
Si Si3 0.831489 0.341711 0.719008
Si Si4 0.943356 0.214061 0.155388
Si Si5 0.580592 0.996407 0.790930
O O1 0.211753 0.380988 0.313229
O O2 0.367691 0.222935 0.653054
O O3 0.307558 0.044098 0.332585
O O4 0.237096 0.885455 0.436993
O O5 0.606444 0.198244 0.715474
O O6 0.620231 0.410297 0.496496
O O7 0.521528 0.013593 0.370626
O O8 0.893552 0.391916 0.700126
O O9 0.881542 0.228428 0.927657
O O10 0.982918 0.500675 0.252832
#
# Coordination Sequence:
#
# PCOD8129239 Si02
#       5
#     4   4   4   4   4
#     4  12  26  44  70 110 154 182 250 308 368 410
#     4  11  25  45  71 103 149 208 260 306 363 429
#     4  12  28  44  76 112 144 186 236 306 372 434
#     4  12  26  52  78 104 142 186 236 288 370 464
#     4  11  25  45  71 103 149 208 260 306 363 429
#
# _framework density 25.05058
#
# number of rings (size 3 to 8) (size 9 to 14) (size 15 to 20)
#    0.000    0.400    4.000    3.600    5.600    2.400 
#    0.000    0.000    0.000    0.000    0.000    0.000 
#    0.000    0.000    0.000    0.000    0.000    0.000 
#
# Total GULP energy -247917.901588 kJ/mol
# GULP energy per Si atom -12395.895079 kJ/mol
# Density = 2.499356 g / cm^3
# Si number density = 25.050580 Si / 1000 Ang^3
#
#
#
# Elastic Constant Matrix: (Units=GPa)
#
#
# Indices 1 2 3 4 5 6 
#
# 1 108.4199 13.0191 10.4789 0.0000 25.7178 0.0000
# 2 13.0191 104.0183 6.1526 0.0000 22.2044 0.0000
# 3 10.4789 6.1526 48.6552 0.0000 20.0910 0.0000
# 4 0.0000 0.0000 0.0000 46.6837 0.0000 14.6695
# 5 25.7178 22.2044 20.0910 0.0000 29.8743 0.0000
# 6 0.0000 0.0000 0.0000 14.6695 0.0000 33.8364
#
#
#
# Elastic Compliance Matrix: (Units=1/GPa)
#
#
# Indices 1 2 3 4 5 6 
#
# 1 0.011870 0.001085 0.002573 0.000000 -0.012756 0.000000
# 2 0.001085 0.011820 0.003163 0.000000 -0.011847 0.000000
# 3 0.002573 0.003163 0.029744 0.000000 -0.024570 0.000000
# 4 0.000000 0.000000 0.000000 0.024799 0.000000 -0.010751
# 5 -0.012756 -0.011847 -0.024570 0.000000 0.069783 0.000000
# 6 0.000000 0.000000 0.000000 -0.010751 0.000000 0.034215
#
#
# Mechanical properties :
#
#
# Convention : Reuss Voigt Hill
#
# Bulk Modulus (GPa) = 14.90809 35.59939 25.25374
# Shear Modulus (GPa) = 26.18530 37.50841 31.84685
#
# Velocity S-wave (km/s) = 3.23661 3.87370 3.56940
# Velocity P-wave (km/s) = 4.46449 5.85229 5.20485
#
# Compressibility (1/GPa) = 0.06707766
#
# Stress axis : x y z
#
# Youngs Moduli (GPa) = 84.24525 84.60521 33.62010
#
# Poissons Ratio (x) = -0.09180 -0.08652
# Poissons Ratio (y) = -0.09141 -0.10635
# Poissons Ratio (z) = -0.21680 -0.26764
#
# Static dielectric constant tensor:
#      x y z
#    x 4.761550 0.000000 0.284840 
#    y 0.000000 4.463540 0.000000 
#    z 0.284840 0.000000 4.430460 
# 
# 
# High freq. dielectric constant tensor:
#      x y z
#    x 2.018480 0.000000 0.018720 
#    y 0.000000 2.000430 0.000000 
#    z 0.018720 0.000000 1.986130 
# 
# From -- ./inp_files/35564.got.cif
#   From: 2010.03.12/outbox.cif.g09.slc.cpg/sg14_18_cif.got.tgz:35564.got - 2010.03.31 13:35:05.
