data_PCOD8129646
_publ_section_title
;
Structure prediction by ZEFSAII (Michael W. Deem and Ramdas Pophale) SiO2 
 PCOD8129646
Probable space group: C 2/C
;
_chemical_formula_sum "Si O2"
_cell_formula_units_Z 56
_cell_length_a 23.308894
_cell_length_b 12.534443
_cell_length_c 13.717060
_cell_angle_alpha 90.000000
_cell_angle_beta 130.855792
_cell_angle_gamma 90.000000
_cell_volume 3031.205597
_symmetry_space_group_name_H-M "C 2/C"
_symmetry_group_IT_number 15
_symmetry_cell_setting 'monoclinic'
loop_
_space_group_symop_operation_xyz
x,y,z
-x,y,1/2-z
-x,-y,-z
x,-y,1/2+z
1/2+x,1/2+y,z
1/2-x,1/2+y,1/2-z
1/2-x,1/2-y,-z
1/2+x,1/2-y,1/2+z
loop_
_atom_site_type_symbol
_atom_site_label
_atom_site_fract_x
_atom_site_fract_y
_atom_site_fract_z
Si Si1 0.309094 0.784647 0.794995
Si Si2 0.335458 0.278181 0.117686
Si Si3 0.809508 0.515813 0.847454
Si Si4 0.182589 0.010604 0.360036
Si Si5 0.133844 0.733598 0.552941
Si Si6 0.422120 0.439788 0.931474
Si Si7 0.684222 0.583334 0.569387
O O1 0.356600 0.765440 0.748470
O O2 0.340284 0.895986 0.872834
O O3 0.218423 0.779682 0.673299
O O4 0.332012 0.698538 0.901871
O O5 0.351809 0.403792 0.133174
O O6 0.250000 0.250000 0.000000
O O7 0.384101 0.230054 0.082924
O O8 0.760089 0.523541 0.891537
O O9 0.873141 0.609761 0.920273
O O10 0.761455 0.534951 0.696711
O O11 0.125693 0.062491 0.220712
O O12 0.193465 0.092472 0.462398
O O13 0.072159 0.813676 0.533143
O O14 0.382927 0.503245 0.976012
O O15 0.500000 0.500000 0.000000
#
# Coordination Sequence:
#
# PCOD8129646 Si02
#       7
#     8   8   8   8   8   8   8
#     4  10  17  31  49  78 109 136 161 218 272 323
#     4  10  15  27  53  72 100 134 169 211 262 308
#     4  10  19  30  50  78 110 136 166 214 272 322
#     4  11  18  31  50  79 103 136 172 215 268 314
#     4  10  18  32  48  75 104 139 176 215 255 318
#     4  11  22  36  51  71 106 138 178 221 258 300
#     4  10  19  32  49  75 108 134 173 214 266 323
#
# _framework density 18.474497
#
# number of rings (size 3 to 8) (size 9 to 14) (size 15 to 20)
#    0.000    1.714   10.000    0.857    0.000    1.143 
#    0.000    0.000    0.000    0.857    0.000    0.000 
#    0.000    0.000    0.000    0.000    0.000    0.000 
#
# Total GULP energy -346906.385116 kJ/mol
# GULP energy per Si atom -12389.513754 kJ/mol
# Density = 1.843245 g / cm^3
# Si number density = 18.474497 Si / 1000 Ang^3
#
#
#
# Elastic Constant Matrix: (Units=GPa)
#
#
# Indices 1 2 3 4 5 6 
#
# 1 55.0173 25.7145 43.3725 0.0000 -22.8995 0.0000
# 2 25.7145 145.8939 30.0305 0.0000 -14.9159 0.0000
# 3 43.3725 30.0305 48.2709 0.0000 -29.2655 0.0000
# 4 0.0000 0.0000 0.0000 22.6205 0.0000 -4.3678
# 5 -22.8995 -14.9159 -29.2655 0.0000 26.7554 0.0000
# 6 0.0000 0.0000 0.0000 -4.3678 0.0000 25.9812
#
#
#
# Elastic Compliance Matrix: (Units=1/GPa)
#
#
# Indices 1 2 3 4 5 6 
#
# 1 0.067952 0.001353 -0.077723 0.000000 -0.026101 0.000000
# 2 0.001353 0.007963 -0.008241 0.000000 -0.003417 0.000000
# 3 -0.077723 -0.008241 0.156047 0.000000 0.099570 0.000000
# 4 0.000000 0.000000 0.000000 0.045691 0.000000 0.007681
# 5 -0.026101 -0.003417 0.099570 0.000000 0.122042 0.000000
# 6 0.000000 0.000000 0.000000 0.007681 0.000000 0.039781
#
#
# Mechanical properties :
#
#
# Convention : Reuss Voigt Hill
#
# Bulk Modulus (GPa) = 15.93915 49.71302 32.82608
# Shear Modulus (GPa) = 7.94141 25.07573 16.50857
#
# Velocity S-wave (km/s) = 2.07555 3.68817 2.99254
# Velocity P-wave (km/s) = 3.79345 6.71597 5.45410
#
# Compressibility (1/GPa) = 0.06273859
#
# Stress axis : x y z
#
# Youngs Moduli (GPa) = 14.71624 125.58336 6.40835
#
# Poissons Ratio (x) = -0.16990 0.49808
# Poissons Ratio (y) = -0.01991 0.05281
# Poissons Ratio (z) = 1.14379 1.03498
#
# Static dielectric constant tensor:
#      x y z
#    x 4.325600 0.000000 -1.260650 
#    y 0.000000 3.566630 0.000000 
#    z -1.260650 0.000000 3.810970 
# 
# 
# High freq. dielectric constant tensor:
#      x y z
#    x 1.682740 0.000000 -0.048880 
#    y 0.000000 1.724400 0.000000 
#    z -0.048880 0.000000 1.680710 
# 
# From -- ./inp_files/177623.got.cif
#   From: 2010.06.25/outbox.cif.g09.slc.cpg/sg15_89_cif.got.tgz:177623.got - 2010.06.28 07:06:18.
