data_PCOD8129042
_publ_section_title
;
Structure prediction by ZEFSAII (Michael W. Deem and Ramdas Pophale) SiO2 
 PCOD8129042
Probable space group: P 21/C
;
_chemical_formula_sum "Si O2"
_cell_formula_units_Z 20
_cell_length_a 6.443663
_cell_length_b 16.632589
_cell_length_c 9.267148
_cell_angle_alpha 90.000000
_cell_angle_beta 98.608203
_cell_angle_gamma 90.000000
_cell_volume 982.016229
_symmetry_space_group_name_H-M "P 21/C"
_symmetry_group_IT_number 14
_symmetry_cell_setting 'monoclinic'
loop_
_space_group_symop_operation_xyz
x,y,z
-x,1/2+y,1/2-z
-x,-y,-z
x,1/2-y,1/2+z
loop_
_atom_site_type_symbol
_atom_site_label
_atom_site_fract_x
_atom_site_fract_y
_atom_site_fract_z
Si Si1 0.298244 0.910109 0.872311
Si Si2 0.308475 0.094643 0.881880
Si Si3 0.413986 0.302334 0.146109
Si Si4 0.345405 0.808823 0.621772
Si Si5 0.023530 0.206826 0.020513
O O1 0.342879 0.893645 0.707298
O O2 0.103797 0.853942 0.892062
O O3 0.237082 0.002650 0.888391
O O4 0.498511 0.886078 0.990186
O O5 0.371080 0.112958 0.722610
O O6 0.115806 0.153321 0.899613
O O7 0.591375 0.259092 0.257482
O O8 0.210698 0.245794 0.130686
O O9 0.491418 0.318521 0.992166
O O10 0.115799 0.781831 0.546438
#
# Coordination Sequence:
#
# PCOD8129042 Si02
#       5
#     4   4   4   4   4
#     4  11  24  42  64  94 128 163 205 258 313 365
#     4  11  24  42  64  94 128 163 205 258 313 365
#     4  12  23  41  65  94 124 163 213 256 303 370
#     4  12  23  41  65  94 124 163 213 256 303 370
#     4  12  21  40  71  88 122 170 210 250 305 376
#
# _framework density 20.366261999999999
#
# number of rings (size 3 to 8) (size 9 to 14) (size 15 to 20)
#    0.000    0.400    8.000    1.800    0.000    0.800 
#    0.000    1.000    0.000    0.000    0.000    0.000 
#    0.000    0.000    0.000    0.000    0.000    0.000 
#
# Total GULP energy -248017.124314 kJ/mol
# GULP energy per Si atom -12400.856216 kJ/mol
# Density = 2.031991 g / cm^3
# Si number density = 20.366262 Si / 1000 Ang^3
#
#
#
# Elastic Constant Matrix: (Units=GPa)
#
#
# Indices 1 2 3 4 5 6 
#
# 1 90.8707 38.1524 32.7669 0.0000 -9.3651 0.0000
# 2 38.1524 83.0541 37.9574 0.0000 -3.6821 0.0000
# 3 32.7669 37.9574 105.8195 0.0000 -25.2685 0.0000
# 4 0.0000 0.0000 0.0000 35.5693 0.0000 -5.6107
# 5 -9.3651 -3.6821 -25.2685 0.0000 27.2468 0.0000
# 6 0.0000 0.0000 0.0000 -5.6107 0.0000 16.8358
#
#
#
# Elastic Compliance Matrix: (Units=1/GPa)
#
#
# Indices 1 2 3 4 5 6 
#
# 1 0.014272 -0.005616 -0.001817 0.000000 0.002461 0.000000
# 2 -0.005616 0.016900 -0.005444 0.000000 -0.004695 0.000000
# 3 -0.001817 -0.005444 0.014952 0.000000 0.012506 0.000000
# 4 0.000000 0.000000 0.000000 0.029674 0.000000 0.009889
# 5 0.002461 -0.004695 0.012506 0.000000 0.048511 0.000000
# 6 0.000000 0.000000 0.000000 0.009889 0.000000 0.062693
#
#
# Mechanical properties :
#
#
# Convention : Reuss Voigt Hill
#
# Bulk Modulus (GPa) = 49.09507 55.27754 52.18630
# Shear Modulus (GPa) = 22.77426 27.32155 25.04791
#
# Velocity S-wave (km/s) = 3.34763 3.66664 3.51076
# Velocity P-wave (km/s) = 6.25305 6.71761 6.48949
#
# Compressibility (1/GPa) = 0.02036865
#
# Stress axis : x y z
#
# Youngs Moduli (GPa) = 70.06963 59.17046 66.88167
#
# Poissons Ratio (x) = 0.33233 0.12151
# Poissons Ratio (y) = 0.39354 0.36412
# Poissons Ratio (z) = 0.12730 0.32214
#
# Static dielectric constant tensor:
#      x y z
#    x 3.773800 0.000000 -0.139780 
#    y 0.000000 3.647430 0.000000 
#    z -0.139780 0.000000 3.849680 
# 
# 
# High freq. dielectric constant tensor:
#      x y z
#    x 1.803370 0.000000 -0.005700 
#    y 0.000000 1.784650 0.000000 
#    z -0.005700 0.000000 1.798380 
# 
# From -- ./inp_files/5344.got.cif
#   From: 2010.03.12/outbox.cif.g09.slc.cpg/sg14_3_cif.got.tgz:5344.got - 2010.03.31 13:35:05.
