data_PCOD8129836
_publ_section_title
;
Structure prediction by ZEFSAII (Michael W. Deem and Ramdas Pophale) SiO2 
 PCOD8129836
Probable space group: C 2/C
;
_chemical_formula_sum "Si O2"
_cell_formula_units_Z 64
_cell_length_a 8.977920
_cell_length_b 16.316213
_cell_length_c 22.370133
_cell_angle_alpha 90.000000
_cell_angle_beta 88.527781
_cell_angle_gamma 90.000000
_cell_volume 3275.821879
_symmetry_space_group_name_H-M "C 2/C"
_symmetry_group_IT_number 15
_symmetry_cell_setting 'monoclinic'
loop_
_space_group_symop_operation_xyz
x,y,z
-x,y,1/2-z
-x,-y,-z
x,-y,1/2+z
1/2+x,1/2+y,z
1/2-x,1/2+y,1/2-z
1/2-x,1/2-y,-z
1/2+x,1/2-y,1/2+z
loop_
_atom_site_type_symbol
_atom_site_label
_atom_site_fract_x
_atom_site_fract_y
_atom_site_fract_z
Si Si1 0.790469 0.800942 0.800071
Si Si2 0.904616 0.755444 0.031741
Si Si3 0.870712 0.817329 0.668584
Si Si4 0.604184 0.097792 0.390511
Si Si5 0.570627 0.194694 0.928678
Si Si6 0.755350 0.351966 0.377483
Si Si7 0.837194 0.470984 0.020979
Si Si8 0.779762 0.467544 0.889593
O O1 0.772261 0.803643 0.728906
O O2 0.685829 0.870180 0.830289
O O3 0.747766 0.709093 0.821047
O O4 0.956273 0.822280 0.818374
O O5 0.939294 0.672701 0.066933
O O6 0.886185 0.831154 0.077738
O O7 0.750000 0.750000 0.000000
O O8 0.037854 0.762028 0.981814
O O9 0.839669 0.740824 0.624588
O O10 0.828084 0.901568 0.638080
O O11 0.451593 0.053115 0.373596
O O12 0.712530 0.035224 0.426580
O O13 0.412666 0.158587 0.909355
O O14 0.670362 0.120394 0.951915
O O15 0.741650 0.446070 0.357811
O O16 0.740975 0.474408 0.961040
O O17 0.000000 0.500000 0.000000
#
# Coordination Sequence:
#
# PCOD8129836 Si02
#       8
#     8   8   8   8   8   8   8   8
#     4   9  21  43  58  72 109 159 203 224 280 351
#     4   9  15  27  52  81 107 150 181 210 272 344
#     4  10  23  38  55  79 116 154 189 239 285 336
#     4  10  18  34  61  84 110 151 187 238 283 336
#     4  10  16  32  53  80 116 151 180 217 286 346
#     4   9  17  32  59  82 107 145 195 232 267 343
#     4  10  16  30  54  89 123 136 174 239 291 338
#     4  11  20  34  58  91 119 135 184 252 293 318
#
# _framework density 19.537082000000002
#
# number of rings (size 3 to 8) (size 9 to 14) (size 15 to 20)
#    0.000    2.250    5.000    1.500    0.000    1.000 
#    2.250    3.750    2.750    0.000    0.000    0.000 
#    0.000    0.000    0.000    0.000    0.000    0.000 
#
# Total GULP energy -396576.603271 kJ/mol
# GULP energy per Si atom -12393.018852 kJ/mol
# Density = 1.949261 g / cm^3
# Si number density = 19.537082 Si / 1000 Ang^3
#
#
#
# Elastic Constant Matrix: (Units=GPa)
#
#
# Indices 1 2 3 4 5 6 
#
# 1 20.4049 30.1889 29.1220 0.0000 -10.3468 0.0000
# 2 30.1889 150.5337 69.3482 0.0000 -6.1754 0.0000
# 3 29.1220 69.3482 132.2756 0.0000 -23.3822 0.0000
# 4 0.0000 0.0000 0.0000 20.2260 0.0000 -0.6494
# 5 -10.3468 -6.1754 -23.3822 0.0000 23.0412 0.0000
# 6 0.0000 0.0000 0.0000 -0.6494 0.0000 27.0612
#
#
#
# Elastic Compliance Matrix: (Units=1/GPa)
#
#
# Indices 1 2 3 4 5 6 
#
# 1 0.098911 -0.014626 -0.008469 0.000000 0.031902 0.000000
# 2 -0.014626 0.011074 -0.003926 0.000000 -0.007584 0.000000
# 3 -0.008469 -0.003926 0.012947 0.000000 0.008283 0.000000
# 4 0.000000 0.000000 0.000000 0.049479 0.000000 0.001187
# 5 0.031902 -0.007584 0.008283 0.000000 0.064100 0.000000
# 6 0.000000 0.000000 0.000000 0.001187 0.000000 0.036982
#
#
# Mechanical properties :
#
#
# Convention : Reuss Voigt Hill
#
# Bulk Modulus (GPa) = 14.51602 62.28135 38.39868
# Shear Modulus (GPa) = 14.26539 25.70270 19.98405
#
# Velocity S-wave (km/s) = 2.70510 3.63103 3.20172
# Velocity P-wave (km/s) = 4.14763 7.03754 5.77624
#
# Compressibility (1/GPa) = 0.06888942
#
# Stress axis : x y z
#
# Youngs Moduli (GPa) = 10.11010 90.30302 77.23648
#
# Poissons Ratio (x) = 1.32076 0.65413
# Poissons Ratio (y) = 0.14787 0.30325
# Poissons Ratio (z) = 0.08562 0.35456
#
# Static dielectric constant tensor:
#      x y z
#    x 3.172240 0.000000 -0.157550 
#    y 0.000000 3.693900 0.000000 
#    z -0.157550 0.000000 3.863750 
# 
# 
# High freq. dielectric constant tensor:
#      x y z
#    x 1.717120 0.000000 -0.006950 
#    y 0.000000 1.764020 0.000000 
#    z -0.006950 0.000000 1.756800 
# 
# From -- ./inp_files/264718.got.cif
#   From: 2010.06.25/outbox.cif.g09.slc.cpg/sg15_133_cif.got.tgz:264718.got - 2010.06.28 07:06:18.
