data_PCOD8129694
_publ_section_title
;
Structure prediction by ZEFSAII (Michael W. Deem and Ramdas Pophale) SiO2 
 PCOD8129694
Probable space group: C 2/C
;
_chemical_formula_sum "Si O2"
_cell_formula_units_Z 64
_cell_length_a 19.347361
_cell_length_b 17.665577
_cell_length_c 11.811591
_cell_angle_alpha 90.000000
_cell_angle_beta 74.007637
_cell_angle_gamma 90.000000
_cell_volume 3880.754720
_symmetry_space_group_name_H-M "C 2/C"
_symmetry_group_IT_number 15
_symmetry_cell_setting 'monoclinic'
loop_
_space_group_symop_operation_xyz
x,y,z
-x,y,1/2-z
-x,-y,-z
x,-y,1/2+z
1/2+x,1/2+y,z
1/2-x,1/2+y,1/2-z
1/2-x,1/2-y,-z
1/2+x,1/2-y,1/2+z
loop_
_atom_site_type_symbol
_atom_site_label
_atom_site_fract_x
_atom_site_fract_y
_atom_site_fract_z
Si Si1 0.249719 0.125921 0.372943
Si Si2 0.120092 0.781459 0.985148
Si Si3 0.300348 0.864093 0.105628
Si Si4 0.534117 0.092362 0.401887
Si Si5 0.171610 0.771505 0.218328
Si Si6 0.163584 0.498296 0.249876
Si Si7 0.944218 0.456568 0.370219
Si Si8 0.977163 0.237193 0.639248
O O1 0.164662 0.147747 0.412812
O O2 0.280512 0.119769 0.485418
O O3 0.290666 0.190226 0.281992
O O4 0.262532 0.044681 0.306722
O O5 0.140521 0.702978 0.912637
O O6 0.141203 0.771736 0.105700
O O7 0.033163 0.795601 0.019045
O O8 0.229534 0.838117 0.207331
O O9 0.328749 0.940206 0.150567
O O10 0.602040 0.058642 0.305991
O O11 0.552455 0.101518 0.526829
O O12 0.513809 0.172759 0.360979
O O13 0.464686 0.039527 0.410754
O O14 0.107378 0.783496 0.339950
O O15 0.136029 0.456911 0.147411
O O16 0.000000 0.428615 0.250000
O O17 0.000000 0.203593 0.750000
#
# Coordination Sequence:
#
# PCOD8129694 Si02
#       8
#     8   8   8   8   8   8   8   8
#     4   9  16  30  41  64  91 115 145 179 219 262
#     4   8  17  26  44  64  90 113 142 182 221 261
#     4   9  18  28  44  64  90 117 145 179 220 260
#     4  10  19  27  40  61  91 116 141 174 212 264
#     4   8  15  29  42  64  90 114 142 179 219 262
#     4  11  18  27  44  62  87 122 145 176 214 265
#     4   9  20  28  35  58  91 120 142 171 206 263
#     4  10  16  25  46  68  85 112 140 178 225 258
#
# _framework density 16.491637999999998
#
# number of rings (size 3 to 8) (size 9 to 14) (size 15 to 20)
#    0.000    2.750    1.250    3.375    8.750    0.000 
#    0.000    0.000    0.000    1.500    0.000    0.000 
#    0.000    0.000    0.000    0.000    0.000    0.000 
#
# Total GULP energy -396456.177310 kJ/mol
# GULP energy per Si atom -12389.255541 kJ/mol
# Density = 1.645410 g / cm^3
# Si number density = 16.491638 Si / 1000 Ang^3
#
#
#
# Elastic Constant Matrix: (Units=GPa)
#
#
# Indices 1 2 3 4 5 6 
#
# 1 75.8048 18.6981 25.6646 0.0000 -30.8280 0.0000
# 2 18.6981 40.2766 12.9555 0.0000 -6.9311 0.0000
# 3 25.6646 12.9555 52.4750 0.0000 -9.1014 0.0000
# 4 0.0000 0.0000 0.0000 20.1547 0.0000 -4.5894
# 5 -30.8280 -6.9311 -9.1014 0.0000 29.4637 0.0000
# 6 0.0000 0.0000 0.0000 -4.5894 0.0000 16.9849
#
#
#
# Elastic Compliance Matrix: (Units=1/GPa)
#
#
# Indices 1 2 3 4 5 6 
#
# 1 0.027345 -0.005976 -0.007586 0.000000 0.024862 0.000000
# 2 -0.005976 0.028861 -0.004342 0.000000 -0.000805 0.000000
# 3 -0.007586 -0.004342 0.023547 0.000000 -0.001686 0.000000
# 4 0.000000 0.000000 0.000000 0.052869 0.000000 0.014286
# 5 0.024862 -0.000805 -0.001686 0.000000 0.059243 0.000000
# 6 0.000000 0.000000 0.000000 0.014286 0.000000 0.062736
#
#
# Mechanical properties :
#
#
# Convention : Reuss Voigt Hill
#
# Bulk Modulus (GPa) = 22.75660 31.46588 27.11124
# Shear Modulus (GPa) = 16.39029 20.73653 18.56341
#
# Velocity S-wave (km/s) = 3.15597 3.54983 3.35867
# Velocity P-wave (km/s) = 5.20663 5.99358 5.61391
#
# Compressibility (1/GPa) = 0.04394330
#
# Stress axis : x y z
#
# Youngs Moduli (GPa) = 36.56956 34.64895 42.46857
#
# Poissons Ratio (x) = 0.20706 0.32219
# Poissons Ratio (y) = 0.21854 0.18441
# Poissons Ratio (z) = 0.27743 0.15046
#
# Static dielectric constant tensor:
#      x y z
#    x 3.317190 0.000000 -0.403800 
#    y 0.000000 2.806330 0.000000 
#    z -0.403800 0.000000 3.104740 
# 
# 
# High freq. dielectric constant tensor:
#      x y z
#    x 1.618370 0.000000 -0.028860 
#    y 0.000000 1.593080 0.000000 
#    z -0.028860 0.000000 1.614780 
# 
# From -- ./inp_files/106446.got.cif
#   From: 2010.06.25/outbox.cif.g09.slc.cpg/sg15_54_cif.got.tgz:106446.got - 2010.06.28 07:06:18.
