data_PCOD8129339
_publ_section_title
;
Structure prediction by ZEFSAII (Michael W. Deem and Ramdas Pophale) SiO2 
 PCOD8129339
Probable space group: P 21/C
;
_chemical_formula_sum "Si O2"
_cell_formula_units_Z 16
_cell_length_a 5.093418
_cell_length_b 5.279096
_cell_length_c 22.026904
_cell_angle_alpha 90.000000
_cell_angle_beta 94.378790
_cell_angle_gamma 90.000000
_cell_volume 590.544752
_symmetry_space_group_name_H-M "P 21/C"
_symmetry_group_IT_number 14
_symmetry_cell_setting 'monoclinic'
loop_
_space_group_symop_operation_xyz
x,y,z
-x,1/2+y,1/2-z
-x,-y,-z
x,1/2-y,1/2+z
loop_
_atom_site_type_symbol
_atom_site_label
_atom_site_fract_x
_atom_site_fract_y
_atom_site_fract_z
Si Si1 0.988152 0.036204 0.596861
Si Si2 0.243506 0.691910 0.691337
Si Si3 0.715801 0.123721 0.177577
Si Si4 0.676675 0.752713 0.499737
O O1 0.739215 0.182399 0.621728
O O2 0.143488 0.236623 0.557265
O O3 0.881294 0.784343 0.559953
O O4 0.179869 0.951857 0.654921
O O5 0.352967 0.735375 0.760848
O O6 0.475428 0.560451 0.656836
O O7 0.988065 0.520087 0.691603
O O8 0.500000 0.500000 0.500000
O O9 0.500000 0.000000 0.500000
#
# Coordination Sequence:
#
# PCOD8129339 Si02
#       4
#     4   4   4   4
#     4  11  30  52  80 122 168 223 290 358 428 519
#     4  12  28  50  82 124 172 221 282 350 437 522
#     4  12  28  50  82 124 172 221 282 350 437 522
#     4  11  30  55  85 120 170 230 296 360 430 504
#
# _framework density 27.093627999999999
#
# number of rings (size 3 to 8) (size 9 to 14) (size 15 to 20)
#    0.000    0.500    2.500    1.500   14.000    2.000 
#    0.000    3.750    0.000    0.000    0.000    0.000 
#    0.000    0.000    0.000    0.000    0.000    0.000 
#
# Total GULP energy -198508.588824 kJ/mol
# GULP energy per Si atom -12406.786802 kJ/mol
# Density = 2.703196 g / cm^3
# Si number density = 27.093628 Si / 1000 Ang^3
#
#
#
# Elastic Constant Matrix: (Units=GPa)
#
#
# Indices 1 2 3 4 5 6 
#
# 1 150.5221 57.8163 37.6074 0.0000 -36.5641 0.0000
# 2 57.8163 149.2076 55.8352 0.0000 -26.0633 0.0000
# 3 37.6074 55.8352 163.7373 0.0000 -32.1575 0.0000
# 4 0.0000 0.0000 0.0000 17.1273 0.0000 -5.3504
# 5 -36.5641 -26.0633 -32.1575 0.0000 40.3696 0.0000
# 6 0.0000 0.0000 0.0000 -5.3504 0.0000 74.3959
#
#
#
# Elastic Compliance Matrix: (Units=1/GPa)
#
#
# Indices 1 2 3 4 5 6 
#
# 1 0.009211 -0.002391 0.000042 0.000000 0.006832 0.000000
# 2 -0.002391 0.008720 -0.002067 0.000000 0.001817 0.000000
# 3 0.000042 -0.002067 0.007762 0.000000 0.004886 0.000000
# 4 0.000000 0.000000 0.000000 0.059728 0.000000 0.004296
# 5 0.006832 0.001817 0.004886 0.000000 0.036025 0.000000
# 6 0.000000 0.000000 0.000000 0.004296 0.000000 0.013751
#
#
# Mechanical properties :
#
#
# Convention : Reuss Voigt Hill
#
# Bulk Modulus (GPa) = 59.31498 85.10941 72.21220
# Shear Modulus (GPa) = 33.41105 47.19243 40.30174
#
# Velocity S-wave (km/s) = 3.51546 4.17805 3.86099
# Velocity P-wave (km/s) = 6.19823 7.39973 6.82547
#
# Compressibility (1/GPa) = 0.01685915
#
# Stress axis : x y z
#
# Youngs Moduli (GPa) = 108.56154 114.68260 128.82556
#
# Poissons Ratio (x) = 0.27426 -0.00537
# Poissons Ratio (y) = 0.25962 0.26633
# Poissons Ratio (z) = -0.00452 0.23709
#
# Static dielectric constant tensor:
#      x y z
#    x 5.607180 0.000000 0.186640 
#    y 0.000000 5.401370 0.000000 
#    z 0.186640 0.000000 5.419320 
# 
# 
# High freq. dielectric constant tensor:
#      x y z
#    x 2.106040 0.000000 -0.004670 
#    y 0.000000 2.083360 0.000000 
#    z -0.004670 0.000000 2.107900 
# 
# From -- ./inp_files/70810.got.cif
#   From: 2010.03.12/outbox.cif.g09.slc.cpg/sg14_36_cif.got.tgz:70810.got - 2010.03.31 13:35:05.
