data_PCOD8129467
_publ_section_title
;
Structure prediction by ZEFSAII (Michael W. Deem and Ramdas Pophale) SiO2 
 PCOD8129467
Probable space group: P 21/C
;
_chemical_formula_sum "Si O2"
_cell_formula_units_Z 24
_cell_length_a 8.692273
_cell_length_b 17.773603
_cell_length_c 7.400847
_cell_angle_alpha 90.000000
_cell_angle_beta 55.926308
_cell_angle_gamma 90.000000
_cell_volume 947.081134
_symmetry_space_group_name_H-M "P 21/C"
_symmetry_group_IT_number 14
_symmetry_cell_setting 'monoclinic'
loop_
_space_group_symop_operation_xyz
x,y,z
-x,1/2+y,1/2-z
-x,-y,-z
x,1/2-y,1/2+z
loop_
_atom_site_type_symbol
_atom_site_label
_atom_site_fract_x
_atom_site_fract_y
_atom_site_fract_z
Si Si1 0.514915 0.688280 0.758637
Si Si2 0.642524 0.084210 0.930558
Si Si3 0.168860 0.053027 0.351535
Si Si4 0.543721 0.921313 0.565789
Si Si5 0.086992 0.313517 0.637641
Si Si6 0.836951 0.299861 0.485188
O O1 0.492771 0.625662 0.618286
O O2 0.724745 0.717824 0.583368
O O3 0.508373 0.648307 0.957058
O O4 0.359825 0.754168 0.857893
O O5 0.824639 0.138310 0.829821
O O6 0.670163 0.999108 0.845377
O O7 0.586616 0.089982 0.176629
O O8 0.245828 0.082000 0.493787
O O9 0.121644 0.114299 0.237029
O O10 0.000000 0.000000 0.500000
O O11 0.500000 0.000000 0.500000
O O12 0.914982 0.336129 0.618959
O O13 0.010497 0.251456 0.821683
#
# Coordination Sequence:
#
# PCOD8129467 Si02
#       6
#     4   4   4   4   4   4
#     4  12  27  53  80 115 162 212 269 340 404 481
#     4  12  26  53  79 112 168 212 270 341 399 483
#     4  12  28  50  78 123 163 207 275 340 398 487
#     4  12  26  48  82 113 148 212 265 319 412 477
#     4  12  29  49  83 117 161 215 271 333 410 485
#     4  12  29  51  79 118 161 216 273 335 410 481
#
# _framework density 25.341018999999999
#
# number of rings (size 3 to 8) (size 9 to 14) (size 15 to 20)
#    0.000    0.000    5.000    3.500    7.000    0.667 
#    0.000    0.000    0.000    0.000    0.000    0.000 
#    0.000    0.000    0.000    0.000    0.000    0.000 
#
# Total GULP energy -297461.390235 kJ/mol
# GULP energy per Si atom -12394.224593 kJ/mol
# Density = 2.528334 g / cm^3
# Si number density = 25.341019 Si / 1000 Ang^3
#
#
#
# Elastic Constant Matrix: (Units=GPa)
#
#
# Indices 1 2 3 4 5 6 
#
# 1 199.6541 47.3622 35.2569 0.0000 16.3454 0.0000
# 2 47.3622 84.6143 2.0133 0.0000 17.1582 0.0000
# 3 35.2569 2.0133 97.2544 0.0000 6.5971 0.0000
# 4 0.0000 0.0000 0.0000 22.0732 0.0000 5.2920
# 5 16.3454 17.1582 6.5971 0.0000 45.2133 0.0000
# 6 0.0000 0.0000 0.0000 5.2920 0.0000 53.3954
#
#
#
# Elastic Compliance Matrix: (Units=1/GPa)
#
#
# Indices 1 2 3 4 5 6 
#
# 1 0.006224 -0.003294 -0.002142 0.000000 -0.000688 0.000000
# 2 -0.003294 0.014547 0.001198 0.000000 -0.004505 0.000000
# 3 -0.002142 0.001198 0.011122 0.000000 -0.001303 0.000000
# 4 0.000000 0.000000 0.000000 0.046406 0.000000 -0.004599
# 5 -0.000688 -0.004505 -0.001303 0.000000 0.024266 0.000000
# 6 0.000000 0.000000 0.000000 -0.004599 0.000000 0.019184
#
#
# Mechanical properties :
#
#
# Convention : Reuss Voigt Hill
#
# Bulk Modulus (GPa) = 42.69874 61.19862 51.94868
# Shear Modulus (GPa) = 36.22392 43.92908 40.07650
#
# Velocity S-wave (km/s) = 3.78492 4.16807 3.98111
# Velocity P-wave (km/s) = 5.99892 6.88231 6.45574
#
# Compressibility (1/GPa) = 0.02341990
#
# Stress axis : x y z
#
# Youngs Moduli (GPa) = 160.65548 68.74326 89.90934
#
# Poissons Ratio (x) = 0.22642 0.19256
# Poissons Ratio (y) = 0.52915 -0.10775
# Poissons Ratio (z) = 0.34407 -0.08239
#
# Static dielectric constant tensor:
#      x y z
#    x 5.052430 0.000000 -0.029460 
#    y 0.000000 5.578580 0.000000 
#    z -0.029460 0.000000 4.865310 
# 
# 
# High freq. dielectric constant tensor:
#      x y z
#    x 2.043170 0.000000 0.002480 
#    y 0.000000 2.018920 0.000000 
#    z 0.002480 0.000000 2.019440 
# 
# From -- ./inp_files/10123.got.cif
#   From: 2010.03.12/outbox.cif.g09.slc.cpg/sg14_6_cif.got.tgz:10123.got - 2010.03.31 13:35:05.
