data_PCOD8129951
_publ_section_title
;
Structure prediction by ZEFSAII (Michael W. Deem and Ramdas Pophale) SiO2 
 PCOD8129951
Probable space group: C 2/C
;
_chemical_formula_sum "Si O2"
_cell_formula_units_Z 40
_cell_length_a 20.765399
_cell_length_b 7.265674
_cell_length_c 28.765331
_cell_angle_alpha 90.000000
_cell_angle_beta 157.410251
_cell_angle_gamma 90.000000
_cell_volume 1667.108824
_symmetry_space_group_name_H-M "C 2/C"
_symmetry_group_IT_number 15
_symmetry_cell_setting 'monoclinic'
loop_
_space_group_symop_operation_xyz
x,y,z
-x,y,1/2-z
-x,-y,-z
x,-y,1/2+z
1/2+x,1/2+y,z
1/2-x,1/2+y,1/2-z
1/2-x,1/2-y,-z
1/2+x,1/2-y,1/2+z
loop_
_atom_site_type_symbol
_atom_site_label
_atom_site_fract_x
_atom_site_fract_y
_atom_site_fract_z
Si Si1 0.025127 0.063855 0.123048
Si Si2 0.389098 0.475497 0.721458
Si Si3 0.935788 0.339239 0.490012
Si Si4 0.861801 0.525089 0.804025
Si Si5 0.676617 0.609458 0.594864
O O1 0.984873 0.020289 0.150088
O O2 0.042257 0.282401 0.126245
O O3 0.199372 0.962364 0.228748
O O4 0.874574 0.001317 0.987289
O O5 0.500000 0.476984 0.750000
O O6 0.265668 0.653191 0.639565
O O7 0.272663 0.295324 0.645360
O O8 0.000000 0.500000 0.500000
O O9 0.018133 0.362563 0.596671
O O10 0.005123 0.153317 0.511153
O O11 0.803574 0.490045 0.711766
#
# Coordination Sequence:
#
# PCOD8129951 Si02
#       5
#     8   8   8   8   8
#     4  11  19  33  53  81 108 132 173 213 262 301
#     4  10  20  32  51  77 108 143 168 207 259 317
#     4  10  16  34  52  72 104 136 170 210 255 306
#     4  11  18  32  54  80 105 129 174 220 256 301
#     4  10  20  33  53  81 102 133 177 218 257 298
#
# _framework density 23.993635999999999
#
# number of rings (size 3 to 8) (size 9 to 14) (size 15 to 20)
#    0.000    1.600   10.000    0.600    0.000    0.800 
#    0.000    0.000    0.000    1.200    0.000    5.600 
#    0.000    0.000    0.000    0.000    0.000    0.000 
#
# Total GULP energy -247876.282088 kJ/mol
# GULP energy per Si atom -12393.814104 kJ/mol
# Density = 2.393903 g / cm^3
# Si number density = 23.993636 Si / 1000 Ang^3
#
#
#
# Elastic Constant Matrix: (Units=GPa)
#
#
# Indices 1 2 3 4 5 6 
#
# 1 157.7030 31.8977 81.4956 -0.0166 -29.7936 0.0060
# 2 31.8977 60.8335 32.3677 0.0195 -9.4861 -0.0043
# 3 81.4956 32.3677 164.1340 0.0784 -54.0567 -0.0099
# 4 -0.0166 0.0195 0.0784 22.4868 -0.0101 -7.9985
# 5 -29.7936 -9.4861 -54.0567 -0.0101 47.9347 0.0014
# 6 0.0060 -0.0043 -0.0099 -7.9985 0.0014 17.7247
#
#
#
# Elastic Compliance Matrix: (Units=1/GPa)
#
#
# Indices 1 2 3 4 5 6 
#
# 1 0.008906 -0.002610 -0.003587 0.000023 0.000975 0.000005
# 2 -0.002610 0.019145 -0.002810 -0.000009 -0.001002 0.000000
# 3 -0.003587 -0.002810 0.011948 -0.000041 0.010688 -0.000012
# 4 0.000023 -0.000009 -0.000041 0.052974 -0.000024 0.023905
# 5 0.000975 -0.001002 0.010688 -0.000024 0.033323 -0.000008
# 6 0.000005 0.000000 -0.000012 0.023905 -0.000008 0.067206
#
#
# Mechanical properties :
#
#
# Convention : Reuss Voigt Hill
#
# Bulk Modulus (GPa) = 45.48040 74.91029 60.19534
# Shear Modulus (GPa) = 22.84747 33.42320 28.13533
#
# Velocity S-wave (km/s) = 3.08917 3.73634 3.42806
# Velocity P-wave (km/s) = 5.63208 7.06416 6.38838
#
# Compressibility (1/GPa) = 0.02198750
#
# Stress axis : x y z
#
# Youngs Moduli (GPa) = 112.27806 52.23172 83.69883
#
# Poissons Ratio (x) = 0.13631 0.30019
# Poissons Ratio (y) = 0.29302 0.23517
# Poissons Ratio (z) = 0.40269 0.14675
#
# Static dielectric constant tensor:
#      x y z
#    x 4.069050 0.000020 -0.576200 
#    y 0.000020 4.577270 -0.000100 
#    z -0.576200 -0.000100 5.087950 
# 
# 
# High freq. dielectric constant tensor:
#      x y z
#    x 1.895780 0.000000 -0.052040 
#    y 0.000000 1.963030 0.000000 
#    z -0.052040 0.000000 1.961660 
# 
# From -- ./inp_files/218837.got.cif
#   From: 2010.06.25/outbox.cif.g09.slc.cpg/sg15_110_cif.got.tgz:218837.got - 2010.06.28 07:06:18.
