data_PCOD8129191
_publ_section_title
;
Structure prediction by ZEFSAII (Michael W. Deem and Ramdas Pophale) SiO2 
 PCOD8129191
Probable space group: P 21/C
;
_chemical_formula_sum "Si O2"
_cell_formula_units_Z 24
_cell_length_a 18.823618
_cell_length_b 8.303931
_cell_length_c 14.336481
_cell_angle_alpha 90.000000
_cell_angle_beta 151.965389
_cell_angle_gamma 90.000000
_cell_volume 1053.250637
_symmetry_space_group_name_H-M "P 21/C"
_symmetry_group_IT_number 14
_symmetry_cell_setting 'monoclinic'
loop_
_space_group_symop_operation_xyz
x,y,z
-x,1/2+y,1/2-z
-x,-y,-z
x,1/2-y,1/2+z
loop_
_atom_site_type_symbol
_atom_site_label
_atom_site_fract_x
_atom_site_fract_y
_atom_site_fract_z
Si Si1 0.813251 0.808055 0.784386
Si Si2 0.539834 0.883429 0.368681
Si Si3 0.007621 0.864659 0.650925
Si Si4 0.007454 0.762234 0.346473
Si Si5 0.301073 0.876886 0.247929
Si Si6 0.332094 0.780528 0.481577
O O1 0.658572 0.753764 0.550659
O O2 0.937265 0.844206 0.848281
O O3 0.785245 0.967373 0.812456
O O4 0.876645 0.665710 0.923050
O O5 0.430309 0.933997 0.326818
O O6 0.452951 0.826619 0.176696
O O7 0.641199 0.035733 0.454941
O O8 0.943039 0.798403 0.673486
O O9 0.160883 0.771624 0.802431
O O10 0.039923 0.053346 0.693788
O O11 0.187806 0.734890 0.556830
O O12 0.364290 0.770371 0.407579
#
# Coordination Sequence:
#
# PCOD8129191 Si02
#       6
#     4   4   4   4   4   4
#     4  11  25  45  73 101 140 191 234 288 357 419
#     4  11  27  45  71 106 140 190 232 295 354 425
#     4  12  27  44  71 107 139 187 238 295 352 426
#     4  12  26  43  74 103 142 182 240 295 350 420
#     4  11  24  48  72 106 143 184 237 296 356 425
#     4  11  25  46  71  99 147 181 235 293 351 421
#
# _framework density 22.786598000000001
#
# number of rings (size 3 to 8) (size 9 to 14) (size 15 to 20)
#    0.000    0.667    3.333    4.000    9.333    1.333 
#    0.000    1.667    0.000    0.000    0.000    0.000 
#    0.000    0.000    0.000    0.000    0.000    0.000 
#
# Total GULP energy -297566.543219 kJ/mol
# GULP energy per Si atom -12398.605967 kJ/mol
# Density = 2.273473 g / cm^3
# Si number density = 22.786598 Si / 1000 Ang^3
#
#
#
# Elastic Constant Matrix: (Units=GPa)
#
#
# Indices 1 2 3 4 5 6 
#
# 1 73.9353 32.1004 12.3858 0.0000 0.3449 0.0000
# 2 32.1004 83.5793 35.3157 0.0000 11.2422 0.0000
# 3 12.3858 35.3157 102.5216 0.0000 -1.6185 0.0000
# 4 0.0000 0.0000 0.0000 37.4432 0.0000 4.0165
# 5 0.3449 11.2422 -1.6185 0.0000 33.2203 0.0000
# 6 0.0000 0.0000 0.0000 4.0165 0.0000 26.9694
#
#
#
# Elastic Compliance Matrix: (Units=1/GPa)
#
#
# Indices 1 2 3 4 5 6 
#
# 1 0.016376 -0.006734 0.000375 0.000000 0.002127 0.000000
# 2 -0.006734 0.017646 -0.005362 0.000000 -0.006163 0.000000
# 3 0.000375 -0.005362 0.011593 0.000000 0.002376 0.000000
# 4 0.000000 0.000000 0.000000 0.027141 0.000000 -0.004042
# 5 0.002127 -0.006163 0.002376 0.000000 0.032281 0.000000
# 6 0.000000 0.000000 0.000000 -0.004042 0.000000 0.037681
#
#
# Mechanical properties :
#
#
# Convention : Reuss Voigt Hill
#
# Bulk Modulus (GPa) = 45.10090 46.62666 45.86378
# Shear Modulus (GPa) = 28.80969 31.54219 30.17594
#
# Velocity S-wave (km/s) = 3.55959 3.72458 3.64302
# Velocity P-wave (km/s) = 6.06053 6.24527 6.15359
#
# Compressibility (1/GPa) = 0.02217251
#
# Stress axis : x y z
#
# Youngs Moduli (GPa) = 61.06342 56.67063 86.25615
#
# Poissons Ratio (x) = 0.38163 -0.03234
# Poissons Ratio (y) = 0.41122 0.46252
# Poissons Ratio (z) = -0.02289 0.30388
#
# Static dielectric constant tensor:
#      x y z
#    x 4.230680 0.000000 -0.254770 
#    y 0.000000 3.799850 0.000000 
#    z -0.254770 0.000000 4.506490 
# 
# 
# High freq. dielectric constant tensor:
#      x y z
#    x 1.908960 0.000000 -0.014140 
#    y 0.000000 1.875940 0.000000 
#    z -0.014140 0.000000 1.918100 
# 
# From -- ./inp_files/48661.got.cif
#   From: 2010.03.12/outbox.cif.g09.slc.cpg/sg14_25_cif.got.tgz:48661.got - 2010.03.31 13:35:05.
