data_PCOD8129986
_publ_section_title
;
Structure prediction by ZEFSAII (Michael W. Deem and Ramdas Pophale) SiO2 
 PCOD8129986
Probable space group: C 2/C
;
_chemical_formula_sum "Si O2"
_cell_formula_units_Z 52
_cell_length_a 16.635538
_cell_length_b 6.767843
_cell_length_c 24.657618
_cell_angle_alpha 90.000000
_cell_angle_beta 118.989856
_cell_angle_gamma 90.000000
_cell_volume 2428.287571
_symmetry_space_group_name_H-M "C 2/C"
_symmetry_group_IT_number 15
_symmetry_cell_setting 'monoclinic'
loop_
_space_group_symop_operation_xyz
x,y,z
-x,y,1/2-z
-x,-y,-z
x,-y,1/2+z
1/2+x,1/2+y,z
1/2-x,1/2+y,1/2-z
1/2-x,1/2-y,-z
1/2+x,1/2-y,1/2+z
loop_
_atom_site_type_symbol
_atom_site_label
_atom_site_fract_x
_atom_site_fract_y
_atom_site_fract_z
Si Si1 0.907425 0.123750 0.957701
Si Si2 0.721687 0.919032 0.895504
Si Si3 0.091104 0.500775 0.753808
Si Si4 0.393218 0.167879 0.561766
Si Si5 0.107573 0.068838 0.875104
Si Si6 0.959159 0.641030 0.371528
Si Si7 0.000000 0.875400 0.750000
O O1 0.906531 0.261555 0.904309
O O2 0.829590 0.956840 0.925539
O O3 0.879667 0.282698 0.994335
O O4 0.000000 0.000000 0.000000
O O5 0.673514 0.989940 0.823805
O O6 0.704034 0.684457 0.897473
O O7 0.683911 0.027964 0.937122
O O8 0.110601 0.392701 0.702421
O O9 0.064507 0.731803 0.733919
O O10 0.000000 0.397308 0.750000
O O11 0.380157 0.372608 0.587698
O O12 0.494334 0.071204 0.600514
O O13 0.040597 0.210907 0.885342
O O14 0.067089 0.018007 0.803795
#
# Coordination Sequence:
#
# PCOD8129986 Si02
#       7
#     8   8   8   8   8   8   4
#     4  12  27  46  64  97 148 186 226 279 350 418
#     4  11  24  43  69 104 131 176 239 282 337 411
#     4  10  17  39  71  98 131 166 231 288 342 408
#     4  11  21  44  69  98 125 186 228 279 335 408
#     4  11  18  36  71  98 128 170 225 281 336 404
#     4  11  22  42  67  98 140 180 220 285 359 408
#     4  10  16  34  70 106 128 160 222 292 348 396
#
# _framework density 21.414269000000001
#
# number of rings (size 3 to 8) (size 9 to 14) (size 15 to 20)
#    0.462    0.615    7.692    1.846    0.000    0.615 
#    5.538    3.077    0.000    0.000    0.000    0.000 
#    0.000    0.000    0.000    0.000    0.000    0.000 
#
# Total GULP energy -322158.003403 kJ/mol
# GULP energy per Si atom -12390.692439 kJ/mol
# Density = 2.136553 g / cm^3
# Si number density = 21.414269 Si / 1000 Ang^3
#
#
#
# Elastic Constant Matrix: (Units=GPa)
#
#
# Indices 1 2 3 4 5 6 
#
# 1 100.6054 50.8913 68.3000 0.0000 -1.9512 0.0000
# 2 50.8913 126.2630 35.6418 0.0000 -10.1090 0.0000
# 3 68.3000 35.6418 114.9347 0.0000 -20.4454 0.0000
# 4 0.0000 0.0000 0.0000 36.0129 0.0000 -7.6412
# 5 -1.9512 -10.1090 -20.4454 0.0000 30.5406 0.0000
# 6 0.0000 0.0000 0.0000 -7.6412 0.0000 29.9380
#
#
#
# Elastic Compliance Matrix: (Units=1/GPa)
#
#
# Indices 1 2 3 4 5 6 
#
# 1 0.020966 -0.005693 -0.012249 0.000000 -0.008745 0.000000
# 2 -0.005693 0.010266 0.000839 0.000000 0.003596 0.000000
# 3 -0.012249 0.000839 0.017743 0.000000 0.011373 0.000000
# 4 0.000000 0.000000 0.000000 0.029358 0.000000 0.007493
# 5 -0.008745 0.003596 0.011373 0.000000 0.040989 0.000000
# 6 0.000000 0.000000 0.000000 0.007493 0.000000 0.035315
#
#
# Mechanical properties :
#
#
# Convention : Reuss Voigt Hill
#
# Bulk Modulus (GPa) = 67.71255 72.38547 70.04901
# Shear Modulus (GPa) = 25.80468 31.76297 28.78382
#
# Velocity S-wave (km/s) = 3.47511 3.85549 3.67023
# Velocity P-wave (km/s) = 6.91309 7.32773 7.12343
#
# Compressibility (1/GPa) = 0.01476831
#
# Stress axis : x y z
#
# Youngs Moduli (GPa) = 47.69670 97.41345 56.36176
#
# Poissons Ratio (x) = 0.55456 0.69039
# Poissons Ratio (y) = 0.27153 -0.04730
# Poissons Ratio (z) = 0.58425 -0.08176
#
# Static dielectric constant tensor:
#      x y z
#    x 3.617510 0.000000 -0.170610 
#    y 0.000000 4.338040 0.000000 
#    z -0.170610 0.000000 3.733540 
# 
# 
# High freq. dielectric constant tensor:
#      x y z
#    x 1.798220 0.000000 -0.011440 
#    y 0.000000 1.855410 0.000000 
#    z -0.011440 0.000000 1.849120 
# 
# From -- ./inp_files/297848.got.cif
#   From: 2010.06.25/outbox.cif.g09.slc.cpg/sg15_149_cif.got.tgz:297848.got - 2010.06.28 07:06:18.
