data_PCOD8129371
_publ_section_title
;
Structure prediction by ZEFSAII (Michael W. Deem and Ramdas Pophale) SiO2 
 PCOD8129371
Probable space group: P 21/C
;
_chemical_formula_sum "Si O2"
_cell_formula_units_Z 20
_cell_length_a 11.870683
_cell_length_b 4.760439
_cell_length_c 14.492371
_cell_angle_alpha 90.000000
_cell_angle_beta 90.521149
_cell_angle_gamma 90.000000
_cell_volume 818.925114
_symmetry_space_group_name_H-M "P 21/C"
_symmetry_group_IT_number 14
_symmetry_cell_setting 'monoclinic'
loop_
_space_group_symop_operation_xyz
x,y,z
-x,1/2+y,1/2-z
-x,-y,-z
x,1/2-y,1/2+z
loop_
_atom_site_type_symbol
_atom_site_label
_atom_site_fract_x
_atom_site_fract_y
_atom_site_fract_z
Si Si1 0.746725 0.408615 0.600183
Si Si2 0.894314 0.771195 0.350348
Si Si3 0.109838 0.410830 0.852101
Si Si4 0.425387 0.679714 0.252884
Si Si5 0.752050 0.268589 0.396010
O O1 0.831701 0.672743 0.583454
O O2 0.638898 0.476903 0.662489
O O3 0.708857 0.294768 0.500367
O O4 0.802707 0.162229 0.662067
O O5 0.920066 0.754061 0.241608
O O6 0.865969 0.457451 0.384659
O O7 0.783518 0.947842 0.373550
O O8 0.000914 0.933797 0.397130
O O9 0.497524 0.430734 0.206374
O O10 0.348313 0.835707 0.175219
#
# Coordination Sequence:
#
# PCOD8129371 Si02
#       5
#     4   4   4   4   4
#     4  12  26  45  71 106 142 180 236 291 349 419
#     4  12  23  43  71 104 146 190 228 274 347 424
#     4  12  23  43  71 104 146 190 228 274 347 424
#     4  12  26  48  74  98 138 184 238 300 362 406
#     4  12  26  45  71 106 142 180 236 291 349 419
#
# _framework density 24.422256000000001
#
# number of rings (size 3 to 8) (size 9 to 14) (size 15 to 20)
#    0.000    0.000    4.000    7.200    0.000    6.400 
#    0.000    0.000    0.000    0.000    0.000    0.000 
#    0.000    0.000    0.000    0.000    0.000    0.000 
#
# Total GULP energy -247949.419327 kJ/mol
# GULP energy per Si atom -12397.470966 kJ/mol
# Density = 2.436667 g / cm^3
# Si number density = 24.422256 Si / 1000 Ang^3
#
#
#
# Elastic Constant Matrix: (Units=GPa)
#
#
# Indices 1 2 3 4 5 6 
#
# 1 96.9458 35.2429 47.9051 0.0000 2.1698 0.0000
# 2 35.2429 116.5078 9.8510 0.0000 6.8459 0.0000
# 3 47.9051 9.8510 100.8680 0.0000 -4.1974 0.0000
# 4 0.0000 0.0000 0.0000 31.9111 0.0000 -1.9677
# 5 2.1698 6.8459 -4.1974 0.0000 9.8284 0.0000
# 6 0.0000 0.0000 0.0000 -1.9677 0.0000 50.1435
#
#
#
# Elastic Compliance Matrix: (Units=1/GPa)
#
#
# Indices 1 2 3 4 5 6 
#
# 1 0.015253 -0.003801 -0.007028 0.000000 -0.003721 0.000000
# 2 -0.003801 0.010031 0.000580 0.000000 -0.005900 0.000000
# 3 -0.007028 0.000580 0.013482 0.000000 0.006905 0.000000
# 4 0.000000 0.000000 0.000000 0.031413 0.000000 0.001233
# 5 -0.003721 -0.005900 0.006905 0.000000 0.109626 0.000000
# 6 0.000000 0.000000 0.000000 0.001233 0.000000 0.019991
#
#
# Mechanical properties :
#
#
# Convention : Reuss Voigt Hill
#
# Bulk Modulus (GPa) = 54.73907 55.59108 55.16507
# Shear Modulus (GPa) = 22.08658 33.13145 27.60901
#
# Velocity S-wave (km/s) = 3.01052 3.68721 3.36592
# Velocity P-wave (km/s) = 5.87764 6.39838 6.14353
#
# Compressibility (1/GPa) = 0.01826849
#
# Stress axis : x y z
#
# Youngs Moduli (GPa) = 65.56191 99.69582 74.17156
#
# Poissons Ratio (x) = 0.37895 0.52125
# Poissons Ratio (y) = 0.24920 -0.04303
# Poissons Ratio (z) = 0.46074 -0.05783
#
# Static dielectric constant tensor:
#      x y z
#    x 4.366420 0.000000 0.081170 
#    y 0.000000 4.448760 0.000000 
#    z 0.081170 0.000000 3.969050 
# 
# 
# High freq. dielectric constant tensor:
#      x y z
#    x 1.958960 0.000000 -0.002940 
#    y 0.000000 1.991700 0.000000 
#    z -0.002940 0.000000 1.948650 
# 
# From -- ./inp_files/42474.got.cif
#   From: 2010.03.12/outbox.cif.g09.slc.cpg/sg14_22_cif.got.tgz:42474.got - 2010.03.31 13:35:05.
