data_PCOD8129220
_publ_section_title
;
Structure prediction by ZEFSAII (Michael W. Deem and Ramdas Pophale) SiO2 
 PCOD8129220
Probable space group: P 21/C
;
_chemical_formula_sum "Si O2"
_cell_formula_units_Z 28
_cell_length_a 18.401478
_cell_length_b 5.021699
_cell_length_c 14.553703
_cell_angle_alpha 90.000000
_cell_angle_beta 60.846471
_cell_angle_gamma 90.000000
_cell_volume 1174.489247
_symmetry_space_group_name_H-M "P 21/C"
_symmetry_group_IT_number 14
_symmetry_cell_setting 'monoclinic'
loop_
_space_group_symop_operation_xyz
x,y,z
-x,1/2+y,1/2-z
-x,-y,-z
x,1/2-y,1/2+z
loop_
_atom_site_type_symbol
_atom_site_label
_atom_site_fract_x
_atom_site_fract_y
_atom_site_fract_z
Si Si1 0.209981 0.935608 0.700597
Si Si2 0.397753 0.084657 0.283033
Si Si3 0.978854 0.034988 0.219061
Si Si4 0.272173 0.061436 0.057994
Si Si5 0.568949 0.417283 0.619317
Si Si6 0.048509 0.246579 0.506888
Si Si7 0.764547 0.666100 0.628365
O O1 0.256250 0.142810 0.604556
O O2 0.245979 0.951134 0.782349
O O3 0.112396 0.000743 0.766420
O O4 0.221232 0.642056 0.652404
O O5 0.411169 0.384516 0.309894
O O6 0.469247 0.047258 0.159833
O O7 0.301653 0.093431 0.308789
O O8 0.408672 0.878430 0.359520
O O9 0.979212 0.240062 0.305398
O O10 0.041365 0.224031 0.120887
O O11 0.371464 0.990437 0.003638
O O12 0.246898 0.035580 0.965647
O O13 0.144005 0.209856 0.419470
O O14 0.000000 0.500000 0.500000
O O15 0.000000 0.000000 0.500000
#
# Coordination Sequence:
#
# PCOD8129220 Si02
#       7
#     4   4   4   4   4   4   4
#     4  12  26  43  68  99 135 176 229 280 333 399
#     4   9  19  36  68  99 128 182 218 272 337 402
#     4  12  25  45  67  93 131 175 228 282 337 397
#     4  11  25  44  68 101 136 180 221 277 336 405
#     4   9  18  38  64  98 138 169 226 272 329 401
#     4  12  26  43  66  94 131 172 220 279 335 394
#     4  11  25  46  71  99 137 178 228 279 343 398
#
# _framework density 23.840150999999999
#
# number of rings (size 3 to 8) (size 9 to 14) (size 15 to 20)
#    0.000    1.143    1.429    5.143    2.000    6.857 
#    0.000    1.429    0.000    0.000    0.000    0.000 
#    0.000    0.000    0.000    0.000    0.000    0.000 
#
# Total GULP energy -346894.786634 kJ/mol
# GULP energy per Si atom -12389.099523 kJ/mol
# Density = 2.378589 g / cm^3
# Si number density = 23.840151 Si / 1000 Ang^3
#
#
#
# Elastic Constant Matrix: (Units=GPa)
#
#
# Indices 1 2 3 4 5 6 
#
# 1 99.7745 28.9162 52.0881 0.0000 -39.0478 0.0000
# 2 28.9162 104.1050 13.8425 0.0000 -4.9188 0.0000
# 3 52.0881 13.8425 92.2211 0.0000 -12.7531 0.0000
# 4 0.0000 0.0000 0.0000 27.9049 0.0000 -4.9387
# 5 -39.0478 -4.9188 -12.7531 0.0000 60.5269 0.0000
# 6 0.0000 0.0000 0.0000 -4.9387 0.0000 30.0831
#
#
#
# Elastic Compliance Matrix: (Units=1/GPa)
#
#
# Indices 1 2 3 4 5 6 
#
# 1 0.020253 -0.003871 -0.009368 0.000000 0.010777 0.000000
# 2 -0.003871 0.010556 0.000386 0.000000 -0.001558 0.000000
# 3 -0.009368 0.000386 0.015703 0.000000 -0.002703 0.000000
# 4 0.000000 0.000000 0.000000 0.036908 0.000000 0.006059
# 5 0.010777 -0.001558 -0.002703 0.000000 0.022778 0.000000
# 6 0.000000 0.000000 0.000000 0.006059 0.000000 0.034236
#
#
# Mechanical properties :
#
#
# Convention : Reuss Voigt Hill
#
# Bulk Modulus (GPa) = 48.06024 53.97715 51.01869
# Shear Modulus (GPa) = 28.88948 37.11989 33.00468
#
# Velocity S-wave (km/s) = 3.48487 3.95021 3.72481
# Velocity P-wave (km/s) = 6.03287 6.59514 6.32026
#
# Compressibility (1/GPa) = 0.02080722
#
# Stress axis : x y z
#
# Youngs Moduli (GPa) = 49.37621 94.73459 63.68322
#
# Poissons Ratio (x) = 0.36668 0.59657
# Poissons Ratio (y) = 0.19111 -0.02460
# Poissons Ratio (z) = 0.46254 -0.03660
#
# Static dielectric constant tensor:
#      x y z
#    x 4.622370 0.000000 -0.441560 
#    y 0.000000 3.996640 0.000000 
#    z -0.441560 0.000000 5.241800 
# 
# 
# High freq. dielectric constant tensor:
#      x y z
#    x 1.932770 0.000000 -0.030580 
#    y 0.000000 1.950310 0.000000 
#    z -0.030580 0.000000 1.949720 
# 
# From -- ./inp_files/47903.got.cif
#   From: 2010.03.12/outbox.cif.g09.slc.cpg/sg14_24_cif.got.tgz:47903.got - 2010.03.31 13:35:05.
