data_PCOD8129404
_publ_section_title
;
Structure prediction by ZEFSAII (Michael W. Deem and Ramdas Pophale) SiO2 
 PCOD8129404
Probable space group: P 21/C
;
_chemical_formula_sum "Si O2"
_cell_formula_units_Z 24
_cell_length_a 14.196612
_cell_length_b 8.502472
_cell_length_c 14.408075
_cell_angle_alpha 90.000000
_cell_angle_beta 39.661448
_cell_angle_gamma 90.000000
_cell_volume 1110.009487
_symmetry_space_group_name_H-M "P 21/C"
_symmetry_group_IT_number 14
_symmetry_cell_setting 'monoclinic'
loop_
_space_group_symop_operation_xyz
x,y,z
-x,1/2+y,1/2-z
-x,-y,-z
x,1/2-y,1/2+z
loop_
_atom_site_type_symbol
_atom_site_label
_atom_site_fract_x
_atom_site_fract_y
_atom_site_fract_z
Si Si1 0.568827 0.836404 0.978240
Si Si2 0.790561 0.669325 0.683796
Si Si3 0.685741 0.388918 0.063597
Si Si4 0.721043 0.341233 0.827943
Si Si5 0.390343 0.251132 0.850104
Si Si6 0.917209 0.162240 0.548144
O O1 0.708374 0.800398 0.808002
O O2 0.450994 0.696314 0.056317
O O3 0.619137 0.845654 0.046891
O O4 0.500000 0.000000 0.000000
O O5 0.756551 0.496026 0.743506
O O6 0.739924 0.685931 0.615707
O O7 0.964947 0.699384 0.558279
O O8 0.628887 0.565124 0.117776
O O9 0.548374 0.271538 0.181017
O O10 0.811704 0.346273 0.040224
O O11 0.756486 0.364999 0.908891
O O12 0.821009 0.199512 0.712728
O O13 0.000000 0.000000 0.500000
#
# Coordination Sequence:
#
# PCOD8129404 Si02
#       6
#     4   4   4   4   4   4
#     4  12  24  43  73 112 139 189 246 301 356 436
#     4  12  25  46  74 107 148 187 242 308 363 432
#     4  12  26  46  76 107 146 191 248 294 371 440
#     4  12  26  46  72 108 145 190 245 304 360 437
#     4  12  24  44  76 105 141 192 241 296 360 433
#     4  12  27  49  71 107 151 190 239 307 375 433
#
# _framework density 21.621438000000001
#
# number of rings (size 3 to 8) (size 9 to 14) (size 15 to 20)
#    0.000    0.000    6.667    4.000    0.000    2.667 
#    0.000    0.000    0.000    0.000    0.000    0.000 
#    0.000    0.000    0.000    0.000    0.000    0.000 
#
# Total GULP energy -297826.725082 kJ/mol
# GULP energy per Si atom -12409.446878 kJ/mol
# Density = 2.157223 g / cm^3
# Si number density = 21.621438 Si / 1000 Ang^3
#
#
#
# Elastic Constant Matrix: (Units=GPa)
#
#
# Indices 1 2 3 4 5 6 
#
# 1 140.0372 67.0332 72.5899 0.0000 13.9432 0.0000
# 2 67.0332 99.9149 30.4181 0.0000 17.8630 0.0000
# 3 72.5899 30.4181 103.9478 0.0000 18.7100 0.0000
# 4 0.0000 0.0000 0.0000 38.1472 0.0000 -0.5452
# 5 13.9432 17.8630 18.7100 0.0000 45.7558 0.0000
# 6 0.0000 0.0000 0.0000 -0.5452 0.0000 36.4956
#
#
#
# Elastic Compliance Matrix: (Units=1/GPa)
#
#
# Indices 1 2 3 4 5 6 
#
# 1 0.015243 -0.007942 -0.008682 0.000000 0.002006 0.000000
# 2 -0.007942 0.015581 0.001777 0.000000 -0.004389 0.000000
# 3 -0.008682 0.001777 0.015988 0.000000 -0.004586 0.000000
# 4 0.000000 0.000000 0.000000 0.026220 0.000000 0.000392
# 5 0.002006 -0.004389 -0.004586 0.000000 0.024833 0.000000
# 6 0.000000 0.000000 0.000000 0.000392 0.000000 0.027406
#
#
# Mechanical properties :
#
#
# Convention : Reuss Voigt Hill
#
# Bulk Modulus (GPa) = 58.41686 75.99805 67.20746
# Shear Modulus (GPa) = 31.11931 35.67029 33.39480
#
# Velocity S-wave (km/s) = 3.79790 4.06614 3.93430
# Velocity P-wave (km/s) = 6.80505 7.56772 7.19649
#
# Compressibility (1/GPa) = 0.01711835
#
# Stress axis : x y z
#
# Youngs Moduli (GPa) = 65.60203 64.18177 62.54524
#
# Poissons Ratio (x) = 0.50975 0.54301
# Poissons Ratio (y) = 0.52103 -0.11114
# Poissons Ratio (z) = 0.56954 -0.11405
#
# Static dielectric constant tensor:
#      x y z
#    x 4.413730 0.000000 0.067890 
#    y 0.000000 3.984350 0.000000 
#    z 0.067890 0.000000 4.320400 
# 
# 
# High freq. dielectric constant tensor:
#      x y z
#    x 1.857170 0.000000 0.006930 
#    y 0.000000 1.861710 0.000000 
#    z 0.006930 0.000000 1.857180 
# 
# From -- ./inp_files/46355.got.cif
#   From: 2010.03.12/outbox.cif.g09.slc.cpg/sg14_24_cif.got.tgz:46355.got - 2010.03.31 13:35:05.
