data_PCOD8129421
_publ_section_title
;
Structure prediction by ZEFSAII (Michael W. Deem and Ramdas Pophale) SiO2 
 PCOD8129421
Probable space group: P 21/C
;
_chemical_formula_sum "Si O2"
_cell_formula_units_Z 28
_cell_length_a 11.411275
_cell_length_b 9.035649
_cell_length_c 14.877230
_cell_angle_alpha 90.000000
_cell_angle_beta 58.356562
_cell_angle_gamma 90.000000
_cell_volume 1305.910011
_symmetry_space_group_name_H-M "P 21/C"
_symmetry_group_IT_number 14
_symmetry_cell_setting 'monoclinic'
loop_
_space_group_symop_operation_xyz
x,y,z
-x,1/2+y,1/2-z
-x,-y,-z
x,1/2-y,1/2+z
loop_
_atom_site_type_symbol
_atom_site_label
_atom_site_fract_x
_atom_site_fract_y
_atom_site_fract_z
Si Si1 0.856890 0.757955 0.558142
Si Si2 0.571629 0.574377 0.888510
Si Si3 0.849055 0.984690 0.909630
Si Si4 0.601624 0.577997 0.389582
Si Si5 0.836311 0.274491 0.560030
Si Si6 0.847787 0.982207 0.205738
Si Si7 0.639782 0.488565 0.173516
O O1 0.839118 0.657370 0.477634
O O2 0.820865 0.668761 0.662509
O O3 0.016235 0.810662 0.503413
O O4 0.747946 0.889612 0.595761
O O5 0.564559 0.750345 0.899458
O O6 0.728528 0.513808 0.828058
O O7 0.500203 0.512125 0.827168
O O8 0.500000 0.500000 0.000000
O O9 0.002298 0.012289 0.808426
O O10 0.755921 0.953746 0.860986
O O11 0.806012 0.132103 0.981710
O O12 0.500000 0.500000 0.500000
O O13 0.590796 0.506443 0.295524
O O14 0.842772 0.382132 0.641024
O O15 0.710232 0.167680 0.627614
#
# Coordination Sequence:
#
# PCOD8129421 Si02
#       7
#     4   4   4   4   4   4   4
#     4   9  18  41  69  96 129 171 222 272 332 395
#     4  12  28  45  67  97 135 181 229 276 332 400
#     4   9  20  45  71  92 129 176 219 275 330 403
#     4  12  28  45  65 100 136 179 226 276 336 399
#     4   9  20  39  70  99 127 172 220 273 337 400
#     4   9  20  42  69  94 129 178 221 268 339 391
#     4  12  25  41  67  98 135 174 215 283 334 394
#
# _framework density 21.440988000000001
#
# number of rings (size 3 to 8) (size 9 to 14) (size 15 to 20)
#    0.000    1.714    1.429    3.857    8.000    0.000 
#   10.286    0.000    0.000    0.000    0.000    0.000 
#    0.000    0.000    0.000    0.000    0.000    0.000 
#
# Total GULP energy -347185.493934 kJ/mol
# GULP energy per Si atom -12399.481926 kJ/mol
# Density = 2.139219 g / cm^3
# Si number density = 21.440988 Si / 1000 Ang^3
#
#
#
# Elastic Constant Matrix: (Units=GPa)
#
#
# Indices 1 2 3 4 5 6 
#
# 1 125.0154 43.0067 63.3063 0.0000 7.4080 0.0000
# 2 43.0067 88.6877 40.9189 0.0000 -0.6178 0.0000
# 3 63.3063 40.9189 150.8589 0.0000 -9.8560 0.0000
# 4 0.0000 0.0000 0.0000 12.7941 0.0000 -9.6020
# 5 7.4080 -0.6178 -9.8560 0.0000 36.8479 0.0000
# 6 0.0000 0.0000 0.0000 -9.6020 0.0000 33.5494
#
#
#
# Elastic Compliance Matrix: (Units=1/GPa)
#
#
# Indices 1 2 3 4 5 6 
#
# 1 0.011549 -0.003754 -0.004055 0.000000 -0.003470 0.000000
# 2 -0.003754 0.014128 -0.002231 0.000000 0.000395 0.000000
# 3 -0.004055 -0.002231 0.009146 0.000000 0.003224 0.000000
# 4 0.000000 0.000000 0.000000 0.099542 0.000000 0.028489
# 5 -0.003470 0.000395 0.003224 0.000000 0.028705 0.000000
# 6 0.000000 0.000000 0.000000 0.028489 0.000000 0.037961
#
#
# Mechanical properties :
#
#
# Convention : Reuss Voigt Hill
#
# Bulk Modulus (GPa) = 67.82554 73.22509 70.52531
# Shear Modulus (GPa) = 22.12138 31.12694 26.62416
#
# Velocity S-wave (km/s) = 3.21555 3.81432 3.52766
# Velocity P-wave (km/s) = 6.74452 7.32289 7.03965
#
# Compressibility (1/GPa) = 0.01474371
#
# Stress axis : x y z
#
# Youngs Moduli (GPa) = 86.58457 70.78179 109.33546
#
# Poissons Ratio (x) = 0.26570 0.44336
# Poissons Ratio (y) = 0.32502 0.24393
# Poissons Ratio (z) = 0.35111 0.15792
#
# Static dielectric constant tensor:
#      x y z
#    x 3.652300 0.000000 -0.012340 
#    y 0.000000 3.751220 0.000000 
#    z -0.012340 0.000000 3.717210 
# 
# 
# High freq. dielectric constant tensor:
#      x y z
#    x 1.850040 0.000000 -0.016950 
#    y 0.000000 1.841790 0.000000 
#    z -0.016950 0.000000 1.840040 
# 
# From -- ./inp_files/43616.got.cif
#   From: 2010.03.12/outbox.cif.g09.slc.cpg/sg14_22_cif.got.tgz:43616.got - 2010.03.31 13:35:05.
