data_PCOD8129975
_publ_section_title
;
Structure prediction by ZEFSAII (Michael W. Deem and Ramdas Pophale) SiO2 
 PCOD8129975
Probable space group: C 2/C
;
_chemical_formula_sum "Si O2"
_cell_formula_units_Z 44
_cell_length_a 14.435859
_cell_length_b 12.073099
_cell_length_c 20.407120
_cell_angle_alpha 90.000000
_cell_angle_beta 141.140262
_cell_angle_gamma 90.000000
_cell_volume 2231.509399
_symmetry_space_group_name_H-M "C 2/C"
_symmetry_group_IT_number 15
_symmetry_cell_setting 'monoclinic'
loop_
_space_group_symop_operation_xyz
x,y,z
-x,y,1/2-z
-x,-y,-z
x,-y,1/2+z
1/2+x,1/2+y,z
1/2-x,1/2+y,1/2-z
1/2-x,1/2-y,-z
1/2+x,1/2-y,1/2+z
loop_
_atom_site_type_symbol
_atom_site_label
_atom_site_fract_x
_atom_site_fract_y
_atom_site_fract_z
Si Si1 0.780138 0.472924 0.075827
Si Si2 0.000000 0.303875 0.250000
Si Si3 0.025238 0.548543 0.113168
Si Si4 0.903620 0.338856 0.423628
Si Si5 0.410567 0.702684 0.073041
Si Si6 0.344324 0.170248 0.196697
O O1 0.753620 0.587877 0.098870
O O2 0.856513 0.383644 0.167237
O O3 0.889911 0.488906 0.075167
O O4 0.621814 0.426807 0.962376
O O5 0.987055 0.223695 0.306683
O O6 0.117606 0.454172 0.126396
O O7 0.135308 0.609972 0.222844
O O8 0.964516 0.639740 0.029689
O O9 0.744080 0.282757 0.341678
O O10 0.017752 0.258109 0.450676
O O11 0.250000 0.750000 0.000000
O O12 0.500000 0.200816 0.250000
#
# Coordination Sequence:
#
# PCOD8129975 Si02
#       6
#     8   4   8   8   8   8
#     4  10  18  38  60  84 116 161 194 234 300 347
#     4  10  16  34  60  84 116 160 200 232 296 346
#     4  10  21  40  61  83 118 155 192 236 298 357
#     4  11  22  38  60  90 115 152 196 244 292 344
#     4  10  20  34  60  88 115 151 198 246 287 343
#     4  10  22  40  62  82 118 161 192 237 293 359
#
# _framework density 19.717593999999998
#
# number of rings (size 3 to 8) (size 9 to 14) (size 15 to 20)
#    0.000    1.818    6.364    0.000    0.000    8.000 
#    0.000    1.818    0.000    0.000    0.000    0.000 
#    0.000    0.000    0.000    0.000    0.000    0.000 
#
# Total GULP energy -272753.944408 kJ/mol
# GULP energy per Si atom -12397.906564 kJ/mol
# Density = 1.967272 g / cm^3
# Si number density = 19.717594 Si / 1000 Ang^3
#
#
#
# Elastic Constant Matrix: (Units=GPa)
#
#
# Indices 1 2 3 4 5 6 
#
# 1 91.0535 53.5663 57.1869 0.0000 -10.3831 0.0000
# 2 53.5663 103.8171 60.7960 0.0001 0.6664 0.0000
# 3 57.1869 60.7960 75.6437 0.0004 -18.0335 0.0002
# 4 0.0000 0.0001 0.0004 32.0975 0.0002 12.0570
# 5 -10.3831 0.6664 -18.0335 0.0002 26.5266 0.0000
# 6 0.0000 0.0000 0.0002 12.0570 0.0000 25.2417
#
#
#
# Elastic Compliance Matrix: (Units=1/GPa)
#
#
# Indices 1 2 3 4 5 6 
#
# 1 0.021416 -0.002586 -0.014438 0.000000 -0.001368 0.000000
# 2 -0.002586 0.022727 -0.019916 0.000000 -0.015122 0.000000
# 3 -0.014438 -0.019916 0.046440 -0.000001 0.026420 0.000000
# 4 0.000000 0.000000 -0.000001 0.037967 -0.000001 -0.018136
# 5 -0.001368 -0.015122 0.026420 -0.000001 0.055504 0.000000
# 6 0.000000 0.000000 0.000000 -0.018136 0.000000 0.048280
#
#
# Mechanical properties :
#
#
# Convention : Reuss Voigt Hill
#
# Bulk Modulus (GPa) = 59.86995 68.17918 64.02457
# Shear Modulus (GPa) = 16.03689 23.37083 19.70386
#
# Velocity S-wave (km/s) = 2.85499 3.44652 3.16461
# Velocity P-wave (km/s) = 6.42632 7.10570 6.77453
#
# Compressibility (1/GPa) = 0.01670287
#
# Stress axis : x y z
#
# Youngs Moduli (GPa) = 46.69419 44.00142 21.53302
#
# Poissons Ratio (x) = 0.11379 0.31090
# Poissons Ratio (y) = 0.12076 0.42885
# Poissons Ratio (z) = 0.67418 0.87632
#
# Static dielectric constant tensor:
#      x y z
#    x 3.558190 0.000000 -0.294810 
#    y 0.000000 3.765240 0.000000 
#    z -0.294810 0.000000 3.869600 
# 
# 
# High freq. dielectric constant tensor:
#      x y z
#    x 1.762330 0.000000 -0.025470 
#    y 0.000000 1.764070 0.000000 
#    z -0.025470 0.000000 1.755840 
# 
# From -- ./inp_files/181620.got.cif
#   From: 2010.06.25/outbox.cif.g09.slc.cpg/sg15_91_cif.got.tgz:181620.got - 2010.06.28 07:06:18.
