data_PCOD8129870
_publ_section_title
;
Structure prediction by ZEFSAII (Michael W. Deem and Ramdas Pophale) SiO2 
 PCOD8129870
Probable space group: C 2/C
;
_chemical_formula_sum "Si O2"
_cell_formula_units_Z 44
_cell_length_a 16.614003
_cell_length_b 28.041611
_cell_length_c 5.261045
_cell_angle_alpha 90.000000
_cell_angle_beta 121.038386
_cell_angle_gamma 90.000000
_cell_volume 2100.099623
_symmetry_space_group_name_H-M "C 2/C"
_symmetry_group_IT_number 15
_symmetry_cell_setting 'monoclinic'
loop_
_space_group_symop_operation_xyz
x,y,z
-x,y,1/2-z
-x,-y,-z
x,-y,1/2+z
1/2+x,1/2+y,z
1/2-x,1/2+y,1/2-z
1/2-x,1/2-y,-z
1/2+x,1/2-y,1/2+z
loop_
_atom_site_type_symbol
_atom_site_label
_atom_site_fract_x
_atom_site_fract_y
_atom_site_fract_z
Si Si1 0.539703 0.053251 0.563733
Si Si2 0.000000 0.181357 0.250000
Si Si3 0.314614 0.632946 0.979207
Si Si4 0.092610 0.745429 0.273446
Si Si5 0.245909 0.030473 0.595239
Si Si6 0.245556 0.183853 0.140997
O O1 0.500000 0.079959 0.750000
O O2 0.650671 0.052402 0.732253
O O3 0.500000 0.000000 0.500000
O O4 0.500000 0.080439 0.250000
O O5 0.919132 0.147983 0.232682
O O6 0.048171 0.213248 0.536635
O O7 0.247754 0.650115 0.101518
O O8 0.320694 0.575819 0.976311
O O9 0.279560 0.654508 0.654624
O O10 0.170407 0.773083 0.575195
O O11 0.149253 0.705314 0.211396
O O12 0.000000 0.721292 0.250000
O O13 0.226944 0.005604 0.294890
#
# Coordination Sequence:
#
# PCOD8129870 Si02
#       6
#     8   4   8   8   8   8
#     4  10  16  31  55  78 100 140 199 233 291 374
#     4  10  22  40  68  86 126 174 204 246 322 384
#     4  11  24  42  60  95 126 161 213 268 305 368
#     4  10  20  37  68  90 123 172 208 238 316 396
#     4  12  22  38  63  86 118 165 209 256 313 362
#     4  10  23  39  62  94 128 159 209 261 303 368
#
# _framework density 20.951388000000001
#
# number of rings (size 3 to 8) (size 9 to 14) (size 15 to 20)
#    0.000    1.455    5.455    1.091    2.545    2.182 
#    0.000    3.636    0.000    0.000    0.000    0.000 
#    0.000    0.000    0.000    0.000    0.000    0.000 
#
# Total GULP energy -272650.930255 kJ/mol
# GULP energy per Si atom -12393.224102 kJ/mol
# Density = 2.090370 g / cm^3
# Si number density = 20.951388 Si / 1000 Ang^3
#
#
#
# Elastic Constant Matrix: (Units=GPa)
#
#
# Indices 1 2 3 4 5 6 
#
# 1 129.8532 48.7993 46.5224 0.0000 2.3217 0.0000
# 2 48.7993 82.0729 23.3732 0.0000 6.0127 0.0000
# 3 46.5224 23.3732 80.4095 0.0000 -18.6940 0.0000
# 4 0.0000 0.0000 0.0000 -7.2279 0.0000 21.2016
# 5 2.3217 6.0127 -18.6940 0.0000 45.6967 0.0000
# 6 0.0000 0.0000 0.0000 21.2016 0.0000 11.9274
#
#
#
# Elastic Compliance Matrix: (Units=1/GPa)
#
#
# Indices 1 2 3 4 5 6 
#
# 1 0.011781 -0.005169 -0.005851 0.000000 -0.002312 0.000000
# 2 -0.005169 0.016136 -0.002356 0.000000 -0.002824 0.000000
# 3 -0.005851 -0.002356 0.018397 0.000000 0.008133 0.000000
# 4 0.000000 0.000000 0.000000 -0.022264 0.000000 0.039576
# 5 -0.002312 -0.002824 0.008133 0.000000 0.025700 0.000000
# 6 0.000000 0.000000 0.000000 0.039576 0.000000 0.013492
#
#
# Mechanical properties :
#
#
# Convention : Reuss Voigt Hill
#
# Bulk Modulus (GPa) = 51.12142 58.85836 54.98989
# Shear Modulus (GPa) = 51.80506 21.65528 36.73017
#
# Velocity S-wave (km/s) = 4.97795 3.21845 4.19156
# Velocity P-wave (km/s) = 7.58241 6.47804 7.05188
#
# Compressibility (1/GPa) = 0.01956127
#
# Stress axis : x y z
#
# Youngs Moduli (GPa) = 84.88054 61.97413 54.35538
#
# Poissons Ratio (x) = 0.32036 0.31804
# Poissons Ratio (y) = 0.43877 0.12807
# Poissons Ratio (z) = 0.49665 0.14602
#
# Static dielectric constant tensor:
#      x y z
#    x 4.476100 0.000000 0.330740 
#    y 0.000000 3.405310 0.000000 
#    z 0.330740 0.000000 3.369530 
# 
# 
# High freq. dielectric constant tensor:
#      x y z
#    x 1.828000 0.000000 -0.006700 
#    y 0.000000 1.792010 0.000000 
#    z -0.006700 0.000000 1.820380 
# 
# From -- ./inp_files/8309.got.cif
#   From: 2010.06.25/outbox.cif.g09.slc.cpg/sg15_5_cif.got.tgz:8309.got - 2010.06.28 07:06:18.
