data_PCOD8129180
_publ_section_title
;
Structure prediction by ZEFSAII (Michael W. Deem and Ramdas Pophale) SiO2 
 PCOD8129180
Probable space group: P 21/C
;
_chemical_formula_sum "Si O2"
_cell_formula_units_Z 20
_cell_length_a 9.089793
_cell_length_b 8.756307
_cell_length_c 11.176539
_cell_angle_alpha 90.000000
_cell_angle_beta 88.873409
_cell_angle_gamma 90.000000
_cell_volume 889.402511
_symmetry_space_group_name_H-M "P 21/C"
_symmetry_group_IT_number 14
_symmetry_cell_setting 'monoclinic'
loop_
_space_group_symop_operation_xyz
x,y,z
-x,1/2+y,1/2-z
-x,-y,-z
x,1/2-y,1/2+z
loop_
_atom_site_type_symbol
_atom_site_label
_atom_site_fract_x
_atom_site_fract_y
_atom_site_fract_z
Si Si1 0.173495 0.291505 0.210773
Si Si2 0.571736 0.584584 0.322925
Si Si3 0.069221 0.937153 0.880660
Si Si4 0.381604 0.512241 0.104504
Si Si5 0.339934 0.823023 0.004889
O O1 0.308714 0.183578 0.254311
O O2 0.112954 0.414343 0.304332
O O3 0.249513 0.387408 0.100377
O O4 0.040412 0.181128 0.179840
O O5 0.459541 0.503608 0.233466
O O6 0.656826 0.460206 0.400499
O O7 0.487722 0.691535 0.421663
O O8 0.213417 0.842162 0.909127
O O9 0.000000 0.000000 0.000000
O O10 0.500000 0.500000 0.000000
O O11 0.306570 0.676279 0.086330
#
# Coordination Sequence:
#
# PCOD8129180 Si02
#       5
#     4   4   4   4   4
#     4  12  28  49  74 108 151 200 251 312 372 456
#     4  11  24  47  76 108 149 191 256 311 374 441
#     4  12  29  51  71 108 156 203 247 308 383 450
#     4  12  26  43  77 113 142 193 251 311 376 447
#     4  11  25  46  75 107 152 197 242 322 373 441
#
# _framework density 22.487005
#
# number of rings (size 3 to 8) (size 9 to 14) (size 15 to 20)
#    0.000    0.400    6.000    1.200    8.400    2.400 
#    0.000    0.000    0.000    0.000    0.000    0.000 
#    0.000    0.000    0.000    0.000    0.000    0.000 
#
# Total GULP energy -247896.466832 kJ/mol
# GULP energy per Si atom -12394.823342 kJ/mol
# Density = 2.243582 g / cm^3
# Si number density = 22.487005 Si / 1000 Ang^3
#
#
#
# Elastic Constant Matrix: (Units=GPa)
#
#
# Indices 1 2 3 4 5 6 
#
# 1 127.8313 76.7476 45.0891 0.0000 -4.6279 0.0000
# 2 76.7476 94.1319 31.1152 0.0000 2.7832 0.0000
# 3 45.0891 31.1152 88.4909 0.0000 -5.6510 0.0000
# 4 0.0000 0.0000 0.0000 37.3464 0.0000 -13.7287
# 5 -4.6279 2.7832 -5.6510 0.0000 45.5826 0.0000
# 6 0.0000 0.0000 0.0000 -13.7287 0.0000 56.5974
#
#
#
# Elastic Compliance Matrix: (Units=1/GPa)
#
#
# Indices 1 2 3 4 5 6 
#
# 1 0.016758 -0.012378 -0.004061 0.000000 0.001954 0.000000
# 2 -0.012378 0.021237 -0.001334 0.000000 -0.002719 0.000000
# 3 -0.004061 -0.001334 0.013928 0.000000 0.001396 0.000000
# 4 0.000000 0.000000 0.000000 0.029398 0.000000 0.007131
# 5 0.001954 -0.002719 0.001396 0.000000 0.022476 0.000000
# 6 0.000000 0.000000 0.000000 0.007131 0.000000 0.019398
#
#
# Mechanical properties :
#
#
# Convention : Reuss Voigt Hill
#
# Bulk Modulus (GPa) = 61.06553 68.48422 64.77487
# Shear Modulus (GPa) = 30.45067 38.40543 34.42805
#
# Velocity S-wave (km/s) = 3.68386 4.13715 3.91707
# Velocity P-wave (km/s) = 6.73122 7.30359 7.02324
#
# Compressibility (1/GPa) = 0.01637585
#
# Stress axis : x y z
#
# Youngs Moduli (GPa) = 59.67386 47.08796 71.79682
#
# Poissons Ratio (x) = 0.58286 0.29160
# Poissons Ratio (y) = 0.73865 0.09576
# Poissons Ratio (z) = 0.24236 0.06281
#
# Static dielectric constant tensor:
#      x y z
#    x 4.891390 0.000000 0.259390 
#    y 0.000000 4.482130 0.000000 
#    z 0.259390 0.000000 4.153460 
# 
# 
# High freq. dielectric constant tensor:
#      x y z
#    x 1.896920 0.000000 -0.011530 
#    y 0.000000 1.909020 0.000000 
#    z -0.011530 0.000000 1.871960 
# 
# From -- ./inp_files/23001.got.cif
#   From: 2010.03.12/outbox.cif.g09.slc.cpg/sg14_12_cif.got.tgz:23001.got - 2010.03.31 13:35:05.
