data_PCOD8129704
_publ_section_title
;
Structure prediction by ZEFSAII (Michael W. Deem and Ramdas Pophale) SiO2 
 PCOD8129704
Probable space group: C 2/C
;
_chemical_formula_sum "Si O2"
_cell_formula_units_Z 60
_cell_length_a 25.882345
_cell_length_b 26.227737
_cell_length_c 9.881818
_cell_angle_alpha 90.000000
_cell_angle_beta 147.519760
_cell_angle_gamma 90.000000
_cell_volume 3602.322766
_symmetry_space_group_name_H-M "C 2/C"
_symmetry_group_IT_number 15
_symmetry_cell_setting 'monoclinic'
loop_
_space_group_symop_operation_xyz
x,y,z
-x,y,1/2-z
-x,-y,-z
x,-y,1/2+z
1/2+x,1/2+y,z
1/2-x,1/2+y,1/2-z
1/2-x,1/2-y,-z
1/2+x,1/2-y,1/2+z
loop_
_atom_site_type_symbol
_atom_site_label
_atom_site_fract_x
_atom_site_fract_y
_atom_site_fract_z
Si Si1 0.000000 0.701216 0.750000
Si Si2 0.817512 0.658360 0.975976
Si Si3 0.060035 0.562353 0.247492
Si Si4 0.799982 0.802598 0.058615
Si Si5 0.526791 0.761762 0.590722
Si Si6 0.572270 0.051543 0.786970
Si Si7 0.178824 0.352990 0.568844
Si Si8 0.325455 0.208308 0.710792
O O1 0.013074 0.736827 0.649692
O O2 0.908814 0.665017 0.530920
O O3 0.849004 0.599753 0.040863
O O4 0.907263 0.689839 0.232334
O O5 0.723164 0.660263 0.865888
O O6 0.789494 0.680819 0.767620
O O7 0.104587 0.505932 0.320693
O O8 0.000000 0.567025 0.250000
O O9 0.986459 0.577509 0.965539
O O10 0.911456 0.790698 0.268446
O O11 0.750000 0.750000 0.000000
O O12 0.768905 0.829872 0.849263
O O13 0.430263 0.764728 0.470417
O O14 0.500000 0.047594 0.750000
O O15 0.667421 0.085391 0.033223
O O16 0.170685 0.333325 0.398203
O O17 0.250000 0.250000 0.500000
#
# Coordination Sequence:
#
# PCOD8129704 Si02
#       8
#     4   8   8   8   8   8   8   8
#     4  10  16  26  48  64  86 124 158 192 220 276
#     4  11  19  32  47  70  97 130 157 194 238 284
#     4  10  19  31  44  67 100 129 161 198 240 282
#     4  10  19  32  48  67  93 125 168 196 232 278
#     4  10  20  31  48  65  94 128 158 198 234 286
#     4  10  19  29  47  69  92 129 169 197 228 286
#     4  11  18  31  47  67  95 126 168 193 234 289
#     4  11  23  32  48  69  97 126 162 197 248 293
#
# _framework density 16.655919999999998
#
# number of rings (size 3 to 8) (size 9 to 14) (size 15 to 20)
#    0.000    1.600    3.333    6.000    1.867    0.000 
#    0.000    0.000    0.000    0.000    0.000    0.000 
#    0.000    6.400    0.000    0.000    0.000    0.000 
#
# Total GULP energy -371683.707401 kJ/mol
# GULP energy per Si atom -12389.456913 kJ/mol
# Density = 1.661801 g / cm^3
# Si number density = 16.655920 Si / 1000 Ang^3
#
#
#
# Elastic Constant Matrix: (Units=GPa)
#
#
# Indices 1 2 3 4 5 6 
#
# 1 60.1289 18.1835 24.3103 0.0000 -6.6192 0.0000
# 2 18.1835 97.8627 38.1493 0.0000 3.8038 0.0000
# 3 24.3103 38.1493 65.0320 0.0000 -9.1614 0.0000
# 4 0.0000 0.0000 0.0000 27.8010 0.0000 1.9640
# 5 -6.6192 3.8038 -9.1614 0.0000 30.2357 0.0000
# 6 0.0000 0.0000 0.0000 1.9640 0.0000 26.1968
#
#
#
# Elastic Compliance Matrix: (Units=1/GPa)
#
#
# Indices 1 2 3 4 5 6 
#
# 1 0.019860 -0.001351 -0.006263 0.000000 0.002620 0.000000
# 2 -0.001351 0.013871 -0.008273 0.000000 -0.004547 0.000000
# 3 -0.006263 -0.008273 0.023529 0.000000 0.006799 0.000000
# 4 0.000000 0.000000 0.000000 0.036161 0.000000 -0.002711
# 5 0.002620 -0.004547 0.006799 0.000000 0.036279 0.000000
# 6 0.000000 0.000000 0.000000 -0.002711 0.000000 0.038376
#
#
# Mechanical properties :
#
#
# Convention : Reuss Voigt Hill
#
# Bulk Modulus (GPa) = 39.23448 42.70110 40.96779
# Shear Modulus (GPa) = 23.99874 26.33874 25.16874
#
# Velocity S-wave (km/s) = 3.79998 3.98093 3.89150
# Velocity P-wave (km/s) = 6.54676 6.84275 6.69639
#
# Compressibility (1/GPa) = 0.02548779
#
# Stress axis : x y z
#
# Youngs Moduli (GPa) = 50.35295 72.09268 42.50078
#
# Poissons Ratio (x) = 0.09737 0.26617
# Poissons Ratio (y) = 0.06801 0.35160
# Poissons Ratio (z) = 0.31534 0.59641
#
# Static dielectric constant tensor:
#      x y z
#    x 3.414480 0.000000 -0.192290 
#    y 0.000000 3.267500 0.000000 
#    z -0.192290 0.000000 3.146670 
# 
# 
# High freq. dielectric constant tensor:
#      x y z
#    x 1.643250 0.000000 -0.035290 
#    y 0.000000 1.619500 0.000000 
#    z -0.035290 0.000000 1.621790 
# 
# From -- ./inp_files/64170.got.cif
#   From: 2010.06.25/outbox.cif.g09.slc.cpg/sg15_33_cif.got.tgz:64170.got - 2010.06.28 07:06:18.
