data_PCOD8129615
_publ_section_title
;
Structure prediction by ZEFSAII (Michael W. Deem and Ramdas Pophale) SiO2 
 PCOD8129615
Probable space group: C 2/C
;
_chemical_formula_sum "Si O2"
_cell_formula_units_Z 48
_cell_length_a 31.363266
_cell_length_b 10.699229
_cell_length_c 5.191573
_cell_angle_alpha 90.000000
_cell_angle_beta 79.724191
_cell_angle_gamma 90.000000
_cell_volume 1714.156101
_symmetry_space_group_name_H-M "C 2/C"
_symmetry_group_IT_number 15
_symmetry_cell_setting 'monoclinic'
loop_
_space_group_symop_operation_xyz
x,y,z
-x,y,1/2-z
-x,-y,-z
x,-y,1/2+z
1/2+x,1/2+y,z
1/2-x,1/2+y,1/2-z
1/2-x,1/2-y,-z
1/2+x,1/2-y,1/2+z
loop_
_atom_site_type_symbol
_atom_site_label
_atom_site_fract_x
_atom_site_fract_y
_atom_site_fract_z
Si Si1 0.474468 0.343438 0.025555
Si Si2 0.337381 0.647104 0.142628
Si Si3 0.559495 0.081089 0.483287
Si Si4 0.375906 0.628669 0.598892
Si Si5 0.244640 0.419635 0.811373
Si Si6 0.654096 0.078905 0.286229
O O1 0.500000 0.388622 0.250000
O O2 0.473996 0.193214 0.016025
O O3 0.426351 0.401697 0.081413
O O4 0.500000 0.395871 0.750000
O O5 0.364646 0.705431 0.349978
O O6 0.349707 0.500809 0.092087
O O7 0.286033 0.670844 0.226440
O O8 0.355305 0.710897 0.858989
O O9 0.607563 0.144177 0.403913
O O10 0.551918 0.022416 0.772456
O O11 0.247234 0.531435 0.600478
O O12 0.198907 0.346961 0.811016
O O13 0.654925 0.959292 0.483770
#
# Coordination Sequence:
#
# PCOD8129615 Si02
#       6
#     8   8   8   8   8   8
#     4  12  26  42  59  82 110 144 186 240 292 334
#     4  10  17  33  55  81 110 154 189 217 255 326
#     4  10  21  40  62  85 108 142 181 231 291 338
#     4  10  20  35  54  80 113 146 189 225 277 316
#     4  10  14  25  48  83 110 139 190 214 251 311
#     4   8  16  27  49  81 109 138 172 223 263 322
#
# _framework density 28.002113999999999
#
# number of rings (size 3 to 8) (size 9 to 14) (size 15 to 20)
#    0.000    2.000    3.333    2.000    0.000    2.000 
#    0.000   10.000    0.000    2.000    0.000    0.000 
#    0.000    0.000    0.000    0.000    0.000    0.000 
#
# Total GULP energy -297497.664430 kJ/mol
# GULP energy per Si atom -12395.736018 kJ/mol
# Density = 2.793838 g / cm^3
# Si number density = 28.002114 Si / 1000 Ang^3
#
#
#
# Elastic Constant Matrix: (Units=GPa)
#
#
# Indices 1 2 3 4 5 6 
#
# 1 164.6270 10.0189 36.6156 0.0000 8.2613 0.0000
# 2 10.0189 55.3477 1.7962 0.0000 0.4089 0.0000
# 3 36.6156 1.7962 196.9890 0.0000 27.8596 0.0000
# 4 0.0000 0.0000 0.0000 62.9339 0.0000 9.1594
# 5 8.2613 0.4089 27.8596 0.0000 46.6809 0.0000
# 6 0.0000 0.0000 0.0000 9.1594 0.0000 43.0506
#
#
#
# Elastic Compliance Matrix: (Units=1/GPa)
#
#
# Indices 1 2 3 4 5 6 
#
# 1 0.006414 -0.001121 -0.001117 0.000000 -0.000459 0.000000
# 2 -0.001121 0.018269 0.000040 0.000000 0.000015 0.000000
# 3 -0.001117 0.000040 0.005740 0.000000 -0.003229 0.000000
# 4 0.000000 0.000000 0.000000 0.016397 0.000000 -0.003489
# 5 -0.000459 0.000015 -0.003229 0.000000 0.023430 0.000000
# 6 0.000000 0.000000 0.000000 -0.003489 0.000000 0.023971
#
#
# Mechanical properties :
#
#
# Convention : Reuss Voigt Hill
#
# Bulk Modulus (GPa) = 38.42309 57.09169 47.75739
# Shear Modulus (GPa) = 46.60070 55.10194 50.85132
#
# Velocity S-wave (km/s) = 4.08387 4.44078 4.26606
# Velocity P-wave (km/s) = 5.99905 6.83569 6.43099
#
# Compressibility (1/GPa) = 0.02602602
#
# Stress axis : x y z
#
# Youngs Moduli (GPa) = 155.90734 54.73698 174.20648
#
# Poissons Ratio (x) = 0.06138 0.19461
# Poissons Ratio (y) = 0.17484 -0.00693
# Poissons Ratio (z) = 0.17417 -0.00218
#
# Static dielectric constant tensor:
#      x y z
#    x 5.511850 0.000000 0.126420 
#    y 0.000000 4.415620 0.000000 
#    z 0.126420 0.000000 6.515560 
# 
# 
# High freq. dielectric constant tensor:
#      x y z
#    x 2.149090 0.000000 0.001660 
#    y 0.000000 2.117890 0.000000 
#    z 0.001660 0.000000 2.162130 
# 
# From -- ./inp_files/18123.got.cif
#   From: 2010.06.25/outbox.cif.g09.slc.cpg/sg15_10_cif.got.tgz:18123.got - 2010.06.28 07:06:18.
