data_PCOD8129490
_publ_section_title
;
Structure prediction by ZEFSAII (Michael W. Deem and Ramdas Pophale) SiO2 
 PCOD8129490
Probable space group: P 21/C
;
_chemical_formula_sum "Si O2"
_cell_formula_units_Z 20
_cell_length_a 5.356804
_cell_length_b 14.274066
_cell_length_c 10.577613
_cell_angle_alpha 90.000000
_cell_angle_beta 79.799281
_cell_angle_gamma 90.000000
_cell_volume 796.015588
_symmetry_space_group_name_H-M "P 21/C"
_symmetry_group_IT_number 14
_symmetry_cell_setting 'monoclinic'
loop_
_space_group_symop_operation_xyz
x,y,z
-x,1/2+y,1/2-z
-x,-y,-z
x,1/2-y,1/2+z
loop_
_atom_site_type_symbol
_atom_site_label
_atom_site_fract_x
_atom_site_fract_y
_atom_site_fract_z
Si Si1 0.360993 0.127562 0.241276
Si Si2 0.082088 0.213522 0.858850
Si Si3 0.750488 0.939443 0.004571
Si Si4 0.718229 0.469320 0.073652
Si Si5 0.198454 0.761043 0.371412
O O1 0.626163 0.181530 0.206179
O O2 0.210742 0.185327 0.361284
O O3 0.362353 0.020470 0.287765
O O4 0.214540 0.128915 0.119875
O O5 0.991943 0.204944 0.722208
O O6 0.277487 0.126997 0.868644
O O7 0.886646 0.208649 0.992287
O O8 0.500000 0.000000 0.000000
O O9 0.000000 0.000000 0.000000
O O10 0.678165 0.358403 0.094931
O O11 0.500000 0.500000 0.000000
O O12 0.000000 0.500000 0.000000
#
# Coordination Sequence:
#
# PCOD8129490 Si02
#       5
#     4   4   4   4   4
#     4  12  29  49  82 121 165 215 280 341 414 499
#     4  12  27  51  81 118 163 217 275 339 418 492
#     4  12  29  52  79 118 164 217 275 341 414 497
#     4  12  29  51  81 120 167 219 278 339 416 500
#     4  12  28  52  86 118 169 220 278 345 419 500
#
# _framework density 25.125133999999999
#
# number of rings (size 3 to 8) (size 9 to 14) (size 15 to 20)
#    0.000    0.000    4.000    3.600   14.000    0.000 
#    0.000    0.000    0.000    0.000    0.000    0.000 
#    0.000    0.000    0.000    0.000    0.000    0.000 
#
# Total GULP energy -247771.260317 kJ/mol
# GULP energy per Si atom -12388.563016 kJ/mol
# Density = 2.506795 g / cm^3
# Si number density = 25.125134 Si / 1000 Ang^3
#
#
#
# Elastic Constant Matrix: (Units=GPa)
#
#
# Indices 1 2 3 4 5 6 
#
# 1 131.1399 40.9039 37.6598 0.0000 15.1687 0.0000
# 2 40.9039 124.7336 29.7586 0.0000 -0.3156 0.0000
# 3 37.6598 29.7586 111.5929 0.0000 14.7811 0.0000
# 4 0.0000 0.0000 0.0000 61.5767 0.0000 5.5525
# 5 15.1687 -0.3156 14.7811 0.0000 46.0237 0.0000
# 6 0.0000 0.0000 0.0000 5.5525 0.0000 46.8194
#
#
#
# Elastic Compliance Matrix: (Units=1/GPa)
#
#
# Indices 1 2 3 4 5 6 
#
# 1 0.009314 -0.002548 -0.002146 0.000000 -0.002398 0.000000
# 2 -0.002548 0.009289 -0.001814 0.000000 0.001486 0.000000
# 3 -0.002146 -0.001814 0.010525 0.000000 -0.002685 0.000000
# 4 0.000000 0.000000 0.000000 0.016415 0.000000 -0.001947
# 5 -0.002398 0.001486 -0.002685 0.000000 0.023391 0.000000
# 6 0.000000 0.000000 0.000000 -0.001947 0.000000 0.021590
#
#
# Mechanical properties :
#
#
# Convention : Reuss Voigt Hill
#
# Bulk Modulus (GPa) = 62.06864 64.90123 63.48493
# Shear Modulus (GPa) = 45.90891 48.16023 47.03457
#
# Velocity S-wave (km/s) = 4.27923 4.38289 4.33137
# Velocity P-wave (km/s) = 7.01236 7.17637 7.09484
#
# Compressibility (1/GPa) = 0.01611120
#
# Stress axis : x y z
#
# Youngs Moduli (GPa) = 107.36559 107.65038 95.01360
#
# Poissons Ratio (x) = 0.27434 0.20390
# Poissons Ratio (y) = 0.27361 0.17236
# Poissons Ratio (z) = 0.23041 0.19528
#
# Static dielectric constant tensor:
#      x y z
#    x 4.421920 0.000000 0.140240 
#    y 0.000000 5.601250 0.000000 
#    z 0.140240 0.000000 4.947730 
# 
# 
# High freq. dielectric constant tensor:
#      x y z
#    x 1.992130 0.000000 0.011340 
#    y 0.000000 2.033300 0.000000 
#    z 0.011340 0.000000 2.016570 
# 
# From -- ./inp_files/20754.got.cif
#   From: 2010.03.12/outbox.cif.g09.slc.cpg/sg14_11_cif.got.tgz:20754.got - 2010.03.31 13:35:05.
