data_PCOD8129354
_publ_section_title
;
Structure prediction by ZEFSAII (Michael W. Deem and Ramdas Pophale) SiO2 
 PCOD8129354
Probable space group: P 21/C
;
_chemical_formula_sum "Si O2"
_cell_formula_units_Z 20
_cell_length_a 7.490217
_cell_length_b 21.240031
_cell_length_c 5.680765
_cell_angle_alpha 90.000000
_cell_angle_beta 69.063409
_cell_angle_gamma 90.000000
_cell_volume 844.096890
_symmetry_space_group_name_H-M "P 21/C"
_symmetry_group_IT_number 14
_symmetry_cell_setting 'monoclinic'
loop_
_space_group_symop_operation_xyz
x,y,z
-x,1/2+y,1/2-z
-x,-y,-z
x,1/2-y,1/2+z
loop_
_atom_site_type_symbol
_atom_site_label
_atom_site_fract_x
_atom_site_fract_y
_atom_site_fract_z
Si Si1 0.745272 0.623619 0.989374
Si Si2 0.843303 0.379455 0.067035
Si Si3 0.447724 0.568686 0.433145
Si Si4 0.833855 0.489991 0.762476
Si Si5 0.566760 0.286649 0.010758
O O1 0.743841 0.557111 0.857193
O O2 0.630626 0.673935 0.886909
O O3 0.959606 0.649952 0.925858
O O4 0.634364 0.610968 0.288785
O O5 0.681108 0.388868 0.338085
O O6 0.754118 0.331765 0.918056
O O7 0.909590 0.449362 0.948617
O O8 0.500000 0.500000 0.500000
O O9 0.331230 0.556491 0.250029
O O10 0.000000 0.500000 0.500000
O O11 0.574288 0.248204 0.253471
#
# Coordination Sequence:
#
# PCOD8129354 Si02
#       5
#     4   4   4   4   4
#     4  12  25  48  77 114 153 204 252 318 401 464
#     4  12  26  48  75 111 156 200 249 324 393 466
#     4  12  22  41  71 109 164 199 241 304 387 480
#     4  12  23  41  73 119 157 192 242 309 403 483
#     4  12  30  54  78 109 150 210 280 326 374 451
#
# _framework density 23.693964000000001
#
# number of rings (size 3 to 8) (size 9 to 14) (size 15 to 20)
#    0.000    0.000    6.000    4.800    0.000    3.200 
#    0.000    0.000    0.000    0.000    0.000    0.000 
#    0.000    0.000    0.000    0.000    0.000    0.000 
#
# Total GULP energy -247905.501451 kJ/mol
# GULP energy per Si atom -12395.275073 kJ/mol
# Density = 2.364004 g / cm^3
# Si number density = 23.693964 Si / 1000 Ang^3
#
#
#
# Elastic Constant Matrix: (Units=GPa)
#
#
# Indices 1 2 3 4 5 6 
#
# 1 145.1879 63.1563 44.4179 0.0000 -15.0273 0.0000
# 2 63.1563 121.9528 50.4863 0.0000 8.5767 0.0000
# 3 44.4179 50.4863 150.5895 0.0000 -17.4357 0.0000
# 4 0.0000 0.0000 0.0000 37.7197 0.0000 16.8423
# 5 -15.0273 8.5767 -17.4357 0.0000 42.7880 0.0000
# 6 0.0000 0.0000 0.0000 16.8423 0.0000 51.2573
#
#
#
# Elastic Compliance Matrix: (Units=1/GPa)
#
#
# Indices 1 2 3 4 5 6 
#
# 1 0.009720 -0.005035 -0.000700 0.000000 0.004138 0.000000
# 2 -0.005035 0.012616 -0.003402 0.000000 -0.005684 0.000000
# 3 -0.000700 -0.003402 0.008436 0.000000 0.003874 0.000000
# 4 0.000000 0.000000 0.000000 0.031070 0.000000 -0.010209
# 5 0.004138 -0.005684 0.003874 0.000000 0.027542 0.000000
# 6 0.000000 0.000000 0.000000 -0.010209 0.000000 0.022864
#
#
# Mechanical properties :
#
#
# Convention : Reuss Voigt Hill
#
# Bulk Modulus (GPa) = 80.01747 81.53902 80.77825
# Shear Modulus (GPa) = 37.12259 43.66432 40.39345
#
# Velocity S-wave (km/s) = 3.96252 4.29749 4.13340
# Velocity P-wave (km/s) = 7.40135 7.68848 7.54628
#
# Compressibility (1/GPa) = 0.01249727
#
# Stress axis : x y z
#
# Youngs Moduli (GPa) = 102.87726 79.26614 118.53635
#
# Poissons Ratio (x) = 0.39912 0.08297
# Poissons Ratio (y) = 0.51800 0.40331
# Poissons Ratio (z) = 0.07201 0.26970
#
# Static dielectric constant tensor:
#      x y z
#    x 5.243790 0.000000 1.346520 
#    y 0.000000 4.391430 0.000000 
#    z 1.346520 0.000000 7.365960 
# 
# 
# High freq. dielectric constant tensor:
#      x y z
#    x 1.955870 0.000000 -0.000180 
#    y 0.000000 1.936750 0.000000 
#    z -0.000180 0.000000 1.937690 
# 
# From -- ./inp_files/1367.got.cif
#   From: 2010.03.12/outbox.cif.g09.slc.cpg/sg14_1_cif.got.tgz:1367.got - 2010.03.31 13:35:05.
