data_PCOD8129774
_publ_section_title
;
Structure prediction by ZEFSAII (Michael W. Deem and Ramdas Pophale) SiO2 
 PCOD8129774
Probable space group: C 2/C
;
_chemical_formula_sum "Si O2"
_cell_formula_units_Z 64
_cell_length_a 26.819088
_cell_length_b 21.778617
_cell_length_c 12.300349
_cell_angle_alpha 90.000000
_cell_angle_beta 32.507521
_cell_angle_gamma 90.000000
_cell_volume 3860.981606
_symmetry_space_group_name_H-M "C 2/C"
_symmetry_group_IT_number 15
_symmetry_cell_setting 'monoclinic'
loop_
_space_group_symop_operation_xyz
x,y,z
-x,y,1/2-z
-x,-y,-z
x,-y,1/2+z
1/2+x,1/2+y,z
1/2-x,1/2+y,1/2-z
1/2-x,1/2-y,-z
1/2+x,1/2-y,1/2+z
loop_
_atom_site_type_symbol
_atom_site_label
_atom_site_fract_x
_atom_site_fract_y
_atom_site_fract_z
Si Si1 0.449627 0.768124 0.230703
Si Si2 0.086748 0.111149 0.867300
Si Si3 0.755980 0.298371 0.583733
Si Si4 0.603849 0.412379 0.097870
Si Si5 0.382547 0.363747 0.797031
Si Si6 0.389844 0.546259 0.464929
Si Si7 0.618737 0.750674 0.777983
Si Si8 0.291856 0.288622 0.591898
O O1 0.500000 0.780346 0.250000
O O2 0.365056 0.817423 0.384884
O O3 0.406002 0.699996 0.314773
O O4 0.517857 0.776344 0.000425
O O5 0.108903 0.075554 0.716848
O O6 0.127467 0.179837 0.797133
O O7 0.138117 0.074562 0.868197
O O8 0.975810 0.109697 0.074765
O O9 0.750000 0.250000 0.500000
O O10 0.690225 0.355145 0.668960
O O11 0.725635 0.264728 0.753175
O O12 0.500000 0.395085 0.250000
O O13 0.641905 0.475427 0.975882
O O14 0.673526 0.357140 0.945019
O O15 0.342095 0.412788 0.958210
O O16 0.500000 0.550908 0.250000
O O17 0.633725 0.751094 0.617782
O O18 0.697095 0.789985 0.695834
#
# Coordination Sequence:
#
# PCOD8129774 Si02
#       8
#     8   8   8   8   8   8   8   8
#     4  10  16  29  47  68  97 124 160 197 239 294
#     4   9  17  30  47  64  91 132 164 187 233 290
#     4  10  20  28  45  73  99 124 153 201 251 284
#     4  10  20  30  44  68  98 129 159 198 239 277
#     4   9  17  28  43  67  93 127 155 194 236 279
#     4   9  18  29  46  66  93 132 166 190 227 293
#     4   9  18  31  51  67  89 130 168 196 235 290
#     4  10  19  32  46  67  95 127 164 201 237 283
#
# _framework density 16.576096
#
# number of rings (size 3 to 8) (size 9 to 14) (size 15 to 20)
#    0.000    2.500    1.250    2.625    1.750    6.500 
#    0.000    0.000    0.000    0.000    0.000    0.875 
#    0.000    0.250    0.000    0.000    0.000    0.000 
#
# Total GULP energy -396422.294391 kJ/mol
# GULP energy per Si atom -12388.196700 kJ/mol
# Density = 1.653837 g / cm^3
# Si number density = 16.576096 Si / 1000 Ang^3
#
#
#
# Elastic Constant Matrix: (Units=GPa)
#
#
# Indices 1 2 3 4 5 6 
#
# 1 99.7654 26.5772 47.8762 0.0000 9.7654 0.0000
# 2 26.5772 47.5304 20.7834 0.0000 -6.1338 0.0000
# 3 47.8762 20.7834 94.3955 0.0000 12.5789 0.0000
# 4 0.0000 0.0000 0.0000 12.4479 0.0000 -0.3951
# 5 9.7654 -6.1338 12.5789 0.0000 34.7770 0.0000
# 6 0.0000 0.0000 0.0000 -0.3951 0.0000 22.3015
#
#
#
# Elastic Compliance Matrix: (Units=1/GPa)
#
#
# Indices 1 2 3 4 5 6 
#
# 1 0.014694 -0.006139 -0.005680 0.000000 -0.003154 0.000000
# 2 -0.006139 0.027220 -0.003939 0.000000 0.007950 0.000000
# 3 -0.005680 -0.003939 0.014942 0.000000 -0.004504 0.000000
# 4 0.000000 0.000000 0.000000 0.080380 0.000000 0.001424
# 5 -0.003154 0.007950 -0.004504 0.000000 0.032672 0.000000
# 6 0.000000 0.000000 0.000000 0.001424 0.000000 0.044865
#
#
# Mechanical properties :
#
#
# Convention : Reuss Voigt Hill
#
# Bulk Modulus (GPa) = 39.46464 48.01835 43.74150
# Shear Modulus (GPa) = 19.62813 23.66891 21.64852
#
# Velocity S-wave (km/s) = 3.44484 3.78285 3.61779
# Velocity P-wave (km/s) = 6.29940 6.93623 6.62547
#
# Compressibility (1/GPa) = 0.02533914
#
# Stress axis : x y z
#
# Youngs Moduli (GPa) = 68.05618 36.73735 66.92466
#
# Poissons Ratio (x) = 0.22555 0.38016
# Poissons Ratio (y) = 0.41782 0.26360
# Poissons Ratio (z) = 0.38659 0.14470
#
# Static dielectric constant tensor:
#      x y z
#    x 3.650680 0.000000 -0.260370 
#    y 0.000000 2.977540 0.000000 
#    z -0.260370 0.000000 3.884290 
# 
# 
# High freq. dielectric constant tensor:
#      x y z
#    x 1.644120 0.000000 0.023010 
#    y 0.000000 1.596930 0.000000 
#    z 0.023010 0.000000 1.628150 
# 
# From -- ./inp_files/120080.got.cif
#   From: 2010.06.25/outbox.cif.g09.slc.cpg/sg15_61_cif.got.tgz:120080.got - 2010.06.28 07:06:18.
