data_PCOD8129114
_publ_section_title
;
Structure prediction by ZEFSAII (Michael W. Deem and Ramdas Pophale) SiO2 
 PCOD8129114
Probable space group: P 21/C
;
_chemical_formula_sum "Si O2"
_cell_formula_units_Z 28
_cell_length_a 5.114011
_cell_length_b 18.382281
_cell_length_c 13.877162
_cell_angle_alpha 90.000000
_cell_angle_beta 68.263672
_cell_angle_gamma 90.000000
_cell_volume 1211.796575
_symmetry_space_group_name_H-M "P 21/C"
_symmetry_group_IT_number 14
_symmetry_cell_setting 'monoclinic'
loop_
_space_group_symop_operation_xyz
x,y,z
-x,1/2+y,1/2-z
-x,-y,-z
x,1/2-y,1/2+z
loop_
_atom_site_type_symbol
_atom_site_label
_atom_site_fract_x
_atom_site_fract_y
_atom_site_fract_z
Si Si1 0.564737 0.860097 0.874076
Si Si2 0.483078 0.787355 0.289996
Si Si3 0.001776 0.138195 0.560054
Si Si4 0.841293 0.072160 0.215717
Si Si5 0.654715 0.151382 0.430320
Si Si6 0.112008 0.410812 0.238457
Si Si7 0.668467 0.188855 0.897895
O O1 0.629904 0.785526 0.808232
O O2 0.294056 0.899678 0.864976
O O3 0.828110 0.913078 0.827280
O O4 0.519234 0.846217 0.993043
O O5 0.157583 0.790295 0.372156
O O6 0.622299 0.858710 0.317765
O O7 0.519513 0.792851 0.170200
O O8 0.831699 0.109120 0.489265
O O9 0.322049 0.158072 0.493082
O O10 0.982255 0.077213 0.648523
O O11 0.689329 0.111710 0.324568
O O12 0.792398 0.986076 0.228282
O O13 0.790022 0.232690 0.413776
O O14 0.908520 0.368891 0.339840
#
# Coordination Sequence:
#
# PCOD8129114 Si02
#       7
#     4   4   4   4   4   4   4
#     4  12  27  48  75 105 146 187 251 300 355 426
#     4  11  24  47  76 107 141 189 244 301 360 430
#     4  11  24  44  74 107 139 183 240 301 359 424
#     4  12  30  48  70 109 153 193 239 301 357 442
#     4  12  24  44  75 108 139 185 249 300 365 410
#     4  11  27  49  72 107 156 192 238 292 374 433
#     4  11  26  42  78 104 143 191 242 301 358 426
#
# _framework density 23.106186999999998
#
# number of rings (size 3 to 8) (size 9 to 14) (size 15 to 20)
#    0.000    0.571    4.286    1.714   12.000    2.286 
#    0.000    0.000    0.000    0.000    0.000    0.000 
#    0.000    0.000    0.000    0.000    0.000    0.000 
#
# Total GULP energy -347175.544970 kJ/mol
# GULP energy per Si atom -12399.126606 kJ/mol
# Density = 2.305360 g / cm^3
# Si number density = 23.106187 Si / 1000 Ang^3
#
#
#
# Elastic Constant Matrix: (Units=GPa)
#
#
# Indices 1 2 3 4 5 6 
#
# 1 111.5732 15.0325 37.2402 0.0000 -0.1520 0.0000
# 2 15.0325 93.1763 4.8924 0.0000 -28.8353 0.0000
# 3 37.2402 4.8924 110.8814 0.0000 -0.3042 0.0000
# 4 0.0000 0.0000 0.0000 14.0999 0.0000 4.3592
# 5 -0.1520 -28.8353 -0.3042 0.0000 29.4608 0.0000
# 6 0.0000 0.0000 0.0000 4.3592 0.0000 30.3925
#
#
#
# Elastic Compliance Matrix: (Units=1/GPa)
#
#
# Indices 1 2 3 4 5 6 
#
# 1 0.010382 -0.002139 -0.003398 0.000000 -0.002075 0.000000
# 2 -0.002139 0.015882 0.000060 0.000000 0.015534 0.000000
# 3 -0.003398 0.000060 0.010158 0.000000 0.000146 0.000000
# 4 0.000000 0.000000 0.000000 0.074213 0.000000 -0.010644
# 5 -0.002075 0.015534 0.000146 0.000000 0.049138 0.000000
# 6 0.000000 0.000000 0.000000 -0.010644 0.000000 0.034430
#
#
# Mechanical properties :
#
#
# Convention : Reuss Voigt Hill
#
# Bulk Modulus (GPa) = 39.26499 47.77345 43.51922
# Shear Modulus (GPa) = 23.40319 32.02167 27.71243
#
# Velocity S-wave (km/s) = 3.18599 3.72674 3.46692
# Velocity P-wave (km/s) = 5.52849 6.26407 5.90774
#
# Compressibility (1/GPa) = 0.02546798
#
# Stress axis : x y z
#
# Youngs Moduli (GPa) = 96.31773 62.96618 98.44719
#
# Poissons Ratio (x) = 0.13466 0.33455
# Poissons Ratio (y) = 0.20599 -0.00592
# Poissons Ratio (z) = 0.32732 -0.00379
#
# Static dielectric constant tensor:
#      x y z
#    x 4.265250 0.000000 0.226700 
#    y 0.000000 3.949770 0.000000 
#    z 0.226700 0.000000 4.367540 
# 
# 
# High freq. dielectric constant tensor:
#      x y z
#    x 1.918440 0.000000 0.008770 
#    y 0.000000 1.886710 0.000000 
#    z 0.008770 0.000000 1.934590 
# 
# From -- ./inp_files/37633.got.cif
#   From: 2010.03.12/outbox.cif.g09.slc.cpg/sg14_19_cif.got.tgz:37633.got - 2010.03.31 13:35:05.
