data_PCOD8129264
_publ_section_title
;
Structure prediction by ZEFSAII (Michael W. Deem and Ramdas Pophale) SiO2 
 PCOD8129264
Probable space group: P 21/C
;
_chemical_formula_sum "Si O2"
_cell_formula_units_Z 20
_cell_length_a 20.985444
_cell_length_b 6.725358
_cell_length_c 12.391585
_cell_angle_alpha 90.000000
_cell_angle_beta 147.254743
_cell_angle_gamma 90.000000
_cell_volume 945.978582
_symmetry_space_group_name_H-M "P 21/C"
_symmetry_group_IT_number 14
_symmetry_cell_setting 'monoclinic'
loop_
_space_group_symop_operation_xyz
x,y,z
-x,1/2+y,1/2-z
-x,-y,-z
x,1/2-y,1/2+z
loop_
_atom_site_type_symbol
_atom_site_label
_atom_site_fract_x
_atom_site_fract_y
_atom_site_fract_z
Si Si1 0.642479 0.958042 0.605771
Si Si2 0.435965 0.695729 0.369030
Si Si3 0.151849 0.301509 0.465173
Si Si4 0.961887 0.373375 0.843745
Si Si5 0.772074 0.451828 0.074773
O O1 0.524798 0.827607 0.423776
O O2 0.607215 0.182586 0.587433
O O3 0.712246 0.954610 0.594123
O O4 0.718647 0.860313 0.810024
O O5 0.500000 0.500000 0.500000
O O6 0.324082 0.648254 0.137731
O O7 0.091016 0.491111 0.325444
O O8 0.076474 0.235789 0.460973
O O9 0.160142 0.125908 0.390534
O O10 0.866181 0.212509 0.745809
O O11 0.000000 0.500000 0.000000
#
# Coordination Sequence:
#
# PCOD8129264 Si02
#       5
#     4   4   4   4   4
#     4  11  27  44  70 103 137 183 238 282 354 421
#     4  11  25  47  69 101 143 180 232 297 347 420
#     4  12  25  48  69 104 140 180 235 294 349 425
#     4  12  28  45  73 103 140 187 237 289 354 418
#     4  12  27  45  75 102 143 187 232 292 358 415
#
# _framework density 21.142126000000001
#
# number of rings (size 3 to 8) (size 9 to 14) (size 15 to 20)
#    0.000    0.400    6.000    1.200    8.400    3.200 
#    0.000    0.000    0.000    0.000    0.000    0.000 
#    0.000    0.000    0.000    0.000    0.000    0.000 
#
# Total GULP energy -248175.196135 kJ/mol
# GULP energy per Si atom -12408.759807 kJ/mol
# Density = 2.109401 g / cm^3
# Si number density = 21.142126 Si / 1000 Ang^3
#
#
#
# Elastic Constant Matrix: (Units=GPa)
#
#
# Indices 1 2 3 4 5 6 
#
# 1 118.7281 24.1771 10.8394 0.0000 3.9567 0.0000
# 2 24.1771 94.7926 18.0699 0.0000 7.2668 0.0000
# 3 10.8394 18.0699 36.5382 0.0000 16.8212 0.0000
# 4 0.0000 0.0000 0.0000 48.8359 0.0000 6.2948
# 5 3.9567 7.2668 16.8212 0.0000 31.0740 0.0000
# 6 0.0000 0.0000 0.0000 6.2948 0.0000 35.1604
#
#
#
# Elastic Compliance Matrix: (Units=1/GPa)
#
#
# Indices 1 2 3 4 5 6 
#
# 1 0.008980 -0.001964 -0.001835 0.000000 0.000309 0.000000
# 2 -0.001964 0.012083 -0.005604 0.000000 0.000458 0.000000
# 3 -0.001835 -0.005604 0.039923 0.000000 -0.020067 0.000000
# 4 0.000000 0.000000 0.000000 0.020960 0.000000 -0.003753
# 5 0.000309 0.000458 -0.020067 0.000000 0.042898 0.000000
# 6 0.000000 0.000000 0.000000 -0.003753 0.000000 0.029113
#
#
# Mechanical properties :
#
#
# Convention : Reuss Voigt Hill
#
# Bulk Modulus (GPa) = 23.70800 39.58130 31.64465
# Shear Modulus (GPa) = 26.76328 36.14555 31.45441
#
# Velocity S-wave (km/s) = 3.56177 4.13927 3.86133
# Velocity P-wave (km/s) = 5.30593 6.45034 5.90592
#
# Compressibility (1/GPa) = 0.04217985
#
# Stress axis : x y z
#
# Youngs Moduli (GPa) = 111.36100 82.75751 25.04840
#
# Poissons Ratio (x) = 0.16256 0.04596
# Poissons Ratio (y) = 0.21874 0.14037
# Poissons Ratio (z) = 0.20433 0.46377
#
# Static dielectric constant tensor:
#      x y z
#    x 3.717890 0.000000 0.319700 
#    y 0.000000 4.043350 0.000000 
#    z 0.319700 0.000000 3.775850 
# 
# 
# High freq. dielectric constant tensor:
#      x y z
#    x 1.834550 0.000000 0.014020 
#    y 0.000000 1.847150 0.000000 
#    z 0.014020 0.000000 1.839800 
# 
# From -- ./inp_files/34541.got.cif
#   From: 2010.03.12/outbox.cif.g09.slc.cpg/sg14_18_cif.got.tgz:34541.got - 2010.03.31 13:35:05.
