data_PCOD8129353
_publ_section_title
;
Structure prediction by ZEFSAII (Michael W. Deem and Ramdas Pophale) SiO2 
 PCOD8129353
Probable space group: P 21/C
;
_chemical_formula_sum "Si O2"
_cell_formula_units_Z 24
_cell_length_a 4.877764
_cell_length_b 12.049412
_cell_length_c 19.760224
_cell_angle_alpha 90.000000
_cell_angle_beta 114.655461
_cell_angle_gamma 90.000000
_cell_volume 1055.510267
_symmetry_space_group_name_H-M "P 21/C"
_symmetry_group_IT_number 14
_symmetry_cell_setting 'monoclinic'
loop_
_space_group_symop_operation_xyz
x,y,z
-x,1/2+y,1/2-z
-x,-y,-z
x,1/2-y,1/2+z
loop_
_atom_site_type_symbol
_atom_site_label
_atom_site_fract_x
_atom_site_fract_y
_atom_site_fract_z
Si Si1 0.794581 0.516364 0.121519
Si Si2 0.239938 0.040177 0.778716
Si Si3 0.161272 0.771316 0.432736
Si Si4 0.779783 0.155874 0.412156
Si Si5 0.483902 0.171021 0.138969
Si Si6 0.737994 0.311498 0.280620
O O1 0.801947 0.391262 0.097129
O O2 0.464055 0.556963 0.108563
O O3 0.007887 0.530374 0.208870
O O4 0.904482 0.595767 0.071914
O O5 0.456518 0.105187 0.749670
O O6 0.055534 0.122503 0.809633
O O7 0.458097 0.959682 0.844333
O O8 0.191762 0.775761 0.516162
O O9 0.433555 0.698733 0.430205
O O10 0.855971 0.707715 0.380228
O O11 0.705046 0.242681 0.345974
O O12 0.714762 0.235887 0.211886
#
# Coordination Sequence:
#
# PCOD8129353 Si02
#       6
#     4   4   4   4   4   4
#     4  12  22  41  70 100 136 166 221 290 338 399
#     4  12  25  42  70 102 130 172 237 277 332 394
#     4  12  25  44  65 102 137 176 218 278 346 402
#     4  12  26  42  68 100 138 176 219 276 347 400
#     4  12  24  43  68  95 134 177 222 276 334 405
#     4  12  24  44  66  98 134 176 225 282 329 408
#
# _framework density 22.737817
#
# number of rings (size 3 to 8) (size 9 to 14) (size 15 to 20)
#    0.000    0.000    5.000    6.000    2.333    0.000 
#    0.000    5.000    0.000    0.000    0.000    0.000 
#    0.000    0.000    0.000    0.000    0.000    0.000 
#
# Total GULP energy -297699.714683 kJ/mol
# GULP energy per Si atom -12404.154778 kJ/mol
# Density = 2.268606 g / cm^3
# Si number density = 22.737817 Si / 1000 Ang^3
#
#
#
# Elastic Constant Matrix: (Units=GPa)
#
#
# Indices 1 2 3 4 5 6 
#
# 1 106.4550 37.3761 6.3232 0.0000 -10.5207 0.0000
# 2 37.3761 60.0150 7.7235 0.0000 1.4844 0.0000
# 3 6.3232 7.7235 63.0591 0.0000 -15.7721 0.0000
# 4 0.0000 0.0000 0.0000 20.8364 0.0000 -4.1228
# 5 -10.5207 1.4844 -15.7721 0.0000 35.3192 0.0000
# 6 0.0000 0.0000 0.0000 -4.1228 0.0000 40.3009
#
#
#
# Elastic Compliance Matrix: (Units=1/GPa)
#
#
# Indices 1 2 3 4 5 6 
#
# 1 0.012623 -0.008081 0.000844 0.000000 0.004476 0.000000
# 2 -0.008081 0.022209 -0.003091 0.000000 -0.004721 0.000000
# 3 0.000844 -0.003091 0.018290 0.000000 0.008549 0.000000
# 4 0.000000 0.000000 0.000000 0.048984 0.000000 0.005011
# 5 0.004476 -0.004721 0.008549 0.000000 0.033663 0.000000
# 6 0.000000 0.000000 0.000000 0.005011 0.000000 0.025326
#
#
# Mechanical properties :
#
#
# Convention : Reuss Voigt Hill
#
# Bulk Modulus (GPa) = 30.80015 36.93051 33.86533
# Shear Modulus (GPa) = 25.96408 31.16504 28.56456
#
# Velocity S-wave (km/s) = 3.38285 3.70621 3.54822
# Velocity P-wave (km/s) = 5.36968 5.88148 5.63140
#
# Compressibility (1/GPa) = 0.03246738
#
# Stress axis : x y z
#
# Youngs Moduli (GPa) = 79.22037 45.02582 54.67380
#
# Poissons Ratio (x) = 0.36384 -0.04612
# Poissons Ratio (y) = 0.64015 0.16898
# Poissons Ratio (z) = -0.06683 0.13916
#
# Static dielectric constant tensor:
#      x y z
#    x 4.314360 0.000000 -0.146830 
#    y 0.000000 4.121250 0.000000 
#    z -0.146830 0.000000 4.020990 
# 
# 
# High freq. dielectric constant tensor:
#      x y z
#    x 1.918720 0.000000 -0.012050 
#    y 0.000000 1.897040 0.000000 
#    z -0.012050 0.000000 1.879950 
# 
# From -- ./inp_files/63388.got.cif
#   From: 2010.03.12/outbox.cif.g09.slc.cpg/sg14_32_cif.got.tgz:63388.got - 2010.03.31 13:35:05.
