data_PCOD8129326
_publ_section_title
;
Structure prediction by ZEFSAII (Michael W. Deem and Ramdas Pophale) SiO2 
 PCOD8129326
Probable space group: P 21/C
;
_chemical_formula_sum "Si O2"
_cell_formula_units_Z 20
_cell_length_a 16.201168
_cell_length_b 9.679876
_cell_length_c 9.946643
_cell_angle_alpha 90.000000
_cell_angle_beta 145.895724
_cell_angle_gamma 90.000000
_cell_volume 874.628892
_symmetry_space_group_name_H-M "P 21/C"
_symmetry_group_IT_number 14
_symmetry_cell_setting 'monoclinic'
loop_
_space_group_symop_operation_xyz
x,y,z
-x,1/2+y,1/2-z
-x,-y,-z
x,1/2-y,1/2+z
loop_
_atom_site_type_symbol
_atom_site_label
_atom_site_fract_x
_atom_site_fract_y
_atom_site_fract_z
Si Si1 0.147591 0.675864 0.137640
Si Si2 0.548746 0.347752 0.545482
Si Si3 0.834405 0.011606 0.822974
Si Si4 0.617202 0.718292 0.939052
Si Si5 0.846413 0.565546 0.646984
O O1 0.274854 0.637563 0.203398
O O2 0.198059 0.828857 0.248664
O O3 0.136494 0.579753 0.254189
O O4 0.991716 0.662433 0.851345
O O5 0.500000 0.500000 0.500000
O O6 0.472852 0.241141 0.545408
O O7 0.506061 0.300218 0.339000
O O8 0.722183 0.916461 0.587296
O O9 0.813762 0.966745 0.949078
O O10 0.000000 0.000000 0.000000
O O11 0.713327 0.852861 0.035933
#
# Coordination Sequence:
#
# PCOD8129326 Si02
#       5
#     4   4   4   4   4
#     4  11  28  45  76 103 148 193 246 298 370 434
#     4  12  29  47  76 110 152 193 238 306 373 430
#     4  12  28  43  77 109 143 192 248 309 362 425
#     4  12  27  51  75 110 151 192 247 305 364 441
#     4  11  26  50  73 109 144 192 259 299 352 452
#
# _framework density 22.866841000000001
#
# number of rings (size 3 to 8) (size 9 to 14) (size 15 to 20)
#    0.000    0.400    6.000    0.000   11.200    0.800 
#    0.000    0.000    0.000    0.000    0.000    0.000 
#    0.000    0.000    0.000    0.000    0.000    0.000 
#
# Total GULP energy -247986.333652 kJ/mol
# GULP energy per Si atom -12399.316683 kJ/mol
# Density = 2.281480 g / cm^3
# Si number density = 22.866841 Si / 1000 Ang^3
#
#
#
# Elastic Constant Matrix: (Units=GPa)
#
#
# Indices 1 2 3 4 5 6 
#
# 1 118.3226 21.2401 36.2292 0.0000 11.2129 0.0000
# 2 21.2401 107.8867 3.6783 0.0000 -7.4268 0.0000
# 3 36.2292 3.6783 76.5057 0.0000 7.5003 0.0000
# 4 0.0000 0.0000 0.0000 35.6804 0.0000 7.7944
# 5 11.2129 -7.4268 7.5003 0.0000 47.5007 0.0000
# 6 0.0000 0.0000 0.0000 7.7944 0.0000 36.2078
#
#
#
# Elastic Compliance Matrix: (Units=1/GPa)
#
#
# Indices 1 2 3 4 5 6 
#
# 1 0.010432 -0.002037 -0.004642 0.000000 -0.002048 0.000000
# 2 -0.002037 0.009795 0.000301 0.000000 0.001965 0.000000
# 3 -0.004642 0.000301 0.015380 0.000000 -0.001286 0.000000
# 4 0.000000 0.000000 0.000000 0.029410 0.000000 -0.006331
# 5 -0.002048 0.001965 -0.001286 0.000000 0.022046 0.000000
# 6 0.000000 0.000000 0.000000 -0.006331 0.000000 0.028981
#
#
# Mechanical properties :
#
#
# Convention : Reuss Voigt Hill
#
# Bulk Modulus (GPa) = 43.75731 47.22334 45.49032
# Shear Modulus (GPa) = 36.65236 39.98227 38.31732
#
# Velocity S-wave (km/s) = 4.00792 4.18602 4.09794
# Velocity P-wave (km/s) = 6.37143 6.63777 6.50596
#
# Compressibility (1/GPa) = 0.02285332
#
# Stress axis : x y z
#
# Youngs Moduli (GPa) = 95.85577 102.09368 65.01747
#
# Poissons Ratio (x) = 0.20792 0.30178
# Poissons Ratio (y) = 0.19522 -0.01956
# Poissons Ratio (z) = 0.44492 -0.03072
#
# Static dielectric constant tensor:
#      x y z
#    x 3.897520 0.000000 0.170000 
#    y 0.000000 4.204720 0.000000 
#    z 0.170000 0.000000 3.961970 
# 
# 
# High freq. dielectric constant tensor:
#      x y z
#    x 1.913470 0.000000 0.015180 
#    y 0.000000 1.917290 0.000000 
#    z 0.015180 0.000000 1.909650 
# 
# From -- ./inp_files/33703.got.cif
#   From: 2010.03.12/outbox.cif.g09.slc.cpg/sg14_17_cif.got.tgz:33703.got - 2010.03.31 13:35:05.
