data_PCOD8129235
_publ_section_title
;
Structure prediction by ZEFSAII (Michael W. Deem and Ramdas Pophale) SiO2 
 PCOD8129235
Probable space group: P 21/C
;
_chemical_formula_sum "Si O2"
_cell_formula_units_Z 20
_cell_length_a 6.683733
_cell_length_b 7.090589
_cell_length_c 21.213027
_cell_angle_alpha 90.000000
_cell_angle_beta 81.897463
_cell_angle_gamma 90.000000
_cell_volume 995.283685
_symmetry_space_group_name_H-M "P 21/C"
_symmetry_group_IT_number 14
_symmetry_cell_setting 'monoclinic'
loop_
_space_group_symop_operation_xyz
x,y,z
-x,1/2+y,1/2-z
-x,-y,-z
x,1/2-y,1/2+z
loop_
_atom_site_type_symbol
_atom_site_label
_atom_site_fract_x
_atom_site_fract_y
_atom_site_fract_z
Si Si1 0.177813 0.503378 0.542523
Si Si2 0.611481 0.289153 0.165975
Si Si3 0.052925 0.005503 0.819335
Si Si4 0.740097 0.632240 0.237752
Si Si5 0.515471 0.291827 0.025782
O O1 0.329731 0.675204 0.523868
O O2 0.295256 0.304605 0.533518
O O3 0.000000 0.500000 0.500000
O O4 0.094392 0.538046 0.615717
O O5 0.810601 0.176113 0.175664
O O6 0.625706 0.497753 0.193917
O O7 0.411038 0.189215 0.199976
O O8 0.601847 0.301457 0.091868
O O9 0.928407 0.974791 0.760745
O O10 0.191571 0.188439 0.805519
O O11 0.500000 0.500000 0.000000
#
# Coordination Sequence:
#
# PCOD8129235 Si02
#       5
#     4   4   4   4   4
#     4  11  25  45  69  98 138 178 219 280 335 389
#     4  12  25  44  67 101 139 172 224 282 329 398
#     4  12  25  44  68 102 137 174 226 277 334 404
#     4  12  26  42  71 100 134 178 222 275 340 394
#     4  11  27  44  69 102 135 175 228 277 332 397
#
# _framework density 20.094774999999998
#
# number of rings (size 3 to 8) (size 9 to 14) (size 15 to 20)
#    0.000    0.400    8.000    0.000    2.800    5.600 
#    0.000    0.000    0.000    0.000    0.000    0.000 
#    0.000    0.000    0.000    0.000    0.000    0.000 
#
# Total GULP energy -248168.966366 kJ/mol
# GULP energy per Si atom -12408.448318 kJ/mol
# Density = 2.004904 g / cm^3
# Si number density = 20.094775 Si / 1000 Ang^3
#
#
#
# Elastic Constant Matrix: (Units=GPa)
#
#
# Indices 1 2 3 4 5 6 
#
# 1 82.4163 24.0713 29.2512 0.0000 0.0859 0.0000
# 2 24.0713 117.1472 42.6254 0.0000 -3.1849 0.0000
# 3 29.2512 42.6254 88.0630 0.0000 -14.2513 0.0000
# 4 0.0000 0.0000 0.0000 31.4926 0.0000 -0.6751
# 5 0.0859 -3.1849 -14.2513 0.0000 45.1903 0.0000
# 6 0.0000 0.0000 0.0000 -0.6751 0.0000 34.9083
#
#
#
# Elastic Compliance Matrix: (Units=1/GPa)
#
#
# Indices 1 2 3 4 5 6 
#
# 1 0.014041 -0.001386 -0.004229 0.000000 -0.001458 0.000000
# 2 -0.001386 0.010533 -0.004760 0.000000 -0.000756 0.000000
# 3 -0.004229 -0.004760 0.015819 0.000000 0.004661 0.000000
# 4 0.000000 0.000000 0.000000 0.031767 0.000000 0.000614
# 5 -0.001458 -0.000756 0.004661 0.000000 0.023548 0.000000
# 6 0.000000 0.000000 0.000000 0.000614 0.000000 0.028658
#
#
# Mechanical properties :
#
#
# Convention : Reuss Voigt Hill
#
# Bulk Modulus (GPa) = 50.91165 53.28025 52.09595
# Shear Modulus (GPa) = 32.96800 35.09680 34.03240
#
# Velocity S-wave (km/s) = 4.05486 4.18372 4.11980
# Velocity P-wave (km/s) = 6.87846 7.06471 6.97221
#
# Compressibility (1/GPa) = 0.01964187
#
# Stress axis : x y z
#
# Youngs Moduli (GPa) = 71.22112 94.94409 63.21694
#
# Poissons Ratio (x) = 0.13159 0.26734
# Poissons Ratio (y) = 0.09871 0.30092
# Poissons Ratio (z) = 0.30119 0.45194
#
# Static dielectric constant tensor:
#      x y z
#    x 3.791460 0.000000 -0.307240 
#    y 0.000000 3.689010 0.000000 
#    z -0.307240 0.000000 2.416970 
# 
# 
# High freq. dielectric constant tensor:
#      x y z
#    x 1.800210 0.000000 -0.002230 
#    y 0.000000 1.792380 0.000000 
#    z -0.002230 0.000000 1.795520 
# 
# From -- ./inp_files/52687.got.cif
#   From: 2010.03.12/outbox.cif.g09.slc.cpg/sg14_27_cif.got.tgz:52687.got - 2010.03.31 13:35:05.
