data_PCOD8129006
_publ_section_title
;
Structure prediction by ZEFSAII (Michael W. Deem and Ramdas Pophale) SiO2 
 PCOD8129006
Probable space group: P 21/C
;
_chemical_formula_sum "Si O2"
_cell_formula_units_Z 20
_cell_length_a 6.695294
_cell_length_b 10.043779
_cell_length_c 13.453554
_cell_angle_alpha 90.000000
_cell_angle_beta 81.276888
_cell_angle_gamma 90.000000
_cell_volume 894.233573
_symmetry_space_group_name_H-M "P 21/C"
_symmetry_group_IT_number 14
_symmetry_cell_setting 'monoclinic'
loop_
_space_group_symop_operation_xyz
x,y,z
-x,1/2+y,1/2-z
-x,-y,-z
x,1/2-y,1/2+z
loop_
_atom_site_type_symbol
_atom_site_label
_atom_site_fract_x
_atom_site_fract_y
_atom_site_fract_z
Si Si1 0.711306 0.063741 0.950966
Si Si2 0.475042 0.993348 0.660792
Si Si3 0.002902 0.665633 0.403333
Si Si4 0.192279 0.420270 0.020123
Si Si5 0.317733 0.769126 0.238434
O O1 0.690096 0.186149 0.875935
O O2 0.810007 0.118882 0.043749
O O3 0.859743 0.958081 0.885070
O O4 0.500000 0.000000 0.000000
O O5 0.630821 0.938851 0.570111
O O6 0.432921 0.872308 0.739566
O O7 0.264711 0.032164 0.623493
O O8 0.560345 0.121077 0.710089
O O9 0.093835 0.743530 0.300750
O O10 0.860465 0.764861 0.475374
O O11 0.000000 0.500000 0.000000
#
# Coordination Sequence:
#
# PCOD8129006 Si02
#       5
#     4   4   4   4   4
#     4  11  26  49  71 104 154 190 233 309 371 429
#     4  11  27  44  71 106 144 188 241 298 362 425
#     4  11  26  44  73 105 140 194 246 291 368 433
#     4  11  23  47  71  96 143 190 239 295 353 425
#     4  12  26  45  74 108 143 192 244 298 362 431
#
# _framework density 22.36552
#
# number of rings (size 3 to 8) (size 9 to 14) (size 15 to 20)
#    0.000    0.800    2.000    3.600   11.200    3.200 
#    0.000    0.000    0.000    0.000    0.000    0.000 
#    0.000    0.000    0.000    0.000    0.000    0.000 
#
# Total GULP energy -248063.705740 kJ/mol
# GULP energy per Si atom -12403.185287 kJ/mol
# Density = 2.231461 g / cm^3
# Si number density = 22.365520 Si / 1000 Ang^3
#
#
#
# Elastic Constant Matrix: (Units=GPa)
#
#
# Indices 1 2 3 4 5 6 
#
# 1 124.2086 50.9549 41.2703 0.0000 -7.6083 0.0000
# 2 50.9549 143.8337 35.6274 0.0000 -9.0193 0.0000
# 3 41.2703 35.6274 82.0829 0.0000 -11.6713 0.0000
# 4 0.0000 0.0000 0.0000 45.7391 0.0000 -9.4786
# 5 -7.6083 -9.0193 -11.6713 0.0000 17.8311 0.0000
# 6 0.0000 0.0000 0.0000 -9.4786 0.0000 48.0156
#
#
#
# Elastic Compliance Matrix: (Units=1/GPa)
#
#
# Indices 1 2 3 4 5 6 
#
# 1 0.010535 -0.002697 -0.004059 0.000000 0.000474 0.000000
# 2 -0.002697 0.008540 -0.002095 0.000000 0.001797 0.000000
# 3 -0.004059 -0.002095 0.016248 0.000000 0.007844 0.000000
# 4 0.000000 0.000000 0.000000 0.022796 0.000000 0.004500
# 5 0.000474 0.001797 0.007844 0.000000 0.062328 0.000000
# 6 0.000000 0.000000 0.000000 0.004500 0.000000 0.021715
#
#
# Mechanical properties :
#
#
# Convention : Reuss Voigt Hill
#
# Bulk Modulus (GPa) = 56.75003 67.31448 62.03226
# Shear Modulus (GPa) = 30.16843 37.13532 33.65187
#
# Velocity S-wave (km/s) = 3.67670 4.07920 3.88317
# Velocity P-wave (km/s) = 6.59190 7.23528 6.92107
#
# Compressibility (1/GPa) = 0.01762114
#
# Stress axis : x y z
#
# Youngs Moduli (GPa) = 94.92103 117.10207 61.54567
#
# Poissons Ratio (x) = 0.31583 0.24980
# Poissons Ratio (y) = 0.25601 0.12893
# Poissons Ratio (z) = 0.38527 0.24532
#
# Static dielectric constant tensor:
#      x y z
#    x 3.911900 0.000000 0.054970 
#    y 0.000000 4.415340 0.000000 
#    z 0.054970 0.000000 3.990960 
# 
# 
# High freq. dielectric constant tensor:
#      x y z
#    x 1.890670 0.000000 -0.007650 
#    y 0.000000 1.902180 0.000000 
#    z -0.007650 0.000000 1.876160 
# 
# From -- ./inp_files/36962.got.cif
#   From: 2010.03.12/outbox.cif.g09.slc.cpg/sg14_19_cif.got.tgz:36962.got - 2010.03.31 13:35:05.
