data_PCOD8129653
_publ_section_title
;
Structure prediction by ZEFSAII (Michael W. Deem and Ramdas Pophale) SiO2 
 PCOD8129653
Probable space group: C 2/C
;
_chemical_formula_sum "Si O2"
_cell_formula_units_Z 64
_cell_length_a 17.870583
_cell_length_b 11.854672
_cell_length_c 14.578506
_cell_angle_alpha 90.000000
_cell_angle_beta 89.442758
_cell_angle_gamma 90.000000
_cell_volume 3088.308971
_symmetry_space_group_name_H-M "C 2/C"
_symmetry_group_IT_number 15
_symmetry_cell_setting 'monoclinic'
loop_
_space_group_symop_operation_xyz
x,y,z
-x,y,1/2-z
-x,-y,-z
x,-y,1/2+z
1/2+x,1/2+y,z
1/2-x,1/2+y,1/2-z
1/2-x,1/2-y,-z
1/2+x,1/2-y,1/2+z
loop_
_atom_site_type_symbol
_atom_site_label
_atom_site_fract_x
_atom_site_fract_y
_atom_site_fract_z
Si Si1 0.459069 0.265623 0.337963
Si Si2 0.614212 0.455119 0.488263
Si Si3 0.141626 0.494935 0.862814
Si Si4 0.246858 0.614315 0.996685
Si Si5 0.086780 0.285388 0.974569
Si Si6 0.506990 0.514197 0.150173
Si Si7 0.149528 0.584586 0.167210
Si Si8 0.016686 0.556063 0.597161
O O1 0.500000 0.210017 0.250000
O O2 0.507704 0.239243 0.426615
O O3 0.450580 0.398428 0.325725
O O4 0.374547 0.216241 0.341637
O O5 0.674335 0.549635 0.514465
O O6 0.641187 0.325236 0.471846
O O7 0.574000 0.498003 0.396021
O O8 0.558493 0.427227 0.573683
O O9 0.133222 0.384502 0.925823
O O10 0.178483 0.454210 0.766536
O O11 0.062877 0.562301 0.848851
O O12 0.197414 0.582712 0.909623
O O13 0.212365 0.562154 0.090545
O O14 0.250000 0.750000 0.000000
O O15 0.059033 0.324776 0.076845
O O16 0.500000 0.578250 0.250000
O O17 0.071761 0.521071 0.153485
O O18 0.000000 0.500000 0.500000
#
# Coordination Sequence:
#
# PCOD8129653 Si02
#       8
#     8   8   8   8   8   8   8   8
#     4  10  15  28  60  94 117 153 208 258 301 371
#     4  10  23  41  62  92 125 167 211 258 316 385
#     4  11  22  39  64  97 126 169 217 270 317 379
#     4  12  27  46  62  88 134 182 219 264 324 390
#     4  10  18  35  61  91 124 159 200 263 318 367
#     4   9  20  38  64  91 120 160 207 257 315 381
#     4  12  20  37  64  96 128 164 219 265 318 381
#     4  10  17  34  62  94 128 155 204 269 324 373
#
# _framework density 20.723316000000001
#
# number of rings (size 3 to 8) (size 9 to 14) (size 15 to 20)
#    0.000    1.500    6.250    1.125    0.000    3.500 
#    2.250    2.500    0.000    0.000    0.000    0.000 
#    0.000    0.000    0.000    0.000    0.000    0.000 
#
# Total GULP energy -396460.877137 kJ/mol
# GULP energy per Si atom -12389.402411 kJ/mol
# Density = 2.067615 g / cm^3
# Si number density = 20.723316 Si / 1000 Ang^3
#
#
#
# Elastic Constant Matrix: (Units=GPa)
#
#
# Indices 1 2 3 4 5 6 
#
# 1 69.1017 32.5296 19.7797 0.0000 7.0524 0.0000
# 2 32.5296 100.5726 16.3417 0.0000 16.1249 0.0000
# 3 19.7797 16.3417 102.7553 0.0000 -0.6056 0.0000
# 4 0.0000 0.0000 0.0000 21.3841 0.0000 0.7771
# 5 7.0524 16.1249 -0.6056 0.0000 18.5275 0.0000
# 6 0.0000 0.0000 0.0000 0.7771 0.0000 29.3380
#
#
#
# Elastic Compliance Matrix: (Units=1/GPa)
#
#
# Indices 1 2 3 4 5 6 
#
# 1 0.017811 -0.004913 -0.002662 0.000000 -0.002591 0.000000
# 2 -0.004913 0.013293 -0.001226 0.000000 -0.009739 0.000000
# 3 -0.002662 -0.001226 0.010454 0.000000 0.002422 0.000000
# 4 0.000000 0.000000 0.000000 0.046809 0.000000 -0.001240
# 5 -0.002591 -0.009739 0.002422 0.000000 0.063515 0.000000
# 6 0.000000 0.000000 0.000000 -0.001240 0.000000 0.034118
#
#
# Mechanical properties :
#
#
# Convention : Reuss Voigt Hill
#
# Bulk Modulus (GPa) = 41.74474 45.52575 43.63525
# Shear Modulus (GPa) = 23.63105 27.43515 25.53310
#
# Velocity S-wave (km/s) = 3.38051 3.64246 3.51393
# Velocity P-wave (km/s) = 5.95187 6.30128 6.12906
#
# Compressibility (1/GPa) = 0.02395511
#
# Stress axis : x y z
#
# Youngs Moduli (GPa) = 56.14637 75.22925 95.66120
#
# Poissons Ratio (x) = 0.36958 0.25469
# Poissons Ratio (y) = 0.27583 0.11726
# Poissons Ratio (z) = 0.14948 0.09221
#
# Static dielectric constant tensor:
#      x y z
#    x 3.514960 0.000000 -0.142680 
#    y 0.000000 5.323450 0.000000 
#    z -0.142680 0.000000 4.077430 
# 
# 
# High freq. dielectric constant tensor:
#      x y z
#    x 1.776300 0.000000 -0.006270 
#    y 0.000000 1.805440 0.000000 
#    z -0.006270 0.000000 1.814640 
# 
# From -- ./inp_files/161356.got.cif
#   From: 2010.06.25/outbox.cif.g09.slc.cpg/sg15_81_cif.got.tgz:161356.got - 2010.06.28 07:06:18.
