data_PCOD8129526
_publ_section_title
;
Structure prediction by ZEFSAII (Michael W. Deem and Ramdas Pophale) SiO2 
 PCOD8129526
Probable space group: P 21/C
;
_chemical_formula_sum "Si O2"
_cell_formula_units_Z 32
_cell_length_a 30.000000
_cell_length_b 12.000000
_cell_length_c 9.000000
_cell_angle_alpha 90.000000
_cell_angle_beta 30.000000
_cell_angle_gamma 90.000000
_cell_volume 1620.000000
_symmetry_space_group_name_H-M "P 21/C"
_symmetry_group_IT_number 14
_symmetry_cell_setting 'monoclinic'
loop_
_space_group_symop_operation_xyz
x,y,z
-x,1/2+y,1/2-z
-x,-y,-z
x,1/2-y,1/2+z
loop_
_atom_site_type_symbol
_atom_site_label
_atom_site_fract_x
_atom_site_fract_y
_atom_site_fract_z
Si Si1 0.213735 0.272922 0.112952
Si Si2 0.452150 0.858558 0.759811
Si Si3 0.100264 0.877244 0.227486
Si Si4 0.344742 0.428964 0.283733
Si Si5 0.627690 0.333347 0.828664
Si Si6 0.291368 0.001748 0.254624
Si Si7 0.108515 0.137462 0.195449
Si Si8 0.196460 0.704009 0.160049
O O1 0.128101 0.221421 0.275298
O O2 0.175793 0.311725 0.379670
O O3 0.287423 0.174412 0.889540
O O4 0.262926 0.383055 0.911778
O O5 0.555344 0.885680 0.480414
O O6 0.431801 0.855688 0.644230
O O7 0.431317 0.735906 0.884381
O O8 0.389717 0.954012 0.018291
O O9 0.146826 0.799398 0.212574
O O10 0.994891 0.856261 0.550316
O O11 0.128275 0.006751 0.173774
O O12 0.131797 0.840297 0.974271
O O13 0.348264 0.542831 0.172084
O O14 0.292980 0.472860 0.576897
O O15 0.714505 0.261343 0.531679
O O16 0.219742 0.903534 0.491558
#
# Coordination Sequence:
#
# PCOD8129526 Si02
#       8
#     4   4   4   4   4   4   4   4
#     4  12  23  42  63  89 126 171 202 260 313 378
#     4  10  23  38  63  86 126 156 204 259 302 365
#     4  11  23  42  65  95 122 166 203 273 302 382
#     4  11  23  38  65  86 125 166 208 248 311 375
#     4  10  21  40  59  92 117 160 203 255 302 373
#     4  10  21  40  61  88 122 164 199 257 305 372
#     4  11  25  42  63  92 132 157 216 255 319 369
#     4  11  21  40  68  87 125 161 211 250 326 363
#
# _framework density 19.753086
#
# number of rings (size 3 to 8) (size 9 to 14) (size 15 to 20)
#    0.000    1.250    2.500    5.250    3.500    0.000 
#    0.000    1.250    0.000    0.000    0.000    0.000 
#    0.000    0.000    0.000    0.000    0.000    0.000 
#
# Total GULP energy -396534.141058 kJ/mol
# GULP energy per Si atom -12391.691908 kJ/mol
# Density = 1.970813 g / cm^3
# Si number density = 19.753086 Si / 1000 Ang^3
#
#
#
# Elastic Constant Matrix: (Units=GPa)
#
#
# Indices 1 2 3 4 5 6 
#
# 1 39.6699 28.0552 15.0883 0.0000 -8.4745 0.0000
# 2 28.0552 173.1597 38.5012 0.0000 -6.2474 0.0000
# 3 15.0883 38.5012 78.2262 0.0000 -6.4064 0.0000
# 4 0.0000 0.0000 0.0000 41.9706 0.0000 1.2905
# 5 -8.4745 -6.2474 -6.4064 0.0000 27.2718 0.0000
# 6 0.0000 0.0000 0.0000 1.2905 0.0000 39.8971
#
#
#
# Elastic Compliance Matrix: (Units=1/GPa)
#
#
# Indices 1 2 3 4 5 6 
#
# 1 0.031003 -0.003988 -0.003368 0.000000 0.007929 0.000000
# 2 -0.003988 0.007013 -0.002704 0.000000 -0.000268 0.000000
# 3 -0.003368 -0.002704 0.014914 0.000000 0.001838 0.000000
# 4 0.000000 0.000000 0.000000 0.023850 0.000000 -0.000771
# 5 0.007929 -0.000268 0.001838 0.000000 0.039502 0.000000
# 6 0.000000 0.000000 0.000000 -0.000771 0.000000 0.025089
#
#
# Mechanical properties :
#
#
# Convention : Reuss Voigt Hill
#
# Bulk Modulus (GPa) = 30.47821 50.48279 40.48050
# Shear Modulus (GPa) = 28.99742 35.78864 32.39303
#
# Velocity S-wave (km/s) = 3.83560 4.26114 4.05396
# Velocity P-wave (km/s) = 5.92274 7.05848 6.51541
#
# Compressibility (1/GPa) = 0.03281033
#
# Stress axis : x y z
#
# Youngs Moduli (GPa) = 32.25457 142.59654 67.04913
#
# Poissons Ratio (x) = 0.56872 0.22580
# Poissons Ratio (y) = 0.12864 0.18132
# Poissons Ratio (z) = 0.10862 0.38561
#
# Static dielectric constant tensor:
#      x y z
#    x 3.366610 0.000000 -0.032230 
#    y 0.000000 4.398660 0.000000 
#    z -0.032230 0.000000 3.817960 
# 
# 
# High freq. dielectric constant tensor:
#      x y z
#    x 1.746390 0.000000 -0.008120 
#    y 0.000000 1.815050 0.000000 
#    z -0.008120 0.000000 1.788910 
# 
# From -- ./inp_files/15770.got.cif
#   From: 2010.03.12/outbox.ucp.g09.slc.cvg/sg14_8_cif.got.tgz:15770.got - 2010.05.04 20:10:03.
