data_PCOD8129451
_publ_section_title
;
Structure prediction by ZEFSAII (Michael W. Deem and Ramdas Pophale) SiO2 
 PCOD8129451
Probable space group: P 21/C
;
_chemical_formula_sum "Si O2"
_cell_formula_units_Z 32
_cell_length_a 7.352288
_cell_length_b 21.491002
_cell_length_c 8.674671
_cell_angle_alpha 90.000000
_cell_angle_beta 82.865886
_cell_angle_gamma 90.000000
_cell_volume 1360.056251
_symmetry_space_group_name_H-M "P 21/C"
_symmetry_group_IT_number 14
_symmetry_cell_setting 'monoclinic'
loop_
_space_group_symop_operation_xyz
x,y,z
-x,1/2+y,1/2-z
-x,-y,-z
x,1/2-y,1/2+z
loop_
_atom_site_type_symbol
_atom_site_label
_atom_site_fract_x
_atom_site_fract_y
_atom_site_fract_z
Si Si1 0.293118 0.177738 0.472325
Si Si2 0.679467 0.297186 0.018314
Si Si3 0.003846 0.642279 0.206772
Si Si4 0.108520 0.189351 0.970771
Si Si5 0.400514 0.540663 0.641897
Si Si6 0.257409 0.674362 0.636725
Si Si7 0.028312 0.495040 0.814553
Si Si8 0.254735 0.407038 0.262114
O O1 0.512348 0.171896 0.441944
O O2 0.204079 0.142086 0.337566
O O3 0.226912 0.248919 0.472136
O O4 0.231108 0.144729 0.634466
O O5 0.666859 0.311807 0.200155
O O6 0.658284 0.223193 0.994445
O O7 0.867508 0.324610 0.932092
O O8 0.012011 0.680874 0.362726
O O9 0.054357 0.570845 0.231033
O O10 0.242581 0.130457 0.926553
O O11 0.962175 0.186619 0.844963
O O12 0.500000 0.500000 0.500000
O O13 0.313948 0.604461 0.581683
O O14 0.241155 0.502216 0.745055
O O15 0.551462 0.557131 0.757123
O O16 0.912473 0.545566 0.734769
O O17 0.000000 0.500000 0.000000
#
# Coordination Sequence:
#
# PCOD8129451 Si02
#       8
#     4   4   4   4   4   4   4   4
#     4  12  26  47  74 109 148 198 253 324 390 469
#     4  12  27  48  76 112 151 201 257 332 394 465
#     4  12  27  47  73 111 151 197 260 310 392 472
#     4  12  26  47  77 107 149 199 250 324 396 468
#     4  12  28  50  78 117 157 207 266 326 390 477
#     4  12  25  49  78 110 157 198 258 329 400 462
#     4  12  27  49  77 107 157 207 257 317 392 471
#     4  12  26  50  78 106 156 202 259 323 394 462
#
# _framework density 23.52844
#
# number of rings (size 3 to 8) (size 9 to 14) (size 15 to 20)
#    0.000    0.000    5.000    4.500    3.500    2.500 
#    2.250    0.000    0.000    0.000    0.000    0.000 
#    0.000    0.000    0.000    0.000    0.000    0.000 
#
# Total GULP energy -396791.186751 kJ/mol
# GULP energy per Si atom -12399.724586 kJ/mol
# Density = 2.347489 g / cm^3
# Si number density = 23.528440 Si / 1000 Ang^3
#
#
#
# Elastic Constant Matrix: (Units=GPa)
#
#
# Indices 1 2 3 4 5 6 
#
# 1 115.2424 25.4145 21.4804 0.0000 10.3753 0.0000
# 2 25.4145 136.4005 45.2448 0.0000 -0.2618 0.0000
# 3 21.4804 45.2448 85.3435 0.0000 -2.8623 0.0000
# 4 0.0000 0.0000 0.0000 37.9045 0.0000 1.6991
# 5 10.3753 -0.2618 -2.8623 0.0000 35.4599 0.0000
# 6 0.0000 0.0000 0.0000 1.6991 0.0000 38.9676
#
#
#
# Elastic Compliance Matrix: (Units=1/GPa)
#
#
# Indices 1 2 3 4 5 6 
#
# 1 0.009551 -0.001159 -0.001889 0.000000 -0.002956 0.000000
# 2 -0.001159 0.009040 -0.004499 0.000000 0.000043 0.000000
# 3 -0.001889 -0.004499 0.014635 0.000000 0.001701 0.000000
# 4 0.000000 0.000000 0.000000 0.026434 0.000000 -0.001153
# 5 -0.002956 0.000043 0.001701 0.000000 0.029203 0.000000
# 6 0.000000 0.000000 0.000000 -0.001153 0.000000 0.025713
#
#
# Mechanical properties :
#
#
# Convention : Reuss Voigt Hill
#
# Bulk Modulus (GPa) = 55.15039 57.91842 56.53440
# Shear Modulus (GPa) = 36.84236 38.78952 37.81594
#
# Velocity S-wave (km/s) = 3.96139 4.06473 4.01339
# Velocity P-wave (km/s) = 6.66440 6.83368 6.74957
#
# Compressibility (1/GPa) = 0.01813224
#
# Stress axis : x y z
#
# Youngs Moduli (GPa) = 104.70068 110.62194 68.32874
#
# Poissons Ratio (x) = 0.12818 0.12906
# Poissons Ratio (y) = 0.12132 0.30744
# Poissons Ratio (z) = 0.19775 0.49773
#
# Static dielectric constant tensor:
#      x y z
#    x 4.448630 0.000000 0.092140 
#    y 0.000000 4.513440 0.000000 
#    z 0.092140 0.000000 4.053580 
# 
# 
# High freq. dielectric constant tensor:
#      x y z
#    x 1.945510 0.000000 0.004170 
#    y 0.000000 1.947850 0.000000 
#    z 0.004170 0.000000 1.917220 
# 
# From -- ./inp_files/10204.got.cif
#   From: 2010.03.12/outbox.cif.g09.slc.cpg/sg14_6_cif.got.tgz:10204.got - 2010.03.31 13:35:05.
