data_PCOD8129398
_publ_section_title
;
Structure prediction by ZEFSAII (Michael W. Deem and Ramdas Pophale) SiO2 
 PCOD8129398
Probable space group: P 21/C
;
_chemical_formula_sum "Si O2"
_cell_formula_units_Z 20
_cell_length_a 11.425535
_cell_length_b 7.490457
_cell_length_c 8.989498
_cell_angle_alpha 90.000000
_cell_angle_beta 107.273707
_cell_angle_gamma 90.000000
_cell_volume 734.643946
_symmetry_space_group_name_H-M "P 21/C"
_symmetry_group_IT_number 14
_symmetry_cell_setting 'monoclinic'
loop_
_space_group_symop_operation_xyz
x,y,z
-x,1/2+y,1/2-z
-x,-y,-z
x,1/2-y,1/2+z
loop_
_atom_site_type_symbol
_atom_site_label
_atom_site_fract_x
_atom_site_fract_y
_atom_site_fract_z
Si Si1 0.034612 0.138755 0.887868
Si Si2 0.237015 0.105066 0.539964
Si Si3 0.813542 0.363808 0.728735
Si Si4 0.373550 0.110597 0.289876
Si Si5 0.581303 0.353579 0.446667
O O1 0.910038 0.202038 0.760863
O O2 0.126775 0.048016 0.806891
O O3 0.101484 0.309021 0.984900
O O4 0.000000 0.000000 0.000000
O O5 0.280785 0.076830 0.388601
O O6 0.329197 0.232796 0.663936
O O7 0.230544 0.912366 0.620070
O O8 0.700641 0.306244 0.585392
O O9 0.507368 0.168282 0.401372
O O10 0.380860 0.926159 0.201779
O O11 0.500000 0.500000 0.500000
#
# Coordination Sequence:
#
# PCOD8129398 Si02
#       5
#     4   4   4   4   4
#     4  12  27  50  80 116 157 207 268 326 399 478
#     4  12  23  51  78 110 165 210 263 335 395 463
#     4  12  27  52  80 116 162 211 267 334 398 478
#     4  12  25  50  81 111 163 208 266 335 395 474
#     4  12  25  51  77 114 157 205 267 325 404 471
#
# _framework density 27.224073000000001
#
# number of rings (size 3 to 8) (size 9 to 14) (size 15 to 20)
#    0.000    0.000    8.000    1.800    0.000    2.400 
#    3.600    2.000    0.000    0.000    0.000    0.000 
#    0.000    0.000    0.000    0.000    0.000    0.000 
#
# Total GULP energy -248266.179933 kJ/mol
# GULP energy per Si atom -12413.308997 kJ/mol
# Density = 2.716211 g / cm^3
# Si number density = 27.224073 Si / 1000 Ang^3
#
#
#
# Elastic Constant Matrix: (Units=GPa)
#
#
# Indices 1 2 3 4 5 6 
#
# 1 139.5209 24.8964 75.2439 0.0000 33.2839 0.0000
# 2 24.8964 69.1960 33.5285 0.0000 14.8870 0.0000
# 3 75.2439 33.5285 152.6559 0.0000 6.2225 0.0000
# 4 0.0000 0.0000 0.0000 42.4282 0.0000 -0.7565
# 5 33.2839 14.8870 6.2225 0.0000 76.1972 0.0000
# 6 0.0000 0.0000 0.0000 -0.7565 0.0000 42.1119
#
#
#
# Elastic Compliance Matrix: (Units=1/GPa)
#
#
# Indices 1 2 3 4 5 6 
#
# 1 0.011079 -0.000558 -0.005163 0.000000 -0.004309 0.000000
# 2 -0.000558 0.016856 -0.003314 0.000000 -0.002779 0.000000
# 3 -0.005163 -0.003314 0.009737 0.000000 0.002107 0.000000
# 4 0.000000 0.000000 0.000000 0.023577 0.000000 0.000424
# 5 -0.004309 -0.002779 0.002107 0.000000 0.015377 0.000000
# 6 0.000000 0.000000 0.000000 0.000424 0.000000 0.023754
#
#
# Mechanical properties :
#
#
# Convention : Reuss Voigt Hill
#
# Bulk Modulus (GPa) = 51.01080 69.85672 60.43376
# Shear Modulus (GPa) = 40.00530 47.32774 43.66652
#
# Velocity S-wave (km/s) = 3.83754 4.17400 4.00930
# Velocity P-wave (km/s) = 6.19788 6.99609 6.60905
#
# Compressibility (1/GPa) = 0.01960369
#
# Stress axis : x y z
#
# Youngs Moduli (GPa) = 90.25990 59.32595 102.69693
#
# Poissons Ratio (x) = 0.03308 0.53020
# Poissons Ratio (y) = 0.05033 0.34034
# Poissons Ratio (z) = 0.46599 0.19661
#
# Static dielectric constant tensor:
#      x y z
#    x 5.337840 0.000000 -0.077930 
#    y 0.000000 5.354380 0.000000 
#    z -0.077930 0.000000 5.278860 
# 
# 
# High freq. dielectric constant tensor:
#      x y z
#    x 2.111570 0.000000 -0.002070 
#    y 0.000000 2.098580 0.000000 
#    z -0.002070 0.000000 2.113010 
# 
# From -- ./inp_files/11909.got.cif
#   From: 2010.03.12/outbox.cif.g09.slc.cpg/sg14_6_cif.got.tgz:11909.got - 2010.03.31 13:35:05.
