data_PCOD8129645
_publ_section_title
;
Structure prediction by ZEFSAII (Michael W. Deem and Ramdas Pophale) SiO2 
 PCOD8129645
Probable space group: C 2/C
;
_chemical_formula_sum "Si O2"
_cell_formula_units_Z 56
_cell_length_a 19.122000
_cell_length_b 12.619568
_cell_length_c 13.778893
_cell_angle_alpha 90.000000
_cell_angle_beta 82.261990
_cell_angle_gamma 90.000000
_cell_volume 3294.726508
_symmetry_space_group_name_H-M "C 2/C"
_symmetry_group_IT_number 15
_symmetry_cell_setting 'monoclinic'
loop_
_space_group_symop_operation_xyz
x,y,z
-x,y,1/2-z
-x,-y,-z
x,-y,1/2+z
1/2+x,1/2+y,z
1/2-x,1/2+y,1/2-z
1/2-x,1/2-y,-z
1/2+x,1/2-y,1/2+z
loop_
_atom_site_type_symbol
_atom_site_label
_atom_site_fract_x
_atom_site_fract_y
_atom_site_fract_z
Si Si1 0.814990 0.728543 0.263556
Si Si2 0.168476 0.059764 0.846691
Si Si3 0.323865 0.515197 0.437994
Si Si4 0.582265 0.399190 0.749009
Si Si5 0.668871 0.273760 0.033006
Si Si6 0.847196 0.288187 0.168558
Si Si7 0.293398 0.008924 0.193801
O O1 0.847168 0.826317 0.197688
O O2 0.853853 0.719954 0.360889
O O3 0.731719 0.746200 0.295768
O O4 0.831396 0.621504 0.201534
O O5 0.105409 0.979185 0.830958
O O6 0.239405 0.007333 0.792238
O O7 0.178215 0.077112 0.959712
O O8 0.378947 0.573627 0.358436
O O9 0.348852 0.397062 0.454604
O O10 0.246900 0.509978 0.402038
O O11 0.500000 0.411475 0.750000
O O12 0.600212 0.277264 0.772492
O O13 0.750000 0.250000 0.000000
O O14 0.627544 0.229222 0.947551
O O15 0.850885 0.414448 0.186877
#
# Coordination Sequence:
#
# PCOD8129645 Si02
#       7
#     8   8   8   8   8   8   8
#     4  10  17  31  49  78 107 129 155 213 265 308
#     4  10  19  32  49  75 109 128 167 212 258 308
#     4  11  18  31  50  79 103 134 165 211 260 304
#     4  11  22  36  51  71 104 138 177 214 245 291
#     4  10  15  27  53  72 100 133 165 200 256 312
#     4  10  18  32  48  75 100 134 170 206 246 311
#     4  10  19  30  50  78 108 130 161 206 264 311
#
# _framework density 16.996858
#
# number of rings (size 3 to 8) (size 9 to 14) (size 15 to 20)
#    0.000    1.714   10.000    0.857    0.000    1.143 
#    0.000    0.000    0.000    0.857    0.000    2.000 
#    0.000    0.000    0.000    0.000    0.000    0.000 
#
# Total GULP energy -347069.833599 kJ/mol
# GULP energy per Si atom -12395.351200 kJ/mol
# Density = 1.695817 g / cm^3
# Si number density = 16.996858 Si / 1000 Ang^3
#
#
#
# Elastic Constant Matrix: (Units=GPa)
#
#
# Indices 1 2 3 4 5 6 
#
# 1 44.0918 28.1736 24.5918 0.0000 5.4434 0.0000
# 2 28.1736 129.8542 36.5016 0.0000 8.0316 0.0000
# 3 24.5918 36.5016 111.6241 0.0000 22.5590 0.0000
# 4 0.0000 0.0000 0.0000 21.1130 0.0000 2.0239
# 5 5.4434 8.0316 22.5590 0.0000 8.7547 0.0000
# 6 0.0000 0.0000 0.0000 2.0239 0.0000 12.6975
#
#
#
# Elastic Compliance Matrix: (Units=1/GPa)
#
#
# Indices 1 2 3 4 5 6 
#
# 1 0.028404 -0.004836 -0.004181 0.000000 -0.002450 0.000000
# 2 -0.004836 0.009311 -0.001796 0.000000 -0.000907 0.000000
# 3 -0.004181 -0.001796 0.020050 0.000000 -0.047417 0.000000
# 4 0.000000 0.000000 0.000000 0.048099 0.000000 -0.007667
# 5 -0.002450 -0.000907 -0.047417 0.000000 0.238764 0.000000
# 6 0.000000 0.000000 0.000000 -0.007667 0.000000 0.079978
#
#
# Mechanical properties :
#
#
# Convention : Reuss Voigt Hill
#
# Bulk Modulus (GPa) = 27.67057 51.56712 39.61885
# Shear Modulus (GPa) = 10.91039 21.59992 16.25516
#
# Velocity S-wave (km/s) = 2.53634 3.56872 3.09587
# Velocity P-wave (km/s) = 4.98924 6.88376 6.01160
#
# Compressibility (1/GPa) = 0.03613948
#
# Stress axis : x y z
#
# Youngs Moduli (GPa) = 35.20573 107.39845 49.87524
#
# Poissons Ratio (x) = 0.51936 0.20854
# Poissons Ratio (y) = 0.17025 0.08958
# Poissons Ratio (z) = 0.14720 0.19289
#
# Static dielectric constant tensor:
#      x y z
#    x 2.678910 0.000000 0.314850 
#    y 0.000000 3.358240 0.000000 
#    z 0.314850 0.000000 3.491660 
# 
# 
# High freq. dielectric constant tensor:
#      x y z
#    x 1.587810 0.000000 0.029090 
#    y 0.000000 1.662350 0.000000 
#    z 0.029090 0.000000 1.661810 
# 
# From -- ./inp_files/167211.got.cif
#   From: 2010.06.25/outbox.cif.g09.slc.cpg/sg15_84_cif.got.tgz:167211.got - 2010.06.28 07:06:18.
