data_PCOD8129395
_publ_section_title
;
Structure prediction by ZEFSAII (Michael W. Deem and Ramdas Pophale) SiO2 
 PCOD8129395
Probable space group: P 21/C
;
_chemical_formula_sum "Si O2"
_cell_formula_units_Z 16
_cell_length_a 9.131079
_cell_length_b 15.006255
_cell_length_c 9.445407
_cell_angle_alpha 90.000000
_cell_angle_beta 29.047791
_cell_angle_gamma 90.000000
_cell_volume 628.404376
_symmetry_space_group_name_H-M "P 21/C"
_symmetry_group_IT_number 14
_symmetry_cell_setting 'monoclinic'
loop_
_space_group_symop_operation_xyz
x,y,z
-x,1/2+y,1/2-z
-x,-y,-z
x,1/2-y,1/2+z
loop_
_atom_site_type_symbol
_atom_site_label
_atom_site_fract_x
_atom_site_fract_y
_atom_site_fract_z
Si Si1 0.650248 0.306475 0.357070
Si Si2 0.672157 0.353927 0.649379
Si Si3 0.219797 0.026298 0.638709
Si Si4 0.077582 0.082516 0.334486
O O1 0.723605 0.299167 0.461451
O O2 0.425152 0.389643 0.517496
O O3 0.569337 0.208845 0.367362
O O4 0.944872 0.328389 0.016035
O O5 0.375805 0.416177 0.880193
O O6 0.967574 0.414568 0.435241
O O7 0.500000 0.000000 0.500000
O O8 0.056445 0.940828 0.707475
O O9 0.000000 0.000000 0.500000
#
# Coordination Sequence:
#
# PCOD8129395 Si02
#       4
#     4   4   4   4
#     4  12  26  46  77 107 147 196 246 303 380 436
#     4  12  26  49  72 109 151 191 246 306 371 449
#     4  12  27  48  75 109 148 192 253 307 364 438
#     4  12  23  48  78 102 142 198 248 301 361 444
#
# _framework density 25.461312
#
# number of rings (size 3 to 8) (size 9 to 14) (size 15 to 20)
#    0.000    0.000    5.000    4.500    3.500    0.000 
#    0.000    0.000    0.000    0.000    0.000    0.000 
#    0.000    0.000    0.000    0.000    0.000    0.000 
#
# Total GULP energy -198338.356127 kJ/mol
# GULP energy per Si atom -12396.147258 kJ/mol
# Density = 2.540336 g / cm^3
# Si number density = 25.461312 Si / 1000 Ang^3
#
#
#
# Elastic Constant Matrix: (Units=GPa)
#
#
# Indices 1 2 3 4 5 6 
#
# 1 92.9377 18.6082 -0.0136 0.0000 -9.3168 0.0000
# 2 18.6082 80.5343 23.4158 0.0000 -3.4961 0.0000
# 3 -0.0136 23.4158 90.3357 0.0000 -9.3149 0.0000
# 4 0.0000 0.0000 0.0000 57.6502 0.0000 -3.5253
# 5 -9.3168 -3.4961 -9.3149 0.0000 34.9757 0.0000
# 6 0.0000 0.0000 0.0000 -3.5253 0.0000 26.0560
#
#
#
# Elastic Compliance Matrix: (Units=1/GPa)
#
#
# Indices 1 2 3 4 5 6 
#
# 1 0.011644 -0.002865 0.001064 0.000000 0.003099 0.000000
# 2 -0.002865 0.014140 -0.003700 0.000000 -0.000335 0.000000
# 3 0.001064 -0.003700 0.012360 0.000000 0.003205 0.000000
# 4 0.000000 0.000000 0.000000 0.017491 0.000000 0.002366
# 5 0.003099 -0.000335 0.003205 0.000000 0.030237 0.000000
# 6 0.000000 0.000000 0.000000 0.002366 0.000000 0.038699
#
#
# Mechanical properties :
#
#
# Convention : Reuss Voigt Hill
#
# Bulk Modulus (GPa) = 36.84446 38.64760 37.74603
# Shear Modulus (GPa) = 34.57296 38.52285 36.54791
#
# Velocity S-wave (km/s) = 3.68892 3.89394 3.79282
# Velocity P-wave (km/s) = 5.71370 5.95222 5.83418
#
# Compressibility (1/GPa) = 0.02714112
#
# Stress axis : x y z
#
# Youngs Moduli (GPa) = 85.87804 70.71889 80.90842
#
# Poissons Ratio (x) = 0.20264 -0.08609
# Poissons Ratio (y) = 0.24607 0.29939
# Poissons Ratio (z) = -0.09138 0.26168
#
# Static dielectric constant tensor:
#      x y z
#    x 4.324420 0.000000 -0.027090 
#    y 0.000000 5.154470 0.000000 
#    z -0.027090 0.000000 4.891530 
# 
# 
# High freq. dielectric constant tensor:
#      x y z
#    x 2.012050 0.000000 -0.001880 
#    y 0.000000 2.013440 0.000000 
#    z -0.001880 0.000000 2.037670 
# 
# From -- ./inp_files/8945.got.cif
#   From: 2010.03.12/outbox.cif.g09.slc.cpg/sg14_5_cif.got.tgz:8945.got - 2010.03.31 13:35:05.
