data_PCOD8129895
_publ_section_title
;
Structure prediction by ZEFSAII (Michael W. Deem and Ramdas Pophale) SiO2 
 PCOD8129895
Probable space group: C 2/C
;
_chemical_formula_sum "Si O2"
_cell_formula_units_Z 64
_cell_length_a 28.147822
_cell_length_b 15.682385
_cell_length_c 12.681319
_cell_angle_alpha 90.000000
_cell_angle_beta 37.539192
_cell_angle_gamma 90.000000
_cell_volume 3410.792805
_symmetry_space_group_name_H-M "C 2/C"
_symmetry_group_IT_number 15
_symmetry_cell_setting 'monoclinic'
loop_
_space_group_symop_operation_xyz
x,y,z
-x,y,1/2-z
-x,-y,-z
x,-y,1/2+z
1/2+x,1/2+y,z
1/2-x,1/2+y,1/2-z
1/2-x,1/2-y,-z
1/2+x,1/2-y,1/2+z
loop_
_atom_site_type_symbol
_atom_site_label
_atom_site_fract_x
_atom_site_fract_y
_atom_site_fract_z
Si Si1 0.580371 0.387116 0.153266
Si Si2 0.193729 0.211595 0.317464
Si Si3 0.217491 0.958123 0.018012
Si Si4 0.951976 0.299773 0.730282
Si Si5 0.404711 0.856991 0.122025
Si Si6 0.320369 0.991883 0.151651
Si Si7 0.304357 0.102700 0.990557
Si Si8 0.282690 0.152148 0.573055
O O1 0.500000 0.427819 0.250000
O O2 0.625542 0.455909 0.147796
O O3 0.561204 0.301856 0.253731
O O4 0.637531 0.364391 0.954804
O O5 0.140015 0.285128 0.364700
O O6 0.255339 0.181187 0.123021
O O7 0.236931 0.254434 0.343909
O O8 0.229939 0.872526 0.065787
O O9 0.242731 0.043259 0.035664
O O10 0.267508 0.951837 0.822824
O O11 0.000000 0.323588 0.750000
O O12 0.003475 0.333051 0.540015
O O13 0.871848 0.351742 0.874282
O O14 0.372146 0.860022 0.297855
O O15 0.392120 0.949453 0.088868
O O16 0.348223 0.053234 0.007785
O O17 0.268261 0.917201 0.190821
#
# Coordination Sequence:
#
# PCOD8129895 Si02
#       8
#     8   8   8   8   8   8   8   8
#     4  10  18  33  57  78 105 138 180 234 273 312
#     4  10  17  32  54  79 105 137 185 227 264 319
#     4  10  20  34  53  82 108 142 181 226 277 329
#     4  10  16  32  53  77 105 139 184 224 257 310
#     4  10  18  32  54  76 106 146 185 218 262 333
#     4   9  17  33  49  74 116 138 173 225 268 319
#     4  10  20  32  51  81 112 141 179 224 277 329
#     4   9  19  32  55  81 102 145 184 223 267 319
#
# _framework density 18.763967000000001
#
# number of rings (size 3 to 8) (size 9 to 14) (size 15 to 20)
#    0.000    2.250    6.250    0.375    0.000    2.000 
#    0.000    7.500    0.000    0.000    0.000    0.000 
#    0.000    0.000    0.000    0.000    0.000    0.000 
#
# Total GULP energy -396551.652423 kJ/mol
# GULP energy per Si atom -12392.239138 kJ/mol
# Density = 1.872126 g / cm^3
# Si number density = 18.763967 Si / 1000 Ang^3
#
#
#
# Elastic Constant Matrix: (Units=GPa)
#
#
# Indices 1 2 3 4 5 6 
#
# 1 66.7567 24.5077 45.5291 0.0000 0.6837 0.0000
# 2 24.5077 40.3515 34.7332 0.0000 0.1986 0.0000
# 3 45.5291 34.7332 120.3708 0.0000 10.0443 0.0000
# 4 0.0000 0.0000 0.0000 31.2829 0.0000 0.8862
# 5 0.6837 0.1986 10.0443 0.0000 20.9885 0.0000
# 6 0.0000 0.0000 0.0000 0.8862 0.0000 21.1720
#
#
#
# Elastic Compliance Matrix: (Units=1/GPa)
#
#
# Indices 1 2 3 4 5 6 
#
# 1 0.022197 -0.008113 -0.006251 0.000000 0.002345 0.000000
# 2 -0.008113 0.036335 -0.007717 0.000000 0.003614 0.000000
# 3 -0.006251 -0.007717 0.013411 0.000000 -0.006141 0.000000
# 4 0.000000 0.000000 0.000000 0.032004 0.000000 -0.001340
# 5 0.002345 0.003614 -0.006141 0.000000 0.050474 0.000000
# 6 0.000000 0.000000 0.000000 -0.001340 0.000000 0.047288
#
#
# Mechanical properties :
#
#
# Convention : Reuss Voigt Hill
#
# Bulk Modulus (GPa) = 35.99516 48.55764 42.27640
# Shear Modulus (GPa) = 19.59778 22.86929 21.23353
#
# Velocity S-wave (km/s) = 3.23528 3.49490 3.36759
# Velocity P-wave (km/s) = 5.76028 6.49770 6.14007
#
# Compressibility (1/GPa) = 0.02778151
#
# Stress axis : x y z
#
# Youngs Moduli (GPa) = 45.05095 27.52194 74.56456
#
# Poissons Ratio (x) = 0.22328 0.46607
# Poissons Ratio (y) = 0.36549 0.57544
# Poissons Ratio (z) = 0.28159 0.21240
#
# Static dielectric constant tensor:
#      x y z
#    x 3.355290 0.000000 0.117110 
#    y 0.000000 3.381310 0.000000 
#    z 0.117110 0.000000 3.551670 
# 
# 
# High freq. dielectric constant tensor:
#      x y z
#    x 1.704220 0.000000 0.014710 
#    y 0.000000 1.715650 0.000000 
#    z 0.014710 0.000000 1.718660 
# 
# From -- ./inp_files/126877.got.cif
#   From: 2010.06.25/outbox.cif.g09.slc.cpg/sg15_64_cif.got.tgz:126877.got - 2010.06.28 07:06:18.
