data_PCOD8129699
_publ_section_title
;
Structure prediction by ZEFSAII (Michael W. Deem and Ramdas Pophale) SiO2 
 PCOD8129699
Probable space group: C 2/C
;
_chemical_formula_sum "Si O2"
_cell_formula_units_Z 64
_cell_length_a 12.211005
_cell_length_b 15.853332
_cell_length_c 17.894670
_cell_angle_alpha 90.000000
_cell_angle_beta 94.573191
_cell_angle_gamma 90.000000
_cell_volume 3453.112967
_symmetry_space_group_name_H-M "C 2/C"
_symmetry_group_IT_number 15
_symmetry_cell_setting 'monoclinic'
loop_
_space_group_symop_operation_xyz
x,y,z
-x,y,1/2-z
-x,-y,-z
x,-y,1/2+z
1/2+x,1/2+y,z
1/2-x,1/2+y,1/2-z
1/2-x,1/2-y,-z
1/2+x,1/2-y,1/2+z
loop_
_atom_site_type_symbol
_atom_site_label
_atom_site_fract_x
_atom_site_fract_y
_atom_site_fract_z
Si Si1 0.045174 0.545641 0.833952
Si Si2 0.090148 0.743216 0.053371
Si Si3 0.844695 0.582703 0.925735
Si Si4 0.666276 0.526283 0.467608
Si Si5 0.204776 0.342611 0.425501
Si Si6 0.778620 0.238994 0.414890
Si Si7 0.461732 0.376273 0.963829
Si Si8 0.088271 0.626434 0.401785
O O1 0.139892 0.615147 0.853322
O O2 0.089181 0.450405 0.843576
O O3 0.000000 0.563858 0.750000
O O4 0.952415 0.550638 0.891550
O O5 0.202229 0.776571 0.099153
O O6 0.031342 0.671374 0.099744
O O7 0.118526 0.706466 0.973016
O O8 0.005852 0.820708 0.036125
O O9 0.749190 0.511970 0.910484
O O10 0.801873 0.668220 0.883461
O O11 0.872233 0.595346 0.014595
O O12 0.736444 0.584067 0.525830
O O13 0.617423 0.448865 0.511164
O O14 0.566447 0.581568 0.426417
O O15 0.750000 0.250000 0.500000
O O16 0.888949 0.183564 0.406898
O O17 0.674925 0.193184 0.371213
#
# Coordination Sequence:
#
# PCOD8129699 Si02
#       8
#     8   8   8   8   8   8   8   8
#     4  12  24  36  51  74 107 145 183 218 272 331
#     4  10  18  29  53  76 104 128 169 221 266 314
#     4  11  18  33  54  77 101 139 175 223 269 312
#     4  10  18  26  48  75 108 130 163 213 267 306
#     4  10  19  32  47  76 103 135 164 217 274 314
#     4  10  16  28  52  80 107 129 170 215 271 311
#     4  10  16  26  42  83 110 125 158 214 270 310
#     4  11  18  33  55  80 104 137 175 224 266 314
#
# _framework density 18.534002000000001
#
# number of rings (size 3 to 8) (size 9 to 14) (size 15 to 20)
#    0.000    1.500    7.500    1.125    0.000    0.000 
#    0.000    1.250    0.000    0.000    0.000   15.750 
#    0.000    0.000    0.000    0.000    0.000    0.000 
#
# Total GULP energy -396597.877626 kJ/mol
# GULP energy per Si atom -12393.683676 kJ/mol
# Density = 1.849182 g / cm^3
# Si number density = 18.534002 Si / 1000 Ang^3
#
#
#
# Elastic Constant Matrix: (Units=GPa)
#
#
# Indices 1 2 3 4 5 6 
#
# 1 113.8578 41.3486 23.9168 0.0000 13.6184 0.0000
# 2 41.3486 92.1303 24.6533 0.0000 16.4989 0.0000
# 3 23.9168 24.6533 27.7719 0.0000 10.7012 0.0000
# 4 0.0000 0.0000 0.0000 9.4199 0.0000 4.1090
# 5 13.6184 16.4989 10.7012 0.0000 8.8345 0.0000
# 6 0.0000 0.0000 0.0000 4.1090 0.0000 58.4139
#
#
#
# Elastic Compliance Matrix: (Units=1/GPa)
#
#
# Indices 1 2 3 4 5 6 
#
# 1 0.011619 -0.002636 -0.004991 0.000000 -0.006942 0.000000
# 2 -0.002636 0.017307 -0.004135 0.000000 -0.023251 0.000000
# 3 -0.004991 -0.004135 0.071328 0.000000 -0.070984 0.000000
# 4 0.000000 0.000000 0.000000 0.109518 0.000000 -0.007704
# 5 -0.006942 -0.023251 -0.070984 0.000000 0.253301 0.000000
# 6 0.000000 0.000000 0.000000 -0.007704 0.000000 0.017661
#
#
# Mechanical properties :
#
#
# Convention : Reuss Voigt Hill
#
# Bulk Modulus (GPa) = 13.03252 45.95527 29.49389
# Shear Modulus (GPa) = 9.43689 24.92308 17.17998
#
# Velocity S-wave (km/s) = 2.25892 3.67102 3.04788
# Velocity P-wave (km/s) = 3.72164 6.54351 5.32297
#
# Compressibility (1/GPa) = 0.07673113
#
# Stress axis : x y z
#
# Youngs Moduli (GPa) = 86.06660 57.77851 14.01965
#
# Poissons Ratio (x) = 0.15229 0.06998
# Poissons Ratio (y) = 0.22685 0.05797
# Poissons Ratio (z) = 0.42958 0.23890
#
# Static dielectric constant tensor:
#      x y z
#    x 3.995170 0.000000 0.024570 
#    y 0.000000 4.150900 0.000000 
#    z 0.024570 0.000000 2.549580 
# 
# 
# High freq. dielectric constant tensor:
#      x y z
#    x 1.750580 0.000000 0.000100 
#    y 0.000000 1.752070 0.000000 
#    z 0.000100 0.000000 1.607210 
# 
# From -- ./inp_files/199179.got.cif
#   From: 2010.06.25/outbox.cif.g09.slc.cpg/sg15_100_cif.got.tgz:199179.got - 2010.06.28 07:06:18.
