data_PCOD8129654
_publ_section_title
;
Structure prediction by ZEFSAII (Michael W. Deem and Ramdas Pophale) SiO2 
 PCOD8129654
Probable space group: C 2/C
;
_chemical_formula_sum "Si O2"
_cell_formula_units_Z 64
_cell_length_a 25.486471
_cell_length_b 16.181141
_cell_length_c 11.756757
_cell_angle_alpha 90.000000
_cell_angle_beta 50.593087
_cell_angle_gamma 90.000000
_cell_volume 3746.218669
_symmetry_space_group_name_H-M "C 2/C"
_symmetry_group_IT_number 15
_symmetry_cell_setting 'monoclinic'
loop_
_space_group_symop_operation_xyz
x,y,z
-x,y,1/2-z
-x,-y,-z
x,-y,1/2+z
1/2+x,1/2+y,z
1/2-x,1/2+y,1/2-z
1/2-x,1/2-y,-z
1/2+x,1/2-y,1/2+z
loop_
_atom_site_type_symbol
_atom_site_label
_atom_site_fract_x
_atom_site_fract_y
_atom_site_fract_z
Si Si1 0.697685 0.368188 0.957355
Si Si2 0.921338 0.399044 0.842123
Si Si3 0.855132 0.654833 0.209825
Si Si4 0.279119 0.837252 0.418101
Si Si5 0.832938 0.546218 0.041052
Si Si6 0.710597 0.462511 0.348376
Si Si7 0.317090 0.667545 0.768252
Si Si8 0.831398 0.292399 0.116360
O O1 0.779089 0.366596 0.855842
O O2 0.672916 0.459378 0.955877
O O3 0.668093 0.306379 0.902867
O O4 0.667681 0.343419 0.120087
O O5 0.908592 0.362852 0.734875
O O6 0.000000 0.415820 0.750000
O O7 0.882737 0.485721 0.906477
O O8 0.896836 0.333647 0.969704
O O9 0.875425 0.598623 0.074884
O O10 0.857541 0.751438 0.171278
O O11 0.250000 0.750000 0.500000
O O12 0.305587 0.886850 0.489708
O O13 0.226638 0.898152 0.427466
O O14 0.335245 0.813957 0.245065
O O15 0.775104 0.494262 0.185808
O O16 0.659168 0.414112 0.333704
O O17 0.236650 0.674378 0.851717
#
# Coordination Sequence:
#
# PCOD8129654 Si02
#       8
#     8   8   8   8   8   8   8   8
#     4  10  16  28  53  71 103 132 164 213 269 314
#     4  12  23  36  52  72 101 144 190 219 246 294
#     4  10  19  33  51  70  95 139 174 211 261 312
#     4  11  20  32  51  77 114 137 163 210 272 321
#     4  11  20  34  48  72 108 141 172 214 252 304
#     4  10  18  27  48  78 105 133 162 203 267 324
#     4  10  15  29  50  70 103 128 162 211 272 314
#     4  10  19  34  48  76 103 137 177 216 258 308
#
# _framework density 17.083894000000001
#
# number of rings (size 3 to 8) (size 9 to 14) (size 15 to 20)
#    0.000    1.500    5.000    6.000    0.000    0.500 
#    0.000    0.000    0.000    0.000    0.000    0.875 
#    0.000    0.000    0.000    0.000    0.000    0.000 
#
# Total GULP energy -396601.840318 kJ/mol
# GULP energy per Si atom -12393.807510 kJ/mol
# Density = 1.704501 g / cm^3
# Si number density = 17.083894 Si / 1000 Ang^3
#
#
#
# Elastic Constant Matrix: (Units=GPa)
#
#
# Indices 1 2 3 4 5 6 
#
# 1 48.5325 34.1500 27.5957 0.0000 11.0297 0.0000
# 2 34.1500 148.8964 32.0533 0.0000 12.5703 0.0000
# 3 27.5957 32.0533 48.1486 0.0000 17.9337 0.0000
# 4 0.0000 0.0000 0.0000 29.7637 0.0000 17.3637
# 5 11.0297 12.5703 17.9337 0.0000 25.3056 0.0000
# 6 0.0000 0.0000 0.0000 17.3637 0.0000 24.0220
#
#
#
# Elastic Compliance Matrix: (Units=1/GPa)
#
#
# Indices 1 2 3 4 5 6 
#
# 1 0.032531 -0.004018 -0.015531 0.000000 -0.001176 0.000000
# 2 -0.004018 0.008337 -0.003202 0.000000 -0.000121 0.000000
# 3 -0.015531 -0.003202 0.038977 0.000000 -0.019262 0.000000
# 4 0.000000 0.000000 0.000000 0.058096 0.000000 -0.041994
# 5 -0.001176 -0.000121 -0.019262 0.000000 0.053740 0.000000
# 6 0.000000 0.000000 0.000000 -0.041994 0.000000 0.071983
#
#
# Mechanical properties :
#
#
# Convention : Reuss Voigt Hill
#
# Bulk Modulus (GPa) = 29.11995 48.13061 38.62528
# Shear Modulus (GPa) = 15.59505 25.93685 20.76595
#
# Velocity S-wave (km/s) = 3.02462 3.90064 3.49022
# Velocity P-wave (km/s) = 5.41110 6.96570 6.23703
#
# Compressibility (1/GPa) = 0.03434072
#
# Stress axis : x y z
#
# Youngs Moduli (GPa) = 30.74022 119.94390 25.65625
#
# Poissons Ratio (x) = 0.48197 0.39848
# Poissons Ratio (y) = 0.12352 0.08216
# Poissons Ratio (z) = 0.47744 0.38409
#
# Static dielectric constant tensor:
#      x y z
#    x 2.893450 0.000000 0.495570 
#    y 0.000000 3.719510 0.000000 
#    z 0.495570 0.000000 3.106690 
# 
# 
# High freq. dielectric constant tensor:
#      x y z
#    x 1.612270 0.000000 0.055310 
#    y 0.000000 1.689630 0.000000 
#    z 0.055310 0.000000 1.630510 
# 
# From -- ./inp_files/123698.got.cif
#   From: 2010.06.25/outbox.cif.g09.slc.cpg/sg15_62_cif.got.tgz:123698.got - 2010.06.28 07:06:18.
