data_PCOD8129420
_publ_section_title
;
Structure prediction by ZEFSAII (Michael W. Deem and Ramdas Pophale) SiO2 
 PCOD8129420
Probable space group: P 21/C
;
_chemical_formula_sum "Si O2"
_cell_formula_units_Z 20
_cell_length_a 8.846634
_cell_length_b 11.096431
_cell_length_c 16.502393
_cell_angle_alpha 90.000000
_cell_angle_beta 30.398890
_cell_angle_gamma 90.000000
_cell_volume 819.734959
_symmetry_space_group_name_H-M "P 21/C"
_symmetry_group_IT_number 14
_symmetry_cell_setting 'monoclinic'
loop_
_space_group_symop_operation_xyz
x,y,z
-x,1/2+y,1/2-z
-x,-y,-z
x,1/2-y,1/2+z
loop_
_atom_site_type_symbol
_atom_site_label
_atom_site_fract_x
_atom_site_fract_y
_atom_site_fract_z
Si Si1 0.962868 0.584280 0.937967
Si Si2 0.379304 0.230728 0.698169
Si Si3 0.906756 0.178401 0.046858
Si Si4 0.202010 0.444055 0.677865
Si Si5 0.313224 0.535033 0.212613
O O1 0.128255 0.710899 0.874578
O O2 0.137035 0.527549 0.783579
O O3 0.615745 0.613482 0.076417
O O4 0.000000 0.500000 0.000000
O O5 0.663636 0.312256 0.587946
O O6 0.219387 0.306475 0.701777
O O7 0.445477 0.098279 0.633366
O O8 0.215343 0.199209 0.858188
O O9 0.864233 0.055078 0.119210
O O10 0.500000 0.500000 0.500000
O O11 0.920635 0.434917 0.748713
#
# Coordination Sequence:
#
# PCOD8129420 Si02
#       5
#     4   4   4   4   4
#     4  12  24  50  77 107 150 205 256 317 384 461
#     4  12  25  49  76 111 153 196 259 321 376 477
#     4  12  25  46  79 107 148 198 261 315 384 455
#     4  12  29  48  75 117 160 198 255 321 394 462
#     4  12  27  47  78 111 154 204 253 322 399 445
#
# _framework density 24.398130999999999
#
# number of rings (size 3 to 8) (size 9 to 14) (size 15 to 20)
#    0.000    0.000    6.000    2.400    5.600    0.000 
#    0.000    0.000    0.000    0.000    0.000    0.000 
#    0.000    0.000    0.000    0.000    0.000    0.000 
#
# Total GULP energy -247894.398526 kJ/mol
# GULP energy per Si atom -12394.719926 kJ/mol
# Density = 2.434260 g / cm^3
# Si number density = 24.398131 Si / 1000 Ang^3
#
#
#
# Elastic Constant Matrix: (Units=GPa)
#
#
# Indices 1 2 3 4 5 6 
#
# 1 150.8921 18.5875 31.4506 0.0000 -17.6334 0.0000
# 2 18.5875 45.3096 -14.3842 0.0000 2.3652 0.0000
# 3 31.4506 -14.3842 101.9854 0.0000 10.2872 0.0000
# 4 0.0000 0.0000 0.0000 34.9378 0.0000 5.9388
# 5 -17.6334 2.3652 10.2872 0.0000 46.8184 0.0000
# 6 0.0000 0.0000 0.0000 5.9388 0.0000 40.5164
#
#
#
# Elastic Compliance Matrix: (Units=1/GPa)
#
#
# Indices 1 2 3 4 5 6 
#
# 1 0.008513 -0.004906 -0.003749 0.000000 0.004278 0.000000
# 2 -0.004906 0.026103 0.005639 0.000000 -0.004405 0.000000
# 3 -0.003749 0.005639 0.012198 0.000000 -0.004377 0.000000
# 4 0.000000 0.000000 0.000000 0.029354 0.000000 -0.004303
# 5 0.004278 -0.004405 -0.004377 0.000000 0.024154 0.000000
# 6 0.000000 0.000000 0.000000 -0.004303 0.000000 0.025312
#
#
# Mechanical properties :
#
#
# Convention : Reuss Voigt Hill
#
# Bulk Modulus (GPa) = 24.52003 41.05497 32.78750
# Shear Modulus (GPa) = 34.42129 41.95674 38.18901
#
# Velocity S-wave (km/s) = 3.76016 4.15139 3.96061
# Velocity P-wave (km/s) = 5.37806 6.31208 5.86370
#
# Compressibility (1/GPa) = 0.04078299
#
# Stress axis : x y z
#
# Youngs Moduli (GPa) = 117.47091 38.30998 81.97991
#
# Poissons Ratio (x) = 0.18793 0.30731
# Poissons Ratio (y) = 0.57626 -0.46226
# Poissons Ratio (z) = 0.44035 -0.21602
#
# Static dielectric constant tensor:
#      x y z
#    x 4.708490 0.000000 0.083030 
#    y 0.000000 4.552880 0.000000 
#    z 0.083030 0.000000 4.414020 
# 
# 
# High freq. dielectric constant tensor:
#      x y z
#    x 1.980440 0.000000 -0.005110 
#    y 0.000000 1.974410 0.000000 
#    z -0.005110 0.000000 1.975120 
# 
# From -- ./inp_files/7845.got.cif
#   From: 2010.03.12/outbox.cif.g09.slc.cpg/sg14_4_cif.got.tgz:7845.got - 2010.03.31 13:35:05.
