data_PCOD8129854
_publ_section_title
;
Structure prediction by ZEFSAII (Michael W. Deem and Ramdas Pophale) SiO2 
 PCOD8129854
Probable space group: C 2/C
;
_chemical_formula_sum "Si O2"
_cell_formula_units_Z 44
_cell_length_a 9.488030
_cell_length_b 16.862578
_cell_length_c 17.083010
_cell_angle_alpha 90.000000
_cell_angle_beta 49.525707
_cell_angle_gamma 90.000000
_cell_volume 2079.104307
_symmetry_space_group_name_H-M "C 2/C"
_symmetry_group_IT_number 15
_symmetry_cell_setting 'monoclinic'
loop_
_space_group_symop_operation_xyz
x,y,z
-x,y,1/2-z
-x,-y,-z
x,-y,1/2+z
1/2+x,1/2+y,z
1/2-x,1/2+y,1/2-z
1/2-x,1/2-y,-z
1/2+x,1/2-y,1/2+z
loop_
_atom_site_type_symbol
_atom_site_label
_atom_site_fract_x
_atom_site_fract_y
_atom_site_fract_z
Si Si1 0.721827 0.797096 0.787205
Si Si2 0.311235 0.036715 0.466136
Si Si3 0.585123 0.689278 0.544076
Si Si4 0.500000 0.908764 0.750000
Si Si5 0.530952 0.248590 0.570234
Si Si6 0.620975 0.898185 0.960807
O O1 0.591549 0.718947 0.842887
O O2 0.629239 0.853798 0.756431
O O3 0.750935 0.841674 0.859882
O O4 0.923425 0.767183 0.688712
O O5 0.149600 0.100201 0.543101
O O6 0.367509 0.036849 0.353639
O O7 0.500578 0.051395 0.444396
O O8 0.253633 0.950685 0.523285
O O9 0.750000 0.750000 0.500000
O O10 0.535797 0.688091 0.470191
O O11 0.750000 0.250000 0.500000
O O12 0.482872 0.158962 0.559708
#
# Coordination Sequence:
#
# PCOD8129854 Si02
#       6
#     8   8   8   4   8   8
#     4  10  19  34  63  93 124 170 222 263 325 385
#     4  10  18  36  61  93 129 161 209 272 330 373
#     4  11  18  35  63  93 122 162 223 270 307 391
#     4  10  16  30  64  90 116 170 218 266 312 388
#     4  11  22  38  62  91 126 171 218 265 318 392
#     4   9  21  36  59  91 132 163 200 273 331 378
#
# _framework density 21.162959000000001
#
# number of rings (size 3 to 8) (size 9 to 14) (size 15 to 20)
#    0.000    1.818    7.273    0.000    0.000    2.909 
#    0.000    4.545   20.000    0.000    0.000    0.000 
#    0.000    0.000    0.000    0.000    0.000    0.000 
#
# Total GULP energy -272544.374904 kJ/mol
# GULP energy per Si atom -12388.380677 kJ/mol
# Density = 2.111479 g / cm^3
# Si number density = 21.162959 Si / 1000 Ang^3
#
#
#
# Elastic Constant Matrix: (Units=GPa)
#
#
# Indices 1 2 3 4 5 6 
#
# 1 61.8706 40.8536 55.8176 0.0008 2.2137 -0.0008
# 2 40.8536 109.3817 67.2876 0.0007 17.4600 -0.0007
# 3 55.8176 67.2876 176.8575 0.0012 3.5007 -0.0013
# 4 0.0008 0.0007 0.0012 28.0018 -0.0010 11.6363
# 5 2.2137 17.4600 3.5007 -0.0010 33.6957 0.0010
# 6 -0.0008 -0.0007 -0.0013 11.6363 0.0010 41.4439
#
#
#
# Elastic Compliance Matrix: (Units=1/GPa)
#
#
# Indices 1 2 3 4 5 6 
#
# 1 0.025363 -0.006365 -0.005627 0.000000 0.002217 0.000000
# 2 -0.006365 0.014747 -0.003466 0.000000 -0.006863 0.000000
# 3 -0.005627 -0.003466 0.008724 0.000000 0.001259 0.000000
# 4 0.000000 0.000000 0.000000 0.040429 0.000002 -0.011351
# 5 0.002217 -0.006863 0.001259 0.000002 0.032957 -0.000001
# 6 0.000000 0.000000 0.000000 -0.011351 -0.000001 0.027316
#
#
# Mechanical properties :
#
#
# Convention : Reuss Voigt Hill
#
# Bulk Modulus (GPa) = 55.81032 75.11417 65.46224
# Shear Modulus (GPa) = 26.82030 32.90499 29.86265
#
# Velocity S-wave (km/s) = 3.56381 3.94742 3.76051
# Velocity P-wave (km/s) = 6.58508 7.50643 7.06080
#
# Compressibility (1/GPa) = 0.01791783
#
# Stress axis : x y z
#
# Youngs Moduli (GPa) = 39.42772 67.80817 114.62737
#
# Poissons Ratio (x) = 0.43162 0.64499
# Poissons Ratio (y) = 0.25097 0.39731
# Poissons Ratio (z) = 0.22185 0.23503
#
# Static dielectric constant tensor:
#      x y z
#    x 3.890520 0.000000 0.430590 
#    y 0.000000 4.317400 0.000000 
#    z 0.430590 0.000000 4.090750 
# 
# 
# High freq. dielectric constant tensor:
#      x y z
#    x 1.828530 0.000000 0.020320 
#    y 0.000000 1.813090 0.000000 
#    z 0.020320 0.000000 1.820170 
# 
# From -- ./inp_files/78204.got.cif
#   From: 2010.06.25/outbox.cif.g09.slc.cpg/sg15_40_cif.got.tgz:78204.got - 2010.06.28 07:06:18.
