data_PCOD8129839
_publ_section_title
;
Structure prediction by ZEFSAII (Michael W. Deem and Ramdas Pophale) SiO2 
 PCOD8129839
Probable space group: C 2/C
;
_chemical_formula_sum "Si O2"
_cell_formula_units_Z 40
_cell_length_a 15.283875
_cell_length_b 23.128240
_cell_length_c 5.283735
_cell_angle_alpha 90.000000
_cell_angle_beta 110.849296
_cell_angle_gamma 90.000000
_cell_volume 1745.442714
_symmetry_space_group_name_H-M "C 2/C"
_symmetry_group_IT_number 15
_symmetry_cell_setting 'monoclinic'
loop_
_space_group_symop_operation_xyz
x,y,z
-x,y,1/2-z
-x,-y,-z
x,-y,1/2+z
1/2+x,1/2+y,z
1/2-x,1/2+y,1/2-z
1/2-x,1/2-y,-z
1/2+x,1/2-y,1/2+z
loop_
_atom_site_type_symbol
_atom_site_label
_atom_site_fract_x
_atom_site_fract_y
_atom_site_fract_z
Si Si1 0.690836 0.022983 0.272191
Si Si2 0.235460 0.346340 0.776200
Si Si3 0.945654 0.271486 0.946949
Si Si4 0.601540 0.525614 0.502000
Si Si5 0.354785 0.345292 0.397816
O O1 0.690840 0.090435 0.212257
O O2 0.638564 0.009912 0.485966
O O3 0.792810 0.996001 0.441082
O O4 0.156827 0.298480 0.660447
O O5 0.309148 0.337856 0.626681
O O6 0.280581 0.336949 0.096856
O O7 0.935898 0.202110 0.951097
O O8 0.000000 0.290101 0.750000
O O9 0.000000 0.294528 0.250000
O O10 0.555345 0.515493 0.174241
O O11 0.597307 0.592146 0.579170
#
# Coordination Sequence:
#
# PCOD8129839 Si02
#       5
#     8   8   8   8   8
#     4  10  16  30  54  96 123 138 179 261 316 332
#     4  12  21  38  68  95 116 156 213 259 292 356
#     4  12  28  46  58  84 132 172 200 248 310 362
#     4  10  16  30  54  96 123 138 179 261 316 332
#     4  12  21  38  68  95 116 156 213 259 292 356
#
# _framework density 22.916820999999999
#
# number of rings (size 3 to 8) (size 9 to 14) (size 15 to 20)
#    0.000    0.800    8.000    3.600    0.000    0.000 
#    0.000    0.000    0.000    7.200    0.000    0.000 
#    0.000    0.000    0.000    0.000    0.000    0.000 
#
# Total GULP energy -248077.310382 kJ/mol
# GULP energy per Si atom -12403.865519 kJ/mol
# Density = 2.286466 g / cm^3
# Si number density = 22.916821 Si / 1000 Ang^3
#
#
#
# Elastic Constant Matrix: (Units=GPa)
#
#
# Indices 1 2 3 4 5 6 
#
# 1 46.6751 11.0148 32.8599 0.0000 -11.8688 0.0000
# 2 11.0148 85.4216 28.8456 0.0000 5.7339 0.0000
# 3 32.8599 28.8456 187.8266 0.0000 -22.6615 0.0000
# 4 0.0000 0.0000 0.0000 28.4901 0.0000 -4.2304
# 5 -11.8688 5.7339 -22.6615 0.0000 36.9083 0.0000
# 6 0.0000 0.0000 0.0000 -4.2304 0.0000 15.8144
#
#
#
# Elastic Compliance Matrix: (Units=1/GPa)
#
#
# Indices 1 2 3 4 5 6 
#
# 1 0.026135 -0.002696 -0.003341 0.000000 0.006772 0.000000
# 2 -0.002696 0.013016 -0.002026 0.000000 -0.004133 0.000000
# 3 -0.003341 -0.002026 0.006618 0.000000 0.003304 0.000000
# 4 0.000000 0.000000 0.000000 0.036552 0.000000 0.009778
# 5 0.006772 -0.004133 0.003304 0.000000 0.031943 0.000000
# 6 0.000000 0.000000 0.000000 0.009778 0.000000 0.065849
#
#
# Mechanical properties :
#
#
# Convention : Reuss Voigt Hill
#
# Bulk Modulus (GPa) = 33.73516 51.70711 42.72113
# Shear Modulus (GPa) = 24.25770 32.72277 28.49024
#
# Velocity S-wave (km/s) = 3.25701 3.78285 3.52973
# Velocity P-wave (km/s) = 5.37557 6.45692 5.94090
#
# Compressibility (1/GPa) = 0.02964266
#
# Stress axis : x y z
#
# Youngs Moduli (GPa) = 38.26257 76.82941 151.09551
#
# Poissons Ratio (x) = 0.20716 0.50484
# Poissons Ratio (y) = 0.10317 0.30610
# Poissons Ratio (z) = 0.12784 0.15565
#
# Static dielectric constant tensor:
#      x y z
#    x 3.876450 0.000000 -0.363440 
#    y 0.000000 4.138960 0.000000 
#    z -0.363440 0.000000 4.834900 
# 
# 
# High freq. dielectric constant tensor:
#      x y z
#    x 1.881610 0.000000 -0.023530 
#    y 0.000000 1.904930 0.000000 
#    z -0.023530 0.000000 1.945810 
# 
# From -- ./inp_files/7660.got.cif
#   From: 2010.06.25/outbox.cif.g09.slc.cpg/sg15_4_cif.got.tgz:7660.got - 2010.06.28 07:06:18.
