data_PCOD8129448
_publ_section_title
;
Structure prediction by ZEFSAII (Michael W. Deem and Ramdas Pophale) SiO2 
 PCOD8129448
Probable space group: P 21/C
;
_chemical_formula_sum "Si O2"
_cell_formula_units_Z 24
_cell_length_a 10.440131
_cell_length_b 9.145779
_cell_length_c 12.733498
_cell_angle_alpha 90.000000
_cell_angle_beta 65.987824
_cell_angle_gamma 90.000000
_cell_volume 1110.614745
_symmetry_space_group_name_H-M "P 21/C"
_symmetry_group_IT_number 14
_symmetry_cell_setting 'monoclinic'
loop_
_space_group_symop_operation_xyz
x,y,z
-x,1/2+y,1/2-z
-x,-y,-z
x,1/2-y,1/2+z
loop_
_atom_site_type_symbol
_atom_site_label
_atom_site_fract_x
_atom_site_fract_y
_atom_site_fract_z
Si Si1 0.360689 0.909013 0.540555
Si Si2 0.506915 0.130368 0.915368
Si Si3 0.226196 0.240951 0.914727
Si Si4 0.018793 0.726345 0.845124
Si Si5 0.288803 0.948155 0.328317
Si Si6 0.130254 0.461518 0.267650
O O1 0.384335 0.747200 0.575166
O O2 0.306802 0.894837 0.440697
O O3 0.500000 0.000000 0.500000
O O4 0.249880 0.993880 0.647445
O O5 0.353403 0.199630 0.950126
O O6 0.568160 0.079286 0.783315
O O7 0.500000 0.000000 0.000000
O O8 0.264900 0.378034 0.828324
O O9 0.194222 0.101291 0.853625
O O10 0.094226 0.295801 0.025848
O O11 0.160954 0.643021 0.824581
O O12 0.966589 0.662173 0.751916
O O13 0.037624 0.898894 0.826912
#
# Coordination Sequence:
#
# PCOD8129448 Si02
#       6
#     4   4   4   4   4   4
#     4  12  25  49  73 106 147 192 235 296 364 426
#     4  12  30  46  76 109 143 190 244 298 357 430
#     4  12  28  47  74 105 147 192 240 299 359 431
#     4  12  27  48  74 109 142 195 236 302 355 433
#     4  12  27  46  76 104 149 187 244 294 364 425
#     4  12  27  47  74 105 149 185 244 294 363 422
#
# _framework density 21.609653999999999
#
# number of rings (size 3 to 8) (size 9 to 14) (size 15 to 20)
#    0.000    0.000    5.000    3.000   14.000    0.000 
#    0.000    0.000    0.000    0.000    0.000    0.000 
#    0.000    0.000    0.000    0.000    0.000    0.000 
#
# Total GULP energy -297795.082336 kJ/mol
# GULP energy per Si atom -12408.128431 kJ/mol
# Density = 2.156047 g / cm^3
# Si number density = 21.609654 Si / 1000 Ang^3
#
#
#
# Elastic Constant Matrix: (Units=GPa)
#
#
# Indices 1 2 3 4 5 6 
#
# 1 100.9198 30.1157 29.1314 0.0000 8.0452 0.0000
# 2 30.1157 141.3743 22.5679 0.0000 12.8965 0.0000
# 3 29.1314 22.5679 80.3789 0.0000 -1.0972 0.0000
# 4 0.0000 0.0000 0.0000 42.5054 0.0000 7.3541
# 5 8.0452 12.8965 -1.0972 0.0000 40.5739 0.0000
# 6 0.0000 0.0000 0.0000 7.3541 0.0000 43.6184
#
#
#
# Elastic Compliance Matrix: (Units=1/GPa)
#
#
# Indices 1 2 3 4 5 6 
#
# 1 0.011657 -0.001711 -0.003770 0.000000 -0.001870 0.000000
# 2 -0.001711 0.007900 -0.001628 0.000000 -0.002216 0.000000
# 3 -0.003770 -0.001628 0.014287 0.000000 0.001651 0.000000
# 4 0.000000 0.000000 0.000000 0.024233 0.000000 -0.004086
# 5 -0.001870 -0.002216 0.001651 0.000000 0.025766 0.000000
# 6 0.000000 0.000000 0.000000 -0.004086 0.000000 0.023615
#
#
# Mechanical properties :
#
#
# Convention : Reuss Voigt Hill
#
# Bulk Modulus (GPa) = 50.95329 54.03367 52.49348
# Shear Modulus (GPa) = 38.99620 41.39675 40.19647
#
# Velocity S-wave (km/s) = 4.25264 4.38157 4.31759
# Velocity P-wave (km/s) = 6.90966 7.11732 7.01426
#
# Compressibility (1/GPa) = 0.01962582
#
# Stress axis : x y z
#
# Youngs Moduli (GPa) = 85.78827 126.58373 69.99336
#
# Poissons Ratio (x) = 0.21656 0.26386
# Poissons Ratio (y) = 0.14676 0.11397
# Poissons Ratio (z) = 0.32341 0.20611
#
# Static dielectric constant tensor:
#      x y z
#    x 4.860590 0.000000 0.331090 
#    y 0.000000 3.978380 0.000000 
#    z 0.331090 0.000000 4.087250 
# 
# 
# High freq. dielectric constant tensor:
#      x y z
#    x 1.861810 0.000000 -0.002680 
#    y 0.000000 1.867580 0.000000 
#    z -0.002680 0.000000 1.859490 
# 
# From -- ./inp_files/28002.got.cif
#   From: 2010.03.12/outbox.cif.g09.slc.cpg/sg14_15_cif.got.tgz:28002.got - 2010.03.31 13:35:05.
