data_PCOD8129134
_publ_section_title
;
Structure prediction by ZEFSAII (Michael W. Deem and Ramdas Pophale) SiO2 
 PCOD8129134
Probable space group: P 21/C
;
_chemical_formula_sum "Si O2"
_cell_formula_units_Z 32
_cell_length_a 8.999774
_cell_length_b 11.860621
_cell_length_c 13.931385
_cell_angle_alpha 90.000000
_cell_angle_beta 72.277979
_cell_angle_gamma 90.000000
_cell_volume 1416.506681
_symmetry_space_group_name_H-M "P 21/C"
_symmetry_group_IT_number 14
_symmetry_cell_setting 'monoclinic'
loop_
_space_group_symop_operation_xyz
x,y,z
-x,1/2+y,1/2-z
-x,-y,-z
x,1/2-y,1/2+z
loop_
_atom_site_type_symbol
_atom_site_label
_atom_site_fract_x
_atom_site_fract_y
_atom_site_fract_z
Si Si1 0.476988 0.270210 0.309862
Si Si2 0.400465 0.320437 0.633684
Si Si3 0.161783 0.012510 0.104336
Si Si4 0.662698 0.005389 0.116331
Si Si5 0.850532 0.075825 0.252010
Si Si6 0.422950 0.120846 0.492407
Si Si7 0.920962 0.939729 0.426228
Si Si8 0.185520 0.674816 0.755331
O O1 0.369187 0.213586 0.250016
O O2 0.388910 0.375598 0.373802
O O3 0.509046 0.174549 0.383646
O O4 0.643172 0.308285 0.230805
O O5 0.243172 0.370693 0.620303
O O6 0.528632 0.417483 0.597806
O O7 0.454653 0.204695 0.573853
O O8 0.979483 0.029053 0.153793
O O9 0.213704 0.910411 0.162784
O O10 0.194548 0.983789 0.986860
O O11 0.696990 0.047967 0.218311
O O12 0.872968 0.206034 0.273122
O O13 0.855487 0.017694 0.353961
O O14 0.236502 0.120487 0.506338
O O15 0.500000 0.000000 0.500000
O O16 0.057747 0.860737 0.358801
O O17 0.000000 0.000000 0.500000
#
# Coordination Sequence:
#
# PCOD8129134 Si02
#       8
#     4   4   4   4   4   4   4   4
#     4  12  26  43  76 104 142 192 240 305 359 431
#     4  12  25  44  72 107 146 184 241 307 354 438
#     4  11  24  45  71 101 145 186 242 300 367 436
#     4  12  24  46  72 106 140 188 245 295 368 428
#     4  11  25  46  70 105 143 187 240 297 370 438
#     4  12  28  47  76 111 145 189 252 300 366 439
#     4  11  28  49  71 104 150 194 237 303 370 438
#     4  11  24  45  70 105 144 189 238 299 368 434
#
# _framework density 22.590786999999999
#
# number of rings (size 3 to 8) (size 9 to 14) (size 15 to 20)
#    0.000    0.500    3.750    3.750    7.000    2.000 
#    0.000    0.000    0.000    0.000    0.000    0.000 
#    0.000    0.000    0.000    0.000    0.000    0.000 
#
# Total GULP energy -396777.089538 kJ/mol
# GULP energy per Si atom -12399.284048 kJ/mol
# Density = 2.253937 g / cm^3
# Si number density = 22.590787 Si / 1000 Ang^3
#
#
#
# Elastic Constant Matrix: (Units=GPa)
#
#
# Indices 1 2 3 4 5 6 
#
# 1 72.9109 11.9861 26.3284 0.0000 4.5747 0.0000
# 2 11.9861 132.3757 32.5942 0.0000 10.6430 0.0000
# 3 26.3284 32.5942 84.7155 0.0000 5.3347 0.0000
# 4 0.0000 0.0000 0.0000 26.9285 0.0000 -2.2675
# 5 4.5747 10.6430 5.3347 0.0000 41.6373 0.0000
# 6 0.0000 0.0000 0.0000 -2.2675 0.0000 35.4074
#
#
#
# Elastic Compliance Matrix: (Units=1/GPa)
#
#
# Indices 1 2 3 4 5 6 
#
# 1 0.015502 -0.000164 -0.004688 0.000000 -0.001061 0.000000
# 2 -0.000164 0.008473 -0.003099 0.000000 -0.001751 0.000000
# 3 -0.004688 -0.003099 0.014488 0.000000 -0.000549 0.000000
# 4 0.000000 0.000000 0.000000 0.037337 0.000000 0.002391
# 5 -0.001061 -0.001751 -0.000549 0.000000 0.024651 0.000000
# 6 0.000000 0.000000 0.000000 0.002391 0.000000 0.028396
#
#
# Mechanical properties :
#
#
# Convention : Reuss Voigt Hill
#
# Bulk Modulus (GPa) = 44.32367 47.97996 46.15181
# Shear Modulus (GPa) = 32.83689 35.40087 34.11888
#
# Velocity S-wave (km/s) = 3.81668 3.96289 3.89047
# Velocity P-wave (km/s) = 6.25185 6.49801 6.37612
#
# Compressibility (1/GPa) = 0.02256131
#
# Stress axis : x y z
#
# Youngs Moduli (GPa) = 64.50915 118.02422 69.02312
#
# Poissons Ratio (x) = 0.01937 0.32357
# Poissons Ratio (y) = 0.01059 0.21388
# Poissons Ratio (z) = 0.30241 0.36572
#
# Static dielectric constant tensor:
#      x y z
#    x 4.088890 0.000000 -0.177330 
#    y 0.000000 4.173160 0.000000 
#    z -0.177330 0.000000 4.074900 
# 
# 
# High freq. dielectric constant tensor:
#      x y z
#    x 1.891500 0.000000 -0.005830 
#    y 0.000000 1.903250 0.000000 
#    z -0.005830 0.000000 1.897320 
# 
# From -- ./inp_files/40300.got.cif
#   From: 2010.03.12/outbox.cif.g09.slc.cpg/sg14_21_cif.got.tgz:40300.got - 2010.03.31 13:35:05.
