data_PCOD8129521
_publ_section_title
;
Structure prediction by ZEFSAII (Michael W. Deem and Ramdas Pophale) SiO2 
 PCOD8129521
Probable space group: P 21/C
;
_chemical_formula_sum "Si O2"
_cell_formula_units_Z 28
_cell_length_a 24.000000
_cell_length_b 12.000000
_cell_length_c 30.000000
_cell_angle_alpha 90.000000
_cell_angle_beta 10.000000
_cell_angle_gamma 90.000000
_cell_volume 1500.320255
_symmetry_space_group_name_H-M "P 21/C"
_symmetry_group_IT_number 14
_symmetry_cell_setting 'monoclinic'
loop_
_space_group_symop_operation_xyz
x,y,z
-x,1/2+y,1/2-z
-x,-y,-z
x,1/2-y,1/2+z
loop_
_atom_site_type_symbol
_atom_site_label
_atom_site_fract_x
_atom_site_fract_y
_atom_site_fract_z
Si Si1 0.833156 0.155290 0.655718
Si Si2 0.489048 0.070345 0.102946
Si Si3 0.956685 0.400641 0.314149
Si Si4 0.139617 0.687885 0.762688
Si Si5 0.516842 0.221415 0.329102
Si Si6 0.538775 0.408480 0.724108
Si Si7 0.152290 0.388974 0.554951
O O1 0.800718 0.203246 0.731536
O O2 0.188399 0.111426 0.368386
O O3 0.563100 0.059635 0.865980
O O4 0.791137 0.242336 0.647876
O O5 0.788397 0.091150 0.898919
O O6 0.555083 0.134037 0.003832
O O7 0.739559 0.347788 0.525573
O O8 0.061728 0.524889 0.247377
O O9 0.264030 0.327023 0.063446
O O10 0.080633 0.810874 0.789698
O O11 0.835351 0.609975 0.991226
O O12 0.637284 0.134832 0.196057
O O13 0.379435 0.325852 0.410604
O O14 0.615316 0.540830 0.661724
#
# Coordination Sequence:
#
# PCOD8129521 Si02
#       7
#     4   4   4   4   4   4   4
#     4  11  23  38  59  92 122 152 193 256 295 349
#     4  11  21  38  61  89 123 147 199 252 303 345
#     4  10  19  40  60  88 115 155 199 249 282 356
#     4  11  21  40  59  89 122 160 191 240 313 345
#     4  11  21  39  62  86 121 155 202 238 302 344
#     4   9  20  38  58  89 118 147 204 244 277 359
#     4   9  20  39  59  85 120 151 200 247 276 358
#
# _framework density 18.662682
#
# number of rings (size 3 to 8) (size 9 to 14) (size 15 to 20)
#    0.857    0.857    5.714    0.429    2.000    1.143 
#   12.857    1.429    0.000    0.000    0.000    0.000 
#    0.000    0.000    0.000    0.000    0.000    0.000 
#
# Total GULP energy -346897.004564 kJ/mol
# GULP energy per Si atom -12389.178734 kJ/mol
# Density = 1.862021 g / cm^3
# Si number density = 18.662682 Si / 1000 Ang^3
#
#
#
# Elastic Constant Matrix: (Units=GPa)
#
#
# Indices 1 2 3 4 5 6 
#
# 1 151.8935 32.2871 20.9060 0.0000 13.1102 0.0000
# 2 32.2871 81.0285 26.5571 0.0000 3.4046 0.0000
# 3 20.9060 26.5571 33.9784 0.0000 17.7353 0.0000
# 4 0.0000 0.0000 0.0000 25.6049 0.0000 12.6648
# 5 13.1102 3.4046 17.7353 0.0000 36.2155 0.0000
# 6 0.0000 0.0000 0.0000 12.6648 0.0000 40.5235
#
#
#
# Elastic Compliance Matrix: (Units=1/GPa)
#
#
# Indices 1 2 3 4 5 6 
#
# 1 0.007472 -0.002233 -0.002082 0.000000 -0.001475 0.000000
# 2 -0.002233 0.018456 -0.016883 0.000000 0.007341 0.000000
# 3 -0.002082 -0.016883 0.057342 0.000000 -0.025741 0.000000
# 4 0.000000 0.000000 0.000000 0.046196 0.000000 -0.014438
# 5 -0.001475 0.007341 -0.025741 0.000000 0.040062 0.000000
# 6 0.000000 0.000000 0.000000 -0.014438 0.000000 0.029189
#
#
# Mechanical properties :
#
#
# Convention : Reuss Voigt Hill
#
# Bulk Modulus (GPa) = 24.46492 47.37786 35.92139
# Shear Modulus (GPa) = 19.62799 32.94548 26.28674
#
# Velocity S-wave (km/s) = 3.24655 4.20612 3.75710
# Velocity P-wave (km/s) = 5.21449 7.00215 6.17337
#
# Compressibility (1/GPa) = 0.04087486
#
# Stress axis : x y z
#
# Youngs Moduli (GPa) = 133.83081 54.18299 17.43916
#
# Poissons Ratio (x) = 0.12099 0.03631
# Poissons Ratio (y) = 0.29885 0.29442
# Poissons Ratio (z) = 0.27863 0.91476
#
# Static dielectric constant tensor:
#      x y z
#    x 3.735400 0.000000 0.141430 
#    y 0.000000 3.342570 0.000000 
#    z 0.141430 0.000000 3.186710 
# 
# 
# High freq. dielectric constant tensor:
#      x y z
#    x 1.747650 0.000000 0.020230 
#    y 0.000000 1.711280 0.000000 
#    z 0.020230 0.000000 1.702370 
# 
# From -- ./inp_files/80650.got.cif
#   From: 2010.03.12/outbox.ucp.g09.slc.cvg/sg14_41_cif.got.tgz:80650.got - 2010.05.04 20:10:03.
