data_PCOD8129110
_publ_section_title
;
Structure prediction by ZEFSAII (Michael W. Deem and Ramdas Pophale) SiO2 
 PCOD8129110
Probable space group: P 21/C
;
_chemical_formula_sum "Si O2"
_cell_formula_units_Z 20
_cell_length_a 20.125002
_cell_length_b 6.577546
_cell_length_c 14.047969
_cell_angle_alpha 90.000000
_cell_angle_beta 151.454907
_cell_angle_gamma 90.000000
_cell_volume 888.597717
_symmetry_space_group_name_H-M "P 21/C"
_symmetry_group_IT_number 14
_symmetry_cell_setting 'monoclinic'
loop_
_space_group_symop_operation_xyz
x,y,z
-x,1/2+y,1/2-z
-x,-y,-z
x,1/2-y,1/2+z
loop_
_atom_site_type_symbol
_atom_site_label
_atom_site_fract_x
_atom_site_fract_y
_atom_site_fract_z
Si Si1 0.586759 0.799915 0.129913
Si Si2 0.453021 0.034816 0.577917
Si Si3 0.860579 0.615546 0.086860
Si Si4 0.067254 0.014820 0.688769
Si Si5 0.707695 0.270720 0.981662
O O1 0.472943 0.658663 0.036380
O O2 0.716569 0.806673 0.362402
O O3 0.638287 0.700203 0.095079
O O4 0.500000 0.000000 0.000000
O O5 0.597882 0.146829 0.781650
O O6 0.369589 0.958074 0.563847
O O7 0.976221 0.610726 0.150425
O O8 0.906865 0.758117 0.234984
O O9 0.829886 0.382584 0.077011
O O10 0.214004 0.898787 0.857078
O O11 0.000000 0.000000 0.500000
#
# Coordination Sequence:
#
# PCOD8129110 Si02
#       5
#     4   4   4   4   4
#     4  11  24  44  73 109 145 191 245 320 381 455
#     4  11  26  41  73 109 144 190 246 313 393 441
#     4  12  26  50  73 105 154 195 260 311 380 459
#     4  12  30  48  75 107 151 207 251 316 379 459
#     4  12  26  46  71 108 149 191 255 311 379 459
#
# _framework density 22.507372
#
# number of rings (size 3 to 8) (size 9 to 14) (size 15 to 20)
#    0.000    0.400    6.000    1.200    5.600    2.400 
#    0.000    0.000    0.000    0.000    0.000    0.000 
#    0.000    0.000    0.000    0.000    0.000    0.000 
#
# Total GULP energy -247798.560070 kJ/mol
# GULP energy per Si atom -12389.928004 kJ/mol
# Density = 2.245614 g / cm^3
# Si number density = 22.507372 Si / 1000 Ang^3
#
#
#
# Elastic Constant Matrix: (Units=GPa)
#
#
# Indices 1 2 3 4 5 6 
#
# 1 87.9308 56.2129 38.2702 0.0000 -13.9553 0.0000
# 2 56.2129 125.2053 47.4479 0.0000 -11.3608 0.0000
# 3 38.2702 47.4479 112.6309 0.0000 -28.3179 0.0000
# 4 0.0000 0.0000 0.0000 51.2834 0.0000 2.2942
# 5 -13.9553 -11.3608 -28.3179 0.0000 36.1853 0.0000
# 6 0.0000 0.0000 0.0000 2.2942 0.0000 36.2670
#
#
#
# Elastic Compliance Matrix: (Units=1/GPa)
#
#
# Indices 1 2 3 4 5 6 
#
# 1 0.016967 -0.006479 -0.002368 0.000000 0.002656 0.000000
# 2 -0.006479 0.011979 -0.003147 0.000000 -0.001200 0.000000
# 3 -0.002368 -0.003147 0.013110 0.000000 0.008359 0.000000
# 4 0.000000 0.000000 0.000000 0.019555 0.000000 -0.001237
# 5 0.002656 -0.001200 0.008359 0.000000 0.034824 0.000000
# 6 0.000000 0.000000 0.000000 -0.001237 0.000000 0.027652
#
#
# Mechanical properties :
#
#
# Convention : Reuss Voigt Hill
#
# Bulk Modulus (GPa) = 55.34333 67.73655 61.53994
# Shear Modulus (GPa) = 32.44696 37.00288 34.72492
#
# Velocity S-wave (km/s) = 3.80098 4.05907 3.93214
# Velocity P-wave (km/s) = 6.62613 7.22002 6.92944
#
# Compressibility (1/GPa) = 0.01806903
#
# Stress axis : x y z
#
# Youngs Moduli (GPa) = 58.93902 83.47652 76.27588
#
# Poissons Ratio (x) = 0.54086 0.18060
# Poissons Ratio (y) = 0.38188 0.24003
# Poissons Ratio (z) = 0.13955 0.26269
#
# Static dielectric constant tensor:
#      x y z
#    x 4.264610 0.000000 0.141570 
#    y 0.000000 4.630240 0.000000 
#    z 0.141570 0.000000 4.382940 
# 
# 
# High freq. dielectric constant tensor:
#      x y z
#    x 1.882420 0.000000 -0.002840 
#    y 0.000000 1.909640 0.000000 
#    z -0.002840 0.000000 1.892770 
# 
# From -- ./inp_files/49763.got.cif
#   From: 2010.03.12/outbox.cif.g09.slc.cpg/sg14_25_cif.got.tgz:49763.got - 2010.03.31 13:35:05.
