data_PCOD8129681
_publ_section_title
;
Structure prediction by ZEFSAII (Michael W. Deem and Ramdas Pophale) SiO2 
 PCOD8129681
Probable space group: C 2/C
;
_chemical_formula_sum "Si O2"
_cell_formula_units_Z 48
_cell_length_a 9.530408
_cell_length_b 31.886210
_cell_length_c 12.827744
_cell_angle_alpha 90.000000
_cell_angle_beta 137.983429
_cell_angle_gamma 90.000000
_cell_volume 2609.246045
_symmetry_space_group_name_H-M "C 2/C"
_symmetry_group_IT_number 15
_symmetry_cell_setting 'monoclinic'
loop_
_space_group_symop_operation_xyz
x,y,z
-x,y,1/2-z
-x,-y,-z
x,-y,1/2+z
1/2+x,1/2+y,z
1/2-x,1/2+y,1/2-z
1/2-x,1/2-y,-z
1/2+x,1/2-y,1/2+z
loop_
_atom_site_type_symbol
_atom_site_label
_atom_site_fract_x
_atom_site_fract_y
_atom_site_fract_z
Si Si1 0.908713 0.707898 0.815703
Si Si2 0.777308 0.207898 0.184298
Si Si3 0.590665 0.623841 0.184248
Si Si4 0.222167 0.623841 0.815751
Si Si5 0.412854 0.038916 0.816634
Si Si6 0.779588 0.961084 0.683367
O O1 0.766959 0.750000 0.750001
O O2 0.771357 0.665348 0.754689
O O3 0.000000 0.707151 0.750000
O O4 0.093925 0.708996 0.000000
O O5 0.761980 0.165348 0.245311
O O6 0.000000 0.207151 0.250000
O O7 0.500000 0.622020 0.250000
O O8 0.718424 0.580454 0.241519
O O9 0.407041 0.627020 1.000000
O O10 0.235385 0.580454 0.758480
O O11 0.000000 0.622020 0.750000
O O12 0.500000 0.030245 0.750000
O O13 0.269838 0.000000 0.769838
O O14 0.607060 0.045542 0.000000
O O15 0.000000 0.969756 0.750000
#
# Coordination Sequence:
#
# PCOD8129681 Si02
#       6
#     8   8   8   8   8   8
#     4  10  16  23  34  51  77 108 143 179 218 265
#     4  10  16  23  34  51  77 108 143 179 218 265
#     4  10  17  26  40  58  82 113 147 182 224 270
#     4  10  17  26  40  58  82 113 147 182 224 270
#     4  10  20  33  49  69  93 122 156 193 233 276
#     4  10  20  33  49  69  93 122 156 193 233 276
#
# _framework density 18.396118000000001
#
# number of rings (size 3 to 8) (size 9 to 14) (size 15 to 20)
#    0.000    2.000    0.000   12.000    0.000    2.667 
#    0.000    0.000    0.000    0.000    0.000    0.000 
#    0.000    1.333    0.000   14.000    0.000   13.333 
#
# Total GULP energy -297404.200696 kJ/mol
# GULP energy per Si atom -12391.841696 kJ/mol
# Density = 1.835425 g / cm^3
# Si number density = 18.396118 Si / 1000 Ang^3
#
#
#
# Elastic Constant Matrix: (Units=GPa)
#
#
# Indices 1 2 3 4 5 6 
#
# 1 21.5336 33.6646 17.3204 0.0000 -0.5993 0.0000
# 2 33.6646 233.1671 97.6445 0.0000 -3.4700 0.0000
# 3 17.3204 97.6445 181.4918 0.0000 -8.0769 0.0000
# 4 0.0000 0.0000 0.0000 42.3286 0.0000 -1.5235
# 5 -0.5993 -3.4700 -8.0769 0.0000 8.0380 0.0000
# 6 0.0000 0.0000 0.0000 -1.5235 0.0000 14.2417
#
#
#
# Elastic Compliance Matrix: (Units=1/GPa)
#
#
# Indices 1 2 3 4 5 6 
#
# 1 0.060245 -0.008118 -0.001401 0.000000 -0.000420 0.000000
# 2 -0.008118 0.006633 -0.002819 0.000000 -0.000575 0.000000
# 3 -0.001401 -0.002819 0.007434 0.000000 0.006148 0.000000
# 4 0.000000 0.000000 0.000000 0.023716 0.000000 0.002537
# 5 -0.000420 -0.000575 0.006148 0.000000 0.130308 0.000000
# 6 0.000000 0.000000 0.000000 0.002537 0.000000 0.070488
#
#
# Mechanical properties :
#
#
# Convention : Reuss Voigt Hill
#
# Bulk Modulus (GPa) = 20.14661 81.49461 50.82061
# Shear Modulus (GPa) = 14.70392 32.09252 23.39822
#
# Velocity S-wave (km/s) = 2.83025 4.18128 3.57025
# Velocity P-wave (km/s) = 4.65357 8.22842 6.68441
#
# Compressibility (1/GPa) = 0.04963614
#
# Stress axis : x y z
#
# Youngs Moduli (GPa) = 16.59891 150.76119 134.51541
#
# Poissons Ratio (x) = 1.22386 0.18839
# Poissons Ratio (y) = 0.13475 0.37927
# Poissons Ratio (z) = 0.02325 0.42507
#
# Static dielectric constant tensor:
#      x y z
#    x 2.606290 0.000000 -0.048180 
#    y 0.000000 5.630260 0.000000 
#    z -0.048180 0.000000 3.494510 
# 
# 
# High freq. dielectric constant tensor:
#      x y z
#    x 1.603350 0.000000 -0.007320 
#    y 0.000000 1.760110 0.000000 
#    z -0.007320 0.000000 1.738370 
# 
# From -- ./inp_files/148675.got.cif
#   From: 2010.06.25/outbox.cif.g09.slc.cpg/sg15_75_cif.got.tgz:148675.got - 2010.06.28 07:06:18.
