data_PCOD8129540
_publ_section_title
;
Structure prediction by ZEFSAII (Michael W. Deem and Ramdas Pophale) SiO2 
 PCOD8129540
Probable space group: C 2/C
;
_chemical_formula_sum "Si O2"
_cell_formula_units_Z 24
_cell_length_a 9.000000
_cell_length_b 12.000000
_cell_length_c 24.000000
_cell_angle_alpha 90.000000
_cell_angle_beta 70.000000
_cell_angle_gamma 90.000000
_cell_volume 2435.683273
_symmetry_space_group_name_H-M "C 2/C"
_symmetry_group_IT_number 15
_symmetry_cell_setting 'monoclinic'
loop_
_space_group_symop_operation_xyz
x,y,z
-x,y,1/2-z
-x,-y,-z
x,-y,1/2+z
1/2+x,1/2+y,z
1/2-x,1/2+y,1/2-z
1/2-x,1/2-y,-z
1/2+x,1/2-y,1/2+z
loop_
_atom_site_type_symbol
_atom_site_label
_atom_site_fract_x
_atom_site_fract_y
_atom_site_fract_z
Si Si1 0.659976 0.431900 0.486210
Si Si2 0.949119 0.860303 0.882903
Si Si3 0.017981 0.905851 0.179523
Si Si4 0.163415 0.240865 0.884902
Si Si5 0.894436 0.625633 0.462428
Si Si6 0.195279 0.290496 0.413849
O O1 0.500000 0.500000 0.500000
O O2 0.659535 0.385606 0.549138
O O3 0.654311 0.337914 0.440126
O O4 0.817005 0.506518 0.457201
O O5 0.843294 0.784504 0.854493
O O6 0.097750 0.787658 0.884505
O O7 0.009335 0.969561 0.841576
O O8 0.193911 0.867239 0.139451
O O9 0.000000 0.902520 0.250000
O O10 0.892509 0.823007 0.164509
O O11 0.064106 0.353972 0.911518
O O12 0.908036 0.635235 0.528930
O O13 0.792080 0.720574 0.446035
#
# Coordination Sequence:
#
# PCOD8129540 Si02
#       6
#     8   8   8   8   8   8
#     4  12  18  35  61  93 129 158 190 242 309 370
#     4  12  23  38  64  95 123 157 197 250 310 364
#     4  11  25  45  62  80 117 167 212 250 296 358
#     4  11  24  38  60  96 127 154 200 254 307 364
#     4  10  18  33  60  91 130 160 187 237 309 373
#     4  10  19  36  61  90 120 159 197 244 302 357
#
# _framework density 9.8534980000000001
#
# number of rings (size 3 to 8) (size 9 to 14) (size 15 to 20)
#    0.000    1.000    6.667    1.500    0.000    3.333 
#    0.000    0.000    0.000    0.000    0.000    0.000 
#    0.000    0.000    0.000    0.000    0.000    0.000 
#
# Total GULP energy -297388.491873 kJ/mol
# GULP energy per Si atom -12391.187161 kJ/mol
# Density = 0.983107 g / cm^3
# Si number density = 9.853498 Si / 1000 Ang^3
#
#
#
# Elastic Constant Matrix: (Units=GPa)
#
#
# Indices 1 2 3 4 5 6 
#
# 1 82.4919 43.7614 42.3814 0.0000 13.5951 0.0000
# 2 43.7614 75.5728 23.5870 0.0000 4.9275 0.0000
# 3 42.3814 23.5870 117.8810 0.0000 24.8846 0.0000
# 4 0.0000 0.0000 0.0000 25.8442 0.0000 5.4754
# 5 13.5951 4.9275 24.8846 0.0000 28.9643 0.0000
# 6 0.0000 0.0000 0.0000 5.4754 0.0000 49.1841
#
#
#
# Elastic Compliance Matrix: (Units=1/GPa)
#
#
# Indices 1 2 3 4 5 6 
#
# 1 0.020507 -0.010214 -0.004476 0.000000 -0.004042 0.000000
# 2 -0.010214 0.019201 -0.000601 0.000000 0.002044 0.000000
# 3 -0.004476 -0.000601 0.011907 0.000000 -0.008027 0.000000
# 4 0.000000 0.000000 0.000000 0.039628 0.000000 -0.004412
# 5 -0.004042 0.002044 -0.008027 0.000000 0.042971 0.000000
# 6 0.000000 0.000000 0.000000 -0.004412 0.000000 0.020823
#
#
# Mechanical properties :
#
#
# Convention : Reuss Voigt Hill
#
# Bulk Modulus (GPa) = 47.54467 55.04503 51.29485
# Shear Modulus (GPa) = 25.95654 31.87959 28.91806
#
# Velocity S-wave (km/s) = 3.63316 4.02640 3.83482
# Velocity P-wave (km/s) = 6.46358 7.04331 6.75967
#
# Compressibility (1/GPa) = 0.02103285
#
# Stress axis : x y z
#
# Youngs Moduli (GPa) = 48.76502 52.07992 83.98429
#
# Poissons Ratio (x) = 0.53195 0.37587
# Poissons Ratio (y) = 0.49809 0.05050
# Poissons Ratio (z) = 0.21825 0.03132
#
# Static dielectric constant tensor:
#      x y z
#    x 3.880480 0.000000 0.166290 
#    y 0.000000 3.866100 0.000000 
#    z 0.166290 0.000000 3.619620 
# 
# 
# High freq. dielectric constant tensor:
#      x y z
#    x 1.787120 0.000000 0.019990 
#    y 0.000000 1.785940 0.000000 
#    z 0.019990 0.000000 1.742330 
# 
# From -- ./inp_files/263475.got.cif
#   From: 2010.06.25/outbox.ucp.g09.slc.cvg/sg15_132_cif.got.tgz:263475.got - 2010.06.28 14:40:10.
