data_PCOD8129696
_publ_section_title
;
Structure prediction by ZEFSAII (Michael W. Deem and Ramdas Pophale) SiO2 
 PCOD8129696
Probable space group: C 2/C
;
_chemical_formula_sum "Si O2"
_cell_formula_units_Z 48
_cell_length_a 12.352913
_cell_length_b 15.023014
_cell_length_c 21.964377
_cell_angle_alpha 90.000000
_cell_angle_beta 151.968602
_cell_angle_gamma 90.000000
_cell_volume 1915.587254
_symmetry_space_group_name_H-M "C 2/C"
_symmetry_group_IT_number 15
_symmetry_cell_setting 'monoclinic'
loop_
_space_group_symop_operation_xyz
x,y,z
-x,y,1/2-z
-x,-y,-z
x,-y,1/2+z
1/2+x,1/2+y,z
1/2-x,1/2+y,1/2-z
1/2-x,1/2-y,-z
1/2+x,1/2-y,1/2+z
loop_
_atom_site_type_symbol
_atom_site_label
_atom_site_fract_x
_atom_site_fract_y
_atom_site_fract_z
Si Si1 0.956649 0.072047 0.123705
Si Si2 0.729634 0.172964 0.706109
Si Si3 0.223855 0.557717 0.591536
Si Si4 0.725688 0.771559 0.573021
Si Si5 0.421269 0.084027 0.649657
Si Si6 0.387563 0.834359 0.854482
O O1 0.854224 0.170590 0.085559
O O2 0.227913 0.088042 0.243230
O O3 0.922273 0.006315 0.163616
O O4 0.796253 0.033005 0.989429
O O5 0.836148 0.111389 0.705081
O O6 0.538846 0.233299 0.578620
O O7 0.630190 0.102943 0.706354
O O8 0.910017 0.243696 0.825372
O O9 0.000000 0.500000 0.500000
O O10 0.138401 0.626226 0.495799
O O11 0.827352 0.675455 0.630034
O O12 0.752626 0.815134 0.652862
O O13 0.500000 0.030237 0.750000
#
# Coordination Sequence:
#
# PCOD8129696 Si02
#       6
#     8   8   8   8   8   8
#     4  11  19  32  47  78 120 147 178 232 290 330
#     4  10  18  29  45  76 117 146 182 225 284 342
#     4  11  22  32  50  87 120 144 192 238 285 336
#     4  10  16  25  46  79 107 142 178 216 278 348
#     4  11  16  24  47  78 108 144 179 217 288 353
#     4  11  19  31  54  78 119 153 179 227 287 344
#
# _framework density 25.057590000000001
#
# number of rings (size 3 to 8) (size 9 to 14) (size 15 to 20)
#    0.000    1.333   10.000    1.500    0.000    0.000 
#    0.000    0.000    0.000    1.000    0.000    4.667 
#    0.000    0.000    0.000    0.000    0.000    0.000 
#
# Total GULP energy -297386.567254 kJ/mol
# GULP energy per Si atom -12391.106969 kJ/mol
# Density = 2.500056 g / cm^3
# Si number density = 25.057590 Si / 1000 Ang^3
#
#
#
# Elastic Constant Matrix: (Units=GPa)
#
#
# Indices 1 2 3 4 5 6 
#
# 1 57.7550 19.9951 19.5439 -0.0008 -21.8924 -0.0010
# 2 19.9951 74.8917 25.3263 0.0037 -5.6807 -0.0001
# 3 19.5439 25.3263 105.0292 0.0105 -38.4488 0.0016
# 4 -0.0008 0.0037 0.0105 42.6233 0.0027 -9.0162
# 5 -21.8924 -5.6807 -38.4488 0.0027 35.5980 -0.0007
# 6 -0.0010 -0.0001 0.0016 -9.0162 -0.0007 38.6382
#
#
#
# Elastic Compliance Matrix: (Units=1/GPa)
#
#
# Indices 1 2 3 4 5 6 
#
# 1 0.025374 -0.006602 0.003634 -0.000001 0.018476 0.000001
# 2 -0.006602 0.016384 -0.005378 0.000000 -0.007254 0.000000
# 3 0.003634 -0.005378 0.017608 -0.000005 0.020395 -0.000002
# 4 -0.000001 0.000000 -0.000005 0.024680 -0.000008 0.005759
# 5 0.018476 -0.007254 0.020395 -0.000008 0.060325 -0.000001
# 6 0.000001 0.000000 -0.000002 0.005759 -0.000001 0.027225
#
#
# Mechanical properties :
#
#
# Convention : Reuss Voigt Hill
#
# Bulk Modulus (GPa) = 23.43339 40.82293 32.12816
# Shear Modulus (GPa) = 24.69011 34.89260 29.79135
#
# Velocity S-wave (km/s) = 3.14241 3.73566 3.45181
# Velocity P-wave (km/s) = 4.74747 5.91049 5.36061
#
# Compressibility (1/GPa) = 0.04267415
#
# Stress axis : x y z
#
# Youngs Moduli (GPa) = 39.41045 61.03654 56.79340
#
# Poissons Ratio (x) = 0.40296 -0.20640
# Poissons Ratio (y) = 0.26019 0.30542
# Poissons Ratio (z) = -0.14322 0.32824
#
# Static dielectric constant tensor:
#      x y z
#    x 4.218880 0.000000 -0.382160 
#    y 0.000000 4.333140 -0.000010 
#    z -0.382160 -0.000010 5.187920 
# 
# 
# High freq. dielectric constant tensor:
#      x y z
#    x 1.944790 0.000000 -0.022730 
#    y 0.000000 1.972910 0.000000 
#    z -0.022730 0.000000 2.031840 
# 
# From -- ./inp_files/274391.got.cif
#   From: 2010.06.25/outbox.cif.g09.slc.cpg/sg15_138_cif.got.tgz:274391.got - 2010.06.28 07:06:18.
