data_PCOD8129785
_publ_section_title
;
Structure prediction by ZEFSAII (Michael W. Deem and Ramdas Pophale) SiO2 
 PCOD8129785
Probable space group: C 2/C
;
_chemical_formula_sum "Si O2"
_cell_formula_units_Z 60
_cell_length_a 25.505198
_cell_length_b 15.780391
_cell_length_c 13.002144
_cell_angle_alpha 90.000000
_cell_angle_beta 37.611230
_cell_angle_gamma 90.000000
_cell_volume 3193.780866
_symmetry_space_group_name_H-M "C 2/C"
_symmetry_group_IT_number 15
_symmetry_cell_setting 'monoclinic'
loop_
_space_group_symop_operation_xyz
x,y,z
-x,y,1/2-z
-x,-y,-z
x,-y,1/2+z
1/2+x,1/2+y,z
1/2-x,1/2+y,1/2-z
1/2-x,1/2-y,-z
1/2+x,1/2-y,1/2+z
loop_
_atom_site_type_symbol
_atom_site_label
_atom_site_fract_x
_atom_site_fract_y
_atom_site_fract_z
Si Si1 0.627579 0.642151 0.896397
Si Si2 0.591394 0.816976 0.854964
Si Si3 0.683827 0.036579 0.106780
Si Si4 0.875017 0.056416 0.813650
Si Si5 0.000000 0.941021 0.750000
Si Si6 0.436489 0.922762 0.108668
Si Si7 0.093145 0.774789 0.141060
Si Si8 0.323912 0.127868 0.593147
O O1 0.625775 0.742821 0.875369
O O2 0.599313 0.586004 0.841491
O O3 0.724547 0.621726 0.780530
O O4 0.565105 0.619167 0.087128
O O5 0.656630 0.897366 0.741298
O O6 0.578315 0.784211 0.761067
O O7 0.496354 0.842782 0.044720
O O8 0.632499 0.947576 0.196664
O O9 0.783505 0.009831 0.957317
O O10 0.660045 0.074375 0.034040
O O11 0.856306 0.140036 0.910196
O O12 0.948874 0.998230 0.747143
O O13 0.384974 0.909959 0.083838
O O14 0.500000 0.000000 0.000000
O O15 0.000000 0.803819 0.250000
O O16 0.149150 0.725535 0.968936
#
# Coordination Sequence:
#
# PCOD8129785 Si02
#       8
#     8   8   8   8   4   8   8   8
#     4  10  22  37  54  76 107 142 180 220 265 320
#     4   9  18  33  51  78 107 137 175 216 262 315
#     4   9  19  33  54  80 113 136 173 223 270 317
#     4  10  20  35  54  83 103 135 182 229 269 309
#     4  12  22  36  56  72 108 146 180 216 270 320
#     4  10  19  31  53  81 112 141 173 216 266 321
#     4  10  16  29  55  81 102 130 173 227 266 302
#     4  10  19  34  55  80 108 141 175 222 273 314
#
# _framework density 18.786511000000001
#
# number of rings (size 3 to 8) (size 9 to 14) (size 15 to 20)
#    0.000    2.133    2.000    2.000    0.000    3.200 
#    0.000    2.667    0.000    4.800    0.000    0.000 
#    0.000    0.000    0.000    0.000    0.000    0.000 
#
# Total GULP energy -371782.790061 kJ/mol
# GULP energy per Si atom -12392.759669 kJ/mol
# Density = 1.874375 g / cm^3
# Si number density = 18.786511 Si / 1000 Ang^3
#
#
#
# Elastic Constant Matrix: (Units=GPa)
#
#
# Indices 1 2 3 4 5 6 
#
# 1 79.2686 18.9465 28.0287 0.0000 -12.5499 0.0000
# 2 18.9465 55.4218 36.5899 0.0000 -1.3420 0.0000
# 3 28.0287 36.5899 110.8219 0.0000 -6.0627 0.0000
# 4 0.0000 0.0000 0.0000 30.6577 0.0000 -4.1935
# 5 -12.5499 -1.3420 -6.0627 0.0000 21.2235 0.0000
# 6 0.0000 0.0000 0.0000 -4.1935 0.0000 16.5098
#
#
#
# Elastic Compliance Matrix: (Units=1/GPa)
#
#
# Indices 1 2 3 4 5 6 
#
# 1 0.015614 -0.003619 -0.002298 0.000000 0.008348 0.000000
# 2 -0.003619 0.023923 -0.007129 0.000000 -0.002664 0.000000
# 3 -0.002298 -0.007129 0.012048 0.000000 0.001632 0.000000
# 4 0.000000 0.000000 0.000000 0.033792 0.000000 0.008583
# 5 0.008348 -0.002664 0.001632 0.000000 0.052352 0.000000
# 6 0.000000 0.000000 0.000000 0.008583 0.000000 0.062750
#
#
# Mechanical properties :
#
#
# Convention : Reuss Voigt Hill
#
# Bulk Modulus (GPa) = 39.22526 45.84917 42.53721
# Shear Modulus (GPa) = 21.27046 24.47470 22.87258
#
# Velocity S-wave (km/s) = 3.36850 3.61332 3.49305
# Velocity P-wave (km/s) = 6.00449 6.47043 6.24181
#
# Compressibility (1/GPa) = 0.02549378
#
# Stress axis : x y z
#
# Youngs Moduli (GPa) = 64.04355 41.80131 83.00388
#
# Poissons Ratio (x) = 0.15128 0.19071
# Poissons Ratio (y) = 0.23177 0.59173
# Poissons Ratio (z) = 0.14715 0.29800
#
# Static dielectric constant tensor:
#      x y z
#    x 3.414600 0.000000 -0.329840 
#    y 0.000000 3.538550 0.000000 
#    z -0.329840 0.000000 4.144320 
# 
# 
# High freq. dielectric constant tensor:
#      x y z
#    x 1.725020 0.000000 -0.023170 
#    y 0.000000 1.716860 0.000000 
#    z -0.023170 0.000000 1.722430 
# 
# From -- ./inp_files/106380.got.cif
#   From: 2010.06.25/outbox.cif.g09.slc.cpg/sg15_54_cif.got.tgz:106380.got - 2010.06.28 07:06:18.
