data_PCOD8129244
_publ_section_title
;
Structure prediction by ZEFSAII (Michael W. Deem and Ramdas Pophale) SiO2 
 PCOD8129244
Probable space group: P 21/C
;
_chemical_formula_sum "Si O2"
_cell_formula_units_Z 24
_cell_length_a 5.136377
_cell_length_b 15.341182
_cell_length_c 16.074213
_cell_angle_alpha 90.000000
_cell_angle_beta 57.369857
_cell_angle_gamma 90.000000
_cell_volume 1066.705662
_symmetry_space_group_name_H-M "P 21/C"
_symmetry_group_IT_number 14
_symmetry_cell_setting 'monoclinic'
loop_
_space_group_symop_operation_xyz
x,y,z
-x,1/2+y,1/2-z
-x,-y,-z
x,1/2-y,1/2+z
loop_
_atom_site_type_symbol
_atom_site_label
_atom_site_fract_x
_atom_site_fract_y
_atom_site_fract_z
Si Si1 0.435693 0.692170 0.528397
Si Si2 0.467712 0.145544 0.240495
Si Si3 0.060746 0.901969 0.969424
Si Si4 0.068324 0.758103 0.245384
Si Si5 0.639218 0.635008 0.923779
Si Si6 0.326111 0.032249 0.418035
O O1 0.770919 0.644827 0.473491
O O2 0.444305 0.775307 0.463121
O O3 0.144669 0.639077 0.543809
O O4 0.342366 0.709797 0.638980
O O5 0.217269 0.218291 0.258220
O O6 0.318324 0.073829 0.327841
O O7 0.611036 0.098889 0.135846
O O8 0.775952 0.183134 0.228377
O O9 0.000000 0.000000 0.000000
O O10 0.965663 0.836174 0.326205
O O11 0.536425 0.554607 0.883258
O O12 0.606042 0.605960 0.025483
O O13 0.000000 0.000000 0.500000
#
# Coordination Sequence:
#
# PCOD8129244 Si02
#       6
#     4   4   4   4   4   4
#     4  12  25  48  74 103 140 188 242 286 365 427
#     4  12  25  47  70 106 141 186 236 296 356 422
#     4  12  27  47  71 105 145 187 232 303 351 430
#     4  12  26  44  77 101 138 188 242 288 353 431
#     4  11  25  46  69 107 140 193 237 294 362 425
#     4  11  27  44  73 105 153 183 243 304 359 424
#
# _framework density 22.499179000000002
#
# number of rings (size 3 to 8) (size 9 to 14) (size 15 to 20)
#    0.000    0.333    5.000    2.500    9.333    1.333 
#    0.000    0.000    0.000    0.000    0.000    0.000 
#    0.000    0.000    0.000    0.000    0.000    0.000 
#
# Total GULP energy -297348.440631 kJ/mol
# GULP energy per Si atom -12389.518360 kJ/mol
# Density = 2.244797 g / cm^3
# Si number density = 22.499179 Si / 1000 Ang^3
#
#
#
# Elastic Constant Matrix: (Units=GPa)
#
#
# Indices 1 2 3 4 5 6 
#
# 1 95.3642 34.8753 6.2096 0.0000 -2.3567 0.0000
# 2 34.8753 126.0805 33.0331 0.0000 -7.7552 0.0000
# 3 6.2096 33.0331 95.1917 0.0000 -23.9373 0.0000
# 4 0.0000 0.0000 0.0000 41.7135 0.0000 -11.9412
# 5 -2.3567 -7.7552 -23.9373 0.0000 32.7481 0.0000
# 6 0.0000 0.0000 0.0000 -11.9412 0.0000 24.5823
#
#
#
# Elastic Compliance Matrix: (Units=1/GPa)
#
#
# Indices 1 2 3 4 5 6 
#
# 1 0.011684 -0.003338 0.000501 0.000000 0.000416 0.000000
# 2 -0.003338 0.009679 -0.003216 0.000000 -0.000299 0.000000
# 3 0.000501 -0.003216 0.013975 0.000000 0.009489 0.000000
# 4 0.000000 0.000000 0.000000 0.027845 0.000000 0.013526
# 5 0.000416 -0.000299 0.009489 0.000000 0.037431 0.000000
# 6 0.000000 0.000000 0.000000 0.013526 0.000000 0.047250
#
#
# Mechanical properties :
#
#
# Convention : Reuss Voigt Hill
#
# Bulk Modulus (GPa) = 43.04430 51.65248 47.34839
# Shear Modulus (GPa) = 29.81252 35.97671 32.89461
#
# Velocity S-wave (km/s) = 3.64407 4.00312 3.82781
# Velocity P-wave (km/s) = 6.07278 6.66138 6.37388
#
# Compressibility (1/GPa) = 0.02323188
#
# Stress axis : x y z
#
# Youngs Moduli (GPa) = 85.58426 103.31740 71.55778
#
# Poissons Ratio (x) = 0.34483 -0.03583
# Poissons Ratio (y) = 0.28565 0.23014
# Poissons Ratio (z) = -0.04286 0.33229
#
# Static dielectric constant tensor:
#      x y z
#    x 4.130710 0.000000 -0.227840 
#    y 0.000000 4.006210 0.000000 
#    z -0.227840 0.000000 4.148100 
# 
# 
# High freq. dielectric constant tensor:
#      x y z
#    x 1.879100 0.000000 -0.004450 
#    y 0.000000 1.891660 0.000000 
#    z -0.004450 0.000000 1.908000 
# 
# From -- ./inp_files/37244.got.cif
#   From: 2010.03.12/outbox.cif.g09.slc.cpg/sg14_19_cif.got.tgz:37244.got - 2010.03.31 13:35:05.
