data_PCOD8129388
_publ_section_title
;
Structure prediction by ZEFSAII (Michael W. Deem and Ramdas Pophale) SiO2 
 PCOD8129388
Probable space group: P 21/C
;
_chemical_formula_sum "Si O2"
_cell_formula_units_Z 24
_cell_length_a 5.017777
_cell_length_b 8.501406
_cell_length_c 27.279383
_cell_angle_alpha 90.000000
_cell_angle_beta 110.745254
_cell_angle_gamma 90.000000
_cell_volume 1088.240022
_symmetry_space_group_name_H-M "P 21/C"
_symmetry_group_IT_number 14
_symmetry_cell_setting 'monoclinic'
loop_
_space_group_symop_operation_xyz
x,y,z
-x,1/2+y,1/2-z
-x,-y,-z
x,1/2-y,1/2+z
loop_
_atom_site_type_symbol
_atom_site_label
_atom_site_fract_x
_atom_site_fract_y
_atom_site_fract_z
Si Si1 0.857754 0.747518 0.284944
Si Si2 0.110485 0.233492 0.428165
Si Si3 0.646440 0.038963 0.210607
Si Si4 0.630956 0.745240 0.952438
Si Si5 0.566355 0.070369 0.905191
Si Si6 0.972353 0.387106 0.102329
O O1 0.703827 0.879206 0.243149
O O2 0.636024 0.614563 0.285928
O O3 0.095899 0.662610 0.267296
O O4 0.007326 0.826289 0.341246
O O5 0.170161 0.198878 0.489093
O O6 0.397243 0.289793 0.420405
O O7 0.868113 0.364949 0.405904
O O8 0.007220 0.075042 0.395417
O O9 0.611959 0.998970 0.151296
O O10 0.321457 0.670401 0.940914
O O11 0.763193 0.678881 0.911118
O O12 0.612301 0.933821 0.948175
#
# Coordination Sequence:
#
# PCOD8129388 Si02
#       6
#     4   4   4   4   4   4
#     4  12  26  47  70 100 129 178 221 283 340 400
#     4  12  26  40  71 103 136 182 227 269 330 409
#     4  12  27  47  73  98 135 174 227 280 344 398
#     4  12  23  46  68  98 138 185 224 274 335 393
#     4  12  24  44  66 100 140 173 223 283 331 398
#     4  12  24  44  68  97 140 174 226 281 334 396
#
# _framework density 22.053957
#
# number of rings (size 3 to 8) (size 9 to 14) (size 15 to 20)
#    0.000    0.000    3.333    7.000    4.667    0.000 
#    0.000    0.000    0.000    0.000    0.000    0.000 
#    0.000    0.000    0.000    0.000    0.000    0.000 
#
# Total GULP energy -297897.942201 kJ/mol
# GULP energy per Si atom -12412.414258 kJ/mol
# Density = 2.200376 g / cm^3
# Si number density = 22.053957 Si / 1000 Ang^3
#
#
#
# Elastic Constant Matrix: (Units=GPa)
#
#
# Indices 1 2 3 4 5 6 
#
# 1 92.4188 20.0133 11.6520 0.0000 4.9909 0.0000
# 2 20.0133 100.7209 21.1080 0.0000 7.4731 0.0000
# 3 11.6520 21.1080 59.2102 0.0000 3.5168 0.0000
# 4 0.0000 0.0000 0.0000 32.6967 0.0000 0.6020
# 5 4.9909 7.4731 3.5168 0.0000 27.3489 0.0000
# 6 0.0000 0.0000 0.0000 0.6020 0.0000 23.7000
#
#
#
# Elastic Compliance Matrix: (Units=1/GPa)
#
#
# Indices 1 2 3 4 5 6 
#
# 1 0.011490 -0.001862 -0.001514 0.000000 -0.001393 0.000000
# 2 -0.001862 0.011199 -0.003491 0.000000 -0.002271 0.000000
# 3 -0.001514 -0.003491 0.018500 0.000000 -0.001149 0.000000
# 4 0.000000 0.000000 0.000000 0.030598 0.000000 -0.000777
# 5 -0.001393 -0.002271 -0.001149 0.000000 0.037587 0.000000
# 6 0.000000 0.000000 0.000000 -0.000777 0.000000 0.042214
#
#
# Mechanical properties :
#
#
# Convention : Reuss Voigt Hill
#
# Bulk Modulus (GPa) = 36.42602 39.76629 38.09616
# Shear Modulus (GPa) = 28.65766 30.05423 29.35594
#
# Velocity S-wave (km/s) = 3.60868 3.69556 3.65238
# Velocity P-wave (km/s) = 5.82375 6.02329 5.92436
#
# Compressibility (1/GPa) = 0.02745290
#
# Stress axis : x y z
#
# Youngs Moduli (GPa) = 87.03398 89.29725 54.05500
#
# Poissons Ratio (x) = 0.16630 0.08186
# Poissons Ratio (y) = 0.16208 0.18870
# Poissons Ratio (z) = 0.13181 0.31172
#
# Static dielectric constant tensor:
#      x y z
#    x 3.970620 0.000000 0.060570 
#    y 0.000000 4.075900 0.000000 
#    z 0.060570 0.000000 3.898590 
# 
# 
# High freq. dielectric constant tensor:
#      x y z
#    x 1.882000 0.000000 0.001430 
#    y 0.000000 1.883880 0.000000 
#    z 0.001430 0.000000 1.866040 
# 
# From -- ./inp_files/71069.got.cif
#   From: 2010.03.12/outbox.cif.g09.slc.cpg/sg14_36_cif.got.tgz:71069.got - 2010.03.31 13:35:05.
