data_PCOD8129324
_publ_section_title
;
Structure prediction by ZEFSAII (Michael W. Deem and Ramdas Pophale) SiO2 
 PCOD8129324
Probable space group: P 21/C
;
_chemical_formula_sum "Si O2"
_cell_formula_units_Z 16
_cell_length_a 4.982212
_cell_length_b 8.629421
_cell_length_c 14.240209
_cell_angle_alpha 90.000000
_cell_angle_beta 86.277087
_cell_angle_gamma 90.000000
_cell_volume 610.945932
_symmetry_space_group_name_H-M "P 21/C"
_symmetry_group_IT_number 14
_symmetry_cell_setting 'monoclinic'
loop_
_space_group_symop_operation_xyz
x,y,z
-x,1/2+y,1/2-z
-x,-y,-z
x,1/2-y,1/2+z
loop_
_atom_site_type_symbol
_atom_site_label
_atom_site_fract_x
_atom_site_fract_y
_atom_site_fract_z
Si Si1 0.297813 0.083846 0.886851
Si Si2 0.451795 0.976473 0.305708
Si Si3 0.372448 0.761159 0.958840
Si Si4 0.928709 0.346980 0.871256
O O1 0.531882 0.075142 0.802815
O O2 0.037954 0.171763 0.849122
O O3 0.215795 0.911384 0.921733
O O4 0.403525 0.184654 0.971735
O O5 0.521886 0.832262 0.372647
O O6 0.153992 0.029182 0.339334
O O7 0.666976 0.115384 0.314483
O O8 0.159590 0.648992 0.016759
#
# Coordination Sequence:
#
# PCOD8129324 Si02
#       4
#     4   4   4   4
#     4  11  27  50  75 113 154 197 250 313 375 451
#     4  12  28  48  79 110 152 198 254 307 376 450
#     4  11  26  49  76 112 151 199 248 313 378 445
#     4  12  26  50  74 110 149 200 249 313 371 449
#
# _framework density 26.188894999999999
#
# number of rings (size 3 to 8) (size 9 to 14) (size 15 to 20)
#    0.000    0.500    2.500    3.750    7.000    0.000 
#    0.000    0.000    0.000    0.000    0.000    0.000 
#    0.000    0.000    0.000    0.000    0.000    0.000 
#
# Total GULP energy -198398.786544 kJ/mol
# GULP energy per Si atom -12399.924159 kJ/mol
# Density = 2.612929 g / cm^3
# Si number density = 26.188895 Si / 1000 Ang^3
#
#
#
# Elastic Constant Matrix: (Units=GPa)
#
#
# Indices 1 2 3 4 5 6 
#
# 1 63.4814 0.1187 -5.2362 0.0000 -13.5202 0.0000
# 2 0.1187 66.2728 -9.5664 0.0000 15.7348 0.0000
# 3 -5.2362 -9.5664 85.4572 0.0000 3.8241 0.0000
# 4 0.0000 0.0000 0.0000 41.2979 0.0000 -7.9460
# 5 -13.5202 15.7348 3.8241 0.0000 19.5434 0.0000
# 6 0.0000 0.0000 0.0000 -7.9460 0.0000 37.7414
#
#
#
# Elastic Compliance Matrix: (Units=1/GPa)
#
#
# Indices 1 2 3 4 5 6 
#
# 1 0.019279 -0.003958 -0.000001 0.000000 0.016524 0.000000
# 2 -0.003958 0.020149 0.002887 0.000000 -0.019525 0.000000
# 3 -0.000001 0.002887 0.012236 0.000000 -0.004719 0.000000
# 4 0.000000 0.000000 0.000000 0.025237 0.000000 0.005313
# 5 0.016524 -0.019525 -0.004719 0.000000 0.079243 0.000000
# 6 0.000000 0.000000 0.000000 0.005313 0.000000 0.027615
#
#
# Mechanical properties :
#
#
# Convention : Reuss Voigt Hill
#
# Bulk Modulus (GPa) = 20.19427 20.64928 20.42178
# Shear Modulus (GPa) = 24.70237 35.04289 29.87263
#
# Velocity S-wave (km/s) = 3.07455 3.66195 3.38103
# Velocity P-wave (km/s) = 4.50905 5.07757 4.80173
#
# Compressibility (1/GPa) = 0.04951899
#
# Stress axis : x y z
#
# Youngs Moduli (GPa) = 51.86915 49.63116 81.72591
#
# Poissons Ratio (x) = 0.19644 0.00010
# Poissons Ratio (y) = 0.20530 -0.23592
# Poissons Ratio (z) = 0.00006 -0.14327
#
# Static dielectric constant tensor:
#      x y z
#    x 4.275190 0.000000 -0.179900 
#    y 0.000000 4.906530 0.000000 
#    z -0.179900 0.000000 4.900100 
# 
# 
# High freq. dielectric constant tensor:
#      x y z
#    x 2.028020 0.000000 -0.014360 
#    y 0.000000 2.060900 0.000000 
#    z -0.014360 0.000000 2.058140 
# 
# From -- ./inp_files/36674.got.cif
#   From: 2010.03.12/outbox.cif.g09.slc.cpg/sg14_19_cif.got.tgz:36674.got - 2010.03.31 13:35:05.
