data_PCOD8129596
_publ_section_title
;
Structure prediction by ZEFSAII (Michael W. Deem and Ramdas Pophale) SiO2 
 PCOD8129596
Probable space group: C 2/C
;
_chemical_formula_sum "Si O2"
_cell_formula_units_Z 28
_cell_length_a 21.000000
_cell_length_b 18.000000
_cell_length_c 21.000000
_cell_angle_alpha 90.000000
_cell_angle_beta 160.000000
_cell_angle_gamma 90.000000
_cell_volume 2714.955898
_symmetry_space_group_name_H-M "C 2/C"
_symmetry_group_IT_number 15
_symmetry_cell_setting 'monoclinic'
loop_
_space_group_symop_operation_xyz
x,y,z
-x,y,1/2-z
-x,-y,-z
x,-y,1/2+z
1/2+x,1/2+y,z
1/2-x,1/2+y,1/2-z
1/2-x,1/2-y,-z
1/2+x,1/2-y,1/2+z
loop_
_atom_site_type_symbol
_atom_site_label
_atom_site_fract_x
_atom_site_fract_y
_atom_site_fract_z
Si Si1 0.711157 0.665188 0.592944
Si Si2 0.175627 0.803675 0.378988
Si Si3 0.901036 0.412790 0.516734
Si Si4 0.734866 0.192589 0.320802
Si Si5 0.122227 0.183718 0.304737
Si Si6 0.551741 0.066925 0.869938
Si Si7 0.148693 0.833620 0.180273
O O1 0.772221 0.749124 0.631932
O O2 0.523889 0.644293 0.379311
O O3 0.650974 0.648264 0.608481
O O4 0.876898 0.610058 0.733258
O O5 0.250000 0.750000 0.500000
O O6 0.314725 0.870827 0.496185
O O7 0.151232 0.750442 0.294782
O O8 0.000000 0.840325 0.250000
O O9 0.909638 0.498998 0.544709
O O10 0.773578 0.394966 0.335077
O O11 0.105916 0.379910 0.694678
O O12 0.727318 0.248569 0.253643
O O13 0.945285 0.162817 0.523536
O O14 0.270436 0.121658 0.466168
O O15 0.000000 0.214219 0.250000
O O16 0.500000 0.038785 0.750000
#
# Coordination Sequence:
#
# PCOD8129596 Si02
#       7
#     8   8   8   8   8   8   8
#     4  12  25  44  78 104 131 180 229 292 355 415
#     4  11  19  35  62  94 128 181 238 273 326 396
#     4  11  26  43  65  99 148 184 225 291 344 405
#     4  11  21  40  65  99 140 178 232 289 329 400
#     4  12  24  45  75 107 136 171 232 297 353 422
#     4  12  28  48  68 105 145 181 229 291 361 411
#     4  11  23  43  69 104 137 182 241 278 333 421
#
# _framework density 10.313243
#
# number of rings (size 3 to 8) (size 9 to 14) (size 15 to 20)
#    0.000    0.571    7.143    2.571    2.000    3.429 
#    0.000    1.429    0.000    0.000    0.000    0.000 
#    0.000    0.000    0.000    0.000    0.000    0.000 
#
# Total GULP energy -346939.635587 kJ/mol
# GULP energy per Si atom -12390.701271 kJ/mol
# Density = 1.028977 g / cm^3
# Si number density = 10.313243 Si / 1000 Ang^3
#
#
#
# Elastic Constant Matrix: (Units=GPa)
#
#
# Indices 1 2 3 4 5 6 
#
# 1 114.6323 32.6022 46.4378 -0.0112 -5.2334 -0.0235
# 2 32.6022 103.4086 42.2292 0.0149 -2.1873 -0.0104
# 3 46.4378 42.2292 140.2857 0.0053 4.6065 -0.0406
# 4 -0.0112 0.0149 0.0053 32.9425 -0.0227 2.5003
# 5 -5.2334 -2.1873 4.6065 -0.0227 30.1049 -0.0395
# 6 -0.0235 -0.0104 -0.0406 2.5003 -0.0395 24.8139
#
#
#
# Elastic Compliance Matrix: (Units=1/GPa)
#
#
# Indices 1 2 3 4 5 6 
#
# 1 0.010614 -0.002095 -0.002953 0.000006 0.002145 0.000007
# 2 -0.002095 0.011491 -0.002795 -0.000005 0.000898 0.000000
# 3 -0.002953 -0.002795 0.009016 -0.000003 -0.002096 0.000008
# 4 0.000006 -0.000005 -0.000003 0.030590 0.000020 -0.003082
# 5 0.002145 0.000898 -0.002096 0.000020 0.033976 0.000051
# 6 0.000007 0.000000 0.000008 -0.003082 0.000051 0.040611
#
#
# Mechanical properties :
#
#
# Convention : Reuss Voigt Hill
#
# Bulk Modulus (GPa) = 64.78956 66.76278 65.77617
# Shear Modulus (GPa) = 31.82097 33.37608 32.59852
#
# Velocity S-wave (km/s) = 3.93201 4.02695 3.97976
# Velocity P-wave (km/s) = 7.21757 7.35252 7.28536
#
# Compressibility (1/GPa) = 0.01543459
#
# Stress axis : x y z
#
# Youngs Moduli (GPa) = 94.21888 87.02215 110.91233
#
# Poissons Ratio (x) = 0.18230 0.32754
# Poissons Ratio (y) = 0.19737 0.31002
# Poissons Ratio (z) = 0.27824 0.24325
#
# Static dielectric constant tensor:
#      x y z
#    x 3.754180 -0.000050 0.034080 
#    y -0.000050 3.562470 -0.000050 
#    z 0.034080 -0.000050 3.858950 
# 
# 
# High freq. dielectric constant tensor:
#      x y z
#    x 1.823000 -0.000010 0.007370 
#    y -0.000010 1.784490 -0.000010 
#    z 0.007370 -0.000010 1.829340 
# 
# From -- ./inp_files/253376.got.cif
#   From: 2010.06.25/outbox.ucp.g09.slc.cvg/sg15_127_cif.got.tgz:253376.got - 2010.06.28 14:40:10.
