data_PCOD8129712
_publ_section_title
;
Structure prediction by ZEFSAII (Michael W. Deem and Ramdas Pophale) SiO2 
 PCOD8129712
Probable space group: C 2/C
;
_chemical_formula_sum "Si O2"
_cell_formula_units_Z 48
_cell_length_a 15.749469
_cell_length_b 28.269143
_cell_length_c 9.547343
_cell_angle_alpha 90.000000
_cell_angle_beta 30.718379
_cell_angle_gamma 90.000000
_cell_volume 2171.340236
_symmetry_space_group_name_H-M "C 2/C"
_symmetry_group_IT_number 15
_symmetry_cell_setting 'monoclinic'
loop_
_space_group_symop_operation_xyz
x,y,z
-x,y,1/2-z
-x,-y,-z
x,-y,1/2+z
1/2+x,1/2+y,z
1/2-x,1/2+y,1/2-z
1/2-x,1/2-y,-z
1/2+x,1/2-y,1/2+z
loop_
_atom_site_type_symbol
_atom_site_label
_atom_site_fract_x
_atom_site_fract_y
_atom_site_fract_z
Si Si1 0.695529 0.966810 0.963625
Si Si2 0.299515 0.863870 0.047022
Si Si3 0.644105 0.098752 0.310608
Si Si4 0.842814 0.735931 0.566391
Si Si5 0.809665 0.553759 0.720763
Si Si6 0.541409 0.800084 0.034754
O O1 0.500000 0.960259 0.250000
O O2 0.771201 0.960468 0.013467
O O3 0.757389 0.924267 0.772806
O O4 0.742349 0.016390 0.825432
O O5 0.500000 0.863055 0.750000
O O6 0.237480 0.885862 0.986957
O O7 0.242117 0.809711 0.147478
O O8 0.239045 0.896053 0.263430
O O9 0.510949 0.058287 0.448627
O O10 0.541504 0.143534 0.514933
O O11 0.721724 0.780461 0.736360
O O12 0.898682 0.723042 0.643414
O O13 0.000000 0.749769 0.250000
O O14 0.500000 0.785475 0.250000
#
# Coordination Sequence:
#
# PCOD8129712 Si02
#       6
#     8   8   8   8   8   8
#     4  10  17  23  40  66  98 144 168 218 268 351
#     4   9  16  30  47  67  96 141 178 223 268 330
#     4  10  18  29  45  68 104 140 178 218 283 330
#     4  11  22  39  60  79 111 151 199 232 285 338
#     4  10  16  27  41  66 103 140 177 214 280 338
#     4  12  23  38  56  85 113 151 188 244 285 338
#
# _framework density 22.106161
#
# number of rings (size 3 to 8) (size 9 to 14) (size 15 to 20)
#    0.000    1.667    5.000    7.000    0.000    0.000 
#    0.000    0.000    0.000    0.000    0.000    0.000 
#    0.000    2.667    0.000    1.000    0.000    0.333 
#
# Total GULP energy -297451.836200 kJ/mol
# GULP energy per Si atom -12393.826508 kJ/mol
# Density = 2.205585 g / cm^3
# Si number density = 22.106161 Si / 1000 Ang^3
#
#
#
# Elastic Constant Matrix: (Units=GPa)
#
#
# Indices 1 2 3 4 5 6 
#
# 1 68.7320 23.1439 38.0135 0.0001 39.6251 0.0000
# 2 23.1439 90.3468 33.5588 0.0000 9.1263 0.0000
# 3 38.0135 33.5588 52.4928 0.0003 32.0866 0.0000
# 4 0.0001 0.0000 0.0003 18.0462 -0.0002 12.1519
# 5 39.6251 9.1263 32.0866 -0.0002 37.6282 0.0000
# 6 0.0000 0.0000 0.0000 12.1519 0.0000 22.1332
#
#
#
# Elastic Compliance Matrix: (Units=1/GPa)
#
#
# Indices 1 2 3 4 5 6 
#
# 1 0.040126 -0.005984 -0.000606 -0.000001 -0.040287 0.000001
# 2 -0.005984 0.017101 -0.016534 0.000001 0.016253 0.000000
# 3 -0.000606 -0.016534 0.056851 -0.000002 -0.043830 0.000001
# 4 -0.000001 0.000001 -0.000002 0.087917 0.000003 -0.048269
# 5 -0.040287 0.016253 -0.043830 0.000003 0.102433 -0.000002
# 6 0.000001 0.000000 0.000001 -0.048269 -0.000002 0.071682
#
#
# Mechanical properties :
#
#
# Convention : Reuss Voigt Hill
#
# Bulk Modulus (GPa) = 14.74311 44.55599 29.64955
# Shear Modulus (GPa) = 11.23674 23.35187 17.29431
#
# Velocity S-wave (km/s) = 2.25701 3.25368 2.80005
# Velocity P-wave (km/s) = 3.67095 5.85786 4.88827
#
# Compressibility (1/GPa) = 0.06782831
#
# Stress axis : x y z
#
# Youngs Moduli (GPa) = 24.92180 58.47570 17.58983
#
# Poissons Ratio (x) = 0.34993 0.01067
# Poissons Ratio (y) = 0.14914 0.29083
# Poissons Ratio (z) = 0.01511 0.96685
#
# Static dielectric constant tensor:
#      x y z
#    x 4.235140 0.000000 0.879020 
#    y 0.000000 4.139780 0.000000 
#    z 0.879020 0.000000 3.536030 
# 
# 
# High freq. dielectric constant tensor:
#      x y z
#    x 1.858530 0.000000 0.067270 
#    y 0.000000 1.884120 0.000000 
#    z 0.067270 0.000000 1.803590 
# 
# From -- ./inp_files/44417.got.cif
#   From: 2010.06.25/outbox.cif.g09.slc.cpg/sg15_23_cif.got.tgz:44417.got - 2010.06.28 07:06:18.
