data_PCOD8129591
_publ_section_title
;
Structure prediction by ZEFSAII (Michael W. Deem and Ramdas Pophale) SiO2 
 PCOD8129591
Probable space group: C 2/C
;
_chemical_formula_sum "Si O2"
_cell_formula_units_Z 32
_cell_length_a 21.000000
_cell_length_b 18.000000
_cell_length_c 24.000000
_cell_angle_alpha 90.000000
_cell_angle_beta 160.000000
_cell_angle_gamma 90.000000
_cell_volume 3102.806740
_symmetry_space_group_name_H-M "C 2/C"
_symmetry_group_IT_number 15
_symmetry_cell_setting 'monoclinic'
loop_
_space_group_symop_operation_xyz
x,y,z
-x,y,1/2-z
-x,-y,-z
x,-y,1/2+z
1/2+x,1/2+y,z
1/2-x,1/2+y,1/2-z
1/2-x,1/2-y,-z
1/2+x,1/2-y,1/2+z
loop_
_atom_site_type_symbol
_atom_site_label
_atom_site_fract_x
_atom_site_fract_y
_atom_site_fract_z
Si Si1 0.880309 0.583062 0.595889
Si Si2 0.881736 0.337696 0.437576
Si Si3 0.951438 0.533720 0.072835
Si Si4 0.685755 0.916720 0.622993
Si Si5 0.956300 0.161181 0.125870
Si Si6 0.415449 0.692700 0.892413
Si Si7 0.164815 0.692764 0.790557
Si Si8 0.344523 0.559639 0.370675
O O1 0.847594 0.501128 0.541830
O O2 0.682191 0.624736 0.441919
O O3 0.000000 0.576488 0.750000
O O4 0.012273 0.626537 0.659892
O O5 0.868831 0.388498 0.482488
O O6 0.680026 0.337486 0.242416
O O7 0.035241 0.355213 0.516234
O O8 0.952723 0.259263 0.518425
O O9 0.170702 0.543348 0.269003
O O10 0.926668 0.480143 0.000205
O O11 0.765075 0.949391 0.744400
O O12 0.861489 0.889583 0.731148
O O13 0.041444 0.240123 0.215113
O O14 0.837957 0.171053 0.972125
O O15 0.249956 0.712777 0.800278
O O16 0.562875 0.637798 0.041061
O O17 0.500000 0.500000 0.500000
#
# Coordination Sequence:
#
# PCOD8129591 Si02
#       8
#     8   8   8   8   8   8   8   8
#     4  10  24  42  59  84 118 171 221 260 308 368
#     4  11  22  37  58  93 126 160 203 252 322 378
#     4  11  24  40  57  83 126 164 211 267 308 367
#     4  11  21  37  55  89 121 166 204 252 312 375
#     4  11  23  37  60  84 124 169 218 244 304 363
#     4  12  21  37  65  96 128 164 201 251 321 393
#     4  11  21  38  57  88 126 165 205 257 299 372
#     4  11  21  36  60  89 124 165 199 253 325 379
#
# _framework density 10.313243
#
# number of rings (size 3 to 8) (size 9 to 14) (size 15 to 20)
#    0.000    1.000    2.500    7.125    3.500    0.500 
#    0.000    0.000    0.000    0.000    0.000    3.500 
#    0.000    0.125    0.000    0.000    0.000    0.000 
#
# Total GULP energy -396575.674864 kJ/mol
# GULP energy per Si atom -12392.989839 kJ/mol
# Density = 1.028977 g / cm^3
# Si number density = 10.313243 Si / 1000 Ang^3
#
#
#
# Elastic Constant Matrix: (Units=GPa)
#
#
# Indices 1 2 3 4 5 6 
#
# 1 45.2276 38.0682 14.6392 0.0160 9.2597 -0.0044
# 2 38.0682 101.4823 28.8620 0.0571 4.3368 0.0045
# 3 14.6392 28.8620 97.5841 0.1577 5.6662 0.0246
# 4 0.0160 0.0571 0.1577 26.2108 0.0515 11.1375
# 5 9.2597 4.3368 5.6662 0.0515 18.4840 0.0090
# 6 -0.0044 0.0045 0.0246 11.1375 0.0090 34.7971
#
#
#
# Elastic Compliance Matrix: (Units=1/GPa)
#
#
# Indices 1 2 3 4 5 6 
#
# 1 0.036075 -0.012670 -0.000802 0.000041 -0.014854 -0.000002
# 2 -0.012670 0.015254 -0.002822 -0.000017 0.003633 0.000003
# 3 -0.000802 -0.002822 0.011343 -0.000062 -0.002413 0.000013
# 4 0.000041 -0.000017 -0.000062 0.044159 -0.000114 -0.014134
# 5 -0.014854 0.003633 -0.002413 -0.000114 0.061429 0.000020
# 6 -0.000002 0.000003 0.000013 -0.014134 0.000020 0.033262
#
#
# Mechanical properties :
#
#
# Convention : Reuss Voigt Hill
#
# Bulk Modulus (GPa) = 33.23985 45.27032 39.25508
# Shear Modulus (GPa) = 20.48028 26.74669 23.61348
#
# Velocity S-wave (km/s) = 3.15447 3.60490 3.38718
# Velocity P-wave (km/s) = 5.42381 6.27076 5.86260
#
# Compressibility (1/GPa) = 0.03008437
#
# Stress axis : x y z
#
# Youngs Moduli (GPa) = 27.71981 65.55694 88.16226
#
# Poissons Ratio (x) = 0.83059 0.07072
# Poissons Ratio (y) = 0.35120 0.24878
# Poissons Ratio (z) = 0.02224 0.18499
#
# Static dielectric constant tensor:
#      x y z
#    x 3.477050 -0.000100 0.098160 
#    y -0.000100 3.692400 -0.000470 
#    z 0.098160 -0.000470 3.983880 
# 
# 
# High freq. dielectric constant tensor:
#      x y z
#    x 1.762190 -0.000010 -0.006850 
#    y -0.000010 1.798310 -0.000030 
#    z -0.006850 -0.000030 1.837010 
# 
# From -- ./inp_files/280535.got.cif
#   From: 2010.06.25/outbox.ucp.g09.slc.cvg/sg15_141_cif.got.tgz:280535.got - 2010.06.28 14:40:10.
