data_PCOD8129656
_publ_section_title
;
Structure prediction by ZEFSAII (Michael W. Deem and Ramdas Pophale) SiO2 
 PCOD8129656
Probable space group: C 2/C
;
_chemical_formula_sum "Si O2"
_cell_formula_units_Z 56
_cell_length_a 24.696389
_cell_length_b 9.649097
_cell_length_c 17.977013
_cell_angle_alpha 90.000000
_cell_angle_beta 47.054123
_cell_angle_gamma 90.000000
_cell_volume 3135.792548
_symmetry_space_group_name_H-M "C 2/C"
_symmetry_group_IT_number 15
_symmetry_cell_setting 'monoclinic'
loop_
_space_group_symop_operation_xyz
x,y,z
-x,y,1/2-z
-x,-y,-z
x,-y,1/2+z
1/2+x,1/2+y,z
1/2-x,1/2+y,1/2-z
1/2-x,1/2-y,-z
1/2+x,1/2-y,1/2+z
loop_
_atom_site_type_symbol
_atom_site_label
_atom_site_fract_x
_atom_site_fract_y
_atom_site_fract_z
Si Si1 0.996679 0.620721 0.564614
Si Si2 0.341995 0.220881 0.084679
Si Si3 0.738052 0.960307 0.337823
Si Si4 0.900543 0.267268 0.039508
Si Si5 0.019765 0.611486 0.316875
Si Si6 0.827494 0.285801 0.776433
Si Si7 0.701197 0.480656 0.876954
O O1 0.944343 0.738878 0.577715
O O2 0.965044 0.545430 0.667988
O O3 0.000000 0.500000 0.500000
O O4 0.073676 0.690375 0.514737
O O5 0.334601 0.216177 0.180687
O O6 0.317126 0.367543 0.072800
O O7 0.289797 0.101682 0.096344
O O8 0.665966 0.872989 0.382391
O O9 0.790907 0.860569 0.337982
O O10 0.784512 0.005942 0.223375
O O11 0.870894 0.115996 0.045709
O O12 0.952180 0.318239 0.923965
O O13 0.094014 0.701062 0.257523
O O14 0.000000 0.605345 0.250000
O O15 0.772556 0.412208 0.850745
#
# Coordination Sequence:
#
# PCOD8129656 Si02
#       7
#     8   8   8   8   8   8   8
#     4  10  16  30  54  74 103 133 173 223 264 304
#     4  10  15  29  52  82 102 131 170 217 269 317
#     4   9  16  29  50  76 106 133 166 216 264 310
#     4  10  18  34  54  80 109 134 171 226 267 306
#     4  11  21  34  55  77 104 146 188 216 258 321
#     4   9  17  32  48  77 106 132 171 220 264 307
#     4   9  19  28  52  85 109 129 169 222 276 317
#
# _framework density 17.858324
#
# number of rings (size 3 to 8) (size 9 to 14) (size 15 to 20)
#    0.000    2.286    5.714    1.714    0.000    0.571 
#    0.000    2.857    0.000    1.714    0.000    0.000 
#    0.000    0.000    0.000    0.000    0.000    0.000 
#
# Total GULP energy -346925.227488 kJ/mol
# GULP energy per Si atom -12390.186696 kJ/mol
# Density = 1.781768 g / cm^3
# Si number density = 17.858324 Si / 1000 Ang^3
#
#
#
# Elastic Constant Matrix: (Units=GPa)
#
#
# Indices 1 2 3 4 5 6 
#
# 1 73.7915 28.0815 45.0796 -0.0007 -3.1038 0.0009
# 2 28.0815 113.6914 28.2586 -0.0009 -5.9932 0.0005
# 3 45.0796 28.2586 58.6911 -0.0010 -10.1382 0.0005
# 4 -0.0007 -0.0009 -0.0010 19.2829 0.0006 -9.8500
# 5 -3.1038 -5.9932 -10.1382 0.0006 22.7121 -0.0005
# 6 0.0009 0.0005 0.0005 -9.8500 -0.0005 13.4305
#
#
#
# Elastic Compliance Matrix: (Units=1/GPa)
#
#
# Indices 1 2 3 4 5 6 
#
# 1 0.026538 -0.001758 -0.020578 -0.000001 -0.006022 -0.000002
# 2 -0.001758 0.010114 -0.003359 0.000000 0.000929 0.000000
# 3 -0.020578 -0.003359 0.036648 0.000002 0.012660 0.000002
# 4 -0.000001 0.000000 0.000002 0.082927 0.000000 0.060819
# 5 -0.006022 0.000929 0.012660 0.000000 0.049103 0.000001
# 6 -0.000002 0.000000 0.000002 0.060819 0.000001 0.119063
#
#
# Mechanical properties :
#
#
# Convention : Reuss Voigt Hill
#
# Bulk Modulus (GPa) = 45.63860 49.89038 47.76449
# Shear Modulus (GPa) = 13.05196 20.73539 16.89367
#
# Velocity S-wave (km/s) = 2.70638 3.41120 3.07902
# Velocity P-wave (km/s) = 5.94789 6.59639 6.28052
#
# Compressibility (1/GPa) = 0.02191128
#
# Stress axis : x y z
#
# Youngs Moduli (GPa) = 37.68153 98.87508 27.28677
#
# Poissons Ratio (x) = 0.17379 0.56149
# Poissons Ratio (y) = 0.06623 0.09166
# Poissons Ratio (z) = 0.77539 0.33212
#
# Static dielectric constant tensor:
#      x y z
#    x 3.217590 0.000000 -0.420420 
#    y 0.000000 3.754580 0.000000 
#    z -0.420420 0.000000 3.168930 
# 
# 
# High freq. dielectric constant tensor:
#      x y z
#    x 1.660000 0.000000 -0.045950 
#    y 0.000000 1.694140 0.000000 
#    z -0.045950 0.000000 1.663520 
# 
# From -- ./inp_files/218495.got.cif
#   From: 2010.06.25/outbox.cif.g09.slc.cpg/sg15_110_cif.got.tgz:218495.got - 2010.06.28 07:06:18.
