data_PCOD8129550
_publ_section_title
;
Structure prediction by ZEFSAII (Michael W. Deem and Ramdas Pophale) SiO2 
 PCOD8129550
Probable space group: C 2/C
;
_chemical_formula_sum "Si O2"
_cell_formula_units_Z 28
_cell_length_a 21.000000
_cell_length_b 9.000000
_cell_length_c 30.000000
_cell_angle_alpha 90.000000
_cell_angle_beta 30.000000
_cell_angle_gamma 90.000000
_cell_volume 2835.000000
_symmetry_space_group_name_H-M "C 2/C"
_symmetry_group_IT_number 15
_symmetry_cell_setting 'monoclinic'
loop_
_space_group_symop_operation_xyz
x,y,z
-x,y,1/2-z
-x,-y,-z
x,-y,1/2+z
1/2+x,1/2+y,z
1/2-x,1/2+y,1/2-z
1/2-x,1/2-y,-z
1/2+x,1/2-y,1/2+z
loop_
_atom_site_type_symbol
_atom_site_label
_atom_site_fract_x
_atom_site_fract_y
_atom_site_fract_z
Si Si1 0.171101 0.456427 0.280721
Si Si2 0.360315 0.204462 0.784954
Si Si3 0.955936 0.405341 0.959426
Si Si4 0.000000 0.046233 0.250000
Si Si5 0.415636 0.802404 0.536020
Si Si6 0.303357 0.707531 0.872881
Si Si7 0.000000 0.449489 0.750000
Si Si8 0.193549 0.764527 0.842125
O O1 0.155112 0.313869 0.258427
O O2 0.223128 0.382732 0.294773
O O3 0.266982 0.579863 0.203903
O O4 0.031474 0.531952 0.371280
O O5 0.450218 0.345870 0.740538
O O6 0.217495 0.216591 0.892740
O O7 0.429122 0.052356 0.757512
O O8 0.059455 0.313822 0.925878
O O9 0.897837 0.534317 0.026004
O O10 0.833468 0.305603 0.018803
O O11 0.881629 0.943339 0.335794
O O12 0.540065 0.720327 0.440521
O O13 0.390166 0.843838 0.838417
O O14 0.272242 0.735501 0.839554
#
# Coordination Sequence:
#
# PCOD8129550 Si02
#       8
#     8   8   8   4   8   8   4   8
#     4  11  22  36  57  91 124 140 181 253 308 328
#     4  11  21  38  58  87 117 148 197 238 288 331
#     4   9  18  35  60  87 112 148 191 240 286 342
#     4  10  22  34  68  78 106 168 202 224 266 358
#     4   9  18  35  61  85 112 149 197 234 279 352
#     4  10  19  41  62  81 110 158 206 221 279 356
#     4  10  22  38  58  82 118 154 196 242 260 350
#     4  10  22  37  61  89 117 148 187 245 299 338
#
# _framework density 9.8765429999999999
#
# number of rings (size 3 to 8) (size 9 to 14) (size 15 to 20)
#    0.000    2.000    2.857    1.714    2.000    0.571 
#    2.571    1.429    0.000    0.000    0.000    0.000 
#    0.000    0.000    0.000    0.000    0.000    0.000 
#
# Total GULP energy -346972.533759 kJ/mol
# GULP energy per Si atom -12391.876206 kJ/mol
# Density = 0.985406 g / cm^3
# Si number density = 9.876543 Si / 1000 Ang^3
#
#
#
# Elastic Constant Matrix: (Units=GPa)
#
#
# Indices 1 2 3 4 5 6 
#
# 1 62.7535 41.0062 53.5196 -0.0003 -23.9387 -0.0015
# 2 41.0062 103.0119 34.2286 0.0000 -13.2829 -0.0043
# 3 53.5196 34.2286 87.4198 0.0016 -18.7178 -0.0008
# 4 -0.0003 0.0000 0.0016 37.7366 -0.0001 -7.9844
# 5 -23.9387 -13.2829 -18.7178 -0.0001 34.8168 0.0000
# 6 -0.0015 -0.0043 -0.0008 -7.9844 0.0000 36.3699
#
#
#
# Elastic Compliance Matrix: (Units=1/GPa)
#
#
# Indices 1 2 3 4 5 6 
#
# 1 0.046694 -0.009311 -0.021277 0.000001 0.017114 0.000001
# 2 -0.009311 0.013161 0.000284 0.000000 -0.001228 0.000001
# 3 -0.021277 0.000284 0.024008 -0.000001 -0.001614 -0.000001
# 4 0.000001 0.000000 -0.000001 0.027790 0.000000 0.006101
# 5 0.017114 -0.001228 -0.001614 0.000000 0.039153 0.000001
# 6 0.000001 0.000001 -0.000001 0.006101 0.000001 0.028835
#
#
# Mechanical properties :
#
#
# Convention : Reuss Voigt Hill
#
# Bulk Modulus (GPa) = 42.99867 56.74378 49.87123
# Shear Modulus (GPa) = 20.16117 30.08003 25.12060
#
# Velocity S-wave (km/s) = 3.19824 3.90654 3.57000
# Velocity P-wave (km/s) = 5.95430 7.00978 6.50349
#
# Compressibility (1/GPa) = 0.02325653
#
# Stress axis : x y z
#
# Youngs Moduli (GPa) = 21.41584 75.98013 41.65242
#
# Poissons Ratio (x) = 0.70746 0.88623
# Poissons Ratio (y) = 0.19941 -0.01184
# Poissons Ratio (z) = 0.45566 -0.02160
#
# Static dielectric constant tensor:
#      x y z
#    x 3.614010 0.000000 -0.313280 
#    y 0.000000 3.678500 0.000000 
#    z -0.313280 0.000000 3.606970 
# 
# 
# High freq. dielectric constant tensor:
#      x y z
#    x 1.758450 0.000000 -0.032540 
#    y 0.000000 1.778120 0.000000 
#    z -0.032540 0.000000 1.765180 
# 
# From -- ./inp_files/172009.got.cif
#   From: 2010.06.25/outbox.ucp.g09.slc.cvg/sg15_87_cif.got.tgz:172009.got - 2010.06.28 14:40:10.
