data_PCOD8129965
_publ_section_title
;
Structure prediction by ZEFSAII (Michael W. Deem and Ramdas Pophale) SiO2 
 PCOD8129965
Probable space group: C 2/C
;
_chemical_formula_sum "Si O2"
_cell_formula_units_Z 44
_cell_length_a 16.827457
_cell_length_b 9.297807
_cell_length_c 22.328433
_cell_angle_alpha 90.000000
_cell_angle_beta 33.949165
_cell_angle_gamma 90.000000
_cell_volume 1950.954325
_symmetry_space_group_name_H-M "C 2/C"
_symmetry_group_IT_number 15
_symmetry_cell_setting 'monoclinic'
loop_
_space_group_symop_operation_xyz
x,y,z
-x,y,1/2-z
-x,-y,-z
x,-y,1/2+z
1/2+x,1/2+y,z
1/2-x,1/2+y,1/2-z
1/2-x,1/2-y,-z
1/2+x,1/2-y,1/2+z
loop_
_atom_site_type_symbol
_atom_site_label
_atom_site_fract_x
_atom_site_fract_y
_atom_site_fract_z
Si Si1 0.310017 0.233722 0.570809
Si Si2 0.689616 0.552306 0.973788
Si Si3 0.000000 0.719557 0.250000
Si Si4 0.425604 0.981118 0.906774
Si Si5 0.378104 0.640843 0.152978
Si Si6 0.288781 0.126614 0.784959
O O1 0.331714 0.381839 0.521355
O O2 0.103149 0.393130 0.514737
O O3 0.369088 0.256371 0.600514
O O4 0.142155 0.187970 0.674459
O O5 0.785749 0.571116 0.973300
O O6 0.775693 0.623015 0.864559
O O7 0.539688 0.631386 0.075330
O O8 0.023731 0.622803 0.177415
O O9 0.555176 0.087706 0.837688
O O10 0.273631 0.710721 0.268776
O O11 0.328798 0.479546 0.169124
#
# Coordination Sequence:
#
# PCOD8129965 Si02
#       6
#     8   8   4   8   8   8
#     4  10  21  35  65  94 124 162 214 268 310 382
#     4  10  21  41  64  90 125 173 208 261 322 385
#     4  10  16  34  58  90 114 160 200 254 312 374
#     4  11  20  38  65  90 123 165 216 252 317 383
#     4  11  25  39  65  92 131 164 216 261 326 377
#     4  11  23  41  65  90 126 171 206 267 318 387
#
# _framework density 22.553066999999999
#
# number of rings (size 3 to 8) (size 9 to 14) (size 15 to 20)
#    0.000    1.455    5.455    4.364    5.091    2.909 
#    0.000    0.000    0.000    0.000    0.000    0.000 
#    0.000    0.000    0.000    0.000    0.000    0.000 
#
# Total GULP energy -272738.102667 kJ/mol
# GULP energy per Si atom -12397.186485 kJ/mol
# Density = 2.250173 g / cm^3
# Si number density = 22.553067 Si / 1000 Ang^3
#
#
#
# Elastic Constant Matrix: (Units=GPa)
#
#
# Indices 1 2 3 4 5 6 
#
# 1 57.7320 -1.0204 24.9780 -0.0001 -16.3692 0.0000
# 2 -1.0204 27.0973 27.2254 0.0001 8.4573 -0.0001
# 3 24.9780 27.2254 90.1684 0.0004 -16.3729 -0.0001
# 4 -0.0001 0.0001 0.0004 37.3149 0.0000 -1.1499
# 5 -16.3692 8.4573 -16.3729 0.0000 34.3219 0.0000
# 6 0.0000 -0.0001 -0.0001 -1.1499 0.0000 15.3845
#
#
#
# Elastic Compliance Matrix: (Units=1/GPa)
#
#
# Indices 1 2 3 4 5 6 
#
# 1 0.022021 0.005868 -0.006818 0.000000 0.005804 0.000000
# 2 0.005868 0.077619 -0.030684 0.000000 -0.030965 0.000000
# 3 -0.006818 -0.030684 0.025210 0.000000 0.016336 0.000000
# 4 0.000000 0.000000 0.000000 0.026861 0.000000 0.002008
# 5 0.005804 -0.030965 0.016336 0.000000 0.047327 0.000000
# 6 0.000000 0.000000 0.000000 0.002008 0.000000 0.065151
#
#
# Mechanical properties :
#
#
# Convention : Reuss Voigt Hill
#
# Bulk Modulus (GPa) = 16.23884 30.81817 23.52850
# Shear Modulus (GPa) = 14.36850 25.65857 20.01353
#
# Velocity S-wave (km/s) = 2.52682 3.37664 2.98215
# Velocity P-wave (km/s) = 3.96598 5.37556 4.72364
#
# Compressibility (1/GPa) = 0.06158076
#
# Stress axis : x y z
#
# Youngs Moduli (GPa) = 45.41203 12.88347 39.66673
#
# Poissons Ratio (x) = -0.07560 0.27044
# Poissons Ratio (y) = -0.26647 1.21715
# Poissons Ratio (z) = 0.30961 0.39532
#
# Static dielectric constant tensor:
#      x y z
#    x 4.271480 0.000000 -0.336210 
#    y 0.000000 3.704950 0.000000 
#    z -0.336210 0.000000 4.231640 
# 
# 
# High freq. dielectric constant tensor:
#      x y z
#    x 1.892180 0.000000 -0.015340 
#    y 0.000000 1.855480 0.000000 
#    z -0.015340 0.000000 1.889630 
# 
# From -- ./inp_files/298083.got.cif
#   From: 2010.06.25/outbox.cif.g09.slc.cpg/sg15_150_cif.got.tgz:298083.got - 2010.06.28 07:06:18.
