data_PCOD8129061
_publ_section_title
;
Structure prediction by ZEFSAII (Michael W. Deem and Ramdas Pophale) SiO2 
 PCOD8129061
Probable space group: P 21/C
;
_chemical_formula_sum "Si O2"
_cell_formula_units_Z 28
_cell_length_a 23.842472
_cell_length_b 6.573530
_cell_length_c 15.633934
_cell_angle_alpha 90.000000
_cell_angle_beta 32.909855
_cell_angle_gamma 90.000000
_cell_volume 1331.290964
_symmetry_space_group_name_H-M "P 21/C"
_symmetry_group_IT_number 14
_symmetry_cell_setting 'monoclinic'
loop_
_space_group_symop_operation_xyz
x,y,z
-x,1/2+y,1/2-z
-x,-y,-z
x,1/2-y,1/2+z
loop_
_atom_site_type_symbol
_atom_site_label
_atom_site_fract_x
_atom_site_fract_y
_atom_site_fract_z
Si Si1 0.745905 0.657458 0.259195
Si Si2 0.882576 0.974612 0.173598
Si Si3 0.291223 0.722612 0.597506
Si Si4 0.896004 0.702706 0.312774
Si Si5 0.380677 0.520200 0.134858
Si Si6 0.747742 0.159524 0.037340
Si Si7 0.886146 0.464850 0.952287
O O1 0.834871 0.815272 0.168695
O O2 0.700794 0.519491 0.393785
O O3 0.656535 0.787169 0.328307
O O4 0.795222 0.482837 0.137279
O O5 0.865824 0.883042 0.288151
O O6 0.825293 0.191506 0.240253
O O7 0.000000 0.000000 0.000000
O O8 0.317488 0.744561 0.461656
O O9 0.365440 0.852982 0.565583
O O10 0.802426 0.546133 0.435802
O O11 0.006399 0.609823 0.144293
O O12 0.907738 0.809011 0.389462
O O13 0.325691 0.625318 0.286754
O O14 0.500000 0.500000 0.000000
O O15 0.842421 0.308077 0.938509
#
# Coordination Sequence:
#
# PCOD8129061 Si02
#       7
#     4   4   4   4   4   4   4
#     4  11  24  43  66  92 137 178 222 281 344 402
#     4  11  25  37  61  99 140 183 228 273 325 405
#     4  11  24  45  68  98 133 180 230 281 342 414
#     4  12  24  37  61  98 141 184 228 268 332 407
#     4  11  27  51  71  99 134 172 234 299 358 408
#     4  12  24  45  68  98 139 179 229 289 339 411
#     4  12  24  38  62  97 138 188 222 269 334 402
#
# _framework density 21.032219000000001
#
# number of rings (size 3 to 8) (size 9 to 14) (size 15 to 20)
#    0.000    0.571    7.143    0.857    6.000    1.714 
#    2.571    0.000    0.000    0.000    0.000    0.000 
#    0.000    0.000    0.000    0.000    0.000    0.000 
#
# Total GULP energy -347087.610854 kJ/mol
# GULP energy per Si atom -12395.986102 kJ/mol
# Density = 2.098435 g / cm^3
# Si number density = 21.032219 Si / 1000 Ang^3
#
#
#
# Elastic Constant Matrix: (Units=GPa)
#
#
# Indices 1 2 3 4 5 6 
#
# 1 129.9110 36.6073 53.1830 0.0000 -4.3681 0.0000
# 2 36.6073 90.0770 26.8106 0.0000 -2.2935 0.0000
# 3 53.1830 26.8106 79.0957 0.0000 -13.4208 0.0000
# 4 0.0000 0.0000 0.0000 27.7505 0.0000 8.8863
# 5 -4.3681 -2.2935 -13.4208 0.0000 36.8826 0.0000
# 6 0.0000 0.0000 0.0000 8.8863 0.0000 34.3373
#
#
#
# Elastic Compliance Matrix: (Units=1/GPa)
#
#
# Indices 1 2 3 4 5 6 
#
# 1 0.011187 -0.002529 -0.006892 0.000000 -0.001340 0.000000
# 2 -0.002529 0.012942 -0.002772 0.000000 -0.000503 0.000000
# 3 -0.006892 -0.002772 0.019236 0.000000 0.006011 0.000000
# 4 0.000000 0.000000 0.000000 0.039292 0.000000 -0.010168
# 5 -0.001340 -0.000503 0.006011 0.000000 0.029110 0.000000
# 6 0.000000 0.000000 0.000000 -0.010168 0.000000 0.031754
#
#
# Mechanical properties :
#
#
# Convention : Reuss Voigt Hill
#
# Bulk Modulus (GPa) = 52.68869 59.14286 55.91577
# Shear Modulus (GPa) = 28.69733 31.95959 30.32846
#
# Velocity S-wave (km/s) = 3.69785 3.90237 3.80149
# Velocity P-wave (km/s) = 6.58315 6.96318 6.77583
#
# Compressibility (1/GPa) = 0.01897941
#
# Stress axis : x y z
#
# Youngs Moduli (GPa) = 89.39304 77.27048 51.98491
#
# Poissons Ratio (x) = 0.19542 0.35827
# Poissons Ratio (y) = 0.22608 0.14408
# Poissons Ratio (z) = 0.61608 0.21417
#
# Static dielectric constant tensor:
#      x y z
#    x 4.048740 0.000000 0.237160 
#    y 0.000000 3.962500 0.000000 
#    z 0.237160 0.000000 3.452470 
# 
# 
# High freq. dielectric constant tensor:
#      x y z
#    x 1.833910 0.000000 0.016230 
#    y 0.000000 1.839810 0.000000 
#    z 0.016230 0.000000 1.789830 
# 
# From -- ./inp_files/62138.got.cif
#   From: 2010.03.12/outbox.cif.g09.slc.cpg/sg14_32_cif.got.tgz:62138.got - 2010.03.31 13:35:05.
