data_PCOD8129342
_publ_section_title
;
Structure prediction by ZEFSAII (Michael W. Deem and Ramdas Pophale) SiO2 
 PCOD8129342
Probable space group: P 21/C
;
_chemical_formula_sum "Si O2"
_cell_formula_units_Z 24
_cell_length_a 7.564487
_cell_length_b 11.298125
_cell_length_c 14.013743
_cell_angle_alpha 90.000000
_cell_angle_beta 101.719621
_cell_angle_gamma 90.000000
_cell_volume 1172.710195
_symmetry_space_group_name_H-M "P 21/C"
_symmetry_group_IT_number 14
_symmetry_cell_setting 'monoclinic'
loop_
_space_group_symop_operation_xyz
x,y,z
-x,1/2+y,1/2-z
-x,-y,-z
x,1/2-y,1/2+z
loop_
_atom_site_type_symbol
_atom_site_label
_atom_site_fract_x
_atom_site_fract_y
_atom_site_fract_z
Si Si1 0.294358 0.968137 0.307853
Si Si2 0.471664 0.912027 0.823662
Si Si3 0.767981 0.251568 0.818067
Si Si4 0.141568 0.161310 0.419341
Si Si5 0.621451 0.677668 0.883662
Si Si6 0.401901 0.165878 0.841185
O O1 0.384744 0.059106 0.243940
O O2 0.159087 0.040501 0.361001
O O3 0.184654 0.866326 0.238430
O O4 0.452310 0.907930 0.388825
O O5 0.289229 0.856905 0.759083
O O6 0.565570 0.813763 0.901826
O O7 0.416224 0.028931 0.876690
O O8 0.600821 0.224137 0.870468
O O9 0.936751 0.294096 0.898895
O O10 0.205969 0.138835 0.535036
O O11 0.264873 0.265167 0.391650
O O12 0.665369 0.666486 0.776208
#
# Coordination Sequence:
#
# PCOD8129342 Si02
#       6
#     4   4   4   4   4   4
#     4   9  18  38  57  75 115 147 170 226 276 309
#     4   8  16  39  58  68 117 146 173 221 277 318
#     4   9  20  34  55  84 105 142 188 215 262 336
#     4  12  20  33  62  80 108 144 181 225 273 309
#     4   9  19  35  57  84 104 143 185 221 262 334
#     4   9  20  39  55  73 113 150 169 227 279 304
#
# _framework density 20.465413999999999
#
# number of rings (size 3 to 8) (size 9 to 14) (size 15 to 20)
#    0.000    3.333    3.333    0.500    2.333    0.667 
#    0.000   11.667    0.000    0.000    0.000    0.000 
#    0.000    0.000    0.000    0.000    0.000    0.000 
#
# Total GULP energy -297439.753834 kJ/mol
# GULP energy per Si atom -12393.323076 kJ/mol
# Density = 2.041883 g / cm^3
# Si number density = 20.465414 Si / 1000 Ang^3
#
#
#
# Elastic Constant Matrix: (Units=GPa)
#
#
# Indices 1 2 3 4 5 6 
#
# 1 76.0421 19.1385 27.4454 0.0000 22.9116 0.0000
# 2 19.1385 92.4400 -2.0709 0.0000 5.1991 0.0000
# 3 27.4454 -2.0709 54.5603 0.0000 24.9332 0.0000
# 4 0.0000 0.0000 0.0000 16.9681 0.0000 -5.2423
# 5 22.9116 5.1991 24.9332 0.0000 33.3861 0.0000
# 6 0.0000 0.0000 0.0000 -5.2423 0.0000 22.1602
#
#
#
# Elastic Compliance Matrix: (Units=1/GPa)
#
#
# Indices 1 2 3 4 5 6 
#
# 1 0.018501 -0.003527 -0.005904 0.000000 -0.007738 0.000000
# 2 -0.003527 0.011705 0.002953 0.000000 -0.001608 0.000000
# 3 -0.005904 0.002953 0.030011 0.000000 -0.018821 0.000000
# 4 0.000000 0.000000 0.000000 0.063581 0.000000 0.015041
# 5 -0.007738 -0.001608 -0.018821 0.000000 0.049569 0.000000
# 6 0.000000 0.000000 0.000000 0.015041 0.000000 0.048684
#
#
# Mechanical properties :
#
#
# Convention : Reuss Voigt Hill
#
# Bulk Modulus (GPa) = 21.15959 34.67426 27.91693
# Shear Modulus (GPa) = 19.93931 26.40484 23.17208
#
# Velocity S-wave (km/s) = 3.12475 3.59586 3.36855
# Velocity P-wave (km/s) = 4.83533 5.84978 5.36658
#
# Compressibility (1/GPa) = 0.04725990
#
# Stress axis : x y z
#
# Youngs Moduli (GPa) = 54.05181 85.43574 33.32074
#
# Poissons Ratio (x) = 0.30137 0.19674
# Poissons Ratio (y) = 0.19066 -0.09841
# Poissons Ratio (z) = 0.31914 -0.25231
#
# Static dielectric constant tensor:
#      x y z
#    x 3.270800 0.000000 0.169260 
#    y 0.000000 4.177700 0.000000 
#    z 0.169260 0.000000 3.355050 
# 
# 
# High freq. dielectric constant tensor:
#      x y z
#    x 1.762940 0.000000 0.012230 
#    y 0.000000 1.827320 0.000000 
#    z 0.012230 0.000000 1.768930 
# 
# From -- ./inp_files/39824.got.cif
#   From: 2010.03.12/outbox.cif.g09.slc.cpg/sg14_20_cif.got.tgz:39824.got - 2010.03.31 13:35:05.
