data_PCOD8129937
_publ_section_title
;
Structure prediction by ZEFSAII (Michael W. Deem and Ramdas Pophale) SiO2 
 PCOD8129937
Probable space group: C 2/C
;
_chemical_formula_sum "Si O2"
_cell_formula_units_Z 52
_cell_length_a 8.586016
_cell_length_b 23.136613
_cell_length_c 19.297067
_cell_angle_alpha 90.000000
_cell_angle_beta 40.259917
_cell_angle_gamma 90.000000
_cell_volume 2477.350286
_symmetry_space_group_name_H-M "C 2/C"
_symmetry_group_IT_number 15
_symmetry_cell_setting 'monoclinic'
loop_
_space_group_symop_operation_xyz
x,y,z
-x,y,1/2-z
-x,-y,-z
x,-y,1/2+z
1/2+x,1/2+y,z
1/2-x,1/2+y,1/2-z
1/2-x,1/2-y,-z
1/2+x,1/2-y,1/2+z
loop_
_atom_site_type_symbol
_atom_site_label
_atom_site_fract_x
_atom_site_fract_y
_atom_site_fract_z
Si Si1 0.279511 0.975660 0.769852
Si Si2 0.902866 0.884849 0.575156
Si Si3 0.500000 0.203750 0.250000
Si Si4 0.059959 0.405266 0.570303
Si Si5 0.012639 0.272182 0.894342
Si Si6 0.523444 0.587584 0.661443
Si Si7 0.267069 0.336739 0.141246
O O1 0.500000 0.981611 0.750000
O O2 0.075447 0.933585 0.872841
O O3 0.355973 0.948956 0.668769
O O4 0.154549 0.035900 0.798320
O O5 0.739470 0.833950 0.659872
O O6 0.773921 0.911365 0.552508
O O7 0.161964 0.862386 0.458891
O O8 0.449848 0.241670 0.199682
O O9 0.952499 0.340167 0.600765
O O10 0.191741 0.424604 0.453658
O O11 0.205029 0.233276 0.871309
O O12 0.750000 0.250000 0.000000
O O13 0.500000 0.602217 0.750000
O O14 0.443747 0.642621 0.642899
O O15 0.000000 0.356480 0.250000
#
# Coordination Sequence:
#
# PCOD8129937 Si02
#       7
#     8   8   4   8   8   8   8
#     4  10  19  37  64  86 113 154 208 254 288 350
#     4   9  16  35  61  87 113 155 206 239 285 353
#     4  10  16  32  64  90 108 154 214 232 278 368
#     4   9  19  36  59  89 113 157 208 238 290 368
#     4  11  18  35  65  88 116 160 202 244 288 366
#     4  11  24  38  57  87 120 162 199 243 311 361
#     4  11  24  39  58  94 127 150 199 258 303 348
#
# _framework density 20.990168000000001
#
# number of rings (size 3 to 8) (size 9 to 14) (size 15 to 20)
#    0.000    1.846    8.462    0.462    1.077    7.385 
#    0.000    1.538    0.000    0.000    0.000    0.000 
#    0.000    0.000    0.000    0.000    0.000    0.000 
#
# Total GULP energy -322116.566423 kJ/mol
# GULP energy per Si atom -12389.098709 kJ/mol
# Density = 2.094239 g / cm^3
# Si number density = 20.990168 Si / 1000 Ang^3
#
#
#
# Elastic Constant Matrix: (Units=GPa)
#
#
# Indices 1 2 3 4 5 6 
#
# 1 26.1955 10.1116 28.2205 -0.0001 11.7076 -0.0002
# 2 10.1116 85.8484 38.1647 -0.0002 0.3797 -0.0003
# 3 28.2205 38.1647 176.0278 0.0011 18.5546 0.0012
# 4 -0.0001 -0.0002 0.0011 -20.5639 0.0001 -51.8118
# 5 11.7076 0.3797 18.5546 0.0001 30.6437 0.0001
# 6 -0.0002 -0.0003 0.0012 -51.8118 0.0001 -29.8841
#
#
#
# Elastic Compliance Matrix: (Units=1/GPa)
#
#
# Indices 1 2 3 4 5 6 
#
# 1 0.053547 -0.003543 -0.006051 0.000000 -0.016750 0.000000
# 2 -0.003543 0.013203 -0.002585 0.000000 0.002755 0.000000
# 3 -0.006051 -0.002585 0.007439 0.000000 -0.002161 0.000000
# 4 0.000000 0.000000 0.000000 0.014437 0.000000 -0.025031
# 5 -0.016750 0.002755 -0.002161 0.000000 0.040307 0.000000
# 6 0.000000 0.000000 0.000000 -0.025031 0.000000 0.009935
#
#
# Mechanical properties :
#
#
# Convention : Reuss Voigt Hill
#
# Bulk Modulus (GPa) = 20.06768 49.00726 34.53747
# Shear Modulus (GPa) = 27.80324 10.14411 18.97368
#
# Velocity S-wave (km/s) = 3.64343 2.20075 3.00981
# Velocity P-wave (km/s) = 5.22310 5.46408 5.34494
#
# Compressibility (1/GPa) = 0.04983137
#
# Stress axis : x y z
#
# Youngs Moduli (GPa) = 18.67524 75.74207 134.42391
#
# Poissons Ratio (x) = 0.26835 0.81337
# Poissons Ratio (y) = 0.06617 0.34747
# Poissons Ratio (z) = 0.11300 0.19579
#
# Static dielectric constant tensor:
#      x y z
#    x 3.400070 -0.000010 0.186520 
#    y -0.000010 3.410260 0.000010 
#    z 0.186520 0.000010 4.650120 
# 
# 
# High freq. dielectric constant tensor:
#      x y z
#    x 1.753300 0.000000 0.020600 
#    y 0.000000 1.822750 0.000000 
#    z 0.020600 0.000000 1.851580 
# 
# From -- ./inp_files/234384.got.cif
#   From: 2010.06.25/outbox.cif.g09.slc.cpg/sg15_118_cif.got.tgz:234384.got - 2010.06.28 07:06:18.
