data_PCOD8129756
_publ_section_title
;
Structure prediction by ZEFSAII (Michael W. Deem and Ramdas Pophale) SiO2 
 PCOD8129756
Probable space group: C 2/C
;
_chemical_formula_sum "Si O2"
_cell_formula_units_Z 52
_cell_length_a 14.608140
_cell_length_b 19.777568
_cell_length_c 12.016317
_cell_angle_alpha 90.000000
_cell_angle_beta 115.212423
_cell_angle_gamma 90.000000
_cell_volume 3140.945778
_symmetry_space_group_name_H-M "C 2/C"
_symmetry_group_IT_number 15
_symmetry_cell_setting 'monoclinic'
loop_
_space_group_symop_operation_xyz
x,y,z
-x,y,1/2-z
-x,-y,-z
x,-y,1/2+z
1/2+x,1/2+y,z
1/2-x,1/2+y,1/2-z
1/2-x,1/2-y,-z
1/2+x,1/2-y,1/2+z
loop_
_atom_site_type_symbol
_atom_site_label
_atom_site_fract_x
_atom_site_fract_y
_atom_site_fract_z
Si Si1 0.131946 0.930331 0.598411
Si Si2 0.532385 0.696962 0.140487
Si Si3 0.708315 0.848598 0.932306
Si Si4 0.597442 0.698090 0.637156
Si Si5 0.795626 0.276656 0.354258
Si Si6 0.450244 0.552622 0.836463
Si Si7 0.500000 0.798666 0.750000
O O1 0.105834 0.867730 0.665853
O O2 0.235637 0.916858 0.582282
O O3 0.039530 0.940859 0.469429
O O4 0.138185 0.999798 0.672754
O O5 0.500000 0.701669 0.250000
O O6 0.594882 0.765371 0.144649
O O7 0.434006 0.691966 0.008586
O O8 0.775629 0.786877 0.923788
O O9 0.594801 0.846787 0.825131
O O10 0.705313 0.843214 0.066067
O O11 0.713186 0.721589 0.712212
O O12 0.596123 0.626896 0.701796
O O13 0.520449 0.750549 0.654927
O O14 0.500000 0.524945 0.750000
#
# Coordination Sequence:
#
# PCOD8129756 Si02
#       7
#     8   8   8   8   8   8   4
#     4   9  19  29  43  69  96 126 157 191 240 280
#     4  10  19  31  43  65 102 129 152 190 241 294
#     4   9  16  28  46  71  97 119 157 204 240 278
#     4  10  18  28  47  72  94 125 160 194 240 283
#     4   9  17  28  46  69  93 122 154 200 240 280
#     4  10  17  28  45  68  97 125 155 193 236 291
#     4  10  16  28  50  74  96 118 160 206 238 280
#
# _framework density 16.555523999999998
#
# number of rings (size 3 to 8) (size 9 to 14) (size 15 to 20)
#    0.000    2.462    2.308    1.385    4.308    0.615 
#    0.000    0.000    0.000    0.000    2.000    2.154 
#    0.000    0.000    0.000    0.000    0.000    0.000 
#
# Total GULP energy -322211.305287 kJ/mol
# GULP energy per Si atom -12392.742511 kJ/mol
# Density = 1.651784 g / cm^3
# Si number density = 16.555524 Si / 1000 Ang^3
#
#
#
# Elastic Constant Matrix: (Units=GPa)
#
#
# Indices 1 2 3 4 5 6 
#
# 1 95.8453 44.9190 43.8472 0.0000 -6.1763 0.0000
# 2 44.9190 63.4249 18.7340 0.0000 0.7376 0.0000
# 3 43.8472 18.7340 75.5901 0.0000 -8.9809 0.0000
# 4 0.0000 0.0000 0.0000 16.9101 0.0000 -5.8632
# 5 -6.1763 0.7376 -8.9809 0.0000 23.9479 0.0000
# 6 0.0000 0.0000 0.0000 -5.8632 0.0000 36.2975
#
#
#
# Elastic Compliance Matrix: (Units=1/GPa)
#
#
# Indices 1 2 3 4 5 6 
#
# 1 0.019854 -0.011619 -0.008358 0.000000 0.002344 0.000000
# 2 -0.011619 0.023924 0.000384 0.000000 -0.003589 0.000000
# 3 -0.008358 0.000384 0.018551 0.000000 0.004790 0.000000
# 4 0.000000 0.000000 0.000000 0.062645 0.000000 0.010119
# 5 0.002344 -0.003589 0.004790 0.000000 0.044269 0.000000
# 6 0.000000 0.000000 0.000000 0.010119 0.000000 0.029185
#
#
# Mechanical properties :
#
#
# Convention : Reuss Voigt Hill
#
# Bulk Modulus (GPa) = 43.21070 49.98453 46.59762
# Shear Modulus (GPa) = 20.38083 23.92177 22.15130
#
# Velocity S-wave (km/s) = 3.51245 3.80536 3.66184
# Velocity P-wave (km/s) = 6.52740 7.04026 6.78867
#
# Compressibility (1/GPa) = 0.02314242
#
# Stress axis : x y z
#
# Youngs Moduli (GPa) = 50.36809 41.79899 53.90414
#
# Poissons Ratio (x) = 0.48568 0.45055
# Poissons Ratio (y) = 0.58525 -0.02071
# Poissons Ratio (z) = 0.42099 -0.01606
#
# Static dielectric constant tensor:
#      x y z
#    x 3.085250 0.000000 -0.078670 
#    y 0.000000 3.302810 0.000000 
#    z -0.078670 0.000000 3.024710 
# 
# 
# High freq. dielectric constant tensor:
#      x y z
#    x 1.617820 0.000000 -0.000170 
#    y 0.000000 1.605220 0.000000 
#    z -0.000170 0.000000 1.637030 
# 
# From -- ./inp_files/99353.got.cif
#   From: 2010.06.25/outbox.cif.g09.slc.cpg/sg15_50_cif.got.tgz:99353.got - 2010.06.28 07:06:18.
