data_PCOD8129577
_publ_section_title
;
Structure prediction by ZEFSAII (Michael W. Deem and Ramdas Pophale) SiO2 
 PCOD8129577
Probable space group: C 2/C
;
_chemical_formula_sum "Si O2"
_cell_formula_units_Z 28
_cell_length_a 21.000000
_cell_length_b 18.000000
_cell_length_c 21.000000
_cell_angle_alpha 90.000000
_cell_angle_beta 160.000000
_cell_angle_gamma 90.000000
_cell_volume 2714.955898
_symmetry_space_group_name_H-M "C 2/C"
_symmetry_group_IT_number 15
_symmetry_cell_setting 'monoclinic'
loop_
_space_group_symop_operation_xyz
x,y,z
-x,y,1/2-z
-x,-y,-z
x,-y,1/2+z
1/2+x,1/2+y,z
1/2-x,1/2+y,1/2-z
1/2-x,1/2-y,-z
1/2+x,1/2-y,1/2+z
loop_
_atom_site_type_symbol
_atom_site_label
_atom_site_fract_x
_atom_site_fract_y
_atom_site_fract_z
Si Si1 0.676412 0.431971 0.608963
Si Si2 0.401297 0.443921 0.821383
Si Si3 0.973700 0.816705 0.648458
Si Si4 0.288174 0.847905 0.482521
Si Si5 0.058272 0.507333 0.437198
Si Si6 0.560350 0.148989 0.735590
Si Si7 0.112273 0.814475 0.445299
O O1 0.593812 0.415206 0.601275
O O2 0.573151 0.498958 0.473987
O O3 0.666868 0.353933 0.562583
O O4 0.887506 0.458674 0.815424
O O5 0.390477 0.373613 0.761744
O O6 0.221913 0.495181 0.641215
O O7 0.780869 0.847596 0.441384
O O8 0.000000 0.824490 0.750000
O O9 0.986104 0.729538 0.639387
O O10 0.382328 0.928519 0.558241
O O11 0.271005 0.837241 0.542788
O O12 0.400176 0.775784 0.559745
O O13 0.085159 0.847185 0.260634
O O14 0.011592 0.425168 0.366165
O O15 0.500000 0.140650 0.750000
#
# Coordination Sequence:
#
# PCOD8129577 Si02
#       7
#     8   8   8   8   8   8   8
#     4  11  24  42  66  91 133 170 217 265 324 379
#     4  11  24  44  64  94 128 172 217 268 316 389
#     4  11  22  44  67  94 132 171 215 274 321 382
#     4  10  22  38  69  95 134 168 217 268 324 378
#     4  12  23  41  67  98 132 170 215 266 327 383
#     4  11  23  39  65 100 130 166 212 267 327 386
#     4  10  21  43  62  98 132 172 214 270 319 384
#
# _framework density 10.313243
#
# number of rings (size 3 to 8) (size 9 to 14) (size 15 to 20)
#    0.000    1.143    2.857    4.714    2.000    2.286 
#    0.000    7.143    0.000    0.000    0.000    0.000 
#    0.000    0.000    0.000    0.000    0.000    0.000 
#
# Total GULP energy -347014.884467 kJ/mol
# GULP energy per Si atom -12393.388731 kJ/mol
# Density = 1.028977 g / cm^3
# Si number density = 10.313243 Si / 1000 Ang^3
#
#
#
# Elastic Constant Matrix: (Units=GPa)
#
#
# Indices 1 2 3 4 5 6 
#
# 1 82.9510 58.0667 17.2637 0.0720 -8.4478 -0.0147
# 2 58.0667 184.1885 35.5799 0.2546 -7.0377 0.0647
# 3 17.2637 35.5799 76.7578 0.1370 5.4850 0.0160
# 4 0.0720 0.2546 0.1370 42.7029 0.0217 0.0313
# 5 -8.4478 -7.0377 5.4850 0.0217 28.3786 -0.0135
# 6 -0.0147 0.0647 0.0160 0.0313 -0.0135 35.2980
#
#
#
# Elastic Compliance Matrix: (Units=1/GPa)
#
#
# Indices 1 2 3 4 5 6 
#
# 1 0.016019 -0.004555 -0.001776 0.000004 0.003982 0.000017
# 2 -0.004555 0.007377 -0.002463 -0.000029 0.000950 -0.000014
# 3 -0.001776 -0.002463 0.014856 -0.000028 -0.004011 -0.000004
# 4 0.000004 -0.000029 -0.000028 0.023418 -0.000019 -0.000021
# 5 0.003982 0.000950 -0.004011 -0.000019 0.037434 0.000016
# 6 0.000017 -0.000014 -0.000004 -0.000021 0.000016 0.028330
#
#
# Mechanical properties :
#
#
# Convention : Reuss Voigt Hill
#
# Bulk Modulus (GPa) = 48.39296 62.85755 55.62526
# Shear Modulus (GPa) = 32.91421 36.80837 34.86129
#
# Velocity S-wave (km/s) = 3.99899 4.22894 4.11557
# Velocity P-wave (km/s) = 6.69590 7.37466 7.04346
#
# Compressibility (1/GPa) = 0.02066416
#
# Stress axis : x y z
#
# Youngs Moduli (GPa) = 62.42608 135.55133 67.31383
#
# Poissons Ratio (x) = 0.61742 0.11955
# Poissons Ratio (y) = 0.28434 0.16579
# Poissons Ratio (z) = 0.11087 0.33386
#
# Static dielectric constant tensor:
#      x y z
#    x 3.508940 -0.000060 0.121810 
#    y -0.000060 4.242950 -0.000160 
#    z 0.121810 -0.000160 3.838380 
# 
# 
# High freq. dielectric constant tensor:
#      x y z
#    x 1.783500 -0.000010 0.006740 
#    y -0.000010 1.838970 -0.000020 
#    z 0.006740 -0.000020 1.827400 
# 
# From -- ./inp_files/253377.got.cif
#   From: 2010.06.25/outbox.ucp.g09.slc.cvg/sg15_127_cif.got.tgz:253377.got - 2010.06.28 14:40:10.
