data_PCOD8129955
_publ_section_title
;
Structure prediction by ZEFSAII (Michael W. Deem and Ramdas Pophale) SiO2 
 PCOD8129955
Probable space group: C 2/C
;
_chemical_formula_sum "Si O2"
_cell_formula_units_Z 60
_cell_length_a 23.076998
_cell_length_b 14.501660
_cell_length_c 18.038289
_cell_angle_alpha 90.000000
_cell_angle_beta 148.928720
_cell_angle_gamma 90.000000
_cell_volume 3115.513527
_symmetry_space_group_name_H-M "C 2/C"
_symmetry_group_IT_number 15
_symmetry_cell_setting 'monoclinic'
loop_
_space_group_symop_operation_xyz
x,y,z
-x,y,1/2-z
-x,-y,-z
x,-y,1/2+z
1/2+x,1/2+y,z
1/2-x,1/2+y,1/2-z
1/2-x,1/2-y,-z
1/2+x,1/2-y,1/2+z
loop_
_atom_site_type_symbol
_atom_site_label
_atom_site_fract_x
_atom_site_fract_y
_atom_site_fract_z
Si Si1 0.646104 0.180190 0.540897
Si Si2 0.014774 0.620291 0.848532
Si Si3 0.662134 0.964809 0.857149
Si Si4 0.502878 0.215847 0.524156
Si Si5 0.419790 0.583085 0.391488
Si Si6 0.272616 0.145432 0.209400
Si Si7 0.000000 0.329409 0.750000
Si Si8 0.762408 0.483732 0.912095
O O1 0.596641 0.178354 0.570172
O O2 0.741967 0.256640 0.640006
O O3 0.546933 0.218811 0.376370
O O4 0.700721 0.080864 0.584793
O O5 0.968479 0.689542 0.859770
O O6 0.000000 0.664084 0.750000
O O7 0.942235 0.528435 0.776968
O O8 0.143564 0.592494 0.003866
O O9 0.719282 0.931469 0.845174
O O10 0.611234 0.882081 0.848399
O O11 0.750104 0.009902 0.011666
O O12 0.500662 0.326962 0.525003
O O13 0.387440 0.164711 0.378087
O O14 0.500000 0.500000 0.500000
O O15 0.321548 0.602159 0.342036
O O16 0.357331 0.553768 0.247151
#
# Coordination Sequence:
#
# PCOD8129955 Si02
#       8
#     8   8   8   8   8   8   4   8
#     4  10  21  34  58  90 118 158 203 254 299 369
#     4  10  19  37  63  91 116 150 208 260 300 359
#     4  10  19  36  59  93 119 155 205 251 303 371
#     4  11  22  39  62  86 121 157 211 254 296 376
#     4  11  25  43  59  87 125 159 198 256 311 370
#     4  11  22  38  60  89 118 164 207 244 313 372
#     4  10  16  34  54  84 128 146 194 256 300 348
#     4  10  19  38  61  84 126 161 192 253 314 349
#
# _framework density 19.258462000000002
#
# number of rings (size 3 to 8) (size 9 to 14) (size 15 to 20)
#    0.000    1.600    6.000    0.800    1.867    3.200 
#    4.800    4.000    0.000    0.000    0.000    0.000 
#    0.000    0.000    0.000    0.000    0.000    0.000 
#
# Total GULP energy -371692.448127 kJ/mol
# GULP energy per Si atom -12389.748271 kJ/mol
# Density = 1.921463 g / cm^3
# Si number density = 19.258462 Si / 1000 Ang^3
#
#
#
# Elastic Constant Matrix: (Units=GPa)
#
#
# Indices 1 2 3 4 5 6 
#
# 1 89.0009 25.4495 38.5741 0.0000 -19.1117 0.0000
# 2 25.4495 50.6760 27.9823 0.0000 -6.4459 0.0000
# 3 38.5741 27.9823 91.4112 0.0000 -10.5134 0.0000
# 4 0.0000 0.0000 0.0000 73.3931 0.0000 -4.9396
# 5 -19.1117 -6.4459 -10.5134 0.0000 28.5118 0.0000
# 6 0.0000 0.0000 0.0000 -4.9396 0.0000 12.2125
#
#
#
# Elastic Compliance Matrix: (Units=1/GPa)
#
#
# Indices 1 2 3 4 5 6 
#
# 1 0.016277 -0.004644 -0.004504 0.000000 0.008200 0.000000
# 2 -0.004644 0.025289 -0.005725 0.000000 0.000493 0.000000
# 3 -0.004504 -0.005725 0.014721 0.000000 0.001115 0.000000
# 4 0.000000 0.000000 0.000000 0.014007 0.000000 0.005665
# 5 0.008200 0.000493 0.001115 0.000000 0.041092 0.000000
# 6 0.000000 0.000000 0.000000 0.005665 0.000000 0.084175
#
#
# Mechanical properties :
#
#
# Convention : Reuss Voigt Hill
#
# Bulk Modulus (GPa) = 37.67748 46.12221 41.89984
# Shear Modulus (GPa) = 21.35356 32.09563 26.72460
#
# Velocity S-wave (km/s) = 3.33346 4.08680 3.72920
# Velocity P-wave (km/s) = 5.86707 6.80222 6.35188
#
# Compressibility (1/GPa) = 0.02654105
#
# Stress axis : x y z
#
# Youngs Moduli (GPa) = 61.43803 39.54211 67.93107
#
# Poissons Ratio (x) = 0.18364 0.30594
# Poissons Ratio (y) = 0.28533 0.38890
# Poissons Ratio (z) = 0.27670 0.22638
#
# Static dielectric constant tensor:
#      x y z
#    x 3.674540 0.000000 -0.413660 
#    y 0.000000 3.383540 0.000000 
#    z -0.413660 0.000000 3.429330 
# 
# 
# High freq. dielectric constant tensor:
#      x y z
#    x 1.744710 0.000000 -0.018000 
#    y 0.000000 1.730060 0.000000 
#    z -0.018000 0.000000 1.756330 
# 
# From -- ./inp_files/219604.got.cif
#   From: 2010.06.25/outbox.cif.g09.slc.cpg/sg15_110_cif.got.tgz:219604.got - 2010.06.28 07:06:18.
