data_PCOD8129146
_publ_section_title
;
Structure prediction by ZEFSAII (Michael W. Deem and Ramdas Pophale) SiO2 
 PCOD8129146
Probable space group: P 21/C
;
_chemical_formula_sum "Si O2"
_cell_formula_units_Z 20
_cell_length_a 11.469768
_cell_length_b 6.576095
_cell_length_c 23.994696
_cell_angle_alpha 90.000000
_cell_angle_beta 148.394401
_cell_angle_gamma 90.000000
_cell_volume 948.476438
_symmetry_space_group_name_H-M "P 21/C"
_symmetry_group_IT_number 14
_symmetry_cell_setting 'monoclinic'
loop_
_space_group_symop_operation_xyz
x,y,z
-x,1/2+y,1/2-z
-x,-y,-z
x,1/2-y,1/2+z
loop_
_atom_site_type_symbol
_atom_site_label
_atom_site_fract_x
_atom_site_fract_y
_atom_site_fract_z
Si Si1 0.221359 0.366515 0.086384
Si Si2 0.081868 0.164804 0.708206
Si Si3 0.309242 0.057623 0.218729
Si Si4 0.957763 0.772922 0.597743
Si Si5 0.760481 0.995802 0.111710
O O1 0.222195 0.183613 0.130546
O O2 0.430293 0.514340 0.180680
O O3 0.225744 0.268002 0.026277
O O4 0.000000 0.500000 0.000000
O O5 0.265171 0.318546 0.757874
O O6 0.181195 0.048390 0.800986
O O7 0.859380 0.286554 0.634391
O O8 0.024218 0.005171 0.636447
O O9 0.177013 0.845935 0.166989
O O10 0.853513 0.682148 0.610972
O O11 0.500000 0.000000 0.000000
#
# Coordination Sequence:
#
# PCOD8129146 Si02
#       5
#     4   4   4   4   4
#     4  12  25  46  71 100 136 180 230 280 346 405
#     4  11  24  46  64 104 137 177 234 277 338 408
#     4  11  27  44  71 100 138 180 225 290 336 409
#     4  11  25  46  67 100 138 181 228 281 338 410
#     4  11  26  41  71  97 139 181 223 285 340 401
#
# _framework density 21.086451
#
# number of rings (size 3 to 8) (size 9 to 14) (size 15 to 20)
#    0.000    0.800    4.000    1.800    5.600    0.800 
#    0.000    0.000    0.000    0.000    0.000    0.000 
#    0.000    0.000    0.000    0.000    0.000    0.000 
#
# Total GULP energy -248127.018520 kJ/mol
# GULP energy per Si atom -12406.350926 kJ/mol
# Density = 2.103846 g / cm^3
# Si number density = 21.086451 Si / 1000 Ang^3
#
#
#
# Elastic Constant Matrix: (Units=GPa)
#
#
# Indices 1 2 3 4 5 6 
#
# 1 94.9730 44.9990 51.3314 0.0000 -11.2676 0.0000
# 2 44.9990 129.1108 56.2880 0.0000 2.9191 0.0000
# 3 51.3314 56.2880 131.4588 0.0000 7.1327 0.0000
# 4 0.0000 0.0000 0.0000 39.5813 0.0000 -8.6458
# 5 -11.2676 2.9191 7.1327 0.0000 44.8621 0.0000
# 6 0.0000 0.0000 0.0000 -8.6458 0.0000 43.2510
#
#
#
# Elastic Compliance Matrix: (Units=1/GPa)
#
#
# Indices 1 2 3 4 5 6 
#
# 1 0.015276 -0.003343 -0.004795 0.000000 0.004817 0.000000
# 2 -0.003343 0.010254 -0.003030 0.000000 -0.001025 0.000000
# 3 -0.004795 -0.003030 0.010926 0.000000 -0.002744 0.000000
# 4 0.000000 0.000000 0.000000 0.026418 0.000000 0.005281
# 5 0.004817 -0.001025 -0.002744 0.000000 0.024003 0.000000
# 6 0.000000 0.000000 0.000000 0.005281 0.000000 0.024176
#
#
# Mechanical properties :
#
#
# Convention : Reuss Voigt Hill
#
# Bulk Modulus (GPa) = 70.81680 73.41993 72.11837
# Shear Modulus (GPa) = 36.20669 39.06716 37.63693
#
# Velocity S-wave (km/s) = 4.14824 4.30899 4.22938
# Velocity P-wave (km/s) = 7.52335 7.72338 7.62402
#
# Compressibility (1/GPa) = 0.01412094
#
# Stress axis : x y z
#
# Youngs Moduli (GPa) = 65.46139 97.51916 91.52865
#
# Poissons Ratio (x) = 0.32597 0.43889
# Poissons Ratio (y) = 0.21881 0.27732
# Poissons Ratio (z) = 0.31389 0.29547
#
# Static dielectric constant tensor:
#      x y z
#    x 0.625970 0.000000 -1.472220 
#    y 0.000000 3.938260 0.000000 
#    z -1.472220 0.000000 3.365370 
# 
# 
# High freq. dielectric constant tensor:
#      x y z
#    x 1.846880 0.000000 -0.010130 
#    y 0.000000 1.838750 0.000000 
#    z -0.010130 0.000000 1.822920 
# 
# From -- ./inp_files/49570.got.cif
#   From: 2010.03.12/outbox.cif.g09.slc.cpg/sg14_25_cif.got.tgz:49570.got - 2010.03.31 13:35:05.
