data_PCOD8129203
_publ_section_title
;
Structure prediction by ZEFSAII (Michael W. Deem and Ramdas Pophale) SiO2 
 PCOD8129203
Probable space group: P 21/C
;
_chemical_formula_sum "Si O2"
_cell_formula_units_Z 28
_cell_length_a 10.096633
_cell_length_b 20.258133
_cell_length_c 9.489992
_cell_angle_alpha 90.000000
_cell_angle_beta 139.754289
_cell_angle_gamma 90.000000
_cell_volume 1254.062810
_symmetry_space_group_name_H-M "P 21/C"
_symmetry_group_IT_number 14
_symmetry_cell_setting 'monoclinic'
loop_
_space_group_symop_operation_xyz
x,y,z
-x,1/2+y,1/2-z
-x,-y,-z
x,1/2-y,1/2+z
loop_
_atom_site_type_symbol
_atom_site_label
_atom_site_fract_x
_atom_site_fract_y
_atom_site_fract_z
Si Si1 0.682981 0.036958 0.722982
Si Si2 0.886511 0.292939 0.914739
Si Si3 0.383750 0.746605 0.051902
Si Si4 0.777366 0.814393 0.764808
Si Si5 0.906106 0.571701 0.897377
Si Si6 0.396890 0.369522 0.144609
Si Si7 0.911745 0.571789 0.578618
O O1 0.597016 0.100033 0.734404
O O2 0.844292 0.059213 0.734757
O O3 0.500000 0.000000 0.500000
O O4 0.790055 0.990857 0.923823
O O5 0.804142 0.265447 0.700620
O O6 0.707550 0.287699 0.884318
O O7 0.087836 0.252139 0.125922
O O8 0.937950 0.369786 0.934512
O O9 0.536870 0.696386 0.099607
O O10 0.526387 0.807861 0.205295
O O11 0.778382 0.847832 0.610791
O O12 0.866057 0.863029 0.953357
O O13 0.704473 0.577996 0.830732
O O14 0.846160 0.581859 0.686019
O O15 0.000000 0.500000 0.000000
#
# Coordination Sequence:
#
# PCOD8129203 Si02
#       7
#     4   4   4   4   4   4   4
#     4  11  24  49  74 107 145 198 247 291 362 455
#     4  12  27  47  75 104 151 192 251 305 377 438
#     4  12  27  46  75 107 141 198 245 308 377 436
#     4  12  26  49  75 108 143 193 255 309 366 455
#     4  12  29  47  71 111 153 191 241 310 374 436
#     4  12  26  48  75 106 152 189 246 309 371 441
#     4  11  27  45  79 106 146 196 248 302 363 442
#
# _framework density 22.327432000000002
#
# number of rings (size 3 to 8) (size 9 to 14) (size 15 to 20)
#    0.000    0.286    4.286    3.429   10.000    1.714 
#    0.000    0.000    0.000    0.000    0.000    0.000 
#    0.000    0.000    0.000    0.000    0.000    0.000 
#
# Total GULP energy -347386.337290 kJ/mol
# GULP energy per Si atom -12406.654903 kJ/mol
# Density = 2.227661 g / cm^3
# Si number density = 22.327432 Si / 1000 Ang^3
#
#
#
# Elastic Constant Matrix: (Units=GPa)
#
#
# Indices 1 2 3 4 5 6 
#
# 1 114.2981 35.4739 46.0773 0.0000 0.3742 0.0000
# 2 35.4739 114.9461 31.6646 0.0000 8.4803 0.0000
# 3 46.0773 31.6646 109.4586 0.0000 -2.8100 0.0000
# 4 0.0000 0.0000 0.0000 45.0075 0.0000 9.1194
# 5 0.3742 8.4803 -2.8100 0.0000 38.5945 0.0000
# 6 0.0000 0.0000 0.0000 9.1194 0.0000 45.1968
#
#
#
# Elastic Compliance Matrix: (Units=1/GPa)
#
#
# Indices 1 2 3 4 5 6 
#
# 1 0.011079 -0.002329 -0.003987 0.000000 0.000114 0.000000
# 2 -0.002329 0.010147 -0.002015 0.000000 -0.002354 0.000000
# 3 -0.003987 -0.002015 0.011431 0.000000 0.001314 0.000000
# 4 0.000000 0.000000 0.000000 0.023166 0.000000 -0.004674
# 5 0.000114 -0.002354 0.001314 0.000000 0.026522 0.000000
# 6 0.000000 0.000000 0.000000 -0.004674 0.000000 0.023069
#
#
# Mechanical properties :
#
#
# Convention : Reuss Voigt Hill
#
# Bulk Modulus (GPa) = 62.52330 62.79273 62.65802
# Shear Modulus (GPa) = 39.24397 40.79223 40.01810
#
# Velocity S-wave (km/s) = 4.19699 4.27898 4.23818
# Velocity P-wave (km/s) = 7.17983 7.25241 7.21622
#
# Compressibility (1/GPa) = 0.01599404
#
# Stress axis : x y z
#
# Youngs Moduli (GPa) = 90.26201 98.54737 87.48154
#
# Poissons Ratio (x) = 0.22954 0.34879
# Poissons Ratio (y) = 0.21024 0.17631
# Poissons Ratio (z) = 0.35987 0.19861
#
# Static dielectric constant tensor:
#      x y z
#    x 4.222790 0.000000 -0.061940 
#    y 0.000000 4.027700 0.000000 
#    z -0.061940 0.000000 4.080310 
# 
# 
# High freq. dielectric constant tensor:
#      x y z
#    x 1.895880 0.000000 -0.002210 
#    y 0.000000 1.889680 0.000000 
#    z -0.002210 0.000000 1.882450 
# 
# From -- ./inp_files/10449.got.cif
#   From: 2010.03.12/outbox.cif.g09.slc.cpg/sg14_6_cif.got.tgz:10449.got - 2010.03.31 13:35:05.
