data_PCOD8129461
_publ_section_title
;
Structure prediction by ZEFSAII (Michael W. Deem and Ramdas Pophale) SiO2 
 PCOD8129461
Probable space group: P 21/C
;
_chemical_formula_sum "Si O2"
_cell_formula_units_Z 20
_cell_length_a 6.519157
_cell_length_b 14.458414
_cell_length_c 9.462996
_cell_angle_alpha 90.000000
_cell_angle_beta 78.500355
_cell_angle_gamma 90.000000
_cell_volume 874.045431
_symmetry_space_group_name_H-M "P 21/C"
_symmetry_group_IT_number 14
_symmetry_cell_setting 'monoclinic'
loop_
_space_group_symop_operation_xyz
x,y,z
-x,1/2+y,1/2-z
-x,-y,-z
x,1/2-y,1/2+z
loop_
_atom_site_type_symbol
_atom_site_label
_atom_site_fract_x
_atom_site_fract_y
_atom_site_fract_z
Si Si1 0.715171 0.677028 0.766706
Si Si2 0.024193 0.977144 0.333099
Si Si3 0.694755 0.255219 0.574066
Si Si4 0.412934 0.583305 0.603439
Si Si5 0.062731 0.822187 0.693999
O O1 0.536713 0.713330 0.896580
O O2 0.613466 0.635418 0.639429
O O3 0.846525 0.767581 0.710924
O O4 0.852499 0.599104 0.821660
O O5 0.256992 0.945956 0.252680
O O6 0.975956 0.072185 0.254204
O O7 0.000000 0.000000 0.500000
O O8 0.713292 0.350300 0.484824
O O9 0.777372 0.271668 0.720948
O O10 0.839308 0.179257 0.477037
O O11 0.500000 0.500000 0.500000
#
# Coordination Sequence:
#
# PCOD8129461 Si02
#       5
#     4   4   4   4   4
#     4  12  26  48  75 107 155 200 249 317 377 447
#     4  12  28  48  76 115 156 199 257 317 386 455
#     4  12  26  47  73 112 148 203 255 305 385 458
#     4  12  27  47  76 114 148 202 263 312 381 458
#     4  12  27  46  77 107 154 199 252 313 381 455
#
# _framework density 22.882107000000001
#
# number of rings (size 3 to 8) (size 9 to 14) (size 15 to 20)
#    0.000    0.000    4.000    4.800    8.400    6.400 
#    0.000    0.000    0.000    0.000    0.000    0.000 
#    0.000    0.000    0.000    0.000    0.000    0.000 
#
# Total GULP energy -248108.203175 kJ/mol
# GULP energy per Si atom -12405.410159 kJ/mol
# Density = 2.283003 g / cm^3
# Si number density = 22.882107 Si / 1000 Ang^3
#
#
#
# Elastic Constant Matrix: (Units=GPa)
#
#
# Indices 1 2 3 4 5 6 
#
# 1 126.3359 47.7550 41.3271 0.0000 -22.3726 0.0000
# 2 47.7550 125.5640 28.8311 0.0000 -19.5838 0.0000
# 3 41.3271 28.8311 105.7234 0.0000 -14.6265 0.0000
# 4 0.0000 0.0000 0.0000 37.3928 0.0000 -6.7354
# 5 -22.3726 -19.5838 -14.6265 0.0000 44.2073 0.0000
# 6 0.0000 0.0000 0.0000 -6.7354 0.0000 41.8659
#
#
#
# Elastic Compliance Matrix: (Units=1/GPa)
#
#
# Indices 1 2 3 4 5 6 
#
# 1 0.010483 -0.002840 -0.002896 0.000000 0.003089 0.000000
# 2 -0.002840 0.009703 -0.001195 0.000000 0.002466 0.000000
# 3 -0.002896 -0.001195 0.011151 0.000000 0.001695 0.000000
# 4 0.000000 0.000000 0.000000 0.027541 0.000000 0.004431
# 5 0.003089 0.002466 0.001695 0.000000 0.025837 0.000000
# 6 0.000000 0.000000 0.000000 0.004431 0.000000 0.024599
#
#
# Mechanical properties :
#
#
# Convention : Reuss Voigt Hill
#
# Bulk Modulus (GPa) = 57.22306 65.93886 61.58096
# Shear Modulus (GPa) = 38.75917 40.67387 39.71652
#
# Velocity S-wave (km/s) = 4.12012 4.22066 4.17070
# Velocity P-wave (km/s) = 6.90623 7.25475 7.08263
#
# Compressibility (1/GPa) = 0.01747547
#
# Stress axis : x y z
#
# Youngs Moduli (GPa) = 95.38848 103.05862 89.67867
#
# Poissons Ratio (x) = 0.29272 0.25971
# Poissons Ratio (y) = 0.27094 0.10714
# Poissons Ratio (z) = 0.27625 0.12312
#
# Static dielectric constant tensor:
#      x y z
#    x 4.176060 0.000000 -0.114130 
#    y 0.000000 4.587520 0.000000 
#    z -0.114130 0.000000 4.106660 
# 
# 
# High freq. dielectric constant tensor:
#      x y z
#    x 1.907690 0.000000 -0.006630 
#    y 0.000000 1.929810 0.000000 
#    z -0.006630 0.000000 1.910400 
# 
# From -- ./inp_files/5468.got.cif
#   From: 2010.03.12/outbox.cif.g09.slc.cpg/sg14_3_cif.got.tgz:5468.got - 2010.03.31 13:35:05.
