data_PCOD8129586
_publ_section_title
;
Structure prediction by ZEFSAII (Michael W. Deem and Ramdas Pophale) SiO2 
 PCOD8129586
Probable space group: C 2/C
;
_chemical_formula_sum "Si O2"
_cell_formula_units_Z 26
_cell_length_a 18.000000
_cell_length_b 6.000000
_cell_length_c 27.000000
_cell_angle_alpha 90.000000
_cell_angle_beta 60.000000
_cell_angle_gamma 90.000000
_cell_volume 2525.330077
_symmetry_space_group_name_H-M "C 2/C"
_symmetry_group_IT_number 15
_symmetry_cell_setting 'monoclinic'
loop_
_space_group_symop_operation_xyz
x,y,z
-x,y,1/2-z
-x,-y,-z
x,-y,1/2+z
1/2+x,1/2+y,z
1/2-x,1/2+y,1/2-z
1/2-x,1/2-y,-z
1/2+x,1/2-y,1/2+z
loop_
_atom_site_type_symbol
_atom_site_label
_atom_site_fract_x
_atom_site_fract_y
_atom_site_fract_z
Si Si1 0.428837 0.374207 0.846223
Si Si2 0.021736 0.898025 0.068536
Si Si3 0.275702 0.137186 0.853197
Si Si4 0.500000 0.311177 0.250000
Si Si5 0.621006 0.939108 0.873590
Si Si6 0.373265 0.656715 0.061647
Si Si7 0.088757 0.445312 0.278128
O O1 0.438930 0.476708 0.897356
O O2 0.337487 0.244941 0.874808
O O3 0.424893 0.555311 0.803555
O O4 0.513135 0.235157 0.802745
O O5 0.974305 0.668487 0.098769
O O6 0.101471 0.856247 0.004721
O O7 0.946141 0.036986 0.068969
O O8 0.201396 0.281241 0.853593
O O9 0.337984 0.081543 0.787191
O O10 0.223681 0.934822 0.896893
O O11 0.544842 0.178779 0.279645
O O12 0.624125 0.090569 0.921203
O O13 0.633775 0.062915 0.816889
#
# Coordination Sequence:
#
# PCOD8129586 Si02
#       7
#     8   8   8   4   8   8   8
#     4  12  23  42  66  94 127 171 218 263 323 392
#     4  10  22  43  68  91 121 178 224 256 317 390
#     4  11  26  38  60 102 131 164 208 271 328 380
#     4  12  22  40  66  90 128 170 214 262 312 392
#     4  11  24  40  66  94 126 171 215 267 325 376
#     4  10  23  43  64  92 134 166 217 270 312 383
#     4  12  24  40  65  96 129 171 206 260 331 387
#
# _framework density 10.295684
#
# number of rings (size 3 to 8) (size 9 to 14) (size 15 to 20)
#    0.000    0.923    6.154    0.462    4.308    0.615 
#    0.000    0.769    0.000    0.000    0.000    0.000 
#    0.000    0.000    0.000    0.000    0.000    0.000 
#
# Total GULP energy -322197.685491 kJ/mol
# GULP energy per Si atom -12392.218673 kJ/mol
# Density = 1.027225 g / cm^3
# Si number density = 10.295684 Si / 1000 Ang^3
#
#
#
# Elastic Constant Matrix: (Units=GPa)
#
#
# Indices 1 2 3 4 5 6 
#
# 1 114.3004 33.3972 68.9550 0.0416 -8.0589 0.0671
# 2 33.3972 68.2494 46.4037 0.1557 -5.9332 0.0753
# 3 68.9550 46.4037 157.6057 0.0624 -4.5114 0.0113
# 4 0.0416 0.1557 0.0624 18.8415 0.0020 1.8355
# 5 -8.0589 -5.9332 -4.5114 0.0020 41.0720 0.0031
# 6 0.0671 0.0753 0.0113 1.8355 0.0031 33.5084
#
#
#
# Elastic Compliance Matrix: (Units=1/GPa)
#
#
# Indices 1 2 3 4 5 6 
#
# 1 0.012441 -0.002856 -0.004559 0.000013 0.001528 -0.000018
# 2 -0.002856 0.019151 -0.004340 -0.000135 0.001730 -0.000029
# 3 -0.004559 -0.004340 0.009604 0.000013 -0.000466 0.000015
# 4 0.000013 -0.000135 0.000013 0.053360 -0.000018 -0.002923
# 5 0.001528 0.001730 -0.000466 -0.000018 0.024846 -0.000008
# 6 -0.000018 -0.000029 0.000015 -0.002923 -0.000008 0.030003
#
#
# Mechanical properties :
#
#
# Convention : Reuss Voigt Hill
#
# Bulk Modulus (GPa) = 56.53592 70.85194 63.69393
# Shear Modulus (GPa) = 27.96280 31.44434 29.70357
#
# Velocity S-wave (km/s) = 3.68908 3.91201 3.80218
# Velocity P-wave (km/s) = 6.75733 7.40867 7.09048
#
# Compressibility (1/GPa) = 0.01768787
#
# Stress axis : x y z
#
# Youngs Moduli (GPa) = 80.37850 52.21728 104.12547
#
# Poissons Ratio (x) = 0.14911 0.47468
# Poissons Ratio (y) = 0.22953 0.45186
# Poissons Ratio (z) = 0.36642 0.22660
#
# Static dielectric constant tensor:
#      x y z
#    x 3.847560 -0.000030 -0.132640 
#    y -0.000030 3.894550 -0.000100 
#    z -0.132640 -0.000100 3.986160 
# 
# 
# High freq. dielectric constant tensor:
#      x y z
#    x 1.810430 -0.000010 -0.001360 
#    y -0.000010 1.799520 -0.000010 
#    z -0.001360 -0.000010 1.821950 
# 
# From -- ./inp_files/297664.got.cif
#   From: 2010.06.25/outbox.ucp.g09.slc.cvg/sg15_149_cif.got.tgz:297664.got - 2010.06.28 14:40:10.
