data_PCOD8129482
_publ_section_title
;
Structure prediction by ZEFSAII (Michael W. Deem and Ramdas Pophale) SiO2 
 PCOD8129482
Probable space group: P 21/C
;
_chemical_formula_sum "Si O2"
_cell_formula_units_Z 16
_cell_length_a 9.275970
_cell_length_b 7.427621
_cell_length_c 18.197663
_cell_angle_alpha 90.000000
_cell_angle_beta 146.497183
_cell_angle_gamma 90.000000
_cell_volume 692.064296
_symmetry_space_group_name_H-M "P 21/C"
_symmetry_group_IT_number 14
_symmetry_cell_setting 'monoclinic'
loop_
_space_group_symop_operation_xyz
x,y,z
-x,1/2+y,1/2-z
-x,-y,-z
x,1/2-y,1/2+z
loop_
_atom_site_type_symbol
_atom_site_label
_atom_site_fract_x
_atom_site_fract_y
_atom_site_fract_z
Si Si1 0.651991 0.659664 0.220507
Si Si2 0.108126 0.686128 0.717807
Si Si3 0.236434 0.975250 0.653953
Si Si4 0.525979 0.711893 0.514442
O O1 0.895205 0.526277 0.305237
O O2 0.492667 0.551808 0.214214
O O3 0.477473 0.704367 0.074441
O O4 0.756342 0.848569 0.293108
O O5 0.209328 0.801349 0.692817
O O6 0.823826 0.758098 0.618371
O O7 0.315446 0.697992 0.872082
O O8 0.000000 0.000000 0.500000
O O9 0.500000 0.500000 0.500000
#
# Coordination Sequence:
#
# PCOD8129482 Si02
#       4
#     4   4   4   4
#     4  12  27  48  74 110 152 197 252 307 374 448
#     4  12  27  50  77 113 151 197 252 311 374 446
#     4  12  28  46  75 109 151 201 247 306 377 446
#     4  12  27  49  81 111 150 200 252 311 378 442
#
# _framework density 23.119240000000001
#
# number of rings (size 3 to 8) (size 9 to 14) (size 15 to 20)
#    0.000    0.000    5.000    3.750    7.000    1.000 
#    0.000    0.000    0.000    0.000    0.000    0.000 
#    0.000    0.000    0.000    0.000    0.000    0.000 
#
# Total GULP energy -198454.964416 kJ/mol
# GULP energy per Si atom -12403.435276 kJ/mol
# Density = 2.306662 g / cm^3
# Si number density = 23.119240 Si / 1000 Ang^3
#
#
#
# Elastic Constant Matrix: (Units=GPa)
#
#
# Indices 1 2 3 4 5 6 
#
# 1 97.1157 30.3723 38.0561 0.0000 -15.6477 0.0000
# 2 30.3723 138.8821 13.0257 0.0000 -17.9420 0.0000
# 3 38.0561 13.0257 127.8877 0.0000 -13.4179 0.0000
# 4 0.0000 0.0000 0.0000 26.7168 0.0000 1.0103
# 5 -15.6477 -17.9420 -13.4179 0.0000 46.4816 0.0000
# 6 0.0000 0.0000 0.0000 1.0103 0.0000 39.5835
#
#
#
# Elastic Compliance Matrix: (Units=1/GPa)
#
#
# Indices 1 2 3 4 5 6 
#
# 1 0.012654 -0.002138 -0.003287 0.000000 0.002486 0.000000
# 2 -0.002138 0.007968 0.000074 0.000000 0.002377 0.000000
# 3 -0.003287 0.000074 0.008948 0.000000 0.001505 0.000000
# 4 0.000000 0.000000 0.000000 0.037466 0.000000 -0.000956
# 5 0.002486 0.002377 0.001505 0.000000 0.023703 0.000000
# 6 0.000000 0.000000 0.000000 -0.000956 0.000000 0.025287
#
#
# Mechanical properties :
#
#
# Convention : Reuss Voigt Hill
#
# Bulk Modulus (GPa) = 52.99872 58.53263 55.76567
# Shear Modulus (GPa) = 37.58907 41.38515 39.48711
#
# Velocity S-wave (km/s) = 4.03659 4.23552 4.13725
# Velocity P-wave (km/s) = 6.68575 7.02084 6.85534
#
# Compressibility (1/GPa) = 0.01886838
#
# Stress axis : x y z
#
# Youngs Moduli (GPa) = 79.02513 125.50070 111.75875
#
# Poissons Ratio (x) = 0.26831 0.36735
# Poissons Ratio (y) = 0.16895 -0.00828
# Poissons Ratio (z) = 0.25976 -0.00929
#
# Static dielectric constant tensor:
#      x y z
#    x 2.912840 0.000000 0.614100 
#    y 0.000000 3.511280 0.000000 
#    z 0.614100 0.000000 3.848340 
# 
# 
# High freq. dielectric constant tensor:
#      x y z
#    x 1.929340 0.000000 -0.010310 
#    y 0.000000 1.939490 0.000000 
#    z -0.010310 0.000000 1.911280 
# 
# From -- ./inp_files/11717.got.cif
#   From: 2010.03.12/outbox.cif.g09.slc.cpg/sg14_6_cif.got.tgz:11717.got - 2010.03.31 13:35:05.
