data_PCOD8129525
_publ_section_title
;
Structure prediction by ZEFSAII (Michael W. Deem and Ramdas Pophale) SiO2 
 PCOD8129525
Probable space group: P 21/C
;
_chemical_formula_sum "Si O2"
_cell_formula_units_Z 32
_cell_length_a 15.000000
_cell_length_b 15.000000
_cell_length_c 21.000000
_cell_angle_alpha 90.000000
_cell_angle_beta 20.000000
_cell_angle_gamma 90.000000
_cell_volume 1616.045177
_symmetry_space_group_name_H-M "P 21/C"
_symmetry_group_IT_number 14
_symmetry_cell_setting 'monoclinic'
loop_
_space_group_symop_operation_xyz
x,y,z
-x,1/2+y,1/2-z
-x,-y,-z
x,1/2-y,1/2+z
loop_
_atom_site_type_symbol
_atom_site_label
_atom_site_fract_x
_atom_site_fract_y
_atom_site_fract_z
Si Si1 0.411739 0.621517 0.185231
Si Si2 0.518422 0.571853 0.857872
Si Si3 0.876558 0.706675 0.556067
Si Si4 0.169381 0.602894 0.637360
Si Si5 0.304641 0.370033 0.134414
Si Si6 0.930675 0.602777 0.266551
Si Si7 0.712698 0.812923 0.785548
Si Si8 0.853593 0.756345 0.423765
O O1 0.486189 0.527346 0.168577
O O2 0.118734 0.641131 0.401433
O O3 0.476097 0.613530 0.066443
O O4 0.568886 0.702310 0.110060
O O5 0.627807 0.643379 0.734286
O O6 0.678675 0.562649 0.817114
O O7 0.237357 0.605486 0.065929
O O8 0.876295 0.785291 0.611092
O O9 0.891882 0.737756 0.472733
O O10 0.173481 0.497688 0.651347
O O11 0.464433 0.632649 0.425494
O O12 0.986545 0.621720 0.698748
O O13 0.062075 0.666605 0.765751
O O14 0.370453 0.274701 0.120685
O O15 0.858818 0.628557 0.241621
O O16 0.845989 0.671596 0.379887
#
# Coordination Sequence:
#
# PCOD8129525 Si02
#       8
#     4   4   4   4   4   4   4   4
#     4  11  21  42  62  97 130 167 215 271 332 387
#     4  11  23  40  66 100 129 167 224 277 331 390
#     4  11  26  39  66  93 140 175 210 271 339 403
#     4  11  23  44  70  99 127 176 231 275 327 391
#     4  10  21  39  72  93 126 170 220 285 317 386
#     4  12  23  44  72  98 131 175 228 276 327 394
#     4  11  24  43  66  98 133 174 219 269 332 402
#     4  11  24  43  66  97 135 175 219 278 331 393
#
# _framework density 19.801427
#
# number of rings (size 3 to 8) (size 9 to 14) (size 15 to 20)
#    0.000    1.000    5.000    4.125    3.500    1.000 
#    2.250    0.625    0.000    0.000    0.000    0.000 
#    0.000    0.000    0.000    0.000    0.000    0.000 
#
# Total GULP energy -396468.607500 kJ/mol
# GULP energy per Si atom -12389.643984 kJ/mol
# Density = 1.975636 g / cm^3
# Si number density = 19.801427 Si / 1000 Ang^3
#
#
#
# Elastic Constant Matrix: (Units=GPa)
#
#
# Indices 1 2 3 4 5 6 
#
# 1 130.1940 46.3074 40.3311 0.0000 8.9301 0.0000
# 2 46.3074 140.3899 32.6632 0.0000 1.1972 0.0000
# 3 40.3311 32.6632 53.5978 0.0000 -2.2804 0.0000
# 4 0.0000 0.0000 0.0000 33.9686 0.0000 -6.5560
# 5 8.9301 1.1972 -2.2804 0.0000 31.2853 0.0000
# 6 0.0000 0.0000 0.0000 -6.5560 0.0000 20.4943
#
#
#
# Elastic Compliance Matrix: (Units=1/GPa)
#
#
# Indices 1 2 3 4 5 6 
#
# 1 0.010799 -0.001872 -0.007136 0.000000 -0.003531 0.000000
# 2 -0.001872 0.008639 -0.003860 0.000000 -0.000078 0.000000
# 3 -0.007136 -0.003860 0.026554 0.000000 0.004120 0.000000
# 4 0.000000 0.000000 0.000000 0.031376 0.000000 0.010037
# 5 -0.003531 -0.000078 0.004120 0.000000 0.033275 0.000000
# 6 0.000000 0.000000 0.000000 0.010037 0.000000 0.052005
#
#
# Mechanical properties :
#
#
# Convention : Reuss Voigt Hill
#
# Bulk Modulus (GPa) = 49.36212 62.53168 55.94690
# Shear Modulus (GPa) = 25.62317 30.80829 28.21573
#
# Velocity S-wave (km/s) = 3.60113 3.94872 3.77893
# Velocity P-wave (km/s) = 6.50181 7.24139 6.88155
#
# Compressibility (1/GPa) = 0.02025845
#
# Stress axis : x y z
#
# Youngs Moduli (GPa) = 92.59851 115.75321 37.65859
#
# Poissons Ratio (x) = 0.21667 0.26872
# Poissons Ratio (y) = 0.17333 0.14535
# Poissons Ratio (z) = 0.66076 0.44676
#
# Static dielectric constant tensor:
#      x y z
#    x 3.866760 0.000000 0.014350 
#    y 0.000000 3.945900 0.000000 
#    z 0.014350 0.000000 3.565380 
# 
# 
# High freq. dielectric constant tensor:
#      x y z
#    x 1.779680 0.000000 0.000780 
#    y 0.000000 1.793040 0.000000 
#    z 0.000780 0.000000 1.768150 
# 
# From -- ./inp_files/68705.got.cif
#   From: 2010.03.12/outbox.ucp.g09.slc.cvg/sg14_35_cif.got.tgz:68705.got - 2010.05.04 20:10:03.
