data_PCOD8129994
_publ_section_title
;
Structure prediction by ZEFSAII (Michael W. Deem and Ramdas Pophale) SiO2 
 PCOD8129994
Probable space group: C 2/C
;
_chemical_formula_sum "Si O2"
_cell_formula_units_Z 48
_cell_length_a 10.325486
_cell_length_b 16.249087
_cell_length_c 25.661927
_cell_angle_alpha 90.000000
_cell_angle_beta 142.355253
_cell_angle_gamma 90.000000
_cell_volume 2629.674401
_symmetry_space_group_name_H-M "C 2/C"
_symmetry_group_IT_number 15
_symmetry_cell_setting 'monoclinic'
loop_
_space_group_symop_operation_xyz
x,y,z
-x,y,1/2-z
-x,-y,-z
x,-y,1/2+z
1/2+x,1/2+y,z
1/2-x,1/2+y,1/2-z
1/2-x,1/2-y,-z
1/2+x,1/2-y,1/2+z
loop_
_atom_site_type_symbol
_atom_site_label
_atom_site_fract_x
_atom_site_fract_y
_atom_site_fract_z
Si Si1 0.722859 0.431457 0.241627
Si Si2 0.550680 0.971469 0.088038
Si Si3 0.160807 0.952217 0.900826
Si Si4 0.074786 0.288910 0.084002
Si Si5 0.000000 0.808852 0.250000
Si Si6 0.000000 0.666685 0.750000
Si Si7 0.319953 0.260990 0.598923
O O1 0.902342 0.474913 0.335171
O O2 0.561142 0.500239 0.169268
O O3 0.598077 0.364190 0.235515
O O4 0.835607 0.390231 0.228328
O O5 0.615290 0.884139 0.082576
O O6 0.704301 0.037099 0.109230
O O7 0.301516 0.984846 0.995042
O O8 0.112247 0.855264 0.888761
O O9 0.312296 0.250719 0.166137
O O10 0.954868 0.291965 0.101173
O O11 0.931257 0.246454 0.993878
O O12 0.863907 0.727304 0.670104
#
# Coordination Sequence:
#
# PCOD8129994 Si02
#       7
#     8   8   8   8   4   4   8
#     4  11  20  37  58  83 114 153 184 228 283 345
#     4   9  17  33  58  85 104 145 191 227 271 335
#     4  10  19  33  62  85 105 139 203 236 263 319
#     4   9  17  36  60  79 113 150 191 219 289 341
#     4  10  16  35  63  78 100 160 198 214 268 353
#     4  12  24  37  57  86 120 150 184 228 300 343
#     4  10  21  34  57  90 113 144 186 243 281 330
#
# _framework density 18.253209999999999
#
# number of rings (size 3 to 8) (size 9 to 14) (size 15 to 20)
#    0.000    2.000    6.667    0.000    2.333    0.000 
#    0.000    2.500    3.667    0.000    0.000    0.000 
#    0.000    0.000    0.000    0.000    0.000    0.000 
#
# Total GULP energy -297399.152821 kJ/mol
# GULP energy per Si atom -12391.631368 kJ/mol
# Density = 1.821167 g / cm^3
# Si number density = 18.253210 Si / 1000 Ang^3
#
#
#
# Elastic Constant Matrix: (Units=GPa)
#
#
# Indices 1 2 3 4 5 6 
#
# 1 79.8624 29.1312 58.2936 0.0000 5.2265 0.0000
# 2 29.1312 50.0828 39.3573 0.0000 7.6714 0.0000
# 3 58.2936 39.3573 203.2979 0.0001 19.8010 0.0000
# 4 0.0000 0.0000 0.0001 21.2598 0.0001 5.1678
# 5 5.2265 7.6714 19.8010 0.0001 31.3899 0.0000
# 6 0.0000 0.0000 0.0000 5.1678 0.0000 21.9351
#
#
#
# Elastic Compliance Matrix: (Units=1/GPa)
#
#
# Indices 1 2 3 4 5 6 
#
# 1 0.018018 -0.007688 -0.003803 0.000000 0.001277 0.000000
# 2 -0.007688 0.027110 -0.002689 0.000000 -0.003649 0.000000
# 3 -0.003803 -0.002689 0.006823 0.000000 -0.003014 0.000000
# 4 0.000000 0.000000 0.000000 0.049894 0.000000 -0.011755
# 5 0.001277 -0.003649 -0.003014 0.000000 0.034438 0.000000
# 6 0.000000 0.000000 0.000000 -0.011755 0.000000 0.048358
#
#
# Mechanical properties :
#
#
# Convention : Reuss Voigt Hill
#
# Bulk Modulus (GPa) = 42.38406 65.20080 53.79243
# Shear Modulus (GPa) = 22.63834 28.68105 25.65970
#
# Velocity S-wave (km/s) = 3.52552 3.96825 3.75342
# Velocity P-wave (km/s) = 6.31212 7.53616 6.95114
#
# Compressibility (1/GPa) = 0.02359377
#
# Stress axis : x y z
#
# Youngs Moduli (GPa) = 55.50095 36.88626 146.55716
#
# Poissons Ratio (x) = 0.28357 0.55729
# Poissons Ratio (y) = 0.42667 0.39403
# Poissons Ratio (z) = 0.21104 0.09917
#
# Static dielectric constant tensor:
#      x y z
#    x 3.126140 0.000000 0.265300 
#    y 0.000000 3.112260 0.000000 
#    z 0.265300 0.000000 4.038680 
# 
# 
# High freq. dielectric constant tensor:
#      x y z
#    x 1.671900 0.000000 0.014440 
#    y 0.000000 1.679100 0.000000 
#    z 0.014440 0.000000 1.737600 
# 
# From -- ./inp_files/191788.got.cif
#   From: 2010.06.25/outbox.cif.g09.slc.cpg/sg15_96_cif.got.tgz:191788.got - 2010.06.28 07:06:18.
