data_PCOD8129219
_publ_section_title
;
Structure prediction by ZEFSAII (Michael W. Deem and Ramdas Pophale) SiO2 
 PCOD8129219
Probable space group: P 21/C
;
_chemical_formula_sum "Si O2"
_cell_formula_units_Z 20
_cell_length_a 6.528127
_cell_length_b 11.587240
_cell_length_c 17.585681
_cell_angle_alpha 90.000000
_cell_angle_beta 46.605760
_cell_angle_gamma 90.000000
_cell_volume 966.605640
_symmetry_space_group_name_H-M "P 21/C"
_symmetry_group_IT_number 14
_symmetry_cell_setting 'monoclinic'
loop_
_space_group_symop_operation_xyz
x,y,z
-x,1/2+y,1/2-z
-x,-y,-z
x,1/2-y,1/2+z
loop_
_atom_site_type_symbol
_atom_site_label
_atom_site_fract_x
_atom_site_fract_y
_atom_site_fract_z
Si Si1 0.061836 0.282782 0.098934
Si Si2 0.693410 0.938461 0.890953
Si Si3 0.448281 0.311557 0.717122
Si Si4 0.716722 0.928786 0.584274
Si Si5 0.187773 0.409669 0.211078
O O1 0.233920 0.182885 0.092956
O O2 0.042408 0.384197 0.166718
O O3 0.754103 0.242960 0.151807
O O4 0.259907 0.321565 0.978841
O O5 0.537660 0.911794 0.850693
O O6 0.972443 0.014023 0.813273
O O7 0.500000 0.000000 0.000000
O O8 0.321202 0.374188 0.823070
O O9 0.244082 0.207190 0.744164
O O10 0.466188 0.014938 0.626620
O O11 0.000000 0.000000 0.500000
#
# Coordination Sequence:
#
# PCOD8129219 Si02
#       5
#     4   4   4   4   4
#     4  11  25  44  68 101 133 182 230 282 342 412
#     4  11  27  43  68  99 141 181 223 283 349 400
#     4  11  26  45  67 106 134 176 240 280 334 423
#     4  12  24  44  73  97 138 184 230 287 350 405
#     4  11  25  45  68 100 138 179 229 286 341 413
#
# _framework density 20.690961000000001
#
# number of rings (size 3 to 8) (size 9 to 14) (size 15 to 20)
#    0.000    0.800    4.000    1.800    5.600    0.800 
#    0.000    0.000    0.000    0.000    0.000    0.000 
#    0.000    0.000    0.000    0.000    0.000    0.000 
#
# Total GULP energy -248007.453310 kJ/mol
# GULP energy per Si atom -12400.372666 kJ/mol
# Density = 2.064387 g / cm^3
# Si number density = 20.690961 Si / 1000 Ang^3
#
#
#
# Elastic Constant Matrix: (Units=GPa)
#
#
# Indices 1 2 3 4 5 6 
#
# 1 111.6152 45.0664 58.5621 0.0000 6.6683 0.0000
# 2 45.0664 98.7400 70.2648 0.0000 10.7375 0.0000
# 3 58.5621 70.2648 153.7188 0.0000 8.4707 0.0000
# 4 0.0000 0.0000 0.0000 53.6646 0.0000 2.7405
# 5 6.6683 10.7375 8.4707 0.0000 45.0750 0.0000
# 6 0.0000 0.0000 0.0000 2.7405 0.0000 36.9620
#
#
#
# Elastic Compliance Matrix: (Units=1/GPa)
#
#
# Indices 1 2 3 4 5 6 
#
# 1 0.011873 -0.003218 -0.003029 0.000000 -0.000421 0.000000
# 2 -0.003218 0.016124 -0.006021 0.000000 -0.002233 0.000000
# 3 -0.003029 -0.006021 0.010416 0.000000 -0.000075 0.000000
# 4 0.000000 0.000000 0.000000 0.018705 0.000000 -0.001387
# 5 -0.000421 -0.002233 -0.000075 0.000000 0.022794 0.000000
# 6 0.000000 0.000000 0.000000 -0.001387 0.000000 0.027158
#
#
# Mechanical properties :
#
#
# Convention : Reuss Voigt Hill
#
# Bulk Modulus (GPa) = 72.06489 79.09564 75.58026
# Shear Modulus (GPa) = 36.70229 39.81902 38.26065
#
# Velocity S-wave (km/s) = 4.21626 4.39163 4.30484
# Velocity P-wave (km/s) = 7.65553 8.00159 7.83047
#
# Compressibility (1/GPa) = 0.01387638
#
# Stress axis : x y z
#
# Youngs Moduli (GPa) = 84.22430 62.01967 96.00653
#
# Poissons Ratio (x) = 0.19955 0.29084
# Poissons Ratio (y) = 0.27100 0.57809
# Poissons Ratio (z) = 0.25514 0.37344
#
# Static dielectric constant tensor:
#      x y z
#    x 3.973370 0.000000 0.184820 
#    y 0.000000 4.525840 0.000000 
#    z 0.184820 0.000000 3.290190 
# 
# 
# High freq. dielectric constant tensor:
#      x y z
#    x 1.820890 0.000000 0.008190 
#    y 0.000000 1.831280 0.000000 
#    z 0.008190 0.000000 1.815520 
# 
# From -- ./inp_files/20673.got.cif
#   From: 2010.03.12/outbox.cif.g09.slc.cpg/sg14_11_cif.got.tgz:20673.got - 2010.03.31 13:35:05.
