data_PCOD8129202
_publ_section_title
;
Structure prediction by ZEFSAII (Michael W. Deem and Ramdas Pophale) SiO2 
 PCOD8129202
Probable space group: P 21/C
;
_chemical_formula_sum "Si O2"
_cell_formula_units_Z 32
_cell_length_a 8.089519
_cell_length_b 11.779540
_cell_length_c 14.031786
_cell_angle_alpha 90.000000
_cell_angle_beta 103.990640
_cell_angle_gamma 90.000000
_cell_volume 1297.435524
_symmetry_space_group_name_H-M "P 21/C"
_symmetry_group_IT_number 14
_symmetry_cell_setting 'monoclinic'
loop_
_space_group_symop_operation_xyz
x,y,z
-x,1/2+y,1/2-z
-x,-y,-z
x,1/2-y,1/2+z
loop_
_atom_site_type_symbol
_atom_site_label
_atom_site_fract_x
_atom_site_fract_y
_atom_site_fract_z
Si Si1 0.272219 0.008331 0.130679
Si Si2 0.428789 0.896104 0.720166
Si Si3 0.769063 0.619586 0.824012
Si Si4 0.142779 0.290611 0.801747
Si Si5 0.410876 0.707705 0.556738
Si Si6 0.765839 0.713511 0.497311
Si Si7 0.875543 0.038688 0.707710
Si Si8 0.214062 0.727600 0.347449
O O1 0.377776 0.092321 0.216577
O O2 0.196032 0.088279 0.037885
O O3 0.117980 0.960400 0.174684
O O4 0.399448 0.911226 0.111000
O O5 0.404220 0.814119 0.626837
O O6 0.327403 0.851009 0.797173
O O7 0.369410 0.022156 0.682012
O O8 0.715531 0.712003 0.733793
O O9 0.793069 0.685518 0.926150
O O10 0.941762 0.558492 0.813518
O O11 0.201067 0.417907 0.836887
O O12 0.982642 0.294465 0.707669
O O13 0.101363 0.231947 0.897323
O O14 0.575671 0.717867 0.513452
O O15 0.246283 0.704012 0.463457
O O16 0.744543 0.138610 0.661036
#
# Coordination Sequence:
#
# PCOD8129202 Si02
#       8
#     4   4   4   4   4   4   4   4
#     4  12  26  48  80 111 150 200 252 316 378 446
#     4  12  26  48  76 107 154 196 249 319 377 446
#     4  11  27  47  75 106 152 199 254 307 376 449
#     4  11  25  49  73 109 153 202 246 316 372 446
#     4  12  28  47  77 115 152 196 256 309 384 447
#     4  12  27  45  77 113 145 199 258 303 376 454
#     4  11  24  49  73 103 154 196 247 310 374 440
#     4  11  26  47  72 109 152 197 247 313 376 445
#
# _framework density 24.664041000000001
#
# number of rings (size 3 to 8) (size 9 to 14) (size 15 to 20)
#    0.000    0.500    5.000    1.875    7.000    3.000 
#    0.000    3.125    0.000    0.000    0.000    0.000 
#    0.000    0.000    0.000    0.000    0.000    0.000 
#
# Total GULP energy -396627.922626 kJ/mol
# GULP energy per Si atom -12394.622582 kJ/mol
# Density = 2.460790 g / cm^3
# Si number density = 24.664041 Si / 1000 Ang^3
#
#
#
# Elastic Constant Matrix: (Units=GPa)
#
#
# Indices 1 2 3 4 5 6 
#
# 1 41.0043 11.5590 11.5906 0.0000 -11.0594 0.0000
# 2 11.5590 157.2367 44.0719 0.0000 -7.9782 0.0000
# 3 11.5906 44.0719 135.5900 0.0000 -11.2409 0.0000
# 4 0.0000 0.0000 0.0000 45.8593 0.0000 -7.5324
# 5 -11.0594 -7.9782 -11.2409 0.0000 38.8050 0.0000
# 6 0.0000 0.0000 0.0000 -7.5324 0.0000 32.0056
#
#
#
# Elastic Compliance Matrix: (Units=1/GPa)
#
#
# Indices 1 2 3 4 5 6 
#
# 1 0.027019 -0.001259 -0.001315 0.000000 0.007060 0.000000
# 2 -0.001259 0.007080 -0.002155 0.000000 0.000473 0.000000
# 3 -0.001315 -0.002155 0.008320 0.000000 0.001592 0.000000
# 4 0.000000 0.000000 0.000000 0.022683 0.000000 0.005338
# 5 0.007060 0.000473 0.001592 0.000000 0.028340 0.000000
# 6 0.000000 0.000000 0.000000 0.005338 0.000000 0.032501
#
#
# Mechanical properties :
#
#
# Convention : Reuss Voigt Hill
#
# Bulk Modulus (GPa) = 30.33877 52.03043 41.18460
# Shear Modulus (GPa) = 34.15587 41.10795 37.63191
#
# Velocity S-wave (km/s) = 3.72539 4.08697 3.91036
# Velocity P-wave (km/s) = 5.55267 6.58882 6.09281
#
# Compressibility (1/GPa) = 0.03296113
#
# Stress axis : x y z
#
# Youngs Moduli (GPa) = 37.01140 141.23701 120.19381
#
# Poissons Ratio (x) = 0.17788 0.15805
# Poissons Ratio (y) = 0.04661 0.25896
# Poissons Ratio (z) = 0.04867 0.30430
#
# Static dielectric constant tensor:
#      x y z
#    x 4.326330 0.000000 -0.130330 
#    y 0.000000 5.032110 0.000000 
#    z -0.130330 0.000000 4.741080 
# 
# 
# High freq. dielectric constant tensor:
#      x y z
#    x 1.966710 0.000000 -0.018010 
#    y 0.000000 2.009830 0.000000 
#    z -0.018010 0.000000 1.987910 
# 
# From -- ./inp_files/40072.got.cif
#   From: 2010.03.12/outbox.cif.g09.slc.cpg/sg14_21_cif.got.tgz:40072.got - 2010.03.31 13:35:05.
