data_PCOD8129859
_publ_section_title
;
Structure prediction by ZEFSAII (Michael W. Deem and Ramdas Pophale) SiO2 
 PCOD8129859
Probable space group: C 2/C
;
_chemical_formula_sum "Si O2"
_cell_formula_units_Z 52
_cell_length_a 26.195992
_cell_length_b 9.459254
_cell_length_c 14.389717
_cell_angle_alpha 90.000000
_cell_angle_beta 132.870432
_cell_angle_gamma 90.000000
_cell_volume 2613.275584
_symmetry_space_group_name_H-M "C 2/C"
_symmetry_group_IT_number 15
_symmetry_cell_setting 'monoclinic'
loop_
_space_group_symop_operation_xyz
x,y,z
-x,y,1/2-z
-x,-y,-z
x,-y,1/2+z
1/2+x,1/2+y,z
1/2-x,1/2+y,1/2-z
1/2-x,1/2-y,-z
1/2+x,1/2-y,1/2+z
loop_
_atom_site_type_symbol
_atom_site_label
_atom_site_fract_x
_atom_site_fract_y
_atom_site_fract_z
Si Si1 0.729762 0.421271 0.313691
Si Si2 0.631420 0.959344 0.919667
Si Si3 0.530910 0.862262 0.940785
Si Si4 0.752691 0.896270 0.828973
Si Si5 0.855345 0.868560 0.117453
Si Si6 0.000000 0.137793 0.750000
Si Si7 0.605809 0.024813 0.693436
O O1 0.795079 0.497983 0.443873
O O2 0.753483 0.268862 0.304606
O O3 0.705534 0.520243 0.199261
O O4 0.665131 0.403862 0.302919
O O5 0.568882 0.973155 0.916877
O O6 0.633823 0.800024 0.879996
O O7 0.617723 0.067569 0.816486
O O8 0.520328 0.720595 0.869672
O O9 0.456609 0.911728 0.885848
O O10 0.582083 0.846666 0.095090
O O11 0.674956 0.954991 0.738037
O O12 0.793065 0.922724 0.975237
O O13 0.929116 0.947981 0.186236
#
# Coordination Sequence:
#
# PCOD8129859 Si02
#       7
#     8   8   8   8   8   4   8
#     4  11  20  35  56  81 113 147 192 230 280 328
#     4  10  16  31  51  76 108 145 184 223 274 337
#     4  10  18  25  47  82 114 133 177 237 282 320
#     4  11  21  34  56  84 113 152 187 231 278 337
#     4  10  19  35  57  77 106 147 197 233 268 336
#     4  10  18  36  56  82 104 146 200 238 268 328
#     4  11  17  28  48  81 114 141 176 233 288 318
#
# _framework density 19.898399000000001
#
# number of rings (size 3 to 8) (size 9 to 14) (size 15 to 20)
#    0.000    1.538    7.692    0.923    0.000    0.000 
#    0.000    1.538    0.000    0.000    0.000    0.000 
#    0.000    0.000    0.000    0.000    0.000    0.000 
#
# Total GULP energy -322108.371523 kJ/mol
# GULP energy per Si atom -12388.783520 kJ/mol
# Density = 1.985311 g / cm^3
# Si number density = 19.898399 Si / 1000 Ang^3
#
#
#
# Elastic Constant Matrix: (Units=GPa)
#
#
# Indices 1 2 3 4 5 6 
#
# 1 136.4407 28.1915 40.7596 0.0000 -0.4529 0.0000
# 2 28.1915 30.5534 28.3088 0.0000 -7.8683 0.0000
# 3 40.7596 28.3088 88.5851 0.0000 -4.7463 0.0000
# 4 0.0000 0.0000 0.0000 16.3827 0.0000 -4.3333
# 5 -0.4529 -7.8683 -4.7463 0.0000 41.7545 0.0000
# 6 0.0000 0.0000 0.0000 -4.3333 0.0000 16.4515
#
#
#
# Elastic Compliance Matrix: (Units=1/GPa)
#
#
# Indices 1 2 3 4 5 6 
#
# 1 0.009432 -0.007088 -0.002154 0.000000 -0.001478 0.000000
# 2 -0.007088 0.054024 -0.013544 0.000000 0.008564 0.000000
# 3 -0.002154 -0.013544 0.016571 0.000000 -0.000692 0.000000
# 4 0.000000 0.000000 0.000000 0.065611 0.000000 0.017282
# 5 -0.001478 0.008564 -0.000692 0.000000 0.025469 0.000000
# 6 0.000000 0.000000 0.000000 0.017282 0.000000 0.065337
#
#
# Mechanical properties :
#
#
# Convention : Reuss Voigt Hill
#
# Bulk Modulus (GPa) = 29.02344 50.01099 39.51721
# Shear Modulus (GPa) = 17.03571 25.47235 21.25403
#
# Velocity S-wave (km/s) = 2.92915 3.58176 3.27177
# Velocity P-wave (km/s) = 5.10464 6.50331 5.84596
#
# Compressibility (1/GPa) = 0.03445491
#
# Stress axis : x y z
#
# Youngs Moduli (GPa) = 106.01857 18.51026 60.34679
#
# Poissons Ratio (x) = 0.13120 0.12999
# Poissons Ratio (y) = 0.75146 0.81734
# Poissons Ratio (z) = 0.22837 0.25071
#
# Static dielectric constant tensor:
#      x y z
#    x 4.108470 0.000000 -0.023150 
#    y 0.000000 2.924660 0.000000 
#    z -0.023150 0.000000 4.085140 
# 
# 
# High freq. dielectric constant tensor:
#      x y z
#    x 1.804580 0.000000 0.002060 
#    y 0.000000 1.677890 0.000000 
#    z 0.002060 0.000000 1.792610 
# 
# From -- ./inp_files/177228.got.cif
#   From: 2010.06.25/outbox.cif.g09.slc.cpg/sg15_89_cif.got.tgz:177228.got - 2010.06.28 07:06:18.
