data_PCOD8129121
_publ_section_title
;
Structure prediction by ZEFSAII (Michael W. Deem and Ramdas Pophale) SiO2 
 PCOD8129121
Probable space group: P 21/C
;
_chemical_formula_sum "Si O2"
_cell_formula_units_Z 24
_cell_length_a 14.339182
_cell_length_b 5.222090
_cell_length_c 21.317694
_cell_angle_alpha 90.000000
_cell_angle_beta 39.060363
_cell_angle_gamma 90.000000
_cell_volume 1005.877673
_symmetry_space_group_name_H-M "P 21/C"
_symmetry_group_IT_number 14
_symmetry_cell_setting 'monoclinic'
loop_
_space_group_symop_operation_xyz
x,y,z
-x,1/2+y,1/2-z
-x,-y,-z
x,1/2-y,1/2+z
loop_
_atom_site_type_symbol
_atom_site_label
_atom_site_fract_x
_atom_site_fract_y
_atom_site_fract_z
Si Si1 0.732439 0.604175 0.292656
Si Si2 0.167595 0.256121 0.514785
Si Si3 0.085922 0.201591 0.691936
Si Si4 0.148772 0.594658 0.335119
Si Si5 0.460496 0.929025 0.866037
Si Si6 0.700700 0.385662 0.141776
O O1 0.778029 0.683726 0.338843
O O2 0.804037 0.330830 0.235825
O O3 0.551737 0.603978 0.383402
O O4 0.785696 0.821416 0.216630
O O5 0.134544 0.107732 0.597487
O O6 0.323596 0.386422 0.447038
O O7 0.028795 0.440770 0.572992
O O8 0.178451 0.085473 0.446485
O O9 0.974401 0.445309 0.742722
O O10 0.209194 0.650212 0.374212
O O11 0.585178 0.022124 0.753016
O O12 0.392450 0.672479 0.872668
#
# Coordination Sequence:
#
# PCOD8129121 Si02
#       6
#     4   4   4   4   4   4
#     4  11  24  48  72 104 144 195 232 299 360 418
#     4  12  26  43  74 109 137 198 239 294 359 424
#     4  12  25  49  74 104 143 185 245 306 347 418
#     4  11  25  44  76 103 144 188 245 292 354 425
#     4  11  25  43  71 100 154 184 238 291 370 426
#     4  11  24  45  67 106 148 192 231 300 356 434
#
# _framework density 23.859760000000001
#
# number of rings (size 3 to 8) (size 9 to 14) (size 15 to 20)
#    0.000    0.667    5.000    1.500    9.333    1.333 
#    0.000    0.833    0.000    0.000    0.000    0.000 
#    0.000    0.000    0.000    0.000    0.000    0.000 
#
# Total GULP energy -297372.376473 kJ/mol
# GULP energy per Si atom -12390.515686 kJ/mol
# Density = 2.380545 g / cm^3
# Si number density = 23.859760 Si / 1000 Ang^3
#
#
#
# Elastic Constant Matrix: (Units=GPa)
#
#
# Indices 1 2 3 4 5 6 
#
# 1 131.6890 0.1213 21.8571 0.0000 -34.2632 0.0000
# 2 0.1213 85.6506 17.8457 0.0000 -4.9812 0.0000
# 3 21.8571 17.8457 97.0407 0.0000 0.6525 0.0000
# 4 0.0000 0.0000 0.0000 16.3965 0.0000 0.4931
# 5 -34.2632 -4.9812 0.6525 0.0000 86.9267 0.0000
# 6 0.0000 0.0000 0.0000 0.4931 0.0000 43.9500
#
#
#
# Elastic Compliance Matrix: (Units=1/GPa)
#
#
# Indices 1 2 3 4 5 6 
#
# 1 0.008872 0.000640 -0.002140 0.000000 0.003550 0.000000
# 2 0.000640 0.012231 -0.002400 0.000000 0.000971 0.000000
# 3 -0.002140 -0.002400 0.011235 0.000000 -0.001065 0.000000
# 4 0.000000 0.000000 0.000000 0.061009 0.000000 -0.000684
# 5 0.003550 0.000971 -0.001065 0.000000 0.012967 0.000000
# 6 0.000000 0.000000 0.000000 -0.000684 0.000000 0.022761
#
#
# Mechanical properties :
#
#
# Convention : Reuss Voigt Hill
#
# Bulk Modulus (GPa) = 40.75271 43.78095 42.26683
# Shear Modulus (GPa) = 34.46994 47.75840 41.11417
#
# Velocity S-wave (km/s) = 3.80503 4.47881 4.15560
# Velocity P-wave (km/s) = 6.03502 6.71829 6.38580
#
# Compressibility (1/GPa) = 0.02453824
#
# Stress axis : x y z
#
# Youngs Moduli (GPa) = 112.71728 81.75992 89.00436
#
# Poissons Ratio (x) = -0.05230 0.19045
# Poissons Ratio (y) = -0.07211 0.21360
# Poissons Ratio (z) = 0.24119 0.19621
#
# Static dielectric constant tensor:
#      x y z
#    x 5.340820 0.000000 -0.217790 
#    y 0.000000 4.102060 0.000000 
#    z -0.217790 0.000000 4.132530 
# 
# 
# High freq. dielectric constant tensor:
#      x y z
#    x 1.976760 0.000000 -0.009660 
#    y 0.000000 1.936480 0.000000 
#    z -0.009660 0.000000 1.925910 
# 
# From -- ./inp_files/67807.got.cif
#   From: 2010.03.12/outbox.cif.g09.slc.cpg/sg14_34_cif.got.tgz:67807.got - 2010.03.31 13:35:05.
