data_PCOD8129334
_publ_section_title
;
Structure prediction by ZEFSAII (Michael W. Deem and Ramdas Pophale) SiO2 
 PCOD8129334
Probable space group: P 21/C
;
_chemical_formula_sum "Si O2"
_cell_formula_units_Z 32
_cell_length_a 12.962881
_cell_length_b 16.673987
_cell_length_c 10.744955
_cell_angle_alpha 90.000000
_cell_angle_beta 144.260606
_cell_angle_gamma 90.000000
_cell_volume 1356.539277
_symmetry_space_group_name_H-M "P 21/C"
_symmetry_group_IT_number 14
_symmetry_cell_setting 'monoclinic'
loop_
_space_group_symop_operation_xyz
x,y,z
-x,1/2+y,1/2-z
-x,-y,-z
x,1/2-y,1/2+z
loop_
_atom_site_type_symbol
_atom_site_label
_atom_site_fract_x
_atom_site_fract_y
_atom_site_fract_z
Si Si1 0.724219 0.891239 0.664801
Si Si2 0.218576 0.938551 0.382592
Si Si3 0.655409 0.316142 0.164154
Si Si4 0.159350 0.105607 0.951918
Si Si5 0.134702 0.294736 0.906893
Si Si6 0.495457 0.929040 0.843545
Si Si7 0.732879 0.298646 0.515093
Si Si8 0.442299 0.107950 0.833824
O O1 0.533171 0.855874 0.500492
O O2 0.839441 0.823353 0.709370
O O3 0.719133 0.969836 0.572230
O O4 0.815106 0.917646 0.880085
O O5 0.212722 0.889405 0.246119
O O6 0.365562 0.892776 0.611631
O O7 0.031668 0.930511 0.270698
O O8 0.721811 0.273023 0.357372
O O9 0.646604 0.258832 0.034865
O O10 0.171529 0.200692 0.946852
O O11 0.305501 0.061582 0.012377
O O12 0.934623 0.314050 0.752163
O O13 0.269005 0.341203 0.129035
O O14 0.405394 0.013304 0.793932
O O15 0.503597 0.869957 0.970775
O O16 0.607356 0.376573 0.402598
#
# Coordination Sequence:
#
# PCOD8129334 Si02
#       8
#     4   4   4   4   4   4   4   4
#     4  12  26  46  80 103 151 190 256 311 378 443
#     4  12  25  50  74 113 145 196 253 313 380 445
#     4  12  26  48  75 113 149 201 247 315 376 455
#     4  12  28  44  76 107 147 195 250 313 375 452
#     4  12  27  48  70 112 146 195 243 312 374 450
#     4  11  27  48  73 106 146 197 248 309 373 457
#     4  12  28  46  76 107 154 194 251 310 380 449
#     4  11  27  48  73 106 148 198 248 304 381 447
#
# _framework density 23.589438000000001
#
# number of rings (size 3 to 8) (size 9 to 14) (size 15 to 20)
#    0.000    0.250    5.000    2.250    8.750    1.000 
#    0.000    2.500    0.000    0.000    0.000    0.000 
#    0.000    0.000    0.000    0.000    0.000    0.000 
#
# Total GULP energy -396740.636558 kJ/mol
# GULP energy per Si atom -12398.144892 kJ/mol
# Density = 2.353575 g / cm^3
# Si number density = 23.589438 Si / 1000 Ang^3
#
#
#
# Elastic Constant Matrix: (Units=GPa)
#
#
# Indices 1 2 3 4 5 6 
#
# 1 128.4594 28.8013 65.1369 0.0000 -1.7279 0.0000
# 2 28.8013 73.7954 34.9854 0.0000 1.8869 0.0000
# 3 65.1369 34.9854 126.6072 0.0000 12.7340 0.0000
# 4 0.0000 0.0000 0.0000 24.8698 0.0000 1.2896
# 5 -1.7279 1.8869 12.7340 0.0000 50.9009 0.0000
# 6 0.0000 0.0000 0.0000 1.2896 0.0000 44.4497
#
#
#
# Elastic Compliance Matrix: (Units=1/GPa)
#
#
# Indices 1 2 3 4 5 6 
#
# 1 0.010889 -0.001789 -0.005285 0.000000 0.001758 0.000000
# 2 -0.001789 0.015901 -0.003496 0.000000 0.000224 0.000000
# 3 -0.005285 -0.003496 0.011887 0.000000 -0.003024 0.000000
# 4 0.000000 0.000000 0.000000 0.040270 0.000000 -0.001168
# 5 0.001758 0.000224 -0.003024 0.000000 0.020454 0.000000
# 6 0.000000 0.000000 0.000000 -0.001168 0.000000 0.022531
#
#
# Mechanical properties :
#
#
# Convention : Reuss Voigt Hill
#
# Bulk Modulus (GPa) = 57.02008 65.18994 61.10501
# Shear Modulus (GPa) = 33.57554 37.37329 35.47442
#
# Velocity S-wave (km/s) = 3.77680 3.98467 3.88213
# Velocity P-wave (km/s) = 6.57596 6.99038 6.78633
#
# Compressibility (1/GPa) = 0.01753768
#
# Stress axis : x y z
#
# Youngs Moduli (GPa) = 91.83592 62.88919 84.12305
#
# Poissons Ratio (x) = 0.11254 0.44455
# Poissons Ratio (y) = 0.16434 0.29408
# Poissons Ratio (z) = 0.48531 0.21985
#
# Static dielectric constant tensor:
#      x y z
#    x 4.550900 0.000000 -0.200150 
#    y 0.000000 4.116860 0.000000 
#    z -0.200150 0.000000 4.406750 
# 
# 
# High freq. dielectric constant tensor:
#      x y z
#    x 1.944800 0.000000 -0.002530 
#    y 0.000000 1.931250 0.000000 
#    z -0.002530 0.000000 1.940470 
# 
# From -- ./inp_files/32991.got.cif
#   From: 2010.03.12/outbox.cif.g09.slc.cpg/sg14_17_cif.got.tgz:32991.got - 2010.03.31 13:35:05.
