data_PCOD8129972
_publ_section_title
;
Structure prediction by ZEFSAII (Michael W. Deem and Ramdas Pophale) SiO2 
 PCOD8129972
Probable space group: C 2/C
;
_chemical_formula_sum "Si O2"
_cell_formula_units_Z 48
_cell_length_a 9.159035
_cell_length_b 16.438105
_cell_length_c 22.395057
_cell_angle_alpha 90.000000
_cell_angle_beta 47.387101
_cell_angle_gamma 90.000000
_cell_volume 2481.411629
_symmetry_space_group_name_H-M "C 2/C"
_symmetry_group_IT_number 15
_symmetry_cell_setting 'monoclinic'
loop_
_space_group_symop_operation_xyz
x,y,z
-x,y,1/2-z
-x,-y,-z
x,-y,1/2+z
1/2+x,1/2+y,z
1/2-x,1/2+y,1/2-z
1/2-x,1/2-y,-z
1/2+x,1/2-y,1/2+z
loop_
_atom_site_type_symbol
_atom_site_label
_atom_site_fract_x
_atom_site_fract_y
_atom_site_fract_z
Si Si1 0.627816 0.026637 0.054678
Si Si2 0.178039 0.592149 0.441515
Si Si3 0.588914 0.259689 0.597168
Si Si4 0.564121 0.343883 0.055343
Si Si5 0.362601 0.215068 0.558474
Si Si6 0.141517 0.400141 0.156467
O O1 0.403259 0.055437 0.098804
O O2 0.618857 0.973120 0.116232
O O3 0.765230 0.105433 0.026424
O O4 0.739148 0.979560 0.969666
O O5 0.363432 0.654934 0.382071
O O6 0.988942 0.632270 0.527396
O O7 0.750000 0.250000 0.500000
O O8 0.376241 0.259097 0.620027
O O9 0.583381 0.186807 0.645468
O O10 0.640278 0.308031 0.098366
O O11 0.366093 0.396164 0.119123
O O12 0.521403 0.268205 0.023670
O O13 0.000000 0.421654 0.250000
#
# Coordination Sequence:
#
# PCOD8129972 Si02
#       6
#     8   8   8   8   8   8
#     4  10  19  32  58  86 111 146 193 248 281 338
#     4   9  16  31  61  84 104 138 199 241 273 327
#     4  10  16  34  60  80 105 150 195 227 270 357
#     4  10  19  32  57  90 108 144 195 240 286 339
#     4   9  16  31  60  87 109 130 196 248 261 333
#     4  12  23  36  56  84 123 154 189 246 308 343
#
# _framework density 19.343828999999999
#
# number of rings (size 3 to 8) (size 9 to 14) (size 15 to 20)
#    0.000    2.000    6.667    0.500    0.000    0.000 
#    0.000    0.833    7.333    0.000    0.000    0.000 
#    0.000    0.000    0.000    0.000    0.000    0.000 
#
# Total GULP energy -297357.691005 kJ/mol
# GULP energy per Si atom -12389.903792 kJ/mol
# Density = 1.929980 g / cm^3
# Si number density = 19.343829 Si / 1000 Ang^3
#
#
#
# Elastic Constant Matrix: (Units=GPa)
#
#
# Indices 1 2 3 4 5 6 
#
# 1 154.3692 47.1457 39.2826 0.0000 10.9191 -0.0002
# 2 47.1457 85.0589 19.2875 0.0000 5.3362 -0.0001
# 3 39.2826 19.2875 56.6816 0.0006 3.8946 -0.0004
# 4 0.0000 0.0000 0.0006 12.3366 -0.0002 3.9445
# 5 10.9191 5.3362 3.8946 -0.0002 8.0404 0.0001
# 6 -0.0002 -0.0001 -0.0004 3.9445 0.0001 44.1690
#
#
#
# Elastic Compliance Matrix: (Units=1/GPa)
#
#
# Indices 1 2 3 4 5 6 
#
# 1 0.009343 -0.003611 -0.004695 0.000000 -0.008017 0.000000
# 2 -0.003611 0.014480 -0.002174 0.000000 -0.003653 0.000000
# 3 -0.004695 -0.002174 0.021825 -0.000001 -0.002753 0.000000
# 4 0.000000 0.000000 -0.000001 0.083442 0.000002 -0.007452
# 5 -0.008017 -0.003653 -0.002753 0.000002 0.139017 -0.000001
# 6 0.000000 0.000000 0.000000 -0.007452 -0.000001 0.023306
#
#
# Mechanical properties :
#
#
# Convention : Reuss Voigt Hill
#
# Bulk Modulus (GPa) = 40.50517 56.39348 48.44933
# Shear Modulus (GPa) = 15.59568 25.60214 20.59891
#
# Velocity S-wave (km/s) = 2.84251 3.64198 3.26679
# Velocity P-wave (km/s) = 5.63544 6.84849 6.27137
#
# Compressibility (1/GPa) = 0.02468821
#
# Stress axis : x y z
#
# Youngs Moduli (GPa) = 107.03651 69.06083 45.81837
#
# Poissons Ratio (x) = 0.24936 0.21513
# Poissons Ratio (y) = 0.38648 0.09960
# Poissons Ratio (z) = 0.50257 0.15013
#
# Static dielectric constant tensor:
#      x y z
#    x 4.267430 0.000000 0.151810 
#    y 0.000000 3.779410 0.000000 
#    z 0.151810 0.000000 2.690250 
# 
# 
# High freq. dielectric constant tensor:
#      x y z
#    x 1.784210 0.000000 0.016010 
#    y 0.000000 1.769690 0.000000 
#    z 0.016010 0.000000 1.651960 
# 
# From -- ./inp_files/232507.got.cif
#   From: 2010.06.25/outbox.cif.g09.slc.cpg/sg15_117_cif.got.tgz:232507.got - 2010.06.28 07:06:18.
