data_PCOD8129852
_publ_section_title
;
Structure prediction by ZEFSAII (Michael W. Deem and Ramdas Pophale) SiO2 
 PCOD8129852
Probable space group: C 2/C
;
_chemical_formula_sum "Si O2"
_cell_formula_units_Z 60
_cell_length_a 20.513843
_cell_length_b 17.449462
_cell_length_c 11.635305
_cell_angle_alpha 90.000000
_cell_angle_beta 53.817121
_cell_angle_gamma 90.000000
_cell_volume 3361.661403
_symmetry_space_group_name_H-M "C 2/C"
_symmetry_group_IT_number 15
_symmetry_cell_setting 'monoclinic'
loop_
_space_group_symop_operation_xyz
x,y,z
-x,y,1/2-z
-x,-y,-z
x,-y,1/2+z
1/2+x,1/2+y,z
1/2-x,1/2+y,1/2-z
1/2-x,1/2-y,-z
1/2+x,1/2-y,1/2+z
loop_
_atom_site_type_symbol
_atom_site_label
_atom_site_fract_x
_atom_site_fract_y
_atom_site_fract_z
Si Si1 0.373170 0.240171 0.065232
Si Si2 0.995673 0.740735 0.117558
Si Si3 0.000000 0.291746 0.250000
Si Si4 0.635693 0.486606 0.856205
Si Si5 0.013769 0.085959 0.867488
Si Si6 0.381987 0.190276 0.686165
Si Si7 0.715614 0.657452 0.152852
Si Si8 0.722679 0.617347 0.879330
O O1 0.414922 0.207235 0.139320
O O2 0.306773 0.177442 0.096127
O O3 0.331469 0.321592 0.133998
O O4 0.440165 0.256446 0.895530
O O5 0.991311 0.828394 0.077650
O O6 0.000000 0.727926 0.250000
O O7 0.075067 0.701342 0.981522
O O8 0.055661 0.340100 0.280574
O O9 0.600455 0.544767 0.796635
O O10 0.683428 0.414889 0.756626
O O11 0.696027 0.531545 0.878081
O O12 0.558554 0.463476 0.008664
O O13 0.000000 0.095335 0.750000
O O14 0.342652 0.270276 0.768658
O O15 0.314801 0.125352 0.740667
O O16 0.715936 0.635419 0.020152
#
# Coordination Sequence:
#
# PCOD8129852 Si02
#       8
#     8   8   4   8   8   8   8   8
#     4  10  19  34  58  84 110 138 192 230 280 315
#     4  10  20  36  55  80 115 146 182 225 271 340
#     4  10  16  30  60  88  98 138 172 252 280 310
#     4  11  22  34  52  79 116 152 176 219 276 338
#     4  10  20  35  49  77 113 151 179 209 265 343
#     4  10  19  34  58  84 110 138 192 230 280 315
#     4  11  20  36  53  85 114 142 181 234 276 328
#     4  11  20  36  53  85 114 142 181 234 276 328
#
# _framework density 17.848317000000002
#
# number of rings (size 3 to 8) (size 9 to 14) (size 15 to 20)
#    0.000    1.600    5.333    1.600    0.000    0.000 
#    2.400    5.333    0.000    3.200    3.467    0.000 
#    0.000    0.000    0.000    0.000    0.000    0.000 
#
# Total GULP energy -371763.693297 kJ/mol
# GULP energy per Si atom -12392.123110 kJ/mol
# Density = 1.780769 g / cm^3
# Si number density = 17.848317 Si / 1000 Ang^3
#
#
#
# Elastic Constant Matrix: (Units=GPa)
#
#
# Indices 1 2 3 4 5 6 
#
# 1 123.3564 34.5153 51.3625 0.0000 -6.7165 0.0000
# 2 34.5153 52.8678 37.3194 0.0000 -1.8644 0.0000
# 3 51.3625 37.3194 60.3964 0.0000 -13.8506 0.0000
# 4 0.0000 0.0000 0.0000 26.0206 0.0000 -1.4917
# 5 -6.7165 -1.8644 -13.8506 0.0000 24.9563 0.0000
# 6 0.0000 0.0000 0.0000 -1.4917 0.0000 23.2705
#
#
#
# Elastic Compliance Matrix: (Units=1/GPa)
#
#
# Indices 1 2 3 4 5 6 
#
# 1 0.012748 -0.000561 -0.011134 0.000000 -0.002790 0.000000
# 2 -0.000561 0.036060 -0.024316 0.000000 -0.010953 0.000000
# 3 -0.011134 -0.024316 0.045773 0.000000 0.020591 0.000000
# 4 0.000000 0.000000 0.000000 0.038573 0.000000 0.002473
# 5 -0.002790 -0.010953 0.020591 0.000000 0.049929 0.000000
# 6 0.000000 0.000000 0.000000 0.002473 0.000000 0.043131
#
#
# Mechanical properties :
#
#
# Convention : Reuss Voigt Hill
#
# Bulk Modulus (GPa) = 44.33042 53.66831 48.99936
# Shear Modulus (GPa) = 16.35292 22.41103 19.38197
#
# Velocity S-wave (km/s) = 3.03019 3.54734 3.29892
# Velocity P-wave (km/s) = 6.09376 6.84928 6.48254
#
# Compressibility (1/GPa) = 0.02255787
#
# Stress axis : x y z
#
# Youngs Moduli (GPa) = 78.44606 27.73147 21.84694
#
# Poissons Ratio (x) = 0.01557 0.24324
# Poissons Ratio (y) = 0.04404 0.53123
# Poissons Ratio (z) = 0.87341 0.67432
#
# Static dielectric constant tensor:
#      x y z
#    x 3.717300 0.000000 -0.098600 
#    y 0.000000 3.326320 0.000000 
#    z -0.098600 0.000000 3.280950 
# 
# 
# High freq. dielectric constant tensor:
#      x y z
#    x 1.709920 0.000000 -0.003400 
#    y 0.000000 1.651400 0.000000 
#    z -0.003400 0.000000 1.687810 
# 
# From -- ./inp_files/106680.got.cif
#   From: 2010.06.25/outbox.cif.g09.slc.cpg/sg15_54_cif.got.tgz:106680.got - 2010.06.28 07:06:18.
