data_PCOD8129031
_publ_section_title
;
Structure prediction by ZEFSAII (Michael W. Deem and Ramdas Pophale) SiO2 
 PCOD8129031
Probable space group: P 21/C
;
_chemical_formula_sum "Si O2"
_cell_formula_units_Z 32
_cell_length_a 25.752659
_cell_length_b 8.701657
_cell_length_c 9.796939
_cell_angle_alpha 90.000000
_cell_angle_beta 49.148133
_cell_angle_gamma 90.000000
_cell_volume 1660.610655
_symmetry_space_group_name_H-M "P 21/C"
_symmetry_group_IT_number 14
_symmetry_cell_setting 'monoclinic'
loop_
_space_group_symop_operation_xyz
x,y,z
-x,1/2+y,1/2-z
-x,-y,-z
x,1/2-y,1/2+z
loop_
_atom_site_type_symbol
_atom_site_label
_atom_site_fract_x
_atom_site_fract_y
_atom_site_fract_z
Si Si1 0.175692 0.598755 0.229046
Si Si2 0.562328 0.924102 0.070111
Si Si3 0.296925 0.109144 0.505475
Si Si4 0.160769 0.609164 0.939907
Si Si5 0.975735 0.568132 0.900165
Si Si6 0.449256 0.160291 0.209713
Si Si7 0.715433 0.894635 0.782553
Si Si8 0.048062 0.429458 0.531264
O O1 0.254263 0.543809 0.117998
O O2 0.156115 0.737092 0.360913
O O3 0.126630 0.454369 0.349666
O O4 0.164677 0.652756 0.092459
O O5 0.547814 0.828752 0.231595
O O6 0.514296 0.071592 0.157718
O O7 0.546099 0.823974 0.962049
O O8 0.641679 0.975709 0.932819
O O9 0.378465 0.074693 0.375556
O O10 0.275283 0.245288 0.641887
O O11 0.276349 0.159666 0.387925
O O12 0.227738 0.518139 0.774620
O O13 0.095294 0.504194 0.026271
O O14 0.967681 0.750743 0.921470
O O15 0.035182 0.523971 0.691833
O O16 0.000000 0.500000 0.000000
O O17 0.000000 0.500000 0.500000
#
# Coordination Sequence:
#
# PCOD8129031 Si02
#       8
#     4   4   4   4   4   4   4   4
#     4  11  24  40  60  84 119 151 192 239 289 346
#     4   9  18  33  54  81 111 150 187 236 283 341
#     4   9  19  37  57  81 112 150 190 238 284 344
#     4  11  24  41  59  86 116 153 191 238 290 346
#     4  12  26  42  67  90 118 156 193 241 292 346
#     4   9  18  33  54  80 113 148 189 233 287 338
#     4   9  19  37  58  80 113 148 193 234 287 343
#     4  12  24  44  63  90 120 152 195 240 290 349
#
# _framework density 19.270019000000001
#
# number of rings (size 3 to 8) (size 9 to 14) (size 15 to 20)
#    0.000    1.750    1.250    3.000    1.750    2.500 
#    0.000    0.000    0.000    0.000    0.000    0.000 
#    0.000    0.000    0.000    0.000    0.000    0.000 
#
# Total GULP energy -396851.010097 kJ/mol
# GULP energy per Si atom -12401.594066 kJ/mol
# Density = 1.922616 g / cm^3
# Si number density = 19.270019 Si / 1000 Ang^3
#
#
#
# Elastic Constant Matrix: (Units=GPa)
#
#
# Indices 1 2 3 4 5 6 
#
# 1 81.3258 21.7235 23.9674 0.0000 -8.1651 0.0000
# 2 21.7235 88.0245 33.2634 0.0000 1.2626 0.0000
# 3 23.9674 33.2634 90.9833 0.0000 2.8309 0.0000
# 4 0.0000 0.0000 0.0000 33.9837 0.0000 -2.0741
# 5 -8.1651 1.2626 2.8309 0.0000 28.2043 0.0000
# 6 0.0000 0.0000 0.0000 -2.0741 0.0000 29.8340
#
#
#
# Elastic Compliance Matrix: (Units=1/GPa)
#
#
# Indices 1 2 3 4 5 6 
#
# 1 0.014296 -0.002456 -0.003010 0.000000 0.004551 0.000000
# 2 -0.002456 0.013604 -0.004299 0.000000 -0.000889 0.000000
# 3 -0.003010 -0.004299 0.013419 0.000000 -0.002026 0.000000
# 4 0.000000 0.000000 0.000000 0.029551 0.000000 0.002054
# 5 0.004551 -0.000889 -0.002026 0.000000 0.037016 0.000000
# 6 0.000000 0.000000 0.000000 0.002054 0.000000 0.033662
#
#
# Mechanical properties :
#
#
# Convention : Reuss Voigt Hill
#
# Bulk Modulus (GPa) = 45.89416 46.47137 46.18276
# Shear Modulus (GPa) = 29.70181 30.49635 30.09908
#
# Velocity S-wave (km/s) = 3.93026 3.98248 3.95646
# Velocity P-wave (km/s) = 6.66813 6.73165 6.69997
#
# Compressibility (1/GPa) = 0.02178927
#
# Stress axis : x y z
#
# Youngs Moduli (GPa) = 69.94893 73.50853 74.52364
#
# Poissons Ratio (x) = 0.18054 0.22429
# Poissons Ratio (y) = 0.17180 0.32037
# Poissons Ratio (z) = 0.21052 0.31601
#
# Static dielectric constant tensor:
#      x y z
#    x 4.101140 0.000000 -0.246940 
#    y 0.000000 3.275220 0.000000 
#    z -0.246940 0.000000 3.932670 
# 
# 
# High freq. dielectric constant tensor:
#      x y z
#    x 1.761550 0.000000 -0.003080 
#    y 0.000000 1.729940 0.000000 
#    z -0.003080 0.000000 1.768200 
# 
# From -- ./inp_files/18633.got.cif
#   From: 2010.03.12/outbox.cif.g09.slc.cpg/sg14_10_cif.got.tgz:18633.got - 2010.03.31 13:35:05.
