data_PCOD8129751
_publ_section_title
;
Structure prediction by ZEFSAII (Michael W. Deem and Ramdas Pophale) SiO2 
 PCOD8129751
Probable space group: C 2/C
;
_chemical_formula_sum "Si O2"
_cell_formula_units_Z 52
_cell_length_a 9.740690
_cell_length_b 15.189753
_cell_length_c 21.091322
_cell_angle_alpha 90.000000
_cell_angle_beta 100.289777
_cell_angle_gamma 90.000000
_cell_volume 3070.454508
_symmetry_space_group_name_H-M "C 2/C"
_symmetry_group_IT_number 15
_symmetry_cell_setting 'monoclinic'
loop_
_space_group_symop_operation_xyz
x,y,z
-x,y,1/2-z
-x,-y,-z
x,-y,1/2+z
1/2+x,1/2+y,z
1/2-x,1/2+y,1/2-z
1/2-x,1/2-y,-z
1/2+x,1/2-y,1/2+z
loop_
_atom_site_type_symbol
_atom_site_label
_atom_site_fract_x
_atom_site_fract_y
_atom_site_fract_z
Si Si1 0.651124 0.640128 0.442225
Si Si2 0.351170 0.557259 0.547880
Si Si3 0.500000 0.371154 0.250000
Si Si4 0.357124 0.715358 0.626434
Si Si5 0.159639 0.121386 0.095269
Si Si6 0.353628 0.719261 0.919684
Si Si7 0.861872 0.946317 0.356735
O O1 0.713702 0.540831 0.453813
O O2 0.499591 0.639747 0.396381
O O3 0.632162 0.688986 0.507074
O O4 0.758751 0.693706 0.406980
O O5 0.281795 0.628282 0.590297
O O6 0.331810 0.597599 0.477364
O O7 0.513820 0.549855 0.580135
O O8 0.601494 0.307696 0.298192
O O9 0.414104 0.435785 0.289217
O O10 0.251227 0.795030 0.619372
O O11 0.493584 0.740722 0.596300
O O12 0.219620 0.038376 0.141641
O O13 0.278774 0.641823 0.871418
#
# Coordination Sequence:
#
# PCOD8129751 Si02
#       7
#     8   8   4   8   8   8   8
#     4  10  16  28  48  75 104 125 156 192 242 296
#     4   9  16  29  48  75 101 122 156 199 241 290
#     4   8  18  36  48  66  90 136 176 192 236 296
#     4  10  20  32  51  69  99 133 161 202 241 292
#     4  11  17  30  52  80  93 123 162 210 241 280
#     4   9  17  29  46  71 102 137 145 186 247 295
#     4   9  16  32  53  69  96 131 165 200 235 297
#
# _framework density 16.935604000000001
#
# number of rings (size 3 to 8) (size 9 to 14) (size 15 to 20)
#    0.000    2.769    4.615    1.385    0.000    0.000 
#    0.000   11.538    0.000    0.000    0.000    0.000 
#    0.000    0.000    0.000    0.000    0.000    0.000 
#
# Total GULP energy -322112.858108 kJ/mol
# GULP energy per Si atom -12388.956081 kJ/mol
# Density = 1.689706 g / cm^3
# Si number density = 16.935604 Si / 1000 Ang^3
#
#
#
# Elastic Constant Matrix: (Units=GPa)
#
#
# Indices 1 2 3 4 5 6 
#
# 1 41.7138 42.7572 18.9045 0.0000 0.3892 0.0000
# 2 42.7572 147.3953 40.4054 0.0000 6.3779 0.0000
# 3 18.9045 40.4054 89.7785 0.0000 -1.3632 0.0000
# 4 0.0000 0.0000 0.0000 11.6707 0.0000 -4.0104
# 5 0.3892 6.3779 -1.3632 0.0000 8.4647 0.0000
# 6 0.0000 0.0000 0.0000 -4.0104 0.0000 34.4019
#
#
#
# Elastic Compliance Matrix: (Units=1/GPa)
#
#
# Indices 1 2 3 4 5 6 
#
# 1 0.035109 -0.009583 -0.003002 0.000000 0.005123 0.000000
# 2 -0.009583 0.010718 -0.002929 0.000000 -0.008107 0.000000
# 3 -0.003002 -0.002929 0.013157 0.000000 0.004464 0.000000
# 4 0.000000 0.000000 0.000000 0.089260 0.000000 0.010405
# 5 0.005123 -0.008107 0.004464 0.000000 0.124729 0.000000
# 6 0.000000 0.000000 0.000000 0.010405 0.000000 0.030281
#
#
# Mechanical properties :
#
#
# Convention : Reuss Voigt Hill
#
# Bulk Modulus (GPa) = 35.77176 53.66909 44.72042
# Shear Modulus (GPa) = 14.55179 22.69549 18.62364
#
# Velocity S-wave (km/s) = 2.93446 3.66472 3.31973
# Velocity P-wave (km/s) = 5.71398 7.04739 6.41542
#
# Compressibility (1/GPa) = 0.02795501
#
# Stress axis : x y z
#
# Youngs Moduli (GPa) = 28.48313 93.30003 76.00743
#
# Poissons Ratio (x) = 0.89411 0.22817
# Poissons Ratio (y) = 0.27296 0.22262
# Poissons Ratio (z) = 0.08551 0.27327
#
# Static dielectric constant tensor:
#      x y z
#    x 2.864750 0.000000 -0.107250 
#    y 0.000000 3.787220 0.000000 
#    z -0.107250 0.000000 3.014660 
# 
# 
# High freq. dielectric constant tensor:
#      x y z
#    x 1.600440 0.000000 -0.014400 
#    y 0.000000 1.674920 0.000000 
#    z -0.014400 0.000000 1.637950 
# 
# From -- ./inp_files/238054.got.cif
#   From: 2010.06.25/outbox.cif.g09.slc.cpg/sg15_120_cif.got.tgz:238054.got - 2010.06.28 07:06:18.
