data_PCOD8129730
_publ_section_title
;
Structure prediction by ZEFSAII (Michael W. Deem and Ramdas Pophale) SiO2 
 PCOD8129730
Probable space group: C 2/C
;
_chemical_formula_sum "Si O2"
_cell_formula_units_Z 48
_cell_length_a 13.564874
_cell_length_b 19.374062
_cell_length_c 11.736084
_cell_angle_alpha 90.000000
_cell_angle_beta 60.711217
_cell_angle_gamma 90.000000
_cell_volume 2690.037565
_symmetry_space_group_name_H-M "C 2/C"
_symmetry_group_IT_number 15
_symmetry_cell_setting 'monoclinic'
loop_
_space_group_symop_operation_xyz
x,y,z
-x,y,1/2-z
-x,-y,-z
x,-y,1/2+z
1/2+x,1/2+y,z
1/2-x,1/2+y,1/2-z
1/2-x,1/2-y,-z
1/2+x,1/2-y,1/2+z
loop_
_atom_site_type_symbol
_atom_site_label
_atom_site_fract_x
_atom_site_fract_y
_atom_site_fract_z
Si Si1 0.130756 0.675860 0.160246
Si Si2 0.380072 0.568689 0.368829
Si Si3 0.775406 0.821353 0.368790
Si Si4 0.322037 0.585170 0.649591
Si Si5 0.925495 0.081632 0.923108
Si Si6 0.734036 0.566167 0.291657
O O1 0.203719 0.740553 0.164182
O O2 0.160070 0.608048 0.217796
O O3 0.000000 0.691510 0.250000
O O4 0.163455 0.664866 0.008726
O O5 0.500000 0.593601 0.250000
O O6 0.346624 0.607797 0.505171
O O7 0.376887 0.487093 0.393132
O O8 0.282765 0.584726 0.331337
O O9 0.755730 0.855118 0.255464
O O10 0.884189 0.852844 0.373580
O O11 0.440139 0.574376 0.649692
O O12 0.247325 0.515721 0.699988
O O13 0.880356 0.088094 0.077332
#
# Coordination Sequence:
#
# PCOD8129730 Si02
#       6
#     8   8   8   8   8   8
#     4  10  22  39  56  76 108 139 178 222 261 316
#     4  11  16  27  46  81 119 138 162 214 273 322
#     4  10  20  35  58  82 101 134 182 226 272 303
#     4  11  18  28  53  82 111 138 172 225 267 311
#     4  10  16  27  52  82 115 131 167 228 274 304
#     4  10  19  30  49  80 111 145 173 209 272 321
#
# _framework density 17.843616999999998
#
# number of rings (size 3 to 8) (size 9 to 14) (size 15 to 20)
#    0.000    1.667    5.000    2.500    0.000    0.000 
#    0.000    1.667    0.000    0.000    0.000    0.000 
#    0.000    0.000    0.000    0.000    0.000    0.000 
#
# Total GULP energy -297512.181339 kJ/mol
# GULP energy per Si atom -12396.340889 kJ/mol
# Density = 1.780300 g / cm^3
# Si number density = 17.843617 Si / 1000 Ang^3
#
#
#
# Elastic Constant Matrix: (Units=GPa)
#
#
# Indices 1 2 3 4 5 6 
#
# 1 38.2632 10.7307 35.3885 0.0000 -4.2203 0.0000
# 2 10.7307 65.8594 41.8717 0.0000 3.8777 0.0000
# 3 35.3885 41.8717 149.5232 0.0000 16.5721 0.0000
# 4 0.0000 0.0000 0.0000 30.4112 0.0000 4.1651
# 5 -4.2203 3.8777 16.5721 0.0000 21.3445 0.0000
# 6 0.0000 0.0000 0.0000 4.1651 0.0000 18.2151
#
#
#
# Elastic Compliance Matrix: (Units=1/GPa)
#
#
# Indices 1 2 3 4 5 6 
#
# 1 0.037758 -0.000350 -0.010584 0.000000 0.015747 0.000000
# 2 -0.000350 0.018486 -0.005158 0.000000 0.000577 0.000000
# 3 -0.010584 -0.005158 0.011779 0.000000 -0.010301 0.000000
# 4 0.000000 0.000000 0.000000 0.033946 0.000000 -0.007762
# 5 0.015747 0.000577 -0.010301 0.000000 0.057857 0.000000
# 6 0.000000 0.000000 0.000000 -0.007762 0.000000 0.056675
#
#
# Mechanical properties :
#
#
# Convention : Reuss Voigt Hill
#
# Bulk Modulus (GPa) = 27.90202 47.73640 37.81921
# Shear Modulus (GPa) = 19.18423 25.03780 22.11102
#
# Velocity S-wave (km/s) = 3.28248 3.74997 3.52398
# Velocity P-wave (km/s) = 5.48061 6.74984 6.14807
#
# Compressibility (1/GPa) = 0.03583970
#
# Stress axis : x y z
#
# Youngs Moduli (GPa) = 26.48422 54.09449 84.89808
#
# Poissons Ratio (x) = 0.01896 0.89853
# Poissons Ratio (y) = 0.00928 0.43788
# Poissons Ratio (z) = 0.28030 0.27901
#
# Static dielectric constant tensor:
#      x y z
#    x 2.841410 0.000000 0.142070 
#    y 0.000000 3.187490 0.000000 
#    z 0.142070 0.000000 3.703310 
# 
# 
# High freq. dielectric constant tensor:
#      x y z
#    x 1.636850 0.000000 0.012870 
#    y 0.000000 1.670820 0.000000 
#    z 0.012870 0.000000 1.711670 
# 
# From -- ./inp_files/88370.got.cif
#   From: 2010.06.25/outbox.cif.g09.slc.cpg/sg15_45_cif.got.tgz:88370.got - 2010.06.28 07:06:18.
