data_PCOD8129838
_publ_section_title
;
Structure prediction by ZEFSAII (Michael W. Deem and Ramdas Pophale) SiO2 
 PCOD8129838
Probable space group: C 2/C
;
_chemical_formula_sum "Si O2"
_cell_formula_units_Z 48
_cell_length_a 25.005935
_cell_length_b 17.833419
_cell_length_c 11.143928
_cell_angle_alpha 90.000000
_cell_angle_beta 149.900415
_cell_angle_gamma 90.000000
_cell_volume 2492.245485
_symmetry_space_group_name_H-M "C 2/C"
_symmetry_group_IT_number 15
_symmetry_cell_setting 'monoclinic'
loop_
_space_group_symop_operation_xyz
x,y,z
-x,y,1/2-z
-x,-y,-z
x,-y,1/2+z
1/2+x,1/2+y,z
1/2-x,1/2+y,1/2-z
1/2-x,1/2-y,-z
1/2+x,1/2-y,1/2+z
loop_
_atom_site_type_symbol
_atom_site_label
_atom_site_fract_x
_atom_site_fract_y
_atom_site_fract_z
Si Si1 0.726784 0.584483 0.444687
Si Si2 0.600320 0.044810 0.890023
Si Si3 0.880845 0.842764 0.972585
Si Si4 0.147655 0.324926 0.132447
Si Si5 0.922680 0.386525 0.748463
Si Si6 0.764123 0.566993 0.133757
O O1 0.835165 0.595068 0.577823
O O2 0.748720 0.639209 0.599959
O O3 0.707708 0.497232 0.443262
O O4 0.628124 0.606550 0.166148
O O5 0.500000 0.091274 0.750000
O O6 0.550059 0.972923 0.726451
O O7 0.676889 0.020085 0.147697
O O8 0.000000 0.834009 0.250000
O O9 0.833141 0.763670 0.837844
O O10 0.818863 0.876328 0.966730
O O11 0.146182 0.353567 0.993712
O O12 0.035081 0.343312 0.981199
O O13 0.848736 0.382736 0.723087
#
# Coordination Sequence:
#
# PCOD8129838 Si02
#       6
#     8   8   8   8   8   8
#     4  10  21  35  60  81 110 145 182 227 268 325
#     4  10  16  30  54  91 116 133 170 220 280 335
#     4  11  24  40  56  77 109 150 191 227 266 317
#     4  11  19  37  56  86 113 142 173 216 289 337
#     4  10  18  31  58  83 113 141 168 222 277 339
#     4  10  21  35  56  85 107 144 187 225 269 319
#
# _framework density 19.259741000000002
#
# number of rings (size 3 to 8) (size 9 to 14) (size 15 to 20)
#    0.000    1.667    5.000    1.500    0.000    4.000 
#    0.000    0.000    0.000    0.000    0.000    0.000 
#    0.000    0.000    0.000    0.000    0.000    0.000 
#
# Total GULP energy -297403.166686 kJ/mol
# GULP energy per Si atom -12391.798612 kJ/mol
# Density = 1.921590 g / cm^3
# Si number density = 19.259741 Si / 1000 Ang^3
#
#
#
# Elastic Constant Matrix: (Units=GPa)
#
#
# Indices 1 2 3 4 5 6 
#
# 1 81.7354 27.7206 16.7927 0.0000 -6.1249 0.0000
# 2 27.7206 81.2017 20.5216 0.0000 -3.4390 0.0000
# 3 16.7927 20.5216 54.9976 0.0000 -14.5424 0.0000
# 4 0.0000 0.0000 0.0000 24.9375 0.0000 -0.4096
# 5 -6.1249 -3.4390 -14.5424 0.0000 26.5845 0.0000
# 6 0.0000 0.0000 0.0000 -0.4096 0.0000 21.8446
#
#
#
# Elastic Compliance Matrix: (Units=1/GPa)
#
#
# Indices 1 2 3 4 5 6 
#
# 1 0.014261 -0.004199 -0.002411 0.000000 0.001423 0.000000
# 2 -0.004199 0.014866 -0.004691 0.000000 -0.001610 0.000000
# 3 -0.002411 -0.004691 0.023805 0.000000 0.011860 0.000000
# 4 0.000000 0.000000 0.000000 0.040113 0.000000 0.000752
# 5 0.001423 -0.001610 0.011860 0.000000 0.044223 0.000000
# 6 0.000000 0.000000 0.000000 0.000752 0.000000 0.045792
#
#
# Mechanical properties :
#
#
# Convention : Reuss Voigt Hill
#
# Bulk Modulus (GPa) = 32.97047 38.66717 35.81882
# Shear Modulus (GPa) = 23.17281 24.86663 24.01972
#
# Velocity S-wave (km/s) = 3.47244 3.59711 3.53533
# Velocity P-wave (km/s) = 5.76482 6.11331 5.94162
#
# Compressibility (1/GPa) = 0.03033017
#
# Stress axis : x y z
#
# Youngs Moduli (GPa) = 70.12310 67.26948 42.00791
#
# Poissons Ratio (x) = 0.28244 0.10129
# Poissons Ratio (y) = 0.29442 0.19704
# Poissons Ratio (z) = 0.16908 0.31554
#
# Static dielectric constant tensor:
#      x y z
#    x 3.642120 0.000000 -0.243380 
#    y 0.000000 3.375730 0.000000 
#    z -0.243380 0.000000 3.471650 
# 
# 
# High freq. dielectric constant tensor:
#      x y z
#    x 1.745360 0.000000 -0.027440 
#    y 0.000000 1.729240 0.000000 
#    z -0.027440 0.000000 1.740200 
# 
# From -- ./inp_files/87393.got.cif
#   From: 2010.06.25/outbox.cif.g09.slc.cpg/sg15_44_cif.got.tgz:87393.got - 2010.06.28 07:06:18.
