data_PCOD8129688
_publ_section_title
;
Structure prediction by ZEFSAII (Michael W. Deem and Ramdas Pophale) SiO2 
 PCOD8129688
Probable space group: C 2/C
;
_chemical_formula_sum "Si O2"
_cell_formula_units_Z 44
_cell_length_a 9.176213
_cell_length_b 22.820096
_cell_length_c 10.034064
_cell_angle_alpha 90.000000
_cell_angle_beta 84.133456
_cell_angle_gamma 90.000000
_cell_volume 2090.149252
_symmetry_space_group_name_H-M "C 2/C"
_symmetry_group_IT_number 15
_symmetry_cell_setting 'monoclinic'
loop_
_space_group_symop_operation_xyz
x,y,z
-x,y,1/2-z
-x,-y,-z
x,-y,1/2+z
1/2+x,1/2+y,z
1/2-x,1/2+y,1/2-z
1/2-x,1/2-y,-z
1/2+x,1/2-y,1/2+z
loop_
_atom_site_type_symbol
_atom_site_label
_atom_site_fract_x
_atom_site_fract_y
_atom_site_fract_z
Si Si1 0.433277 0.269292 0.621239
Si Si2 0.107013 0.690764 0.118821
Si Si3 0.500000 0.568717 0.750000
Si Si4 0.245188 0.982873 0.630648
Si Si5 0.480327 0.394572 0.966082
Si Si6 0.800977 0.438158 0.894143
O O1 0.500000 0.241709 0.750000
O O2 0.261205 0.281942 0.648322
O O3 0.461871 0.222939 0.501988
O O4 0.522009 0.329111 0.588549
O O5 0.120527 0.622606 0.078036
O O6 0.000000 0.700800 0.250000
O O7 0.640437 0.529822 0.708340
O O8 0.468588 0.610027 0.626876
O O9 0.349441 0.959426 0.740846
O O10 0.159463 0.927723 0.578609
O O11 0.340042 0.014020 0.504734
O O12 0.624224 0.430552 0.908103
#
# Coordination Sequence:
#
# PCOD8129688 Si02
#       6
#     8   8   4   8   8   8
#     4  10  22  41  66  93 119 163 219 265 309 364
#     4  10  23  43  62  87 128 169 207 257 317 376
#     4  10  16  24  46  88 122 150 184 250 322 358
#     4  11  16  31  51  88 121 153 200 251 310 365
#     4  10  17  28  53  86 124 148 191 258 319 359
#     4  10  19  32  54  80 120 159 192 249 311 371
#
# _framework density 21.051130000000001
#
# number of rings (size 3 to 8) (size 9 to 14) (size 15 to 20)
#    0.000    1.818    3.636    3.273    1.273    0.727 
#    0.000    2.727    0.000    0.000    0.000    0.000 
#    0.000    0.000    0.000    0.000    0.000    0.000 
#
# Total GULP energy -272836.575977 kJ/mol
# GULP energy per Si atom -12401.662544 kJ/mol
# Density = 2.100322 g / cm^3
# Si number density = 21.051130 Si / 1000 Ang^3
#
#
#
# Elastic Constant Matrix: (Units=GPa)
#
#
# Indices 1 2 3 4 5 6 
#
# 1 40.5120 34.1243 42.0279 0.0000 7.8039 0.0000
# 2 34.1243 113.1149 76.3193 0.0000 4.0236 0.0000
# 3 42.0279 76.3193 194.1292 0.0000 16.6833 0.0000
# 4 0.0000 0.0000 0.0000 -22.9374 0.0000 -23.7760
# 5 7.8039 4.0236 16.6833 0.0000 19.2364 0.0000
# 6 0.0000 0.0000 0.0000 -23.7760 0.0000 1.1939
#
#
#
# Elastic Compliance Matrix: (Units=1/GPa)
#
#
# Indices 1 2 3 4 5 6 
#
# 1 0.037845 -0.008323 -0.004053 0.000000 -0.010097 0.000000
# 2 -0.008323 0.013915 -0.004007 0.000000 0.003941 0.000000
# 3 -0.004053 -0.004007 0.007986 0.000000 -0.004444 0.000000
# 4 0.000000 0.000000 0.000000 -0.002014 0.000000 -0.040116
# 5 -0.010097 0.003941 -0.004444 0.000000 0.059110 0.000000
# 6 0.000000 0.000000 0.000000 -0.040116 0.000000 0.038701
#
#
# Mechanical properties :
#
#
# Convention : Reuss Voigt Hill
#
# Bulk Modulus (GPa) = 37.06672 72.52211 54.79442
# Shear Modulus (GPa) = 25.34177 12.51756 18.92966
#
# Velocity S-wave (km/s) = 3.47337 2.44114 3.00196
# Velocity P-wave (km/s) = 5.80792 6.51696 6.17263
#
# Compressibility (1/GPa) = 0.02697838
#
# Stress axis : x y z
#
# Youngs Moduli (GPa) = 26.42379 71.86494 125.21817
#
# Poissons Ratio (x) = 0.59813 0.50756
# Poissons Ratio (y) = 0.21992 0.50179
# Poissons Ratio (z) = 0.10711 0.28799
#
# Static dielectric constant tensor:
#      x y z
#    x 3.361330 0.000000 0.015490 
#    y 0.000000 3.760480 0.000000 
#    z 0.015490 0.000000 4.243440 
# 
# 
# High freq. dielectric constant tensor:
#      x y z
#    x 1.790700 0.000000 0.004150 
#    y 0.000000 1.817090 0.000000 
#    z 0.004150 0.000000 1.845580 
# 
# From -- ./inp_files/30851.got.cif
#   From: 2010.06.25/outbox.cif.g09.slc.cpg/sg15_16_cif.got.tgz:30851.got - 2010.06.28 07:06:18.
