data_PCOD8129738
_publ_section_title
;
Structure prediction by ZEFSAII (Michael W. Deem and Ramdas Pophale) SiO2 
 PCOD8129738
Probable space group: C 2/C
;
_chemical_formula_sum "Si O2"
_cell_formula_units_Z 56
_cell_length_a 18.757610
_cell_length_b 26.973608
_cell_length_c 9.633208
_cell_angle_alpha 90.000000
_cell_angle_beta 46.695373
_cell_angle_gamma 90.000000
_cell_volume 3546.910445
_symmetry_space_group_name_H-M "C 2/C"
_symmetry_group_IT_number 15
_symmetry_cell_setting 'monoclinic'
loop_
_space_group_symop_operation_xyz
x,y,z
-x,y,1/2-z
-x,-y,-z
x,-y,1/2+z
1/2+x,1/2+y,z
1/2-x,1/2+y,1/2-z
1/2-x,1/2-y,-z
1/2+x,1/2-y,1/2+z
loop_
_atom_site_type_symbol
_atom_site_label
_atom_site_fract_x
_atom_site_fract_y
_atom_site_fract_z
Si Si1 0.377742 0.543052 0.286001
Si Si2 0.929244 0.849445 0.122775
Si Si3 0.222897 0.718699 0.246531
Si Si4 0.391873 0.546702 0.581023
Si Si5 0.394663 0.285580 0.907221
Si Si6 0.649017 0.646693 0.289145
Si Si7 0.892919 0.245084 0.839052
O O1 0.344343 0.540361 0.491696
O O2 0.344128 0.495113 0.243383
O O3 0.324816 0.592302 0.300305
O O4 0.493207 0.545103 0.105291
O O5 0.873278 0.902334 0.191886
O O6 0.883705 0.811535 0.294647
O O7 0.916313 0.829846 0.984857
O O8 0.044436 0.854849 0.007867
O O9 0.184227 0.745852 0.435737
O O10 0.262333 0.663519 0.228061
O O11 0.136779 0.717279 0.245658
O O12 0.315449 0.750817 0.066656
O O13 0.500000 0.258050 0.750000
O O14 0.354476 0.310714 0.822539
O O15 0.000000 0.259472 0.750000
#
# Coordination Sequence:
#
# PCOD8129738 Si02
#       7
#     8   8   8   8   8   8   8
#     4   9  17  26  42  60  91 121 160 198 226 275
#     4   9  16  28  46  60  88 126 160 188 227 282
#     4  10  20  29  46  67  87 125 167 199 233 286
#     4   9  16  28  39  63  87 125 161 191 230 271
#     4   9  17  29  46  64  88 123 163 195 234 271
#     4  10  16  28  44  64  87 120 162 196 227 271
#     4  10  19  33  44  64  95 125 160 198 244 283
#
# _framework density 15.788389
#
# number of rings (size 3 to 8) (size 9 to 14) (size 15 to 20)
#    0.000    2.571    2.857    0.429    0.000    1.143 
#    2.571    0.000    0.000    0.000    0.000    0.000 
#    0.000    0.000    0.000   46.286    0.000    2.571 
#
# Total GULP energy -346924.486275 kJ/mol
# GULP energy per Si atom -12390.160224 kJ/mol
# Density = 1.575245 g / cm^3
# Si number density = 15.788389 Si / 1000 Ang^3
#
#
#
# Elastic Constant Matrix: (Units=GPa)
#
#
# Indices 1 2 3 4 5 6 
#
# 1 86.3810 48.9725 23.2771 0.0000 4.2528 0.0000
# 2 48.9725 94.6025 30.1221 0.0000 6.7212 0.0000
# 3 23.2771 30.1221 59.3301 0.0000 1.3949 0.0000
# 4 0.0000 0.0000 0.0000 14.0200 0.0000 2.6569
# 5 4.2528 6.7212 1.3949 0.0000 14.9236 0.0000
# 6 0.0000 0.0000 0.0000 2.6569 0.0000 23.4052
#
#
#
# Elastic Compliance Matrix: (Units=1/GPa)
#
#
# Indices 1 2 3 4 5 6 
#
# 1 0.016726 -0.007758 -0.002599 0.000000 -0.001030 0.000000
# 2 -0.007758 0.016605 -0.005275 0.000000 -0.004775 0.000000
# 3 -0.002599 -0.005275 0.020524 0.000000 0.001198 0.000000
# 4 0.000000 0.000000 0.000000 0.072895 0.000000 -0.008275
# 5 -0.001030 -0.004775 0.001198 0.000000 0.069340 0.000000
# 6 0.000000 0.000000 0.000000 -0.008275 0.000000 0.043665
#
#
# Mechanical properties :
#
#
# Convention : Reuss Voigt Hill
#
# Bulk Modulus (GPa) = 44.26297 49.45079 46.85688
# Shear Modulus (GPa) = 17.95017 19.66588 18.80802
#
# Velocity S-wave (km/s) = 3.37549 3.53312 3.45520
# Velocity P-wave (km/s) = 6.57935 6.93058 6.75725
#
# Compressibility (1/GPa) = 0.02259225
#
# Stress axis : x y z
#
# Youngs Moduli (GPa) = 59.78790 60.22240 48.72238
#
# Poissons Ratio (x) = 0.46718 0.12664
# Poissons Ratio (y) = 0.46381 0.25699
# Poissons Ratio (z) = 0.15541 0.31765
#
# Static dielectric constant tensor:
#      x y z
#    x 2.958670 0.000000 0.216680 
#    y 0.000000 2.954480 0.000000 
#    z 0.216680 0.000000 2.926000 
# 
# 
# High freq. dielectric constant tensor:
#      x y z
#    x 1.587280 0.000000 0.034700 
#    y 0.000000 1.584440 0.000000 
#    z 0.034700 0.000000 1.589510 
# 
# From -- ./inp_files/43222.got.cif
#   From: 2010.06.25/outbox.cif.g09.slc.cpg/sg15_22_cif.got.tgz:43222.got - 2010.06.28 07:06:18.
