data_PCOD8129759
_publ_section_title
;
Structure prediction by ZEFSAII (Michael W. Deem and Ramdas Pophale) SiO2 
 PCOD8129759
Probable space group: C 2/C
;
_chemical_formula_sum "Si O2"
_cell_formula_units_Z 64
_cell_length_a 10.020129
_cell_length_b 21.165476
_cell_length_c 23.557843
_cell_angle_alpha 90.000000
_cell_angle_beta 133.995932
_cell_angle_gamma 90.000000
_cell_volume 3594.187593
_symmetry_space_group_name_H-M "C 2/C"
_symmetry_group_IT_number 15
_symmetry_cell_setting 'monoclinic'
loop_
_space_group_symop_operation_xyz
x,y,z
-x,y,1/2-z
-x,-y,-z
x,-y,1/2+z
1/2+x,1/2+y,z
1/2-x,1/2+y,1/2-z
1/2-x,1/2-y,-z
1/2+x,1/2-y,1/2+z
loop_
_atom_site_type_symbol
_atom_site_label
_atom_site_fract_x
_atom_site_fract_y
_atom_site_fract_z
Si Si1 0.267389 0.882392 0.026656
Si Si2 0.982676 0.008331 0.062564
Si Si3 0.656907 0.077161 0.339417
Si Si4 0.914556 0.130284 0.587777
Si Si5 0.092068 0.181438 0.034693
Si Si6 0.836208 0.883581 0.239613
Si Si7 0.502006 0.047334 0.683234
Si Si8 0.618277 0.823312 0.079893
O O1 0.363590 0.901755 0.114387
O O2 0.406637 0.846841 0.024779
O O3 0.188063 0.945279 0.972819
O O4 0.097435 0.836601 0.990262
O O5 0.174293 0.039700 0.142339
O O6 0.945842 0.941940 0.080211
O O7 0.000000 0.000000 0.000000
O O8 0.500000 0.102878 0.250000
O O9 0.737047 0.135409 0.398665
O O10 0.559245 0.024257 0.350788
O O11 0.929750 0.177709 0.539462
O O12 0.714522 0.135090 0.559145
O O13 0.076927 0.150607 0.679489
O O14 0.138144 0.251384 0.067301
O O15 0.706181 0.941907 0.218559
O O16 0.724397 0.830722 0.171207
O O17 0.000000 0.913671 0.250000
O O18 0.500000 0.057909 0.750000
#
# Coordination Sequence:
#
# PCOD8129759 Si02
#       8
#     8   8   8   8   8   8   8   8
#     4  10  19  34  53  78 108 140 176 227 270 317
#     4  11  18  34  56  85 110 130 178 232 274 318
#     4  10  19  30  52  83 106 136 176 228 269 309
#     4  11  19  35  57  78 106 142 178 225 271 319
#     4  11  20  36  55  75 106 146 188 223 258 315
#     4   9  20  34  50  76 113 141 172 218 276 326
#     4  10  16  28  52  81 103 131 181 223 267 320
#     4  10  23  35  51  80 111 148 182 215 268 321
#
# _framework density 17.806528
#
# number of rings (size 3 to 8) (size 9 to 14) (size 15 to 20)
#    0.000    1.750    3.750    3.000    0.000    2.000 
#    0.000    1.250    0.000    0.000    0.000    3.500 
#    0.000    1.000    0.000    0.000    0.000    0.000 
#
# Total GULP energy -396651.446250 kJ/mol
# GULP energy per Si atom -12395.357695 kJ/mol
# Density = 1.776600 g / cm^3
# Si number density = 17.806528 Si / 1000 Ang^3
#
#
#
# Elastic Constant Matrix: (Units=GPa)
#
#
# Indices 1 2 3 4 5 6 
#
# 1 108.1761 56.0634 60.3514 0.0001 9.1436 0.0001
# 2 56.0634 108.7607 48.6274 0.0000 -1.7441 0.0000
# 3 60.3514 48.6274 94.2655 0.0001 9.0806 0.0001
# 4 0.0001 0.0000 0.0001 18.3501 0.0001 3.3961
# 5 9.1436 -1.7441 9.0806 0.0001 28.0224 0.0001
# 6 0.0001 0.0000 0.0001 3.3961 0.0001 20.4625
#
#
#
# Elastic Compliance Matrix: (Units=1/GPa)
#
#
# Indices 1 2 3 4 5 6 
#
# 1 0.016373 -0.005126 -0.007528 0.000000 -0.003222 0.000000
# 2 -0.005126 0.013777 -0.004200 0.000000 0.003891 0.000000
# 3 -0.007528 -0.004200 0.017943 0.000000 -0.003620 0.000000
# 4 0.000000 0.000000 0.000000 0.056223 0.000000 -0.009331
# 5 -0.003222 0.003891 -0.003620 0.000000 0.038152 0.000000
# 6 0.000000 0.000000 0.000000 -0.009331 0.000000 0.050419
#
#
# Mechanical properties :
#
#
# Convention : Reuss Voigt Hill
#
# Bulk Modulus (GPa) = 69.51379 71.25407 70.38393
# Shear Modulus (GPa) = 21.60867 23.11100 22.35983
#
# Velocity S-wave (km/s) = 3.48735 3.60654 3.54744
# Velocity P-wave (km/s) = 7.43899 7.57927 7.50946
#
# Compressibility (1/GPa) = 0.01438563
#
# Stress axis : x y z
#
# Youngs Moduli (GPa) = 61.07729 72.58503 55.73158
#
# Poissons Ratio (x) = 0.37205 0.41953
# Poissons Ratio (y) = 0.31306 0.23408
# Poissons Ratio (z) = 0.45978 0.30487
#
# Static dielectric constant tensor:
#      x y z
#    x 3.439350 0.000000 0.165430 
#    y 0.000000 3.209170 0.000000 
#    z 0.165430 0.000000 3.600710 
# 
# 
# High freq. dielectric constant tensor:
#      x y z
#    x 1.682220 0.000000 0.017660 
#    y 0.000000 1.671030 0.000000 
#    z 0.017660 0.000000 1.699780 
# 
# From -- ./inp_files/266151.got.cif
#   From: 2010.06.25/outbox.cif.g09.slc.cpg/sg15_134_cif.got.tgz:266151.got - 2010.06.28 07:06:18.
