data_PCOD8129075
_publ_section_title
;
Structure prediction by ZEFSAII (Michael W. Deem and Ramdas Pophale) SiO2 
 PCOD8129075
Probable space group: P 21/C
;
_chemical_formula_sum "Si O2"
_cell_formula_units_Z 32
_cell_length_a 9.701239
_cell_length_b 11.735555
_cell_length_c 15.325444
_cell_angle_alpha 90.000000
_cell_angle_beta 63.778248
_cell_angle_gamma 90.000000
_cell_volume 1565.237529
_symmetry_space_group_name_H-M "P 21/C"
_symmetry_group_IT_number 14
_symmetry_cell_setting 'monoclinic'
loop_
_space_group_symop_operation_xyz
x,y,z
-x,1/2+y,1/2-z
-x,-y,-z
x,1/2-y,1/2+z
loop_
_atom_site_type_symbol
_atom_site_label
_atom_site_fract_x
_atom_site_fract_y
_atom_site_fract_z
Si Si1 0.410104 0.306555 0.731922
Si Si2 0.844873 0.460187 0.588078
Si Si3 0.821944 0.241772 0.862999
Si Si4 0.733308 0.232611 0.690628
Si Si5 0.209306 0.485643 0.883361
Si Si6 0.882799 0.008439 0.399691
Si Si7 0.594138 0.083380 0.032940
Si Si8 0.855771 0.869399 0.235019
O O1 0.553208 0.261038 0.748013
O O2 0.344297 0.408927 0.807965
O O3 0.468045 0.349029 0.622683
O O4 0.286579 0.211283 0.744642
O O5 0.833133 0.324388 0.607694
O O6 0.704071 0.493503 0.563880
O O7 0.828909 0.517873 0.686080
O O8 0.000000 0.500000 0.500000
O O9 0.801486 0.220072 0.766884
O O10 0.802078 0.374773 0.891674
O O11 0.694276 0.172032 0.950237
O O12 0.990482 0.194552 0.839567
O O13 0.747966 0.117538 0.632451
O O14 0.060416 0.461517 0.866069
O O15 0.187023 0.456716 0.991706
O O16 0.862899 0.909310 0.333426
O O17 0.500000 0.000000 0.000000
#
# Coordination Sequence:
#
# PCOD8129075 Si02
#       8
#     4   4   4   4   4   4   4   4
#     4  11  27  45  67 103 139 180 230 285 356 417
#     4  11  24  44  69 101 138 180 234 284 339 411
#     4  12  23  45  68 102 142 181 233 285 340 424
#     4  11  25  42  71 101 143 184 223 290 357 406
#     4  11  24  45  70 100 141 177 231 290 349 411
#     4  11  24  43  70 104 132 180 232 289 346 405
#     4  11  26  45  69 100 138 185 226 285 346 409
#     4  12  25  44  71 102 137 179 236 286 338 421
#
# _framework density 20.444181
#
# number of rings (size 3 to 8) (size 9 to 14) (size 15 to 20)
#    0.000    0.750    5.000    2.250    5.250    2.000 
#    0.000    1.875    0.000    0.000    0.000    0.000 
#    0.000    0.000    0.000    0.000    0.000    0.000 
#
# Total GULP energy -396906.222472 kJ/mol
# GULP energy per Si atom -12403.319452 kJ/mol
# Density = 2.039765 g / cm^3
# Si number density = 20.444181 Si / 1000 Ang^3
#
#
#
# Elastic Constant Matrix: (Units=GPa)
#
#
# Indices 1 2 3 4 5 6 
#
# 1 89.1650 39.4932 48.1060 0.0000 -6.4451 0.0000
# 2 39.4932 109.4432 49.0874 0.0000 -12.6259 0.0000
# 3 48.1060 49.0874 106.5862 0.0000 -8.5491 0.0000
# 4 0.0000 0.0000 0.0000 38.6232 0.0000 -4.7481
# 5 -6.4451 -12.6259 -8.5491 0.0000 41.8707 0.0000
# 6 0.0000 0.0000 0.0000 -4.7481 0.0000 40.1401
#
#
#
# Elastic Compliance Matrix: (Units=1/GPa)
#
#
# Indices 1 2 3 4 5 6 
#
# 1 0.015632 -0.003088 -0.005606 0.000000 0.000330 0.000000
# 2 -0.003088 0.012374 -0.004111 0.000000 0.002417 0.000000
# 3 -0.005606 -0.004111 0.013864 0.000000 0.000728 0.000000
# 4 0.000000 0.000000 0.000000 0.026273 0.000000 0.003108
# 5 0.000330 0.002417 0.000728 0.000000 0.024811 0.000000
# 6 0.000000 0.000000 0.000000 0.003108 0.000000 0.025280
#
#
# Mechanical properties :
#
#
# Convention : Reuss Voigt Hill
#
# Bulk Modulus (GPa) = 61.50586 64.28528 62.89557
# Shear Modulus (GPa) = 33.49724 35.36064 34.42894
#
# Velocity S-wave (km/s) = 4.05220 4.16338 4.10816
# Velocity P-wave (km/s) = 7.21414 7.39082 7.30301
#
# Compressibility (1/GPa) = 0.01625861
#
# Stress axis : x y z
#
# Youngs Moduli (GPa) = 63.97322 80.81262 72.12794
#
# Poissons Ratio (x) = 0.24955 0.40438
# Poissons Ratio (y) = 0.19755 0.29654
# Poissons Ratio (z) = 0.35866 0.33225
#
# Static dielectric constant tensor:
#      x y z
#    x 3.828590 0.000000 0.071570 
#    y 0.000000 3.687570 0.000000 
#    z 0.071570 0.000000 3.829620 
# 
# 
# High freq. dielectric constant tensor:
#      x y z
#    x 1.808540 0.000000 0.004850 
#    y 0.000000 1.803620 0.000000 
#    z 0.004850 0.000000 1.812070 
# 
# From -- ./inp_files/40298.got.cif
#   From: 2010.03.12/outbox.cif.g09.slc.cpg/sg14_21_cif.got.tgz:40298.got - 2010.03.31 13:35:05.
