data_PCOD8129503
_publ_section_title
;
Structure prediction by ZEFSAII (Michael W. Deem and Ramdas Pophale) SiO2 
 PCOD8129503
Probable space group: P 21/C
;
_chemical_formula_sum "Si O2"
_cell_formula_units_Z 32
_cell_length_a 30.685704
_cell_length_b 10.022900
_cell_length_c 22.314874
_cell_angle_alpha 90.000000
_cell_angle_beta 163.794035
_cell_angle_gamma 90.000000
_cell_volume 1915.445870
_symmetry_space_group_name_H-M "P 21/C"
_symmetry_group_IT_number 14
_symmetry_cell_setting 'monoclinic'
loop_
_space_group_symop_operation_xyz
x,y,z
-x,1/2+y,1/2-z
-x,-y,-z
x,1/2-y,1/2+z
loop_
_atom_site_type_symbol
_atom_site_label
_atom_site_fract_x
_atom_site_fract_y
_atom_site_fract_z
Si Si1 0.221337 0.897556 0.528802
Si Si2 0.367390 0.595926 0.098803
Si Si3 0.037174 0.904074 0.103478
Si Si4 0.885071 0.602444 0.024402
Si Si5 0.114930 0.102443 0.975598
Si Si6 0.632610 0.404074 0.401197
Si Si7 0.962826 0.095926 0.396522
Si Si8 0.221337 0.602443 0.528801
O O1 0.339636 0.938859 0.632092
O O2 0.263189 0.750000 0.608211
O O3 0.048310 0.896265 0.274155
O O4 0.234292 1.000000 0.601438
O O5 0.500000 0.500000 0.250000
O O6 0.418543 0.750000 0.159397
O O7 0.212112 0.567857 0.856056
O O8 0.018292 0.750000 0.059020
O O9 0.915089 0.938858 0.995271
O O10 0.000000 0.000000 0.000000
O O11 0.809956 0.750000 0.928362
O O12 0.915089 0.561142 0.995271
O O13 0.048310 0.603735 0.274155
O O14 0.234292 1.000000 0.101438
O O15 0.787888 0.432143 0.643944
O O16 0.660363 0.438859 0.367908
O O17 0.000000 0.000000 0.500000
#
# Coordination Sequence:
#
# PCOD8129503 Si02
#       8
#     4   4   4   4   4   4   4   4
#     4   8  14  25  41  62  87 112 141 180 221 259
#     4   9  18  31  46  67  94 120 148 184 223 264
#     4   9  18  31  46  67  94 120 148 184 223 264
#     4   8  14  25  41  62  87 112 141 180 221 259
#     4   8  14  25  41  62  87 112 141 180 221 259
#     4   9  18  31  46  67  94 120 148 184 223 264
#     4   9  18  31  46  67  94 120 148 184 223 264
#     4   8  14  25  41  62  87 112 141 180 221 259
#
# _framework density 16.706292999999999
#
# number of rings (size 3 to 8) (size 9 to 14) (size 15 to 20)
#    0.000    3.500    0.000    3.000    0.000    3.000 
#    0.000    5.000    0.000    1.500    0.000    0.000 
#    0.000    0.000    0.000    0.000    0.000    0.000 
#
# Total GULP energy -396600.539255 kJ/mol
# GULP energy per Si atom -12393.766852 kJ/mol
# Density = 1.666827 g / cm^3
# Si number density = 16.706293 Si / 1000 Ang^3
#
#
#
# Elastic Constant Matrix: (Units=GPa)
#
#
# Indices 1 2 3 4 5 6 
#
# 1 158.7019 120.3602 41.7193 0.0000 4.4422 0.0000
# 2 120.3602 140.2601 44.3125 0.0000 4.8409 0.0000
# 3 41.7193 44.3125 30.5863 0.0000 3.7132 0.0000
# 4 0.0000 0.0000 0.0000 24.8881 0.0000 1.1718
# 5 4.4422 4.8409 3.7132 0.0000 23.6453 0.0000
# 6 0.0000 0.0000 0.0000 1.1718 0.0000 43.2965
#
#
#
# Elastic Compliance Matrix: (Units=1/GPa)
#
#
# Indices 1 2 3 4 5 6 
#
# 1 0.018317 -0.014428 -0.004100 0.000000 0.000157 0.000000
# 2 -0.014428 0.024515 -0.015858 0.000000 0.000182 0.000000
# 3 -0.004100 -0.015858 0.061955 0.000000 -0.005712 0.000000
# 4 0.000000 0.000000 0.000000 0.040231 0.000000 -0.001089
# 5 0.000157 0.000182 -0.005712 0.000000 0.043122 0.000000
# 6 0.000000 0.000000 0.000000 -0.001089 0.000000 0.023126
#
#
# Mechanical properties :
#
#
# Convention : Reuss Voigt Hill
#
# Bulk Modulus (GPa) = 27.76719 82.48138 55.12428
# Shear Modulus (GPa) = 17.12079 26.57642 21.84860
#
# Velocity S-wave (km/s) = 3.20474 3.99281 3.62028
# Velocity P-wave (km/s) = 5.50915 8.41043 7.10936
#
# Compressibility (1/GPa) = 0.03601373
#
# Stress axis : x y z
#
# Youngs Moduli (GPa) = 54.59395 40.79178 16.14087
#
# Poissons Ratio (x) = 0.58856 0.06617
# Poissons Ratio (y) = 0.78770 0.25596
# Poissons Ratio (z) = 0.22382 0.64688
#
# Static dielectric constant tensor:
#      x y z
#    x 3.335240 0.000000 0.046440 
#    y 0.000000 3.696540 0.000000 
#    z 0.046440 0.000000 2.605640 
# 
# 
# High freq. dielectric constant tensor:
#      x y z
#    x 1.652690 0.000000 0.004160 
#    y 0.000000 1.651900 0.000000 
#    z 0.004160 0.000000 1.587300 
# 
# From -- ./inp_files/35431.got.cif
#   From: 2010.03.12/outbox.cif.g09.slc.cpg/sg14_18_cif.got.tgz:35431.got - 2010.03.31 13:35:05.
