data_PCOD8129579
_publ_section_title
;
Structure prediction by ZEFSAII (Michael W. Deem and Ramdas Pophale) SiO2 
 PCOD8129579
Probable space group: C 2/C
;
_chemical_formula_sum "Si O2"
_cell_formula_units_Z 28
_cell_length_a 12.000000
_cell_length_b 15.000000
_cell_length_c 30.000000
_cell_angle_alpha 90.000000
_cell_angle_beta 30.000000
_cell_angle_gamma 90.000000
_cell_volume 2700.000000
_symmetry_space_group_name_H-M "C 2/C"
_symmetry_group_IT_number 15
_symmetry_cell_setting 'monoclinic'
loop_
_space_group_symop_operation_xyz
x,y,z
-x,y,1/2-z
-x,-y,-z
x,-y,1/2+z
1/2+x,1/2+y,z
1/2-x,1/2+y,1/2-z
1/2-x,1/2-y,-z
1/2+x,1/2-y,1/2+z
loop_
_atom_site_type_symbol
_atom_site_label
_atom_site_fract_x
_atom_site_fract_y
_atom_site_fract_z
Si Si1 0.001496 0.007424 0.095481
Si Si2 0.003534 0.518223 0.946273
Si Si3 0.716377 0.629050 0.403130
Si Si4 0.280691 0.146200 0.260758
Si Si5 0.241427 0.340788 0.832364
Si Si6 0.741904 0.796688 0.341814
Si Si7 0.446995 0.315360 0.448893
O O1 0.909764 0.053643 0.081919
O O2 0.879221 0.059507 0.178580
O O3 0.969554 0.898665 0.111376
O O4 0.261191 0.026600 0.009508
O O5 0.125469 0.433009 0.884118
O O6 0.116759 0.609950 0.891081
O O7 0.000000 0.500000 0.000000
O O8 0.669740 0.732921 0.407524
O O9 0.635666 0.623235 0.481627
O O10 0.979430 0.614149 0.304171
O O11 0.307934 0.179167 0.201574
O O12 0.183731 0.234036 0.319293
O O13 0.500000 0.351131 0.750000
O O14 0.148640 0.252875 0.890395
O O15 0.000000 0.822065 0.250000
O O16 0.250000 0.250000 0.500000
#
# Coordination Sequence:
#
# PCOD8129579 Si02
#       7
#     8   8   8   8   8   8   8
#     4  11  24  39  67  95 125 176 219 276 338 402
#     4  12  24  40  61  93 134 173 219 272 343 417
#     4  10  21  43  68  94 129 167 227 275 327 407
#     4  10  22  43  63  94 132 164 224 282 330 400
#     4  12  26  41  62  96 132 171 220 281 333 413
#     4   9  21  38  65  88 121 172 211 269 338 398
#     4  12  23  43  67  92 130 177 218 272 351 396
#
# _framework density 10.370369999999999
#
# number of rings (size 3 to 8) (size 9 to 14) (size 15 to 20)
#    0.000    1.143    2.857    3.857    0.000    5.714 
#    0.000    0.000    0.000    0.000    0.000    0.000 
#    0.000    0.000    0.000    0.000    0.000    0.000 
#
# Total GULP energy -346904.232336 kJ/mol
# GULP energy per Si atom -12389.436869 kJ/mol
# Density = 1.034677 g / cm^3
# Si number density = 10.370370 Si / 1000 Ang^3
#
#
#
# Elastic Constant Matrix: (Units=GPa)
#
#
# Indices 1 2 3 4 5 6 
#
# 1 87.5320 30.7336 37.7081 -0.0255 -12.2376 -0.0069
# 2 30.7336 206.5583 65.6173 -0.0028 -20.6976 -0.0005
# 3 37.7081 65.6173 105.3081 -0.0009 -18.4562 -0.0018
# 4 -0.0255 -0.0028 -0.0009 56.8803 -0.0073 -8.4729
# 5 -12.2376 -20.6976 -18.4562 -0.0073 39.2231 0.0020
# 6 -0.0069 -0.0005 -0.0018 -8.4729 0.0020 32.5189
#
#
#
# Elastic Compliance Matrix: (Units=1/GPa)
#
#
# Indices 1 2 3 4 5 6 
#
# 1 0.013709 -0.000487 -0.004252 0.000007 0.002020 0.000004
# 2 -0.000487 0.006140 -0.003390 0.000000 0.001493 0.000000
# 3 -0.004252 -0.003390 0.013716 -0.000002 0.003339 -0.000001
# 4 0.000007 0.000000 -0.000002 0.018291 0.000005 0.004766
# 5 0.002020 0.001493 0.003339 0.000005 0.028484 0.000000
# 6 0.000004 0.000000 -0.000001 0.004766 0.000000 0.031993
#
#
# Mechanical properties :
#
#
# Convention : Reuss Voigt Hill
#
# Bulk Modulus (GPa) = 57.77527 74.16849 65.97188
# Shear Modulus (GPa) = 37.21367 43.41376 40.31371
#
# Velocity S-wave (km/s) = 4.24043 4.58007 4.41352
# Velocity P-wave (km/s) = 7.20357 7.98792 7.60586
#
# Compressibility (1/GPa) = 0.01730844
#
# Stress axis : x y z
#
# Youngs Moduli (GPa) = 72.94340 162.86184 72.90904
#
# Poissons Ratio (x) = 0.07928 0.30998
# Poissons Ratio (y) = 0.03551 0.24716
# Poissons Ratio (z) = 0.31013 0.55209
#
# Static dielectric constant tensor:
#      x y z
#    x 3.994960 0.000140 0.016500 
#    y 0.000140 4.090860 0.000010 
#    z 0.016500 0.000010 3.894060 
# 
# 
# High freq. dielectric constant tensor:
#      x y z
#    x 1.802840 0.000000 0.000950 
#    y 0.000000 1.841510 0.000000 
#    z 0.000950 0.000000 1.821640 
# 
# From -- ./inp_files/311292.got.cif
#   From: 2010.06.25/outbox.ucp.g09.slc.cvg/sg15_156_cif.got.tgz:311292.got - 2010.06.28 14:40:10.
