data_PCOD8129322
_publ_section_title
;
Structure prediction by ZEFSAII (Michael W. Deem and Ramdas Pophale) SiO2 
 PCOD8129322
Probable space group: P 21/C
;
_chemical_formula_sum "Si O2"
_cell_formula_units_Z 16
_cell_length_a 7.455891
_cell_length_b 16.100337
_cell_length_c 5.001657
_cell_angle_alpha 90.000000
_cell_angle_beta 92.216011
_cell_angle_gamma 90.000000
_cell_volume 599.961682
_symmetry_space_group_name_H-M "P 21/C"
_symmetry_group_IT_number 14
_symmetry_cell_setting 'monoclinic'
loop_
_space_group_symop_operation_xyz
x,y,z
-x,1/2+y,1/2-z
-x,-y,-z
x,1/2-y,1/2+z
loop_
_atom_site_type_symbol
_atom_site_label
_atom_site_fract_x
_atom_site_fract_y
_atom_site_fract_z
Si Si1 0.115356 0.694947 0.614701
Si Si2 0.488076 0.693411 0.999977
Si Si3 0.208080 0.574002 0.210749
Si Si4 0.840176 0.890084 0.384740
O O1 0.160767 0.728250 0.918977
O O2 0.219341 0.613026 0.511887
O O3 0.906814 0.666495 0.635456
O O4 0.450068 0.730411 0.701312
O O5 0.690862 0.660806 0.038496
O O6 0.359970 0.613745 0.031146
O O7 0.241165 0.475741 0.234137
O O8 0.009326 0.593166 0.086333
#
# Coordination Sequence:
#
# PCOD8129322 Si02
#       4
#     4   4   4   4
#     4  12  23  42  71 104 142 186 238 292 351 430
#     4  12  29  48  73 110 146 194 246 300 359 436
#     4  11  26  49  76 109 149 193 241 303 369 434
#     4  11  26  49  76 109 149 193 241 303 369 434
#
# _framework density 26.668369999999999
#
# number of rings (size 3 to 8) (size 9 to 14) (size 15 to 20)
#    0.000    0.500    2.500    4.500    7.000    0.000 
#    0.000    2.500    0.000    0.000    0.000    0.000 
#    0.000    0.000    0.000    0.000    0.000    0.000 
#
# Total GULP energy -198277.493852 kJ/mol
# GULP energy per Si atom -12392.343366 kJ/mol
# Density = 2.660767 g / cm^3
# Si number density = 26.668370 Si / 1000 Ang^3
#
#
#
# Elastic Constant Matrix: (Units=GPa)
#
#
# Indices 1 2 3 4 5 6 
#
# 1 94.0677 30.5772 50.7886 0.0000 -18.8489 0.0000
# 2 30.5772 92.1658 45.8555 0.0000 -3.3640 0.0000
# 3 50.7886 45.8555 150.1755 0.0000 -12.1525 0.0000
# 4 0.0000 0.0000 0.0000 43.9039 0.0000 -10.2692
# 5 -18.8489 -3.3640 -12.1525 0.0000 48.6215 0.0000
# 6 0.0000 0.0000 0.0000 -10.2692 0.0000 43.1271
#
#
#
# Elastic Compliance Matrix: (Units=1/GPa)
#
#
# Indices 1 2 3 4 5 6 
#
# 1 0.014412 -0.002798 -0.003657 0.000000 0.004480 0.000000
# 2 -0.002798 0.013337 -0.003204 0.000000 -0.000963 0.000000
# 3 -0.003657 -0.003204 0.008922 0.000000 0.000590 0.000000
# 4 0.000000 0.000000 0.000000 0.024120 0.000000 0.005743
# 5 0.004480 -0.000963 0.000590 0.000000 0.022385 0.000000
# 6 0.000000 0.000000 0.000000 0.005743 0.000000 0.024555
#
#
# Mechanical properties :
#
#
# Convention : Reuss Voigt Hill
#
# Bulk Modulus (GPa) = 57.62917 65.65018 61.63968
# Shear Modulus (GPa) = 37.64065 41.07635 39.35850
#
# Velocity S-wave (km/s) = 3.76098 3.92888 3.84585
# Velocity P-wave (km/s) = 6.36525 6.72697 6.54861
#
# Compressibility (1/GPa) = 0.01735232
#
# Stress axis : x y z
#
# Youngs Moduli (GPa) = 69.38435 74.97720 112.08426
#
# Poissons Ratio (x) = 0.20982 0.40992
# Poissons Ratio (y) = 0.19417 0.35912
# Poissons Ratio (z) = 0.25376 0.24023
#
# Static dielectric constant tensor:
#      x y z
#    x 4.986830 0.000000 -0.590440 
#    y 0.000000 5.371520 0.000000 
#    z -0.590440 0.000000 5.113740 
# 
# 
# High freq. dielectric constant tensor:
#      x y z
#    x 2.070460 0.000000 -0.030010 
#    y 0.000000 2.086280 0.000000 
#    z -0.030010 0.000000 2.083590 
# 
# From -- ./inp_files/1025.got.cif
#   From: 2010.03.12/outbox.cif.g09.slc.cpg/sg14_1_cif.got.tgz:1025.got - 2010.03.31 13:35:05.
