data_PCOD8129414
_publ_section_title
;
Structure prediction by ZEFSAII (Michael W. Deem and Ramdas Pophale) SiO2 
 PCOD8129414
Probable space group: P 21/C
;
_chemical_formula_sum "Si O2"
_cell_formula_units_Z 24
_cell_length_a 12.878382
_cell_length_b 6.717148
_cell_length_c 12.911387
_cell_angle_alpha 90.000000
_cell_angle_beta 119.273610
_cell_angle_gamma 90.000000
_cell_volume 974.276654
_symmetry_space_group_name_H-M "P 21/C"
_symmetry_group_IT_number 14
_symmetry_cell_setting 'monoclinic'
loop_
_space_group_symop_operation_xyz
x,y,z
-x,1/2+y,1/2-z
-x,-y,-z
x,1/2-y,1/2+z
loop_
_atom_site_type_symbol
_atom_site_label
_atom_site_fract_x
_atom_site_fract_y
_atom_site_fract_z
Si Si1 0.867597 0.050367 0.284290
Si Si2 0.887330 0.152781 0.955873
Si Si3 0.293077 0.216454 0.380759
Si Si4 0.516965 0.890607 0.898541
Si Si5 0.365211 0.554362 0.741681
Si Si6 0.113916 0.611574 0.847540
O O1 0.898819 0.115760 0.417711
O O2 0.850557 0.280627 0.241191
O O3 0.753906 0.912120 0.204696
O O4 0.976008 0.941166 0.282109
O O5 0.771431 0.039286 0.859418
O O6 0.861248 0.207456 0.061538
O O7 0.000000 0.000000 0.000000
O O8 0.368777 0.254983 0.521396
O O9 0.378464 0.111128 0.337910
O O10 0.189640 0.088460 0.384034
O O11 0.399755 0.765202 0.810581
O O12 0.547656 0.026978 0.814285
O O13 0.500000 0.000000 0.000000
#
# Coordination Sequence:
#
# PCOD8129414 Si02
#       6
#     4   4   4   4   4   4
#     4  12  24  48  70 114 156 200 251 313 376 467
#     4  12  27  45  77 116 157 201 254 319 395 462
#     4  12  27  47  79 109 151 209 255 317 391 457
#     4  12  29  51  80 111 151 205 263 323 395 455
#     4  12  28  50  78 113 157 199 269 321 387 469
#     4  12  25  43  74 106 157 198 251 306 385 460
#
# _framework density 24.633661
#
# number of rings (size 3 to 8) (size 9 to 14) (size 15 to 20)
#    0.000    0.000    3.333    6.000    9.333    0.000 
#    0.000    0.000    0.000    0.000    0.000    0.000 
#    0.000    0.000    0.000    0.000    0.000    0.000 
#
# Total GULP energy -297341.797776 kJ/mol
# GULP energy per Si atom -12389.241574 kJ/mol
# Density = 2.457759 g / cm^3
# Si number density = 24.633661 Si / 1000 Ang^3
#
#
#
# Elastic Constant Matrix: (Units=GPa)
#
#
# Indices 1 2 3 4 5 6 
#
# 1 67.5290 19.9852 14.1137 0.0000 -2.4585 0.0000
# 2 19.9852 93.3569 20.1529 0.0000 3.3922 0.0000
# 3 14.1137 20.1529 77.3353 0.0000 11.3660 0.0000
# 4 0.0000 0.0000 0.0000 52.4357 0.0000 -0.4498
# 5 -2.4585 3.3922 11.3660 0.0000 42.3712 0.0000
# 6 0.0000 0.0000 0.0000 -0.4498 0.0000 60.6344
#
#
#
# Elastic Compliance Matrix: (Units=1/GPa)
#
#
# Indices 1 2 3 4 5 6 
#
# 1 0.016283 -0.003023 -0.002455 0.000000 0.001845 0.000000
# 2 -0.003023 0.011912 -0.002484 0.000000 -0.000463 0.000000
# 3 -0.002455 -0.002484 0.014593 0.000000 -0.003858 0.000000
# 4 0.000000 0.000000 0.000000 0.019072 0.000000 0.000141
# 5 0.001845 -0.000463 -0.003858 0.000000 0.024780 0.000000
# 6 0.000000 0.000000 0.000000 0.000141 0.000000 0.016493
#
#
# Mechanical properties :
#
#
# Convention : Reuss Voigt Hill
#
# Bulk Modulus (GPa) = 37.22540 38.52498 37.87519
# Shear Modulus (GPa) = 39.05839 43.35291 41.20565
#
# Velocity S-wave (km/s) = 3.98624 4.19967 4.09435
# Velocity P-wave (km/s) = 6.02754 6.26015 6.14494
#
# Compressibility (1/GPa) = 0.02686338
#
# Stress axis : x y z
#
# Youngs Moduli (GPa) = 61.41226 83.95020 68.52487
#
# Poissons Ratio (x) = 0.25377 0.16824
# Poissons Ratio (y) = 0.18564 0.17025
# Poissons Ratio (z) = 0.15078 0.20857
#
# Static dielectric constant tensor:
#      x y z
#    x 4.322110 0.000000 -0.012940 
#    y 0.000000 4.442630 0.000000 
#    z -0.012940 0.000000 5.037180 
# 
# 
# High freq. dielectric constant tensor:
#      x y z
#    x 1.988360 0.000000 -0.008030 
#    y 0.000000 1.986650 0.000000 
#    z -0.008030 0.000000 1.996330 
# 
# From -- ./inp_files/45988.got.cif
#   From: 2010.03.12/outbox.cif.g09.slc.cpg/sg14_23_cif.got.tgz:45988.got - 2010.03.31 13:35:05.
