data_PCOD8129815
_publ_section_title
;
Structure prediction by ZEFSAII (Michael W. Deem and Ramdas Pophale) SiO2 
 PCOD8129815
Probable space group: C 2/C
;
_chemical_formula_sum "Si O2"
_cell_formula_units_Z 60
_cell_length_a 15.171045
_cell_length_b 16.180235
_cell_length_c 15.391805
_cell_angle_alpha 90.000000
_cell_angle_beta 123.235638
_cell_angle_gamma 90.000000
_cell_volume 3160.211398
_symmetry_space_group_name_H-M "C 2/C"
_symmetry_group_IT_number 15
_symmetry_cell_setting 'monoclinic'
loop_
_space_group_symop_operation_xyz
x,y,z
-x,y,1/2-z
-x,-y,-z
x,-y,1/2+z
1/2+x,1/2+y,z
1/2-x,1/2+y,1/2-z
1/2-x,1/2-y,-z
1/2+x,1/2-y,1/2+z
loop_
_atom_site_type_symbol
_atom_site_label
_atom_site_fract_x
_atom_site_fract_y
_atom_site_fract_z
Si Si1 0.375275 0.985853 0.444642
Si Si2 0.883913 0.724328 0.658713
Si Si3 0.679100 0.132951 0.439427
Si Si4 0.812116 0.335074 0.939725
Si Si5 0.207596 0.345170 0.225250
Si Si6 0.143072 0.781920 0.551691
Si Si7 0.423303 0.712041 0.876099
Si Si8 0.500000 0.202217 0.250000
O O1 0.341393 0.951598 0.520793
O O2 0.336281 0.924493 0.348362
O O3 0.500000 0.000000 0.500000
O O4 0.312138 0.071107 0.407046
O O5 0.882089 0.677955 0.564657
O O6 0.807841 0.804476 0.611041
O O7 0.844332 0.657792 0.707932
O O8 0.000000 0.754272 0.750000
O O9 0.791407 0.140116 0.450992
O O10 0.658694 0.206594 0.494859
O O11 0.596054 0.140520 0.317280
O O12 0.864849 0.287584 0.889234
O O13 0.182522 0.256379 0.164722
O O14 0.334345 0.356998 0.307368
O O15 0.021613 0.814299 0.491405
O O16 0.475855 0.736891 0.814991
#
# Coordination Sequence:
#
# PCOD8129815 Si02
#       8
#     8   8   8   8   8   8   8   4
#     4  11  21  37  53  80 122 147 173 236 298 329
#     4  10  20  39  63  79 101 152 204 230 264 332
#     4   9  18  29  49  75 113 149 175 216 276 339
#     4  10  22  39  55  83 114 144 190 237 277 324
#     4  10  20  35  59  87 111 146 189 231 289 342
#     4   9  16  31  49  79 113 142 179 224 271 331
#     4  10  19  32  57  80 112 146 184 231 274 337
#     4  10  16  30  50  82 110 142 188 212 278 340
#
# _framework density 18.986072
#
# number of rings (size 3 to 8) (size 9 to 14) (size 15 to 20)
#    0.000    2.133    1.333    4.000    1.867    0.000 
#    6.000    1.333    0.000    0.000    0.000    8.400 
#    0.000    0.000    0.000    0.000    0.000    0.000 
#
# Total GULP energy -371732.697531 kJ/mol
# GULP energy per Si atom -12391.089918 kJ/mol
# Density = 1.894286 g / cm^3
# Si number density = 18.986072 Si / 1000 Ang^3
#
#
#
# Elastic Constant Matrix: (Units=GPa)
#
#
# Indices 1 2 3 4 5 6 
#
# 1 91.3140 31.4881 29.2145 0.0000 20.9552 0.0000
# 2 31.4881 78.6746 18.4659 0.0000 6.3317 0.0000
# 3 29.2145 18.4659 80.3065 0.0000 15.6807 0.0000
# 4 0.0000 0.0000 0.0000 25.7784 0.0000 -0.8217
# 5 20.9552 6.3317 15.6807 0.0000 46.6455 0.0000
# 6 0.0000 0.0000 0.0000 -0.8217 0.0000 21.4773
#
#
#
# Elastic Compliance Matrix: (Units=1/GPa)
#
#
# Indices 1 2 3 4 5 6 
#
# 1 0.014769 -0.004737 -0.003332 0.000000 -0.004872 0.000000
# 2 -0.004737 0.014986 -0.001863 0.000000 0.000720 0.000000
# 3 -0.003332 -0.001863 0.014717 0.000000 -0.003198 0.000000
# 4 0.000000 0.000000 0.000000 0.038840 0.000000 0.001486
# 5 -0.004872 0.000720 -0.003198 0.000000 0.024604 0.000000
# 6 0.000000 0.000000 0.000000 0.001486 0.000000 0.046618
#
#
# Mechanical properties :
#
#
# Convention : Reuss Voigt Hill
#
# Bulk Modulus (GPa) = 40.63856 45.40357 43.02106
# Shear Modulus (GPa) = 27.38227 30.18867 28.78547
#
# Velocity S-wave (km/s) = 3.80179 3.99186 3.89798
# Velocity P-wave (km/s) = 6.38141 6.72404 6.55496
#
# Compressibility (1/GPa) = 0.02460717
#
# Stress axis : x y z
#
# Youngs Moduli (GPa) = 67.71105 66.73006 67.94704
#
# Poissons Ratio (x) = 0.31608 0.22642
# Poissons Ratio (y) = 0.32073 0.12661
# Poissons Ratio (z) = 0.22563 0.12434
#
# Static dielectric constant tensor:
#      x y z
#    x 3.751170 0.000000 0.184150 
#    y 0.000000 3.089070 0.000000 
#    z 0.184150 0.000000 4.035420 
# 
# 
# High freq. dielectric constant tensor:
#      x y z
#    x 1.749590 0.000000 0.001260 
#    y 0.000000 1.682820 0.000000 
#    z 0.001260 0.000000 1.756340 
# 
# From -- ./inp_files/154289.got.cif
#   From: 2010.06.25/outbox.cif.g09.slc.cpg/sg15_78_cif.got.tgz:154289.got - 2010.06.28 07:06:18.
