data_PCOD8129444
_publ_section_title
;
Structure prediction by ZEFSAII (Michael W. Deem and Ramdas Pophale) SiO2 
 PCOD8129444
Probable space group: P 21/C
;
_chemical_formula_sum "Si O2"
_cell_formula_units_Z 20
_cell_length_a 14.492929
_cell_length_b 4.985825
_cell_length_c 22.345208
_cell_angle_alpha 90.000000
_cell_angle_beta 150.754466
_cell_angle_gamma 90.000000
_cell_volume 788.841024
_symmetry_space_group_name_H-M "P 21/C"
_symmetry_group_IT_number 14
_symmetry_cell_setting 'monoclinic'
loop_
_space_group_symop_operation_xyz
x,y,z
-x,1/2+y,1/2-z
-x,-y,-z
x,1/2-y,1/2+z
loop_
_atom_site_type_symbol
_atom_site_label
_atom_site_fract_x
_atom_site_fract_y
_atom_site_fract_z
Si Si1 0.936506 0.867294 0.180679
Si Si2 0.713099 0.988519 0.394460
Si Si3 0.954608 0.488739 0.558667
Si Si4 0.347126 0.668731 0.748596
Si Si5 0.476987 0.250910 0.529178
O O1 0.014475 0.946223 0.160203
O O2 0.727923 0.747284 0.056321
O O3 0.069985 0.633288 0.281967
O O4 0.871878 0.189328 0.510108
O O5 0.664493 0.063794 0.298516
O O6 0.793091 0.688457 0.442937
O O7 0.519980 0.017386 0.323675
O O8 0.146689 0.511951 0.628310
O O9 0.373546 0.756329 0.832250
O O10 0.500000 0.500000 0.500000
O O11 0.500000 0.000000 0.500000
#
# Coordination Sequence:
#
# PCOD8129444 Si02
#       5
#     4   4   4   4   4
#     4  12  25  48  73 109 152 199 253 314 376 457
#     4  12  28  49  78 117 154 201 259 316 380 467
#     4  12  27  50  77 114 156 202 257 314 387 463
#     4  12  28  51  81 114 158 205 257 323 390 452
#     4  12  28  48  77 111 150 201 259 315 382 457
#
# _framework density 25.353648
#
# number of rings (size 3 to 8) (size 9 to 14) (size 15 to 20)
#    0.000    0.000    2.000    7.200    2.800    6.400 
#    0.000    0.000    0.000    0.000    0.000    0.000 
#    0.000    0.000    0.000    0.000    0.000    0.000 
#
# Total GULP energy -248161.333814 kJ/mol
# GULP energy per Si atom -12408.066691 kJ/mol
# Density = 2.529594 g / cm^3
# Si number density = 25.353648 Si / 1000 Ang^3
#
#
#
# Elastic Constant Matrix: (Units=GPa)
#
#
# Indices 1 2 3 4 5 6 
#
# 1 116.1569 12.2755 42.9119 0.0000 10.2912 0.0000
# 2 12.2755 90.8163 17.4317 0.0000 -12.3614 0.0000
# 3 42.9119 17.4317 121.0963 0.0000 -6.0404 0.0000
# 4 0.0000 0.0000 0.0000 30.6350 0.0000 3.4005
# 5 10.2912 -12.3614 -6.0404 0.0000 70.0049 0.0000
# 6 0.0000 0.0000 0.0000 3.4005 0.0000 41.3758
#
#
#
# Elastic Compliance Matrix: (Units=1/GPa)
#
#
# Indices 1 2 3 4 5 6 
#
# 1 0.010208 -0.000963 -0.003577 0.000000 -0.001979 0.000000
# 2 -0.000963 0.011663 -0.001233 0.000000 0.002095 0.000000
# 3 -0.003577 -0.001233 0.009760 0.000000 0.001150 0.000000
# 4 0.000000 0.000000 0.000000 0.032943 0.000000 -0.002707
# 5 -0.001979 0.002095 0.001150 0.000000 0.015045 0.000000
# 6 0.000000 0.000000 0.000000 -0.002707 0.000000 0.024391
#
#
# Mechanical properties :
#
#
# Convention : Reuss Voigt Hill
#
# Bulk Modulus (GPa) = 49.78870 52.58977 51.18924
# Shear Modulus (GPa) = 40.89919 45.43317 43.16618
#
# Velocity S-wave (km/s) = 4.02076 4.23777 4.13069
# Velocity P-wave (km/s) = 6.42150 6.68823 6.55622
#
# Compressibility (1/GPa) = 0.02008488
#
# Stress axis : x y z
#
# Youngs Moduli (GPa) = 97.96508 85.73996 102.45377
#
# Poissons Ratio (x) = 0.08253 0.36652
# Poissons Ratio (y) = 0.09429 0.12636
# Poissons Ratio (z) = 0.35046 0.10575
#
# Static dielectric constant tensor:
#      x y z
#    x 4.755130 0.000000 0.080520 
#    y 0.000000 4.207640 0.000000 
#    z 0.080520 0.000000 4.803490 
# 
# 
# High freq. dielectric constant tensor:
#      x y z
#    x 2.031720 0.000000 -0.001200 
#    y 0.000000 2.007090 0.000000 
#    z -0.001200 0.000000 2.030520 
# 
# From -- ./inp_files/67921.got.cif
#   From: 2010.03.12/outbox.cif.g09.slc.cpg/sg14_34_cif.got.tgz:67921.got - 2010.03.31 13:35:05.
