data_PCOD8129048
_publ_section_title
;
Structure prediction by ZEFSAII (Michael W. Deem and Ramdas Pophale) SiO2 
 PCOD8129048
Probable space group: P 21/C
;
_chemical_formula_sum "Si O2"
_cell_formula_units_Z 16
_cell_length_a 10.256490
_cell_length_b 4.900303
_cell_length_c 23.336485
_cell_angle_alpha 90.000000
_cell_angle_beta 145.518539
_cell_angle_gamma 90.000000
_cell_volume 664.019191
_symmetry_space_group_name_H-M "P 21/C"
_symmetry_group_IT_number 14
_symmetry_cell_setting 'monoclinic'
loop_
_space_group_symop_operation_xyz
x,y,z
-x,1/2+y,1/2-z
-x,-y,-z
x,1/2-y,1/2+z
loop_
_atom_site_type_symbol
_atom_site_label
_atom_site_fract_x
_atom_site_fract_y
_atom_site_fract_z
Si Si1 0.437601 0.369063 0.763175
Si Si2 0.574665 0.529033 0.934860
Si Si3 0.027338 0.705730 0.853020
Si Si4 0.713863 0.532525 0.642074
O O1 0.471408 0.575151 0.723211
O O2 0.586811 0.454588 0.872322
O O3 0.168612 0.356940 0.681540
O O4 0.495363 0.839749 0.913440
O O5 0.386739 0.338448 0.899790
O O6 0.827319 0.489735 0.052789
O O7 0.189283 0.939292 0.884057
O O8 0.916056 0.517684 0.762826
#
# Coordination Sequence:
#
# PCOD8129048 Si02
#       4
#     4   4   4   4
#     4  11  25  43  62  93 132 172 224 264 303 379
#     4  11  25  43  69  98 128 169 215 264 325 390
#     4  11  24  44  70  94 134 173 205 269 331 371
#     4  11  24  42  67 104 130 158 215 267 325 395
#
# _framework density 24.095690999999999
#
# number of rings (size 3 to 8) (size 9 to 14) (size 15 to 20)
#    0.000    1.000    0.000    7.500    0.000   12.000 
#    0.000    0.000    0.000    0.000    0.000    0.000 
#    0.000    0.000    0.000    0.000    0.000    0.000 
#
# Total GULP energy -198551.430292 kJ/mol
# GULP energy per Si atom -12409.464393 kJ/mol
# Density = 2.404085 g / cm^3
# Si number density = 24.095691 Si / 1000 Ang^3
#
#
#
# Elastic Constant Matrix: (Units=GPa)
#
#
# Indices 1 2 3 4 5 6 
#
# 1 101.9957 1.0882 1.8245 0.0000 -9.2946 0.0000
# 2 1.0882 64.1096 -5.0131 0.0000 -2.9037 0.0000
# 3 1.8245 -5.0131 121.8963 0.0000 -2.8367 0.0000
# 4 0.0000 0.0000 0.0000 33.2228 0.0000 -5.8992
# 5 -9.2946 -2.9037 -2.8367 0.0000 11.1893 0.0000
# 6 0.0000 0.0000 0.0000 -5.8992 0.0000 11.0982
#
#
#
# Elastic Compliance Matrix: (Units=1/GPa)
#
#
# Indices 1 2 3 4 5 6 
#
# 1 0.010611 0.000227 0.000057 0.000000 0.008888 0.000000
# 2 0.000227 0.015857 0.000753 0.000000 0.004495 0.000000
# 3 0.000057 0.000753 0.008288 0.000000 0.002344 0.000000
# 4 0.000000 0.000000 0.000000 0.033237 0.000000 0.017667
# 5 0.008888 0.004495 0.002344 0.000000 0.098515 0.000000
# 6 0.000000 0.000000 0.000000 0.017667 0.000000 0.099496
#
#
# Mechanical properties :
#
#
# Convention : Reuss Voigt Hill
#
# Bulk Modulus (GPa) = 27.15083 31.53340 29.34212
# Shear Modulus (GPa) = 18.10249 30.44219 24.27234
#
# Velocity S-wave (km/s) = 2.74391 3.55827 3.17729
# Velocity P-wave (km/s) = 4.61856 5.47694 5.06597
#
# Compressibility (1/GPa) = 0.03683128
#
# Stress axis : x y z
#
# Youngs Moduli (GPa) = 94.24375 63.06394 120.65087
#
# Poissons Ratio (x) = -0.01431 -0.00692
# Poissons Ratio (y) = -0.02139 -0.09089
# Poissons Ratio (z) = -0.00540 -0.04751
#
# Static dielectric constant tensor:
#      x y z
#    x 4.258130 0.000000 -0.087090 
#    y 0.000000 4.196210 0.000000 
#    z -0.087090 0.000000 4.462600 
# 
# 
# High freq. dielectric constant tensor:
#      x y z
#    x 1.948200 0.000000 -0.005080 
#    y 0.000000 1.961950 0.000000 
#    z -0.005080 0.000000 1.965570 
# 
# From -- ./inp_files/27282.got.cif
#   From: 2010.03.12/outbox.cif.g09.slc.cpg/sg14_14_cif.got.tgz:27282.got - 2010.03.31 13:35:05.
