data_PCOD8129288
_publ_section_title
;
Structure prediction by ZEFSAII (Michael W. Deem and Ramdas Pophale) SiO2 
 PCOD8129288
Probable space group: P 21/C
;
_chemical_formula_sum "Si O2"
_cell_formula_units_Z 16
_cell_length_a 11.175636
_cell_length_b 8.764669
_cell_length_c 12.755594
_cell_angle_alpha 90.000000
_cell_angle_beta 157.901435
_cell_angle_gamma 90.000000
_cell_volume 470.033127
_symmetry_space_group_name_H-M "P 21/C"
_symmetry_group_IT_number 14
_symmetry_cell_setting 'monoclinic'
loop_
_space_group_symop_operation_xyz
x,y,z
-x,1/2+y,1/2-z
-x,-y,-z
x,1/2-y,1/2+z
loop_
_atom_site_type_symbol
_atom_site_label
_atom_site_fract_x
_atom_site_fract_y
_atom_site_fract_z
Si Si1 0.497216 0.134035 0.072073
Si Si2 0.014518 0.337537 0.557912
Si Si3 0.445691 0.948194 0.647633
Si Si4 0.865276 0.150357 0.157556
O O1 0.459892 0.129525 0.166615
O O2 0.847142 0.218531 0.340749
O O3 0.209250 0.237010 0.799706
O O4 0.396487 0.940790 0.976057
O O5 0.249320 0.462127 0.691122
O O6 0.782540 0.404719 0.467092
O O7 0.221950 0.827280 0.402393
O O8 0.223316 0.099513 0.476446
#
# Coordination Sequence:
#
# PCOD8129288 Si02
#       4
#     4   4   4   4
#     4  11  28  50  81 123 170 222 284 349 432 515
#     4  11  25  52  86 120 169 225 285 358 429 512
#     4  11  27  51  84 123 169 224 288 350 434 510
#     4  11  27  47  84 122 168 224 285 349 428 508
#
# _framework density 34.040154999999999
#
# number of rings (size 3 to 8) (size 9 to 14) (size 15 to 20)
#    0.000    1.000    2.500    0.750    7.000    8.000 
#    0.000    0.000    0.000    0.000    0.000    0.000 
#    0.000    0.000    0.000    0.000    0.000    0.000 
#
# Total GULP energy -198390.094684 kJ/mol
# GULP energy per Si atom -12399.380918 kJ/mol
# Density = 3.396268 g / cm^3
# Si number density = 34.040155 Si / 1000 Ang^3
#
#
#
# Elastic Constant Matrix: (Units=GPa)
#
#
# Indices 1 2 3 4 5 6 
#
# 1 198.8665 88.0227 100.9261 0.0000 38.1304 0.0000
# 2 88.0227 179.0813 108.6483 0.0000 14.9516 0.0000
# 3 100.9261 108.6483 258.5265 0.0000 16.2760 0.0000
# 4 0.0000 0.0000 0.0000 93.9693 0.0000 -4.7410
# 5 38.1304 14.9516 16.2760 0.0000 80.9554 0.0000
# 6 0.0000 0.0000 0.0000 -4.7410 0.0000 72.4418
#
#
#
# Elastic Compliance Matrix: (Units=1/GPa)
#
#
# Indices 1 2 3 4 5 6 
#
# 1 0.007503 -0.002398 -0.001749 0.000000 -0.002739 0.000000
# 2 -0.002398 0.008308 -0.002562 0.000000 0.000110 0.000000
# 3 -0.001749 -0.002562 0.005617 0.000000 0.000168 0.000000
# 4 0.000000 0.000000 0.000000 0.010677 0.000000 0.000699
# 5 -0.002739 0.000110 0.000168 0.000000 0.013589 0.000000
# 6 0.000000 0.000000 0.000000 0.000699 0.000000 0.013850
#
#
# Mechanical properties :
#
#
# Convention : Reuss Voigt Hill
#
# Bulk Modulus (GPa) = 124.84993 136.85205 130.85099
# Shear Modulus (GPa) = 66.11005 72.06510 69.08758
#
# Velocity S-wave (km/s) = 4.41173 4.60615 4.50999
# Velocity P-wave (km/s) = 7.91884 8.28125 8.10207
#
# Compressibility (1/GPa) = 0.00800962
#
# Stress axis : x y z
#
# Youngs Moduli (GPa) = 133.28631 120.36403 178.03007
#
# Poissons Ratio (x) = 0.28865 0.31132
# Poissons Ratio (y) = 0.31963 0.45617
# Poissons Ratio (z) = 0.23307 0.30841
#
# Static dielectric constant tensor:
#      x y z
#    x 8.566580 0.000000 0.056290 
#    y 0.000000 8.354560 0.000000 
#    z 0.056290 0.000000 6.979860 
# 
# 
# High freq. dielectric constant tensor:
#      x y z
#    x 2.538040 0.000000 -0.003570 
#    y 0.000000 2.493080 0.000000 
#    z -0.003570 0.000000 2.458690 
# 
# From -- ./inp_files/52834.got.cif
#   From: 2010.03.12/outbox.cif.g09.slc.cpg/sg14_27_cif.got.tgz:52834.got - 2010.03.31 13:35:05.
