data_PCOD8129007
_publ_section_title
;
Structure prediction by ZEFSAII (Michael W. Deem and Ramdas Pophale) SiO2 
 PCOD8129007
Probable space group: P 21/C
;
_chemical_formula_sum "Si O2"
_cell_formula_units_Z 20
_cell_length_a 8.076859
_cell_length_b 6.664644
_cell_length_c 18.394804
_cell_angle_alpha 90.000000
_cell_angle_beta 115.384261
_cell_angle_gamma 90.000000
_cell_volume 894.582149
_symmetry_space_group_name_H-M "P 21/C"
_symmetry_group_IT_number 14
_symmetry_cell_setting 'monoclinic'
loop_
_space_group_symop_operation_xyz
x,y,z
-x,1/2+y,1/2-z
-x,-y,-z
x,1/2-y,1/2+z
loop_
_atom_site_type_symbol
_atom_site_label
_atom_site_fract_x
_atom_site_fract_y
_atom_site_fract_z
Si Si1 0.066908 0.879433 0.942392
Si Si2 0.594879 0.369712 0.956240
Si Si3 0.252927 0.301863 0.722865
Si Si4 0.693333 0.956027 0.133210
Si Si5 0.441263 0.655241 0.817493
O O1 0.895596 0.782728 0.868271
O O2 0.167029 0.036499 0.907800
O O3 0.196251 0.691793 0.988175
O O4 0.000000 0.000000 0.000000
O O5 0.486426 0.162625 0.924824
O O6 0.586372 0.504216 0.882438
O O7 0.500000 0.500000 0.000000
O O8 0.206500 0.147515 0.779145
O O9 0.265344 0.528851 0.756131
O O10 0.455814 0.257822 0.730144
O O11 0.634424 0.182376 0.140214
#
# Coordination Sequence:
#
# PCOD8129007 Si02
#       5
#     4   4   4   4   4
#     4  12  28  45  72 111 147 186 245 310 363 429
#     4  11  25  46  73 102 139 192 237 298 376 431
#     4  11  26  44  74 102 138 190 239 295 359 442
#     4  11  25  47  72  99 149 187 238 297 365 446
#     4  11  23  47  72 100 140 195 239 286 373 441
#
# _framework density 22.356807
#
# number of rings (size 3 to 8) (size 9 to 14) (size 15 to 20)
#    0.000    0.800    4.000    1.800    8.400    0.800 
#    0.000    0.000    0.000    0.000    0.000    0.000 
#    0.000    0.000    0.000    0.000    0.000    0.000 
#
# Total GULP energy -248087.797990 kJ/mol
# GULP energy per Si atom -12404.389900 kJ/mol
# Density = 2.230592 g / cm^3
# Si number density = 22.356807 Si / 1000 Ang^3
#
#
#
# Elastic Constant Matrix: (Units=GPa)
#
#
# Indices 1 2 3 4 5 6 
#
# 1 111.9523 53.7962 56.0195 0.0000 -17.4277 0.0000
# 2 53.7962 137.2530 58.7733 0.0000 2.2968 0.0000
# 3 56.0195 58.7733 148.7365 0.0000 9.3929 0.0000
# 4 0.0000 0.0000 0.0000 45.2907 0.0000 -11.9599
# 5 -17.4277 2.2968 9.3929 0.0000 47.2703 0.0000
# 6 0.0000 0.0000 0.0000 -11.9599 0.0000 39.3738
#
#
#
# Elastic Compliance Matrix: (Units=1/GPa)
#
#
# Indices 1 2 3 4 5 6 
#
# 1 0.013700 -0.003729 -0.004068 0.000000 0.006040 0.000000
# 2 -0.003729 0.009788 -0.002376 0.000000 -0.001378 0.000000
# 3 -0.004068 -0.002376 0.009400 0.000000 -0.003252 0.000000
# 4 0.000000 0.000000 0.000000 0.024005 0.000000 0.007292
# 5 0.006040 -0.001378 -0.003252 0.000000 0.024095 0.000000
# 6 0.000000 0.000000 0.000000 0.007292 0.000000 0.027612
#
#
# Mechanical properties :
#
#
# Convention : Reuss Voigt Hill
#
# Bulk Modulus (GPa) = 79.73414 81.67995 80.70705
# Shear Modulus (GPa) = 37.55808 41.67715 39.61761
#
# Velocity S-wave (km/s) = 4.10315 4.32230 4.21415
# Velocity P-wave (km/s) = 7.62821 7.84371 7.73671
#
# Compressibility (1/GPa) = 0.01254168
#
# Stress axis : x y z
#
# Youngs Moduli (GPa) = 72.99232 102.16650 106.38544
#
# Poissons Ratio (x) = 0.38097 0.43277
# Poissons Ratio (y) = 0.27218 0.25280
# Poissons Ratio (z) = 0.29693 0.24277
#
# Static dielectric constant tensor:
#      x y z
#    x 3.810950 0.000000 -0.131430 
#    y 0.000000 4.114270 0.000000 
#    z -0.131430 0.000000 4.335840 
# 
# 
# High freq. dielectric constant tensor:
#      x y z
#    x 1.867090 0.000000 -0.014910 
#    y 0.000000 1.888630 0.000000 
#    z -0.014910 0.000000 1.900150 
# 
# From -- ./inp_files/64222.got.cif
#   From: 2010.03.12/outbox.cif.g09.slc.cpg/sg14_33_cif.got.tgz:64222.got - 2010.03.31 13:35:05.
