data_PCOD8129314
_publ_section_title
;
Structure prediction by ZEFSAII (Michael W. Deem and Ramdas Pophale) SiO2 
 PCOD8129314
Probable space group: P 21/C
;
_chemical_formula_sum "Si O2"
_cell_formula_units_Z 20
_cell_length_a 7.755112
_cell_length_b 10.094743
_cell_length_c 20.184554
_cell_angle_alpha 90.000000
_cell_angle_beta 146.349997
_cell_angle_gamma 90.000000
_cell_volume 875.598376
_symmetry_space_group_name_H-M "P 21/C"
_symmetry_group_IT_number 14
_symmetry_cell_setting 'monoclinic'
loop_
_space_group_symop_operation_xyz
x,y,z
-x,1/2+y,1/2-z
-x,-y,-z
x,1/2-y,1/2+z
loop_
_atom_site_type_symbol
_atom_site_label
_atom_site_fract_x
_atom_site_fract_y
_atom_site_fract_z
Si Si1 0.658909 0.017212 0.861231
Si Si2 0.669343 0.832866 0.500892
Si Si3 0.651813 0.311330 0.829666
Si Si4 0.643175 0.063831 0.110365
Si Si5 0.338551 0.094756 0.355611
O O1 0.627368 0.153183 0.808851
O O2 0.594785 0.892132 0.793250
O O3 0.408578 0.026764 0.841114
O O4 0.000000 0.000000 0.000000
O O5 0.535828 0.698379 0.428383
O O6 0.684815 0.818026 0.585400
O O7 0.006810 0.863749 0.579086
O O8 0.435001 0.946919 0.404723
O O9 0.587922 0.338381 0.886647
O O10 0.005266 0.089176 0.213064
O O11 0.500000 0.000000 0.000000
#
# Coordination Sequence:
#
# PCOD8129314 Si02
#       5
#     4   4   4   4   4
#     4  12  27  48  74 112 148 198 250 303 376 441
#     4  11  26  48  74 106 148 194 248 307 370 446
#     4  12  27  47  77 106 154 193 249 306 371 445
#     4  12  26  46  75 104 151 190 250 305 369 437
#     4  11  27  46  75 108 144 194 246 305 372 441
#
# _framework density 22.841521
#
# number of rings (size 3 to 8) (size 9 to 14) (size 15 to 20)
#    0.000    0.400    4.000    3.000    8.400    1.600 
#    0.000    0.000    0.000    0.000    0.000    0.000 
#    0.000    0.000    0.000    0.000    0.000    0.000 
#
# Total GULP energy -248168.677808 kJ/mol
# GULP energy per Si atom -12408.433890 kJ/mol
# Density = 2.278953 g / cm^3
# Si number density = 22.841521 Si / 1000 Ang^3
#
#
#
# Elastic Constant Matrix: (Units=GPa)
#
#
# Indices 1 2 3 4 5 6 
#
# 1 156.1731 18.9146 38.1121 0.0000 5.7026 0.0000
# 2 18.9146 115.9226 49.7002 0.0000 -9.7820 0.0000
# 3 38.1121 49.7002 127.7720 0.0000 7.9232 0.0000
# 4 0.0000 0.0000 0.0000 35.6337 0.0000 -3.0590
# 5 5.7026 -9.7820 7.9232 0.0000 36.0200 0.0000
# 6 0.0000 0.0000 0.0000 -3.0590 0.0000 37.7265
#
#
#
# Elastic Compliance Matrix: (Units=1/GPa)
#
#
# Indices 1 2 3 4 5 6 
#
# 1 0.006936 -0.000400 -0.001864 0.000000 -0.000797 0.000000
# 2 -0.000400 0.010901 -0.004368 0.000000 0.003984 0.000000
# 3 -0.001864 -0.004368 0.010277 0.000000 -0.003152 0.000000
# 4 0.000000 0.000000 0.000000 0.028260 0.000000 0.002291
# 5 -0.000797 0.003984 -0.003152 0.000000 0.029664 0.000000
# 6 0.000000 0.000000 0.000000 0.002291 0.000000 0.026692
#
#
# Mechanical properties :
#
#
# Convention : Reuss Voigt Hill
#
# Bulk Modulus (GPa) = 67.34047 68.14687 67.74367
# Shear Modulus (GPa) = 38.18485 41.41875 39.80180
#
# Velocity S-wave (km/s) = 4.09311 4.26292 4.17888
# Velocity P-wave (km/s) = 7.20304 7.35727 7.28056
#
# Compressibility (1/GPa) = 0.01484991
#
# Stress axis : x y z
#
# Youngs Moduli (GPa) = 144.18568 91.73846 97.30629
#
# Poissons Ratio (x) = 0.03667 0.18136
# Poissons Ratio (y) = 0.05764 0.42502
# Poissons Ratio (z) = 0.26874 0.40070
#
# Static dielectric constant tensor:
#      x y z
#    x 4.320440 0.000000 0.009760 
#    y 0.000000 4.172950 0.000000 
#    z 0.009760 0.000000 3.952730 
# 
# 
# High freq. dielectric constant tensor:
#      x y z
#    x 1.919630 0.000000 0.003590 
#    y 0.000000 1.906980 0.000000 
#    z 0.003590 0.000000 1.900220 
# 
# From -- ./inp_files/72112.got.cif
#   From: 2010.03.12/outbox.cif.g09.slc.cpg/sg14_37_cif.got.tgz:72112.got - 2010.03.31 13:35:05.
