data_PCOD8129773
_publ_section_title
;
Structure prediction by ZEFSAII (Michael W. Deem and Ramdas Pophale) SiO2 
 PCOD8129773
Probable space group: C 2/C
;
_chemical_formula_sum "Si O2"
_cell_formula_units_Z 56
_cell_length_a 17.735589
_cell_length_b 14.479436
_cell_length_c 13.781924
_cell_angle_alpha 90.000000
_cell_angle_beta 90.868496
_cell_angle_gamma 90.000000
_cell_volume 3538.809764
_symmetry_space_group_name_H-M "C 2/C"
_symmetry_group_IT_number 15
_symmetry_cell_setting 'monoclinic'
loop_
_space_group_symop_operation_xyz
x,y,z
-x,y,1/2-z
-x,-y,-z
x,-y,1/2+z
1/2+x,1/2+y,z
1/2-x,1/2+y,1/2-z
1/2-x,1/2-y,-z
1/2+x,1/2-y,1/2+z
loop_
_atom_site_type_symbol
_atom_site_label
_atom_site_fract_x
_atom_site_fract_y
_atom_site_fract_z
Si Si1 0.765147 0.349333 0.734464
Si Si2 0.368546 0.722547 0.511926
Si Si3 0.278968 0.179409 0.865633
Si Si4 0.586214 0.562149 0.740249
Si Si5 0.168366 0.042916 0.079775
Si Si6 0.213158 0.992526 0.874528
Si Si7 0.577633 0.230294 0.293395
O O1 0.724434 0.248389 0.727323
O O2 0.735154 0.414306 0.646642
O O3 0.743971 0.394513 0.837297
O O4 0.855615 0.341522 0.728298
O O5 0.354371 0.801774 0.430598
O O6 0.293442 0.707746 0.573069
O O7 0.386501 0.625201 0.459850
O O8 0.432542 0.753870 0.589816
O O9 0.272258 0.071776 0.838222
O O10 0.500000 0.531652 0.750000
O O11 0.617508 0.528718 0.637435
O O12 0.631092 0.513955 0.828667
O O13 0.595875 0.672182 0.742741
O O14 0.207560 0.989602 0.990768
O O15 0.500000 0.188612 0.250000
#
# Coordination Sequence:
#
# PCOD8129773 Si02
#       7
#     8   8   8   8   8   8   8
#     4   9  17  28  48  67  89 119 153 188 227 258
#     4   8  13  26  45  63  82 114 152 190 213 249
#     4   8  13  25  45  65  86 106 157 193 207 254
#     4  10  19  28  42  67  97 120 141 184 231 274
#     4   9  17  29  46  69  88 118 159 185 214 269
#     4  10  16  29  47  67  92 120 153 190 220 262
#     4  10  17  29  44  66  95 115 147 190 230 268
#
# _framework density 15.824529999999999
#
# number of rings (size 3 to 8) (size 9 to 14) (size 15 to 20)
#    0.000    2.857    4.286    2.571    0.000    0.571 
#    0.000    0.714    0.000    3.429    0.000    9.000 
#    0.000    0.000    0.000    0.000    0.000    0.000 
#
# Total GULP energy -346963.376182 kJ/mol
# GULP energy per Si atom -12391.549149 kJ/mol
# Density = 1.578851 g / cm^3
# Si number density = 15.824530 Si / 1000 Ang^3
#
#
#
# Elastic Constant Matrix: (Units=GPa)
#
#
# Indices 1 2 3 4 5 6 
#
# 1 76.8666 33.6080 44.2518 0.0000 13.4439 0.0000
# 2 33.6080 67.6277 37.9556 0.0000 -6.4093 0.0000
# 3 44.2518 37.9556 85.2067 0.0000 5.1809 0.0000
# 4 0.0000 0.0000 0.0000 18.6651 0.0000 -2.7882
# 5 13.4439 -6.4093 5.1809 0.0000 23.3015 0.0000
# 6 0.0000 0.0000 0.0000 -2.7882 0.0000 19.4827
#
#
#
# Elastic Compliance Matrix: (Units=1/GPa)
#
#
# Indices 1 2 3 4 5 6 
#
# 1 0.023786 -0.009017 -0.007452 0.000000 -0.014547 0.000000
# 2 -0.009017 0.024509 -0.007056 0.000000 0.013513 0.000000
# 3 -0.007452 -0.007056 0.018861 0.000000 -0.001835 0.000000
# 4 0.000000 0.000000 0.000000 0.054746 0.000000 0.007835
# 5 -0.014547 0.013513 -0.001835 0.000000 0.055433 0.000000
# 6 0.000000 0.000000 0.000000 0.007835 0.000000 0.052449
#
#
# Mechanical properties :
#
#
# Convention : Reuss Voigt Hill
#
# Bulk Modulus (GPa) = 49.73734 51.25909 50.49822
# Shear Modulus (GPa) = 17.63435 19.88224 18.75830
#
# Velocity S-wave (km/s) = 3.34184 3.54845 3.44669
# Velocity P-wave (km/s) = 6.81097 7.01791 6.91521
#
# Compressibility (1/GPa) = 0.02010562
#
# Stress axis : x y z
#
# Youngs Moduli (GPa) = 42.04066 40.80168 53.01869
#
# Poissons Ratio (x) = 0.36791 0.39511
# Poissons Ratio (y) = 0.37908 0.37411
# Poissons Ratio (z) = 0.31330 0.28791
#
# Static dielectric constant tensor:
#      x y z
#    x 2.834360 0.000000 0.322260 
#    y 0.000000 3.142330 0.000000 
#    z 0.322260 0.000000 3.238610 
# 
# 
# High freq. dielectric constant tensor:
#      x y z
#    x 1.569230 0.000000 0.030090 
#    y 0.000000 1.592240 0.000000 
#    z 0.030090 0.000000 1.603970 
# 
# From -- ./inp_files/161694.got.cif
#   From: 2010.06.25/outbox.cif.g09.slc.cpg/sg15_81_cif.got.tgz:161694.got - 2010.06.28 07:06:18.
