data_PCOD8129117
_publ_section_title
;
Structure prediction by ZEFSAII (Michael W. Deem and Ramdas Pophale) SiO2 
 PCOD8129117
Probable space group: P 21/C
;
_chemical_formula_sum "Si O2"
_cell_formula_units_Z 24
_cell_length_a 9.338956
_cell_length_b 13.099249
_cell_length_c 18.575417
_cell_angle_alpha 90.000000
_cell_angle_beta 28.604641
_cell_angle_gamma 90.000000
_cell_volume 1087.937269
_symmetry_space_group_name_H-M "P 21/C"
_symmetry_group_IT_number 14
_symmetry_cell_setting 'monoclinic'
loop_
_space_group_symop_operation_xyz
x,y,z
-x,1/2+y,1/2-z
-x,-y,-z
x,1/2-y,1/2+z
loop_
_atom_site_type_symbol
_atom_site_label
_atom_site_fract_x
_atom_site_fract_y
_atom_site_fract_z
Si Si1 0.543213 0.067857 0.221195
Si Si2 0.021560 0.671872 0.009578
Si Si3 0.267841 0.916405 0.019954
Si Si4 0.617245 0.648999 0.496177
Si Si5 0.678062 0.638973 0.728696
Si Si6 0.198686 0.765379 0.788230
O O1 0.657088 0.114340 0.095384
O O2 0.676093 0.135155 0.227060
O O3 0.180081 0.071411 0.386025
O O4 0.652091 0.951792 0.181309
O O5 0.810509 0.763421 0.130072
O O6 0.344622 0.662158 0.907362
O O7 0.078512 0.684396 0.899550
O O8 0.360938 0.031868 0.991059
O O9 0.449939 0.842752 0.993388
O O10 0.910387 0.896367 0.188745
O O11 0.449835 0.709838 0.632043
O O12 0.942582 0.699359 0.345562
#
# Coordination Sequence:
#
# PCOD8129117 Si02
#       6
#     4   4   4   4   4   4
#     4  12  23  41  73  99 131 173 234 278 324 390
#     4  12  23  39  67 105 129 172 228 280 332 381
#     4  11  24  45  66 100 133 183 221 276 336 405
#     4  11  26  43  67  94 143 179 219 269 352 397
#     4  12  23  40  68 102 137 168 226 285 325 390
#     4  12  21  43  68  97 132 179 222 279 328 401
#
# _framework density 22.060096999999999
#
# number of rings (size 3 to 8) (size 9 to 14) (size 15 to 20)
#    0.000    0.333    6.667    3.000    0.000    2.667 
#    0.000    0.000    0.000    5.000    0.000    0.000 
#    0.000    0.000    0.000    0.000    0.000    0.000 
#
# Total GULP energy -297567.062800 kJ/mol
# GULP energy per Si atom -12398.627617 kJ/mol
# Density = 2.200989 g / cm^3
# Si number density = 22.060097 Si / 1000 Ang^3
#
#
#
# Elastic Constant Matrix: (Units=GPa)
#
#
# Indices 1 2 3 4 5 6 
#
# 1 133.1379 38.5319 50.6627 0.0000 -38.4549 0.0000
# 2 38.5319 43.7104 14.0852 0.0000 -7.7231 0.0000
# 3 50.6627 14.0852 100.0140 0.0000 -38.6994 0.0000
# 4 0.0000 0.0000 0.0000 36.9186 0.0000 -7.1554
# 5 -38.4549 -7.7231 -38.6994 0.0000 40.6758 0.0000
# 6 0.0000 0.0000 0.0000 -7.1554 0.0000 32.1080
#
#
#
# Elastic Compliance Matrix: (Units=1/GPa)
#
#
# Indices 1 2 3 4 5 6 
#
# 1 0.013819 -0.009894 -0.002023 0.000000 0.009261 0.000000
# 2 -0.009894 0.031165 -0.001119 0.000000 -0.004501 0.000000
# 3 -0.002023 -0.001119 0.016394 0.000000 0.013472 0.000000
# 4 0.000000 0.000000 0.000000 0.028309 0.000000 0.006309
# 5 0.009261 -0.004501 0.013472 0.000000 0.045303 0.000000
# 6 0.000000 0.000000 0.000000 0.006309 0.000000 0.032551
#
#
# Mechanical properties :
#
#
# Convention : Reuss Voigt Hill
#
# Bulk Modulus (GPa) = 28.32355 53.71354 41.01854
# Shear Modulus (GPa) = 24.34487 33.51264 28.92876
#
# Velocity S-wave (km/s) = 3.32561 3.90186 3.62520
# Velocity P-wave (km/s) = 5.25484 6.68587 6.01308
#
# Compressibility (1/GPa) = 0.03530631
#
# Stress axis : x y z
#
# Youngs Moduli (GPa) = 72.36266 32.08753 60.99775
#
# Poissons Ratio (x) = 0.31747 0.12342
# Poissons Ratio (y) = 0.71594 0.06824
# Poissons Ratio (z) = 0.14642 0.03590
#
# Static dielectric constant tensor:
#      x y z
#    x 4.238460 0.000000 -0.586220 
#    y 0.000000 4.026680 0.000000 
#    z -0.586220 0.000000 4.276210 
# 
# 
# High freq. dielectric constant tensor:
#      x y z
#    x 1.855180 0.000000 -0.037670 
#    y 0.000000 1.878010 0.000000 
#    z -0.037670 0.000000 1.868410 
# 
# From -- ./inp_files/55897.got.cif
#   From: 2010.03.12/outbox.cif.g09.slc.cpg/sg14_28_cif.got.tgz:55897.got - 2010.03.31 13:35:05.
