data_PCOD8129443
_publ_section_title
;
Structure prediction by ZEFSAII (Michael W. Deem and Ramdas Pophale) SiO2 
 PCOD8129443
Probable space group: P 21/C
;
_chemical_formula_sum "Si O2"
_cell_formula_units_Z 24
_cell_length_a 21.705897
_cell_length_b 4.907326
_cell_length_c 14.514097
_cell_angle_alpha 90.000000
_cell_angle_beta 37.965747
_cell_angle_gamma 90.000000
_cell_volume 951.091121
_symmetry_space_group_name_H-M "P 21/C"
_symmetry_group_IT_number 14
_symmetry_cell_setting 'monoclinic'
loop_
_space_group_symop_operation_xyz
x,y,z
-x,1/2+y,1/2-z
-x,-y,-z
x,1/2-y,1/2+z
loop_
_atom_site_type_symbol
_atom_site_label
_atom_site_fract_x
_atom_site_fract_y
_atom_site_fract_z
Si Si1 0.287402 0.871154 0.135472
Si Si2 0.672495 0.529804 0.208053
Si Si3 0.249438 0.989044 0.985703
Si Si4 0.070203 0.750620 0.940588
Si Si5 0.486531 0.771418 0.328188
Si Si6 0.941456 0.224325 0.338337
O O1 0.178446 0.725361 0.263846
O O2 0.309729 0.033675 0.202972
O O3 0.288911 0.063021 0.042095
O O4 0.381129 0.667847 0.005264
O O5 0.683346 0.233647 0.148939
O O6 0.564369 0.656751 0.311917
O O7 0.755531 0.732170 0.066515
O O8 0.139288 0.865508 0.132400
O O9 0.039532 0.083124 0.717572
O O10 0.000000 0.500000 0.000000
O O11 0.103007 0.728673 0.007457
O O12 0.473326 0.553042 0.260921
O O13 0.000000 0.500000 0.500000
#
# Coordination Sequence:
#
# PCOD8129443 Si02
#       6
#     4   4   4   4   4   4
#     4  12  27  49  83 108 156 203 251 319 381 445
#     4  12  26  48  75 112 150 196 255 310 380 459
#     4  12  26  47  75 108 153 195 249 318 382 447
#     4  12  28  48  74 115 149 198 260 308 378 461
#     4  12  25  50  76 112 155 200 252 314 384 454
#     4  12  25  48  73 105 152 198 250 321 376 447
#
# _framework density 25.234176999999999
#
# number of rings (size 3 to 8) (size 9 to 14) (size 15 to 20)
#    0.000    0.000    5.000    4.500    2.333    5.333 
#    0.000    3.333    0.000    0.000    0.000    0.000 
#    0.000    0.000    0.000    0.000    0.000    0.000 
#
# Total GULP energy -297463.477881 kJ/mol
# GULP energy per Si atom -12394.311578 kJ/mol
# Density = 2.517674 g / cm^3
# Si number density = 25.234177 Si / 1000 Ang^3
#
#
#
# Elastic Constant Matrix: (Units=GPa)
#
#
# Indices 1 2 3 4 5 6 
#
# 1 137.3360 6.6192 39.8281 0.0000 20.5433 0.0000
# 2 6.6192 88.4642 15.1153 0.0000 7.5355 0.0000
# 3 39.8281 15.1153 142.4739 0.0000 -15.0726 0.0000
# 4 0.0000 0.0000 0.0000 34.5167 0.0000 -5.4009
# 5 20.5433 7.5355 -15.0726 0.0000 76.9038 0.0000
# 6 0.0000 0.0000 0.0000 -5.4009 0.0000 30.0038
#
#
#
# Elastic Compliance Matrix: (Units=1/GPa)
#
#
# Indices 1 2 3 4 5 6 
#
# 1 0.008470 0.000060 -0.002670 0.000000 -0.002792 0.000000
# 2 0.000060 0.011662 -0.001406 0.000000 -0.001434 0.000000
# 3 -0.002670 -0.001406 0.008174 0.000000 0.002453 0.000000
# 4 0.000000 0.000000 0.000000 0.029811 0.000000 0.005366
# 5 -0.002792 -0.001434 0.002453 0.000000 0.014370 0.000000
# 6 0.000000 0.000000 0.000000 0.005366 0.000000 0.034295
#
#
# Mechanical properties :
#
#
# Convention : Reuss Voigt Hill
#
# Bulk Modulus (GPa) = 49.32055 54.59993 51.96024
# Shear Modulus (GPa) = 41.12809 48.73228 44.93019
#
# Velocity S-wave (km/s) = 4.04153 4.39931 4.22421
# Velocity P-wave (km/s) = 6.43165 6.89126 6.66542
#
# Compressibility (1/GPa) = 0.02027552
#
# Stress axis : x y z
#
# Youngs Moduli (GPa) = 118.05941 85.74949 122.34306
#
# Poissons Ratio (x) = -0.00516 0.32660
# Poissons Ratio (y) = -0.00710 0.17199
# Poissons Ratio (z) = 0.31517 0.12055
#
# Static dielectric constant tensor:
#      x y z
#    x 4.794400 0.000000 -0.060340 
#    y 0.000000 4.238240 0.000000 
#    z -0.060340 0.000000 4.728160 
# 
# 
# High freq. dielectric constant tensor:
#      x y z
#    x 2.031640 0.000000 -0.011290 
#    y 0.000000 1.986300 0.000000 
#    z -0.011290 0.000000 2.018920 
# 
# From -- ./inp_files/49471.got.cif
#   From: 2010.03.12/outbox.cif.g09.slc.cpg/sg14_25_cif.got.tgz:49471.got - 2010.03.31 13:35:05.
