data_PCOD8129225
_publ_section_title
;
Structure prediction by ZEFSAII (Michael W. Deem and Ramdas Pophale) SiO2 
 PCOD8129225
Probable space group: P 21/C
;
_chemical_formula_sum "Si O2"
_cell_formula_units_Z 20
_cell_length_a 12.047685
_cell_length_b 7.242621
_cell_length_c 8.759635
_cell_angle_alpha 90.000000
_cell_angle_beta 108.712518
_cell_angle_gamma 90.000000
_cell_volume 723.935122
_symmetry_space_group_name_H-M "P 21/C"
_symmetry_group_IT_number 14
_symmetry_cell_setting 'monoclinic'
loop_
_space_group_symop_operation_xyz
x,y,z
-x,1/2+y,1/2-z
-x,-y,-z
x,1/2-y,1/2+z
loop_
_atom_site_type_symbol
_atom_site_label
_atom_site_fract_x
_atom_site_fract_y
_atom_site_fract_z
Si Si1 0.656738 0.678271 0.490619
Si Si2 0.907027 0.566217 0.672315
Si Si3 0.946624 0.207191 0.499577
Si Si4 0.412957 0.697690 0.492692
Si Si5 0.296148 0.539487 0.148457
O O1 0.772814 0.633643 0.648484
O O2 0.550728 0.753590 0.551333
O O3 0.613934 0.477670 0.405294
O O4 0.691767 0.818361 0.371796
O O5 0.900572 0.369531 0.588031
O O6 0.985019 0.558917 0.862540
O O7 0.965628 0.715353 0.587786
O O8 0.835939 0.105228 0.370285
O O9 0.384478 0.620768 0.311326
O O10 0.334389 0.871786 0.503030
#
# Coordination Sequence:
#
# PCOD8129225 Si02
#       5
#     4   4   4   4   4
#     4  11  27  46  72 106 146 194 239 301 363 435
#     4  11  25  44  70 102 148 180 244 292 359 434
#     4  11  25  44  70 107 139 191 232 300 359 432
#     4  11  28  48  74 110 147 191 248 299 369 438
#     4  12  26  48  78 106 150 191 242 309 363 437
#
# _framework density 27.626785999999999
#
# number of rings (size 3 to 8) (size 9 to 14) (size 15 to 20)
#    0.000    0.800    2.000    3.000    8.400    4.800 
#    0.000    0.000    0.000    0.000    0.000    0.000 
#    0.000    0.000    0.000    0.000    0.000    0.000 
#
# Total GULP energy -248004.262741 kJ/mol
# GULP energy per Si atom -12400.213137 kJ/mol
# Density = 2.756391 g / cm^3
# Si number density = 27.626786 Si / 1000 Ang^3
#
#
#
# Elastic Constant Matrix: (Units=GPa)
#
#
# Indices 1 2 3 4 5 6 
#
# 1 208.0045 58.0256 31.6389 0.0000 17.4861 0.0000
# 2 58.0256 128.1250 29.5658 0.0000 6.0822 0.0000
# 3 31.6389 29.5658 113.9032 0.0000 28.0890 0.0000
# 4 0.0000 0.0000 0.0000 40.7925 0.0000 -4.6899
# 5 17.4861 6.0822 28.0890 0.0000 38.1441 0.0000
# 6 0.0000 0.0000 0.0000 -4.6899 0.0000 56.1379
#
#
#
# Elastic Compliance Matrix: (Units=1/GPa)
#
#
# Indices 1 2 3 4 5 6 
#
# 1 0.005705 -0.002378 -0.000508 0.000000 -0.001862 0.000000
# 2 -0.002378 0.009297 -0.002023 0.000000 0.001098 0.000000
# 3 -0.000508 -0.002023 0.011374 0.000000 -0.007820 0.000000
# 4 0.000000 0.000000 0.000000 0.024752 0.000000 0.002068
# 5 -0.001862 0.001098 -0.007820 0.000000 0.032654 0.000000
# 6 0.000000 0.000000 0.000000 0.002068 0.000000 0.017986
#
#
# Mechanical properties :
#
#
# Convention : Reuss Voigt Hill
#
# Bulk Modulus (GPa) = 60.39858 76.49924 68.44891
# Shear Modulus (GPa) = 42.69667 49.06840 45.88254
#
# Velocity S-wave (km/s) = 3.93553 4.21897 4.07971
# Velocity P-wave (km/s) = 6.52387 7.17519 6.85727
#
# Compressibility (1/GPa) = 0.01655668
#
# Stress axis : x y z
#
# Youngs Moduli (GPa) = 175.29221 107.56648 87.91779
#
# Poissons Ratio (x) = 0.25578 0.04468
# Poissons Ratio (y) = 0.41683 0.17788
# Poissons Ratio (z) = 0.08909 0.21764
#
# Static dielectric constant tensor:
#      x y z
#    x 5.299720 0.000000 -0.037260 
#    y 0.000000 5.515970 0.000000 
#    z -0.037260 0.000000 4.880700 
# 
# 
# High freq. dielectric constant tensor:
#      x y z
#    x 2.150820 0.000000 -0.005750 
#    y 0.000000 2.138180 0.000000 
#    z -0.005750 0.000000 2.105700 
# 
# From -- ./inp_files/11908.got.cif
#   From: 2010.03.12/outbox.cif.g09.slc.cpg/sg14_6_cif.got.tgz:11908.got - 2010.03.31 13:35:05.
