data_PCOD8129649
_publ_section_title
;
Structure prediction by ZEFSAII (Michael W. Deem and Ramdas Pophale) SiO2 
 PCOD8129649
Probable space group: C 2/C
;
_chemical_formula_sum "Si O2"
_cell_formula_units_Z 60
_cell_length_a 10.502312
_cell_length_b 22.231371
_cell_length_c 15.867223
_cell_angle_alpha 90.000000
_cell_angle_beta 77.127949
_cell_angle_gamma 90.000000
_cell_volume 3611.592852
_symmetry_space_group_name_H-M "C 2/C"
_symmetry_group_IT_number 15
_symmetry_cell_setting 'monoclinic'
loop_
_space_group_symop_operation_xyz
x,y,z
-x,y,1/2-z
-x,-y,-z
x,-y,1/2+z
1/2+x,1/2+y,z
1/2-x,1/2+y,1/2-z
1/2-x,1/2-y,-z
1/2+x,1/2-y,1/2+z
loop_
_atom_site_type_symbol
_atom_site_label
_atom_site_fract_x
_atom_site_fract_y
_atom_site_fract_z
Si Si1 0.618698 0.959692 0.561433
Si Si2 0.620979 0.178226 0.870703
Si Si3 0.843063 0.448122 0.764587
Si Si4 0.500000 0.735848 0.250000
Si Si5 0.996934 0.671251 0.435296
Si Si6 0.244320 0.672279 0.301874
Si Si7 0.120543 0.541404 0.877497
Si Si8 0.123234 0.758096 0.183501
O O1 0.710476 0.961365 0.631961
O O2 0.538137 0.897673 0.578028
O O3 0.693865 0.961909 0.459322
O O4 0.524794 0.017387 0.582718
O O5 0.559623 0.221228 0.811030
O O6 0.610918 0.108982 0.844513
O O7 0.774915 0.191729 0.863853
O O8 0.536856 0.190633 0.965971
O O9 0.762349 0.393516 0.737942
O O10 0.811077 0.503437 0.706496
O O11 0.000000 0.436216 0.750000
O O12 0.390681 0.691471 0.305912
O O13 0.152561 0.676837 0.397817
O O14 0.919450 0.716217 0.386654
O O15 0.196247 0.717163 0.238660
O O16 0.000000 0.788773 0.250000
#
# Coordination Sequence:
#
# PCOD8129649 Si02
#       8
#     8   8   8   4   8   8   8   8
#     4   9  16  27  46  79  97 115 156 210 248 278
#     4  10  21  32  45  73 106 128 155 192 247 306
#     4  10  15  28  53  74  93 120 163 206 251 270
#     4  10  24  34  42  68 106 138 160 186 242 306
#     4  10  16  30  55  75  92 119 166 212 243 267
#     4  10  17  32  50  70  97 125 167 204 234 283
#     4   9  18  27  45  74 104 120 149 199 255 292
#     4   9  17  31  52  72  95 126 162 203 239 277
#
# _framework density 16.613168999999999
#
# number of rings (size 3 to 8) (size 9 to 14) (size 15 to 20)
#    0.000    2.400    4.000    0.800    2.800    0.533 
#    0.000    0.000    1.467    0.000    0.000    0.933 
#    0.000    0.000    0.000    0.000    0.000    0.000 
#
# Total GULP energy -371673.437273 kJ/mol
# GULP energy per Si atom -12389.114576 kJ/mol
# Density = 1.657536 g / cm^3
# Si number density = 16.613169 Si / 1000 Ang^3
#
#
#
# Elastic Constant Matrix: (Units=GPa)
#
#
# Indices 1 2 3 4 5 6 
#
# 1 70.4965 47.1539 42.2040 0.0000 -8.6791 0.0000
# 2 47.1539 97.4084 37.3124 0.0000 -11.3029 0.0000
# 3 42.2040 37.3124 111.2066 0.0000 -5.9662 0.0000
# 4 0.0000 0.0000 0.0000 25.4159 0.0000 1.3880
# 5 -8.6791 -11.3029 -5.9662 0.0000 12.0744 0.0000
# 6 0.0000 0.0000 0.0000 1.3880 0.0000 13.3794
#
#
#
# Elastic Compliance Matrix: (Units=1/GPa)
#
#
# Indices 1 2 3 4 5 6 
#
# 1 0.024434 -0.008799 -0.005979 0.000000 0.006373 0.000000
# 2 -0.008799 0.016067 -0.001627 0.000000 0.007912 0.000000
# 3 -0.005979 -0.001627 0.011808 0.000000 0.000014 0.000000
# 4 0.000000 0.000000 0.000000 0.039570 0.000000 -0.004105
# 5 0.006373 0.007912 0.000014 0.000000 0.094814 0.000000
# 6 0.000000 0.000000 0.000000 -0.004105 0.000000 0.075168
#
#
# Mechanical properties :
#
#
# Convention : Reuss Voigt Hill
#
# Bulk Modulus (GPa) = 51.28325 59.16134 55.22230
# Shear Modulus (GPa) = 16.60195 20.33667 18.46931
#
# Velocity S-wave (km/s) = 3.16464 3.50255 3.33787
# Velocity P-wave (km/s) = 6.65502 7.21426 6.94028
#
# Compressibility (1/GPa) = 0.01949954
#
# Stress axis : x y z
#
# Youngs Moduli (GPa) = 40.92601 62.24092 84.68800
#
# Poissons Ratio (x) = 0.54763 0.50635
# Poissons Ratio (y) = 0.36009 0.13780
# Poissons Ratio (z) = 0.24470 0.10128
#
# Static dielectric constant tensor:
#      x y z
#    x 3.044020 0.000000 0.054270 
#    y 0.000000 2.995520 0.000000 
#    z 0.054270 0.000000 3.593060 
# 
# 
# High freq. dielectric constant tensor:
#      x y z
#    x 1.588070 0.000000 0.012100 
#    y 0.000000 1.641680 0.000000 
#    z 0.012100 0.000000 1.653860 
# 
# From -- ./inp_files/199951.got.cif
#   From: 2010.06.25/outbox.cif.g09.slc.cpg/sg15_100_cif.got.tgz:199951.got - 2010.06.28 07:06:18.
