data_PCOD8129924
_publ_section_title
;
Structure prediction by ZEFSAII (Michael W. Deem and Ramdas Pophale) SiO2 
 PCOD8129924
Probable space group: C 2/C
;
_chemical_formula_sum "Si O2"
_cell_formula_units_Z 40
_cell_length_a 25.944972
_cell_length_b 10.856038
_cell_length_c 5.237707
_cell_angle_alpha 90.000000
_cell_angle_beta 77.912098
_cell_angle_gamma 90.000000
_cell_volume 1442.540442
_symmetry_space_group_name_H-M "C 2/C"
_symmetry_group_IT_number 15
_symmetry_cell_setting 'monoclinic'
loop_
_space_group_symop_operation_xyz
x,y,z
-x,y,1/2-z
-x,-y,-z
x,-y,1/2+z
1/2+x,1/2+y,z
1/2-x,1/2+y,1/2-z
1/2-x,1/2-y,-z
1/2+x,1/2-y,1/2+z
loop_
_atom_site_type_symbol
_atom_site_label
_atom_site_fract_x
_atom_site_fract_y
_atom_site_fract_z
Si Si1 0.926209 0.079270 0.541496
Si Si2 0.696492 0.856403 0.316413
Si Si3 0.190488 0.077071 0.765235
Si Si4 0.969066 0.338864 0.530985
Si Si5 0.150568 0.629101 0.365085
O O1 0.867253 0.138515 0.624404
O O2 0.966578 0.190834 0.529487
O O3 0.935900 0.018962 0.255334
O O4 0.759231 0.835001 0.233017
O O5 0.672676 0.792819 0.597911
O O6 0.681823 0.000737 0.358124
O O7 0.666502 0.795723 0.105867
O O8 0.194211 0.034107 0.467007
O O9 0.911240 0.399221 0.591642
O O10 0.000000 0.383342 0.750000
O O11 0.000000 0.387146 0.250000
#
# Coordination Sequence:
#
# PCOD8129924 Si02
#       5
#     8   8   8   8   8
#     4  10  23  40  65  89 115 150 207 243 298 364
#     4  10  17  35  60  87 122 159 189 223 296 360
#     4  10  16  32  59  89 119 152 182 239 288 353
#     4  12  26  44  60  83 122 158 202 261 296 322
#     4  10  20  35  59  88 118 160 194 237 287 354
#
# _framework density 27.728857999999999
#
# number of rings (size 3 to 8) (size 9 to 14) (size 15 to 20)
#    0.000    1.600    4.000    2.400    0.000    2.400 
#    0.000   14.000    0.000    0.000    0.000    0.000 
#    0.000    0.000    0.000    0.000    0.000    0.000 
#
# Total GULP energy -248015.498075 kJ/mol
# GULP energy per Si atom -12400.774904 kJ/mol
# Density = 2.766575 g / cm^3
# Si number density = 27.728858 Si / 1000 Ang^3
#
#
#
# Elastic Constant Matrix: (Units=GPa)
#
#
# Indices 1 2 3 4 5 6 
#
# 1 160.5181 8.7340 58.3421 0.0000 11.4590 0.0000
# 2 8.7340 53.1188 -3.4816 0.0000 -1.3782 0.0000
# 3 58.3421 -3.4816 203.8499 0.0000 39.4440 0.0000
# 4 0.0000 0.0000 0.0000 143.3611 0.0000 42.4662
# 5 11.4590 -1.3782 39.4440 0.0000 54.0521 0.0000
# 6 0.0000 0.0000 0.0000 42.4662 0.0000 63.3695
#
#
#
# Elastic Compliance Matrix: (Units=1/GPa)
#
#
# Indices 1 2 3 4 5 6 
#
# 1 0.007041 -0.001292 -0.002028 0.000000 -0.000045 0.000000
# 2 -0.001292 0.019088 0.000639 0.000000 0.000294 0.000000
# 3 -0.002028 0.000639 0.006300 0.000000 -0.004151 0.000000
# 4 0.000000 0.000000 0.000000 0.008703 0.000000 -0.005832
# 5 -0.000045 0.000294 -0.004151 0.000000 0.021547 0.000000
# 6 0.000000 0.000000 0.000000 -0.005832 0.000000 0.019689
#
#
# Mechanical properties :
#
#
# Convention : Reuss Voigt Hill
#
# Bulk Modulus (GPa) = 36.94702 60.51953 48.73328
# Shear Modulus (GPa) = 51.67857 75.74937 63.71397
#
# Velocity S-wave (km/s) = 4.32176 5.23232 4.79868
# Velocity P-wave (km/s) = 6.18520 7.64040 6.95099
#
# Compressibility (1/GPa) = 0.02706578
#
# Stress axis : x y z
#
# Youngs Moduli (GPa) = 142.03414 52.38996 158.72444
#
# Poissons Ratio (x) = 0.06767 0.32194
# Poissons Ratio (y) = 0.18347 -0.10138
# Poissons Ratio (z) = 0.28809 -0.03346
#
# Static dielectric constant tensor:
#      x y z
#    x 5.222760 0.000000 0.439070 
#    y 0.000000 4.450080 0.000000 
#    z 0.439070 0.000000 6.872030 
# 
# 
# High freq. dielectric constant tensor:
#      x y z
#    x 2.129920 0.000000 0.006590 
#    y 0.000000 2.118770 0.000000 
#    z 0.006590 0.000000 2.147180 
# 
# From -- ./inp_files/15005.got.cif
#   From: 2010.06.25/outbox.cif.g09.slc.cpg/sg15_8_cif.got.tgz:15005.got - 2010.06.28 07:06:18.
