data_PCOD8129156
_publ_section_title
;
Structure prediction by ZEFSAII (Michael W. Deem and Ramdas Pophale) SiO2 
 PCOD8129156
Probable space group: P 21/C
;
_chemical_formula_sum "Si O2"
_cell_formula_units_Z 28
_cell_length_a 8.641014
_cell_length_b 8.788899
_cell_length_c 24.860351
_cell_angle_alpha 90.000000
_cell_angle_beta 140.990249
_cell_angle_gamma 90.000000
_cell_volume 1188.418762
_symmetry_space_group_name_H-M "P 21/C"
_symmetry_group_IT_number 14
_symmetry_cell_setting 'monoclinic'
loop_
_space_group_symop_operation_xyz
x,y,z
-x,1/2+y,1/2-z
-x,-y,-z
x,1/2-y,1/2+z
loop_
_atom_site_type_symbol
_atom_site_label
_atom_site_fract_x
_atom_site_fract_y
_atom_site_fract_z
Si Si1 0.609959 0.484202 0.719033
Si Si2 0.063232 0.956332 0.078242
Si Si3 0.611693 0.053322 0.423989
Si Si4 0.700593 0.260945 0.163780
Si Si5 0.769372 0.693043 0.672819
Si Si6 0.751719 0.435951 0.585325
Si Si7 0.934596 0.388439 0.907240
O O1 0.348018 0.534992 0.671648
O O2 0.538507 0.353545 0.656196
O O3 0.723752 0.630742 0.720595
O O4 0.795914 0.428305 0.814980
O O5 0.969617 0.785646 0.066200
O O6 0.929848 0.076211 0.081881
O O7 0.000000 0.000000 0.000000
O O8 0.400401 0.929674 0.355061
O O9 0.821534 0.994341 0.521818
O O10 0.465077 0.201351 0.407593
O O11 0.743978 0.091503 0.404080
O O12 0.701452 0.226310 0.100006
O O13 0.975417 0.217586 0.257806
O O14 0.842132 0.555140 0.653957
O O15 0.500000 0.500000 0.500000
#
# Coordination Sequence:
#
# PCOD8129156 Si02
#       7
#     4   4   4   4   4   4   4
#     4  11  25  44  71 105 140 189 255 291 371 442
#     4  12  25  48  75 104 148 195 247 311 370 453
#     4  11  24  46  71 103 154 184 244 308 365 444
#     4  11  25  45  70 105 142 189 235 305 366 436
#     4  11  24  46  70 103 141 188 238 296 366 440
#     4  11  25  44  70  99 135 187 237 288 365 435
#     4  11  26  43  73 110 140 197 247 311 373 426
#
# _framework density 23.560718999999999
#
# number of rings (size 3 to 8) (size 9 to 14) (size 15 to 20)
#    0.000    0.857    1.429    6.000    6.000    1.143 
#    2.571    4.286    0.000    0.000    0.000    0.000 
#    0.000    0.000    0.000    0.000    0.000    0.000 
#
# Total GULP energy -347085.461923 kJ/mol
# GULP energy per Si atom -12395.909354 kJ/mol
# Density = 2.350709 g / cm^3
# Si number density = 23.560719 Si / 1000 Ang^3
#
#
#
# Elastic Constant Matrix: (Units=GPa)
#
#
# Indices 1 2 3 4 5 6 
#
# 1 89.2423 -7.8949 12.1862 0.0000 4.1781 0.0000
# 2 -7.8949 60.9360 -2.4222 0.0000 0.5732 0.0000
# 3 12.1862 -2.4222 105.7488 0.0000 0.3702 0.0000
# 4 0.0000 0.0000 0.0000 39.6876 0.0000 3.6115
# 5 4.1781 0.5732 0.3702 0.0000 39.6117 0.0000
# 6 0.0000 0.0000 0.0000 3.6115 0.0000 39.5427
#
#
#
# Elastic Compliance Matrix: (Units=1/GPa)
#
#
# Indices 1 2 3 4 5 6 
#
# 1 0.011569 0.001459 -0.001295 0.000000 -0.001229 0.000000
# 2 0.001459 0.016612 0.000214 0.000000 -0.000396 0.000000
# 3 -0.001295 0.000214 0.009610 0.000000 0.000044 0.000000
# 4 0.000000 0.000000 0.000000 0.025408 0.000000 -0.002321
# 5 -0.001229 -0.000396 0.000044 0.000000 0.025380 0.000000
# 6 0.000000 0.000000 0.000000 -0.002321 0.000000 0.025501
#
#
# Mechanical properties :
#
#
# Convention : Reuss Voigt Hill
#
# Bulk Modulus (GPa) = 25.94319 28.85171 27.39745
# Shear Modulus (GPa) = 39.62767 40.70559 40.16663
#
# Velocity S-wave (km/s) = 4.10559 4.16106 4.13342
# Velocity P-wave (km/s) = 5.78875 5.94627 5.86804
#
# Compressibility (1/GPa) = 0.03854577
#
# Stress axis : x y z
#
# Youngs Moduli (GPa) = 86.43816 60.19776 104.05390
#
# Poissons Ratio (x) = -0.08783 0.13480
# Poissons Ratio (y) = -0.12611 -0.02224
# Poissons Ratio (z) = 0.11198 -0.01287
#
# Static dielectric constant tensor:
#      x y z
#    x 4.257470 0.000000 0.151220 
#    y 0.000000 4.144270 0.000000 
#    z 0.151220 0.000000 4.068470 
# 
# 
# High freq. dielectric constant tensor:
#      x y z
#    x 1.941430 0.000000 0.009440 
#    y 0.000000 1.931700 0.000000 
#    z 0.009440 0.000000 1.938870 
# 
# From -- ./inp_files/76506.got.cif
#   From: 2010.03.12/outbox.cif.g09.slc.cpg/sg14_39_cif.got.tgz:76506.got - 2010.03.31 13:35:05.
