data_PCOD8129675
_publ_section_title
;
Structure prediction by ZEFSAII (Michael W. Deem and Ramdas Pophale) SiO2 
 PCOD8129675
Probable space group: C 2/C
;
_chemical_formula_sum "Si O2"
_cell_formula_units_Z 48
_cell_length_a 24.603784
_cell_length_b 17.913285
_cell_length_c 9.720575
_cell_angle_alpha 90.000000
_cell_angle_beta 142.793637
_cell_angle_gamma 90.000000
_cell_volume 2590.598669
_symmetry_space_group_name_H-M "C 2/C"
_symmetry_group_IT_number 15
_symmetry_cell_setting 'monoclinic'
loop_
_space_group_symop_operation_xyz
x,y,z
-x,y,1/2-z
-x,-y,-z
x,-y,1/2+z
1/2+x,1/2+y,z
1/2-x,1/2+y,1/2-z
1/2-x,1/2-y,-z
1/2+x,1/2-y,1/2+z
loop_
_atom_site_type_symbol
_atom_site_label
_atom_site_fract_x
_atom_site_fract_y
_atom_site_fract_z
Si Si1 0.406844 0.801553 0.997534
Si Si2 0.417496 0.367720 0.495387
Si Si3 0.267125 0.933987 0.394855
Si Si4 0.585416 0.362474 0.330278
Si Si5 0.834442 0.282015 0.578112
Si Si6 0.771740 0.570517 0.223654
O O1 0.411880 0.806829 0.841946
O O2 0.325744 0.855777 0.883652
O O3 0.500000 0.830121 0.250000
O O4 0.389312 0.714067 0.999279
O O5 0.500000 0.399772 0.750000
O O6 0.338461 0.427601 0.350439
O O7 0.444023 0.363769 0.388359
O O8 0.308423 0.853711 0.434935
O O9 0.289557 0.947805 0.599957
O O10 0.306962 0.000986 0.384876
O O11 0.500000 0.381421 0.250000
O O12 0.626237 0.280285 0.444440
O O13 0.664848 0.419638 0.528576
O O14 0.750000 0.250000 0.500000
#
# Coordination Sequence:
#
# PCOD8129675 Si02
#       6
#     8   8   8   8   8   8
#     4   9  16  32  58  78  95 138 185 220 258 311
#     4   9  17  32  55  77  99 137 189 215 259 328
#     4  10  19  34  55  76 102 149 178 213 268 318
#     4  10  19  33  55  82 107 138 175 229 271 306
#     4  10  15  36  60  73  99 146 191 207 258 327
#     4  10  20  35  51  76 111 142 174 217 271 325
#
# _framework density 18.528535999999999
#
# number of rings (size 3 to 8) (size 9 to 14) (size 15 to 20)
#    0.000    2.333    6.667    0.000    0.000    2.000 
#    0.000   12.500    0.000   12.000    0.000    0.000 
#    0.000    0.000    0.000    0.000    0.000    0.000 
#
# Total GULP energy -297348.885482 kJ/mol
# GULP energy per Si atom -12389.536895 kJ/mol
# Density = 1.848636 g / cm^3
# Si number density = 18.528536 Si / 1000 Ang^3
#
#
#
# Elastic Constant Matrix: (Units=GPa)
#
#
# Indices 1 2 3 4 5 6 
#
# 1 35.5963 18.6690 18.7388 0.0000 -2.7984 0.0000
# 2 18.6690 67.3898 11.2094 0.0000 -10.6774 0.0000
# 3 18.7388 11.2094 98.9949 0.0000 -11.6886 0.0000
# 4 0.0000 0.0000 0.0000 18.1321 0.0000 2.7163
# 5 -2.7984 -10.6774 -11.6886 0.0000 14.9008 0.0000
# 6 0.0000 0.0000 0.0000 2.7163 0.0000 11.1673
#
#
#
# Elastic Compliance Matrix: (Units=1/GPa)
#
#
# Indices 1 2 3 4 5 6 
#
# 1 0.036159 -0.009785 -0.006351 0.000000 -0.005203 0.000000
# 2 -0.009785 0.019413 0.001190 0.000000 0.013006 0.000000
# 3 -0.006351 0.001190 0.012265 0.000000 0.009281 0.000000
# 4 0.000000 0.000000 0.000000 0.057236 0.000000 -0.013922
# 5 -0.005203 0.013006 0.009281 0.000000 0.082733 0.000000
# 6 0.000000 0.000000 0.000000 -0.013922 0.000000 0.092934
#
#
# Mechanical properties :
#
#
# Convention : Reuss Voigt Hill
#
# Bulk Modulus (GPa) = 26.35465 33.24618 29.80042
# Shear Modulus (GPa) = 14.56536 19.06427 16.81482
#
# Velocity S-wave (km/s) = 2.80680 3.21115 3.01576
# Velocity P-wave (km/s) = 4.97583 5.63301 5.31459
#
# Compressibility (1/GPa) = 0.03794397
#
# Stress axis : x y z
#
# Youngs Moduli (GPa) = 27.65568 51.51295 81.53437
#
# Poissons Ratio (x) = 0.50406 0.51781
# Poissons Ratio (y) = 0.27061 -0.09700
# Poissons Ratio (z) = 0.17564 -0.06129
#
# Static dielectric constant tensor:
#      x y z
#    x 2.889860 0.000000 -0.106470 
#    y 0.000000 3.425630 0.000000 
#    z -0.106470 0.000000 3.668000 
# 
# 
# High freq. dielectric constant tensor:
#      x y z
#    x 1.658820 0.000000 -0.009000 
#    y 0.000000 1.722050 0.000000 
#    z -0.009000 0.000000 1.728830 
# 
# From -- ./inp_files/87359.got.cif
#   From: 2010.06.25/outbox.cif.g09.slc.cpg/sg15_44_cif.got.tgz:87359.got - 2010.06.28 07:06:18.
