data_PCOD8129987
_publ_section_title
;
Structure prediction by ZEFSAII (Michael W. Deem and Ramdas Pophale) SiO2 
 PCOD8129987
Probable space group: C 2/C
;
_chemical_formula_sum "Si O2"
_cell_formula_units_Z 48
_cell_length_a 17.169724
_cell_length_b 16.436961
_cell_length_c 14.566066
_cell_angle_alpha 90.000000
_cell_angle_beta 147.611072
_cell_angle_gamma 90.000000
_cell_volume 2202.009903
_symmetry_space_group_name_H-M "C 2/C"
_symmetry_group_IT_number 15
_symmetry_cell_setting 'monoclinic'
loop_
_space_group_symop_operation_xyz
x,y,z
-x,y,1/2-z
-x,-y,-z
x,-y,1/2+z
1/2+x,1/2+y,z
1/2-x,1/2+y,1/2-z
1/2-x,1/2-y,-z
1/2+x,1/2-y,1/2+z
loop_
_atom_site_type_symbol
_atom_site_label
_atom_site_fract_x
_atom_site_fract_y
_atom_site_fract_z
Si Si1 0.550979 0.193126 0.697163
Si Si2 0.000000 0.915037 0.250000
Si Si3 0.353190 0.965246 0.306440
Si Si4 0.500000 0.096770 0.250000
Si Si5 0.248598 0.509942 0.610974
Si Si6 0.256805 0.174504 0.330942
Si Si7 0.250367 0.872112 0.622361
O O1 0.500000 0.181060 0.750000
O O2 0.630994 0.112036 0.742604
O O3 0.416379 0.211982 0.497343
O O4 0.651418 0.271548 0.787547
O O5 0.106183 0.858877 0.417322
O O6 0.099861 0.972453 0.287048
O O7 0.500000 0.000000 0.500000
O O8 0.249308 0.942711 0.289067
O O9 0.274730 0.032265 0.165707
O O10 0.602652 0.154358 0.287472
O O11 0.605818 0.037814 0.413231
O O12 0.239138 0.414359 0.620681
O O13 0.222382 0.176916 0.188108
#
# Coordination Sequence:
#
# PCOD8129987 Si02
#       7
#     8   4   8   4   8   8   8
#     4  12  26  41  65  99 129 175 212 264 314 393
#     4  10  24  34  66 102 124 158 216 286 330 366
#     4  11  20  39  69  93 120 172 229 260 309 376
#     4  10  16  34  70  94 116 162 234 270 292 380
#     4  10  21  38  63  95 126 169 212 269 317 381
#     4  11  25  42  59  90 136 174 208 255 339 381
#     4  10  21  40  65  97 127 165 216 274 322 382
#
# _framework density 21.798268
#
# number of rings (size 3 to 8) (size 9 to 14) (size 15 to 20)
#    0.000    1.333    5.000    0.500    8.167    5.333 
#    0.000    0.000    0.000   17.000    0.000    0.000 
#    0.000    0.000    0.000    0.000    0.000    0.000 
#
# Total GULP energy -297499.187384 kJ/mol
# GULP energy per Si atom -12395.799474 kJ/mol
# Density = 2.174865 g / cm^3
# Si number density = 21.798268 Si / 1000 Ang^3
#
#
#
# Elastic Constant Matrix: (Units=GPa)
#
#
# Indices 1 2 3 4 5 6 
#
# 1 157.5702 39.9561 29.8540 0.0001 -0.8819 0.0000
# 2 39.9561 60.6680 10.0672 0.0001 -1.8208 0.0001
# 3 29.8540 10.0672 97.2925 0.0002 3.4656 0.0000
# 4 0.0001 0.0001 0.0002 11.2840 0.0001 0.3156
# 5 -0.8819 -1.8208 3.4656 0.0001 38.6355 0.0000
# 6 0.0000 0.0001 0.0000 0.3156 0.0000 20.8787
#
#
#
# Elastic Compliance Matrix: (Units=1/GPa)
#
#
# Indices 1 2 3 4 5 6 
#
# 1 0.007961 -0.004918 -0.001938 0.000000 0.000124 0.000000
# 2 -0.004918 0.019844 -0.000575 0.000000 0.000875 0.000000
# 3 -0.001938 -0.000575 0.010970 0.000000 -0.001055 0.000000
# 4 0.000000 0.000000 0.000000 0.088659 0.000000 -0.001340
# 5 0.000124 0.000875 -0.001055 0.000000 0.026022 0.000000
# 6 0.000000 0.000000 0.000000 -0.001340 0.000000 0.047916
#
#
# Mechanical properties :
#
#
# Convention : Reuss Voigt Hill
#
# Bulk Modulus (GPa) = 41.82036 52.80946 47.31491
# Shear Modulus (GPa) = 22.30091 29.86988 26.08540
#
# Velocity S-wave (km/s) = 3.20200 3.70575 3.46305
# Velocity P-wave (km/s) = 5.73561 6.52604 6.14355
#
# Compressibility (1/GPa) = 0.02391180
#
# Stress axis : x y z
#
# Youngs Moduli (GPa) = 125.60546 50.39330 91.15578
#
# Poissons Ratio (x) = 0.24784 0.17670
# Poissons Ratio (y) = 0.61773 0.05245
# Poissons Ratio (z) = 0.24348 0.02900
#
# Static dielectric constant tensor:
#      x y z
#    x 4.645190 0.000000 -0.018360 
#    y 0.000000 3.449320 0.000000 
#    z -0.018360 0.000000 4.042600 
# 
# 
# High freq. dielectric constant tensor:
#      x y z
#    x 1.889150 0.000000 -0.006980 
#    y 0.000000 1.815230 0.000000 
#    z -0.006980 0.000000 1.859760 
# 
# From -- ./inp_files/48428.got.cif
#   From: 2010.06.25/outbox.cif.g09.slc.cpg/sg15_25_cif.got.tgz:48428.got - 2010.06.28 07:06:18.
