data_PCOD8129067
_publ_section_title
;
Structure prediction by ZEFSAII (Michael W. Deem and Ramdas Pophale) SiO2 
 PCOD8129067
Probable space group: P 21/C
;
_chemical_formula_sum "Si O2"
_cell_formula_units_Z 20
_cell_length_a 15.550612
_cell_length_b 4.995098
_cell_length_c 24.874614
_cell_angle_alpha 90.000000
_cell_angle_beta 25.259691
_cell_angle_gamma 90.000000
_cell_volume 824.503666
_symmetry_space_group_name_H-M "P 21/C"
_symmetry_group_IT_number 14
_symmetry_cell_setting 'monoclinic'
loop_
_space_group_symop_operation_xyz
x,y,z
-x,1/2+y,1/2-z
-x,-y,-z
x,1/2-y,1/2+z
loop_
_atom_site_type_symbol
_atom_site_label
_atom_site_fract_x
_atom_site_fract_y
_atom_site_fract_z
Si Si1 0.764020 0.719369 0.048694
Si Si2 0.774835 0.107178 0.710320
Si Si3 0.378086 0.107503 0.761841
Si Si4 0.148848 0.033686 0.221584
Si Si5 0.864572 0.962114 0.885493
O O1 0.720111 0.917727 0.123475
O O2 0.612606 0.467208 0.133052
O O3 0.729344 0.902144 0.014644
O O4 0.983047 0.583742 0.929026
O O5 0.725725 0.411574 0.722585
O O6 0.659704 0.913029 0.734470
O O7 0.703468 0.025799 0.811237
O O8 0.264555 0.034812 0.097934
O O9 0.008404 0.286479 0.314658
O O10 0.004474 0.786618 0.296277
#
# Coordination Sequence:
#
# PCOD8129067 Si02
#       5
#     4   4   4   4   4
#     4  11  25  45  65  94 134 172 211 267 317 376
#     4  11  24  43  67  94 128 168 211 267 321 372
#     4  12  26  41  65  98 127 169 219 256 314 390
#     4   9  18  37  63  94 121 162 217 258 312 385
#     4   9  19  36  64  90 123 169 209 258 321 369
#
# _framework density 24.257019
#
# number of rings (size 3 to 8) (size 9 to 14) (size 15 to 20)
#    0.000    1.600    0.000    4.800    0.000   12.800 
#    0.000    2.000    0.000    0.000    0.000    0.000 
#    0.000    0.000    0.000    0.000    0.000    0.000 
#
# Total GULP energy -247799.005714 kJ/mol
# GULP energy per Si atom -12389.950286 kJ/mol
# Density = 2.420181 g / cm^3
# Si number density = 24.257019 Si / 1000 Ang^3
#
#
#
# Elastic Constant Matrix: (Units=GPa)
#
#
# Indices 1 2 3 4 5 6 
#
# 1 138.0447 8.7986 32.3699 0.0000 33.8176 0.0000
# 2 8.7986 91.2273 11.8540 0.0000 -2.6847 0.0000
# 3 32.3699 11.8540 58.1773 0.0000 10.0588 0.0000
# 4 0.0000 0.0000 0.0000 31.8287 0.0000 4.2377
# 5 33.8176 -2.6847 10.0588 0.0000 50.1926 0.0000
# 6 0.0000 0.0000 0.0000 4.2377 0.0000 28.6280
#
#
#
# Elastic Compliance Matrix: (Units=1/GPa)
#
#
# Indices 1 2 3 4 5 6 
#
# 1 0.009679 -0.000543 -0.004291 0.000000 -0.005690 0.000000
# 2 -0.000543 0.011349 -0.002257 0.000000 0.001425 0.000000
# 3 -0.004291 -0.002257 0.020259 0.000000 -0.001290 0.000000
# 4 0.000000 0.000000 0.000000 0.032050 0.000000 -0.004744
# 5 -0.005690 0.001425 -0.001290 0.000000 0.024092 0.000000
# 6 0.000000 0.000000 0.000000 -0.004744 0.000000 0.035633
#
#
# Mechanical properties :
#
#
# Convention : Reuss Voigt Hill
#
# Bulk Modulus (GPa) = 36.89276 43.72159 40.30717
# Shear Modulus (GPa) = 31.99418 37.75829 34.87623
#
# Velocity S-wave (km/s) = 3.63570 3.94965 3.79592
# Velocity P-wave (km/s) = 5.73293 6.23402 5.98872
#
# Compressibility (1/GPa) = 0.02710559
#
# Stress axis : x y z
#
# Youngs Moduli (GPa) = 103.31879 88.11189 49.36088
#
# Poissons Ratio (x) = 0.04788 0.21179
# Poissons Ratio (y) = 0.05615 0.11139
# Poissons Ratio (z) = 0.44331 0.19883
#
# Static dielectric constant tensor:
#      x y z
#    x 5.418380 0.000000 0.864680 
#    y 0.000000 4.101950 0.000000 
#    z 0.864680 0.000000 4.342020 
# 
# 
# High freq. dielectric constant tensor:
#      x y z
#    x 1.989060 0.000000 0.028460 
#    y 0.000000 1.972670 0.000000 
#    z 0.028460 0.000000 1.932820 
# 
# From -- ./inp_files/73453.got.cif
#   From: 2010.03.12/outbox.cif.g09.slc.cpg/sg14_37_cif.got.tgz:73453.got - 2010.03.31 13:35:05.
