data_PCOD8129507
_publ_section_title
;
Structure prediction by ZEFSAII (Michael W. Deem and Ramdas Pophale) SiO2 
 PCOD8129507
Probable space group: P 21/C
;
_chemical_formula_sum "Si O2"
_cell_formula_units_Z 16
_cell_length_a 11.301100
_cell_length_b 13.576889
_cell_length_c 8.730504
_cell_angle_alpha 90.000000
_cell_angle_beta 140.583328
_cell_angle_gamma 90.000000
_cell_volume 850.557110
_symmetry_space_group_name_H-M "P 21/C"
_symmetry_group_IT_number 14
_symmetry_cell_setting 'monoclinic'
loop_
_space_group_symop_operation_xyz
x,y,z
-x,1/2+y,1/2-z
-x,-y,-z
x,1/2-y,1/2+z
loop_
_atom_site_type_symbol
_atom_site_label
_atom_site_fract_x
_atom_site_fract_y
_atom_site_fract_z
Si Si1 0.500002 0.385722 0.249174
Si Si2 0.792684 0.463530 0.120020
Si Si3 0.500001 0.187164 0.405346
Si Si4 0.792687 0.963531 0.965353
O O1 0.500001 0.304188 0.381505
O O2 0.682637 0.453985 0.452733
O O3 0.317373 0.453989 0.087470
O O4 0.499997 0.332114 0.085626
O O5 0.802238 0.500001 0.302239
O O6 0.999997 0.448836 0.258609
O O7 0.682777 0.360056 0.008091
O O8 0.317226 0.139942 0.142533
#
# Coordination Sequence:
#
# PCOD8129507 Si02
#       4
#     4   4   4   4
#     4   9  17  29  46  66  86 111 143 177 212 250
#     4   8  15  29  46  62  84 116 148 172 202 254
#     4   9  17  29  46  66  86 111 143 177 212 250
#     4   8  15  29  46  62  84 116 148 172 202 254
#
# _framework density 18.811199999999999
#
# number of rings (size 3 to 8) (size 9 to 14) (size 15 to 20)
#    0.000    3.500    0.000    3.000    0.000    2.000 
#    0.000    5.000    0.000    3.000    0.000    0.000 
#    0.000    0.000    0.000    0.000    0.000    0.000 
#
# Total GULP energy -198310.718783 kJ/mol
# GULP energy per Si atom -12394.419924 kJ/mol
# Density = 1.876838 g / cm^3
# Si number density = 18.811200 Si / 1000 Ang^3
#
#
#
# Elastic Constant Matrix: (Units=GPa)
#
#
# Indices 1 2 3 4 5 6 
#
# 1 42.3863 0.9147 29.0164 0.0000 32.0148 0.0000
# 2 0.9147 29.5256 3.5437 0.0000 8.7623 0.0000
# 3 29.0164 3.5437 64.2082 0.0000 40.6677 0.0000
# 4 0.0000 0.0000 0.0000 22.2110 0.0000 -9.3064
# 5 32.0148 8.7623 40.6677 0.0000 40.3111 0.0000
# 6 0.0000 0.0000 0.0000 -9.3064 0.0000 25.0078
#
#
#
# Elastic Compliance Matrix: (Units=1/GPa)
#
#
# Indices 1 2 3 4 5 6 
#
# 1 0.067806 0.017443 0.013584 0.000000 -0.071346 0.000000
# 2 0.017443 0.042350 0.012145 0.000000 -0.035311 0.000000
# 3 0.013584 0.012145 0.047837 0.000000 -0.061688 0.000000
# 4 0.000000 0.000000 0.000000 0.053340 0.000000 0.019850
# 5 -0.071346 -0.035311 -0.061688 0.000000 0.151380 0.000000
# 6 0.000000 0.000000 0.000000 0.019850 0.000000 0.047375
#
#
# Mechanical properties :
#
#
# Convention : Reuss Voigt Hill
#
# Bulk Modulus (GPa) = 4.09272 22.56329 13.32800
# Shear Modulus (GPa) = 12.33994 24.34900 18.34447
#
# Velocity S-wave (km/s) = 2.56401 3.60166 3.12619
# Velocity P-wave (km/s) = 3.30846 5.41448 4.48679
#
# Compressibility (1/GPa) = 0.24433633
#
# Stress axis : x y z
#
# Youngs Moduli (GPa) = 14.74806 23.61265 20.90434
#
# Poissons Ratio (x) = -0.41187 -0.28397
# Poissons Ratio (y) = -0.25724 -0.25389
# Poissons Ratio (z) = -0.20034 -0.28678
#
# Static dielectric constant tensor:
#      x y z
#    x 3.412750 0.000000 0.678660 
#    y 0.000000 3.352680 0.000000 
#    z 0.678660 0.000000 3.616550 
# 
# 
# High freq. dielectric constant tensor:
#      x y z
#    x 1.702670 0.000000 0.029680 
#    y 0.000000 1.725910 0.000000 
#    z 0.029680 0.000000 1.711580 
# 
# From -- ./inp_files/7396.got.cif
#   From: 2010.03.12/outbox.cif.g09.slc.cpg/sg14_4_cif.got.tgz:7396.got - 2010.03.31 13:35:05.
