data_PCOD8129932
_publ_section_title
;
Structure prediction by ZEFSAII (Michael W. Deem and Ramdas Pophale) SiO2 
 PCOD8129932
Probable space group: C 2/C
;
_chemical_formula_sum "Si O2"
_cell_formula_units_Z 36
_cell_length_a 16.871245
_cell_length_b 19.939533
_cell_length_c 8.946187
_cell_angle_alpha 90.000000
_cell_angle_beta 143.384906
_cell_angle_gamma 90.000000
_cell_volume 1794.998911
_symmetry_space_group_name_H-M "C 2/C"
_symmetry_group_IT_number 15
_symmetry_cell_setting 'monoclinic'
loop_
_space_group_symop_operation_xyz
x,y,z
-x,y,1/2-z
-x,-y,-z
x,-y,1/2+z
1/2+x,1/2+y,z
1/2-x,1/2+y,1/2-z
1/2-x,1/2-y,-z
1/2+x,1/2-y,1/2+z
loop_
_atom_site_type_symbol
_atom_site_label
_atom_site_fract_x
_atom_site_fract_y
_atom_site_fract_z
Si Si1 0.677935 0.820307 0.877366
Si Si2 0.097004 0.633969 0.570733
Si Si3 0.500000 0.982265 0.750000
Si Si4 0.852562 0.070665 0.481492
Si Si5 0.751780 0.946752 0.518078
O O1 0.524130 0.813050 0.583155
O O2 0.756511 0.869895 0.888140
O O3 0.750000 0.750000 0.000000
O O4 0.678479 0.849410 0.045282
O O5 0.021095 0.562980 0.430320
O O6 0.203946 0.622674 0.864691
O O7 0.372736 0.027364 0.577731
O O8 0.857772 0.068782 0.308229
O O9 0.811112 0.998945 0.488623
O O10 0.000000 0.090305 0.750000
#
# Coordination Sequence:
#
# PCOD8129932 Si02
#       5
#     8   8   4   8   8
#     4  10  22  41  61  85 118 165 207 241 293 361
#     4  10  20  37  66  89 112 157 202 252 292 350
#     4  10  16  32  62  88 120 140 190 248 300 346
#     4  12  24  36  60  91 128 164 189 253 317 365
#     4  12  20  38  60  95 124 146 206 249 313 367
#
# _framework density 20.055720999999998
#
# number of rings (size 3 to 8) (size 9 to 14) (size 15 to 20)
#    0.000    1.333    6.667    2.667    3.111    0.000 
#    0.000    1.111    4.889    0.000    0.000    0.000 
#    0.000    0.000    0.000    0.000    0.000    0.000 
#
# Total GULP energy -223100.618847 kJ/mol
# GULP energy per Si atom -12394.478825 kJ/mol
# Density = 2.001007 g / cm^3
# Si number density = 20.055721 Si / 1000 Ang^3
#
#
#
# Elastic Constant Matrix: (Units=GPa)
#
#
# Indices 1 2 3 4 5 6 
#
# 1 67.1813 22.6784 39.2578 0.0000 -14.3985 0.0000
# 2 22.6784 77.0895 25.2678 0.0000 -14.0592 0.0000
# 3 39.2578 25.2678 121.0367 0.0000 -32.5224 0.0000
# 4 0.0000 0.0000 0.0000 28.2309 0.0000 6.6642
# 5 -14.3985 -14.0592 -32.5224 0.0000 31.7034 0.0000
# 6 0.0000 0.0000 0.0000 6.6642 0.0000 12.7443
#
#
#
# Elastic Compliance Matrix: (Units=1/GPa)
#
#
# Indices 1 2 3 4 5 6 
#
# 1 0.019504 -0.003722 -0.004987 0.000000 0.002092 0.000000
# 2 -0.003722 0.015096 -0.000828 0.000000 0.004155 0.000000
# 3 -0.004987 -0.000828 0.012901 0.000000 0.010602 0.000000
# 4 0.000000 0.000000 0.000000 0.040410 0.000000 -0.021131
# 5 0.002092 0.004155 0.010602 0.000000 0.045211 0.000000
# 6 0.000000 0.000000 0.000000 -0.021131 0.000000 0.089517
#
#
# Mechanical properties :
#
#
# Convention : Reuss Voigt Hill
#
# Bulk Modulus (GPa) = 35.17693 48.85729 42.01711
# Shear Modulus (GPa) = 19.90539 26.40927 23.15733
#
# Velocity S-wave (km/s) = 3.15382 3.63270 3.40170
# Velocity P-wave (km/s) = 5.55336 6.48144 6.03526
#
# Compressibility (1/GPa) = 0.02842772
#
# Stress axis : x y z
#
# Youngs Moduli (GPa) = 51.27174 66.24316 77.51238
#
# Poissons Ratio (x) = 0.24653 0.38656
# Poissons Ratio (y) = 0.19081 0.06418
# Poissons Ratio (z) = 0.25569 0.05485
#
# Static dielectric constant tensor:
#      x y z
#    x 3.659440 0.000000 -0.072920 
#    y 0.000000 3.448310 0.000000 
#    z -0.072920 0.000000 4.124800 
# 
# 
# High freq. dielectric constant tensor:
#      x y z
#    x 1.785740 0.000000 0.002150 
#    y 0.000000 1.746050 0.000000 
#    z 0.002150 0.000000 1.783550 
# 
# From -- ./inp_files/30564.got.cif
#   From: 2010.06.25/outbox.cif.g09.slc.cpg/sg15_16_cif.got.tgz:30564.got - 2010.06.28 07:06:18.
