data_PCOD8129135
_publ_section_title
;
Structure prediction by ZEFSAII (Michael W. Deem and Ramdas Pophale) SiO2 
 PCOD8129135
Probable space group: P 21/C
;
_chemical_formula_sum "Si O2"
_cell_formula_units_Z 28
_cell_length_a 29.601764
_cell_length_b 7.486927
_cell_length_c 9.341975
_cell_angle_alpha 90.000000
_cell_angle_beta 144.119475
_cell_angle_gamma 90.000000
_cell_volume 1213.470940
_symmetry_space_group_name_H-M "P 21/C"
_symmetry_group_IT_number 14
_symmetry_cell_setting 'monoclinic'
loop_
_space_group_symop_operation_xyz
x,y,z
-x,1/2+y,1/2-z
-x,-y,-z
x,1/2-y,1/2+z
loop_
_atom_site_type_symbol
_atom_site_label
_atom_site_fract_x
_atom_site_fract_y
_atom_site_fract_z
Si Si1 0.451331 0.885441 0.985690
Si Si2 0.811420 0.175746 0.501332
Si Si3 0.710840 0.238248 0.487518
Si Si4 0.311096 0.132255 0.112386
Si Si5 0.910579 0.973061 0.292202
Si Si6 0.405649 0.169377 0.081335
Si Si7 0.847344 0.825486 0.419911
O O1 0.507598 0.742749 0.201164
O O2 0.410855 0.984676 0.012901
O O3 0.378338 0.808263 0.714253
O O4 0.500000 0.000000 0.000000
O O5 0.763627 0.114336 0.520226
O O6 0.874364 0.327737 0.697545
O O7 0.847955 0.996799 0.527979
O O8 0.747529 0.262662 0.236454
O O9 0.715883 0.432256 0.425775
O O10 0.382258 0.141390 0.184963
O O11 0.340477 0.211006 0.337400
O O12 0.237595 0.231668 0.854689
O O13 0.898607 0.876877 0.414130
O O14 0.879312 0.847254 0.084279
O O15 0.000000 0.000000 0.500000
#
# Coordination Sequence:
#
# PCOD8129135 Si02
#       7
#     4   4   4   4   4   4   4
#     4  12  27  41  64  99 135 186 232 306 363 424
#     4  11  25  50  75 107 146 196 248 300 368 439
#     4  11  26  44  71  97 142 190 245 299 361 435
#     4  11  24  45  70  99 134 187 239 299 354 433
#     4  12  29  48  80 116 151 194 238 302 374 448
#     4  12  26  42  66  96 137 180 241 295 368 419
#     4  11  27  49  76 113 149 193 246 299 362 444
#
# _framework density 23.074307999999998
#
# number of rings (size 3 to 8) (size 9 to 14) (size 15 to 20)
#    0.000    0.571    4.286    3.429   12.000    1.714 
#    0.000    0.000    0.000    0.000    0.000    0.000 
#    0.000    0.000    0.000    0.000    0.000    0.000 
#
# Total GULP energy -347188.054294 kJ/mol
# GULP energy per Si atom -12399.573368 kJ/mol
# Density = 2.302179 g / cm^3
# Si number density = 23.074308 Si / 1000 Ang^3
#
#
#
# Elastic Constant Matrix: (Units=GPa)
#
#
# Indices 1 2 3 4 5 6 
#
# 1 83.3061 11.9954 14.6331 0.0000 14.8792 0.0000
# 2 11.9954 39.4545 21.8324 0.0000 6.4485 0.0000
# 3 14.6331 21.8324 91.9141 0.0000 32.1275 0.0000
# 4 0.0000 0.0000 0.0000 40.3763 0.0000 2.6333
# 5 14.8792 6.4485 32.1275 0.0000 38.9981 0.0000
# 6 0.0000 0.0000 0.0000 2.6333 0.0000 33.7440
#
#
#
# Elastic Compliance Matrix: (Units=1/GPa)
#
#
# Indices 1 2 3 4 5 6 
#
# 1 0.013296 -0.003472 0.000394 0.000000 -0.004823 0.000000
# 2 -0.003472 0.030131 -0.007480 0.000000 0.002504 0.000000
# 3 0.000394 -0.007480 0.017153 0.000000 -0.013045 0.000000
# 4 0.000000 0.000000 0.000000 0.024894 0.000000 -0.001943
# 5 -0.004823 0.002504 -0.013045 0.000000 0.037815 0.000000
# 6 0.000000 0.000000 0.000000 -0.001943 0.000000 0.029786
#
#
# Mechanical properties :
#
#
# Convention : Reuss Voigt Hill
#
# Bulk Modulus (GPa) = 25.33909 34.62183 29.98046
# Shear Modulus (GPa) = 26.68860 33.70461 30.19660
#
# Velocity S-wave (km/s) = 3.40463 3.82605 3.62148
# Velocity P-wave (km/s) = 5.14399 5.87838 5.52340
#
# Compressibility (1/GPa) = 0.03946472
#
# Stress axis : x y z
#
# Youngs Moduli (GPa) = 75.20955 33.18859 58.29791
#
# Poissons Ratio (x) = 0.11523 -0.02296
# Poissons Ratio (y) = 0.26113 0.43604
# Poissons Ratio (z) = -0.02962 0.24824
#
# Static dielectric constant tensor:
#      x y z
#    x 3.905400 0.000000 -0.752430 
#    y 0.000000 4.052030 0.000000 
#    z -0.752430 0.000000 2.075050 
# 
# 
# High freq. dielectric constant tensor:
#      x y z
#    x 1.926010 0.000000 -0.003490 
#    y 0.000000 1.911080 0.000000 
#    z -0.003490 0.000000 1.914470 
# 
# From -- ./inp_files/19769.got.cif
#   From: 2010.03.12/outbox.cif.g09.slc.cpg/sg14_10_cif.got.tgz:19769.got - 2010.03.31 13:35:05.
