data_PCOD8129809
_publ_section_title
;
Structure prediction by ZEFSAII (Michael W. Deem and Ramdas Pophale) SiO2 
 PCOD8129809
Probable space group: C 2/C
;
_chemical_formula_sum "Si O2"
_cell_formula_units_Z 64
_cell_length_a 37.075837
_cell_length_b 15.325098
_cell_length_c 5.260576
_cell_angle_alpha 90.000000
_cell_angle_beta 89.932166
_cell_angle_gamma 90.000000
_cell_volume 2989.008978
_symmetry_space_group_name_H-M "C 2/C"
_symmetry_group_IT_number 15
_symmetry_cell_setting 'monoclinic'
loop_
_space_group_symop_operation_xyz
x,y,z
-x,y,1/2-z
-x,-y,-z
x,-y,1/2+z
1/2+x,1/2+y,z
1/2-x,1/2+y,1/2-z
1/2-x,1/2-y,-z
1/2+x,1/2-y,1/2+z
loop_
_atom_site_type_symbol
_atom_site_label
_atom_site_fract_x
_atom_site_fract_y
_atom_site_fract_z
Si Si1 0.540541 0.674327 0.249268
Si Si2 0.082208 0.617687 0.249024
Si Si3 0.082242 0.175125 0.748936
Si Si4 0.459551 0.118371 0.750610
Si Si5 0.336322 0.090608 0.251234
Si Si6 0.149717 0.057570 0.762218
Si Si7 0.229645 0.943387 0.254385
Si Si8 0.806059 0.604068 0.751484
O O1 0.500000 0.636101 0.250000
O O2 0.561031 0.641012 0.500646
O O3 0.539064 0.777953 0.249433
O O4 0.560879 0.641026 0.996936
O O5 0.086507 0.721427 0.248987
O O6 0.060836 0.584764 0.497617
O O7 0.121147 0.572528 0.248880
O O8 0.060892 0.584748 0.000583
O O9 0.122242 0.137086 0.747978
O O10 0.500000 0.080265 0.750000
O O11 0.324499 0.145761 0.500761
O O12 0.314729 0.999568 0.251418
O O13 0.324564 0.145747 0.001730
O O14 0.189952 0.100149 0.753550
O O15 0.143820 0.993900 0.524207
O O16 0.263097 0.875538 0.252058
O O17 0.234276 0.999027 0.506235
#
# Coordination Sequence:
#
# PCOD8129809 Si02
#       8
#     8   8   8   8   8   8   8   8
#     4   9  17  30  52  73  94 129 163 198 240 281
#     4  10  19  30  48  75 100 128 154 196 254 291
#     4  10  19  33  50  72 104 124 157 205 243 289
#     4   9  17  30  47  71  97 125 167 204 230 273
#     4  10  18  28  47  73 100 124 155 196 250 280
#     4  10  21  33  53  74  93 129 163 205 235 284
#     4  10  16  30  49  73  90 116 166 206 238 256
#     4  10  17  30  48  71  94 123 159 208 230 276
#
# _framework density 21.411778000000002
#
# number of rings (size 3 to 8) (size 9 to 14) (size 15 to 20)
#    0.000    2.250    2.500    2.250    0.000    3.000 
#    0.000    0.000    0.000    9.000    0.000   35.000 
#    0.000    0.000    0.000    0.000    0.000    0.000 
#
# Total GULP energy -396656.133560 kJ/mol
# GULP energy per Si atom -12395.504174 kJ/mol
# Density = 2.136304 g / cm^3
# Si number density = 21.411778 Si / 1000 Ang^3
#
#
#
# Elastic Constant Matrix: (Units=GPa)
#
#
# Indices 1 2 3 4 5 6 
#
# 1 207.9527 24.8027 76.6636 0.0000 1.5108 0.0000
# 2 24.8027 19.0262 5.2698 0.0000 2.4247 0.0000
# 3 76.6636 5.2698 212.5182 0.0000 5.5791 0.0000
# 4 0.0000 0.0000 0.0000 21.7228 0.0000 0.1834
# 5 1.5108 2.4247 5.5791 0.0000 39.8728 0.0000
# 6 0.0000 0.0000 0.0000 0.1834 0.0000 16.5590
#
#
#
# Elastic Compliance Matrix: (Units=1/GPa)
#
#
# Indices 1 2 3 4 5 6 
#
# 1 0.006567 -0.008026 -0.002184 0.000000 0.000545 0.000000
# 2 -0.008026 0.063101 0.001428 0.000000 -0.003733 0.000000
# 3 -0.002184 0.001428 0.005478 0.000000 -0.000771 0.000000
# 4 0.000000 0.000000 0.000000 0.046039 0.000000 -0.000510
# 5 0.000545 -0.003733 -0.000771 0.000000 0.025394 0.000000
# 6 0.000000 0.000000 0.000000 -0.000510 0.000000 0.060396
#
#
# Mechanical properties :
#
#
# Convention : Reuss Voigt Hill
#
# Bulk Modulus (GPa) = 17.36596 72.55213 44.95905
# Shear Modulus (GPa) = 20.51420 37.81498 29.16459
#
# Velocity S-wave (km/s) = 3.09864 4.20704 3.69464
# Velocity P-wave (km/s) = 4.57495 7.58661 6.26446
#
# Compressibility (1/GPa) = 0.05758391
#
# Stress axis : x y z
#
# Youngs Moduli (GPa) = 152.26844 15.84749 182.53889
#
# Poissons Ratio (x) = 0.12719 0.39874
# Poissons Ratio (y) = 1.22205 -0.26075
# Poissons Ratio (z) = 0.33261 -0.02264
#
# Static dielectric constant tensor:
#      x y z
#    x 4.192700 0.000000 0.008530 
#    y 0.000000 3.009410 0.000000 
#    z 0.008530 0.000000 5.250510 
# 
# 
# High freq. dielectric constant tensor:
#      x y z
#    x 1.861240 0.000000 0.000340 
#    y 0.000000 1.760470 0.000000 
#    z 0.000340 0.000000 1.874830 
# 
# From -- ./inp_files/18458.got.cif
#   From: 2010.06.25/outbox.cif.g09.slc.cpg/sg15_10_cif.got.tgz:18458.got - 2010.06.28 07:06:18.
