data_PCOD8129343
_publ_section_title
;
Structure prediction by ZEFSAII (Michael W. Deem and Ramdas Pophale) SiO2 
 PCOD8129343
Probable space group: P 21/C
;
_chemical_formula_sum "Si O2"
_cell_formula_units_Z 28
_cell_length_a 21.944534
_cell_length_b 13.194986
_cell_length_c 21.374494
_cell_angle_alpha 90.000000
_cell_angle_beta 166.911460
_cell_angle_gamma 90.000000
_cell_volume 1401.573628
_symmetry_space_group_name_H-M "P 21/C"
_symmetry_group_IT_number 14
_symmetry_cell_setting 'monoclinic'
loop_
_space_group_symop_operation_xyz
x,y,z
-x,1/2+y,1/2-z
-x,-y,-z
x,1/2-y,1/2+z
loop_
_atom_site_type_symbol
_atom_site_label
_atom_site_fract_x
_atom_site_fract_y
_atom_site_fract_z
Si Si1 0.869283 0.185590 0.495264
Si Si2 0.869247 0.185597 0.243262
Si Si3 0.651741 0.716408 0.331511
Si Si4 0.755460 0.075060 0.255459
Si Si5 0.499996 0.500002 0.786370
Si Si6 0.348286 0.283579 0.028056
Si Si7 0.999998 0.000004 0.298703
O O1 0.769941 0.152449 0.327752
O O2 0.601350 0.214200 0.264295
O O3 0.042914 0.095746 0.699998
O O4 0.096269 0.273707 0.727328
O O5 0.769944 0.152445 0.212129
O O6 0.096212 0.273723 0.465147
O O7 0.042913 0.095770 0.385815
O O8 0.601295 0.214200 0.938353
O O9 0.568088 0.598759 0.240687
O O10 0.743806 0.749988 0.493808
O O11 0.000000 0.000000 0.500000
O O12 0.500000 0.000000 0.000000
O O13 0.568102 0.598767 0.895498
O O14 0.252115 0.527053 0.495123
O O15 0.747879 0.472946 0.990885
#
# Coordination Sequence:
#
# PCOD8129343 Si02
#       7
#     4   4   4   4   4   4   4
#     4  12  24  40  62  92 132 162 207 257 321 381
#     4  12  24  40  62  92 132 162 207 257 321 381
#     4  12  23  40  61  93 126 170 204 263 319 374
#     4  12  26  42  66  95 126 171 210 258 320 379
#     4  12  24  36  62  92 130 162 210 250 322 386
#     4  12  23  40  61  93 126 170 204 263 319 374
#     4  12  20  35  62  94 124 163 198 258 310 398
#
# _framework density 19.977546
#
# number of rings (size 3 to 8) (size 9 to 14) (size 15 to 20)
#    0.000    0.000    7.143    4.286    2.000    0.000 
#    0.000    0.000    0.000    5.143    0.000    0.000 
#    0.000    0.000    0.000    0.000    0.000    0.000 
#
# Total GULP energy -347089.883751 kJ/mol
# GULP energy per Si atom -12396.067277 kJ/mol
# Density = 1.993208 g / cm^3
# Si number density = 19.977546 Si / 1000 Ang^3
#
#
#
# Elastic Constant Matrix: (Units=GPa)
#
#
# Indices 1 2 3 4 5 6 
#
# 1 100.7945 63.1578 49.8540 0.0000 -0.6305 0.0000
# 2 63.1578 102.8162 35.3915 0.0000 -3.9084 0.0000
# 3 49.8540 35.3915 137.9761 0.0000 5.8547 0.0000
# 4 0.0000 0.0000 0.0000 42.8432 0.0000 1.3242
# 5 -0.6305 -3.9084 5.8547 0.0000 24.1633 0.0000
# 6 0.0000 0.0000 0.0000 1.3242 0.0000 33.4205
#
#
#
# Elastic Compliance Matrix: (Units=1/GPa)
#
#
# Indices 1 2 3 4 5 6 
#
# 1 0.017949 -0.009652 -0.004004 0.000000 -0.000123 0.000000
# 2 -0.009652 0.015999 -0.000723 0.000000 0.002511 0.000000
# 3 -0.004004 -0.000723 0.008982 0.000000 -0.002398 0.000000
# 4 0.000000 0.000000 0.000000 0.023370 0.000000 -0.000926
# 5 -0.000123 0.002511 -0.002398 0.000000 0.042369 0.000000
# 6 0.000000 0.000000 0.000000 -0.000926 0.000000 0.029958
#
#
# Mechanical properties :
#
#
# Convention : Reuss Voigt Hill
#
# Bulk Modulus (GPa) = 70.56479 70.93261 70.74870
# Shear Modulus (GPa) = 29.05132 32.96433 31.00782
#
# Velocity S-wave (km/s) = 3.81753 4.06651 3.94399
# Velocity P-wave (km/s) = 7.40474 7.59157 7.49874
#
# Compressibility (1/GPa) = 0.01417137
#
# Stress axis : x y z
#
# Youngs Moduli (GPa) = 55.71379 62.50248 111.33734
#
# Poissons Ratio (x) = 0.60327 0.44584
# Poissons Ratio (y) = 0.53774 0.08050
# Poissons Ratio (z) = 0.22310 0.04519
#
# Static dielectric constant tensor:
#      x y z
#    x 3.807010 0.000000 -0.012740 
#    y 0.000000 3.866210 0.000000 
#    z -0.012740 0.000000 3.717180 
# 
# 
# High freq. dielectric constant tensor:
#      x y z
#    x 1.743280 0.000000 0.008670 
#    y 0.000000 1.786380 0.000000 
#    z 0.008670 0.000000 1.804930 
# 
# From -- ./inp_files/75011.got.cif
#   From: 2010.03.12/outbox.cif.g09.slc.cpg/sg14_38_cif.got.tgz:75011.got - 2010.03.31 13:35:05.
