data_PCOD8129898
_publ_section_title
;
Structure prediction by ZEFSAII (Michael W. Deem and Ramdas Pophale) SiO2 
 PCOD8129898
Probable space group: C 2/C
;
_chemical_formula_sum "Si O2"
_cell_formula_units_Z 60
_cell_length_a 14.860386
_cell_length_b 8.400875
_cell_length_c 23.863854
_cell_angle_alpha 90.000000
_cell_angle_beta 91.454471
_cell_angle_gamma 90.000000
_cell_volume 2978.209528
_symmetry_space_group_name_H-M "C 2/C"
_symmetry_group_IT_number 15
_symmetry_cell_setting 'monoclinic'
loop_
_space_group_symop_operation_xyz
x,y,z
-x,y,1/2-z
-x,-y,-z
x,-y,1/2+z
1/2+x,1/2+y,z
1/2-x,1/2+y,1/2-z
1/2-x,1/2-y,-z
1/2+x,1/2-y,1/2+z
loop_
_atom_site_type_symbol
_atom_site_label
_atom_site_fract_x
_atom_site_fract_y
_atom_site_fract_z
Si Si1 0.028291 0.325400 0.856999
Si Si2 0.207095 0.877785 0.370254
Si Si3 0.500000 0.343348 0.250000
Si Si4 0.654442 0.412680 0.774777
Si Si5 0.857201 0.850355 0.848747
Si Si6 0.606825 0.408129 0.948531
Si Si7 0.051475 0.301534 0.352127
Si Si8 0.926780 0.896464 0.429433
O O1 0.126136 0.245709 0.859464
O O2 0.973641 0.269083 0.801351
O O3 0.039203 0.512263 0.855263
O O4 0.964720 0.272122 0.907731
O O5 0.298132 0.778253 0.381635
O O6 0.224286 0.001622 0.318637
O O7 0.185992 0.979012 0.425986
O O8 0.420581 0.454471 0.229950
O O9 0.691376 0.378206 0.712777
O O10 0.615671 0.250204 0.801513
O O11 0.956833 0.785251 0.840190
O O12 0.861415 0.015436 0.883632
O O13 0.599037 0.249557 0.910965
O O14 0.510488 0.490308 0.942199
O O15 0.627616 0.365528 0.013623
#
# Coordination Sequence:
#
# PCOD8129898 Si02
#       8
#     8   8   4   8   8   8   8   8
#     4  10  20  33  52  83 103 141 176 231 267 326
#     4   9  21  35  52  77 112 139 181 219 282 321
#     4  10  16  32  54  70 102 136 182 216 258 326
#     4  10  18  36  51  71 106 151 174 220 270 338
#     4  11  19  34  54  80 104 143 182 225 270 332
#     4   8  17  36  56  77 105 148 180 225 267 325
#     4  10  20  33  57  79 107 138 187 224 270 324
#     4   9  17  34  59  77 104 144 191 217 265 326
#
# _framework density 20.146334
#
# number of rings (size 3 to 8) (size 9 to 14) (size 15 to 20)
#    0.000    2.400    2.667    1.600    1.867    2.133 
#    2.400    2.667    0.000    1.600    0.000    0.000 
#    0.000    0.000    0.000    0.000    0.000    0.000 
#
# Total GULP energy -371783.209246 kJ/mol
# GULP energy per Si atom -12392.773642 kJ/mol
# Density = 2.010048 g / cm^3
# Si number density = 20.146334 Si / 1000 Ang^3
#
#
#
# Elastic Constant Matrix: (Units=GPa)
#
#
# Indices 1 2 3 4 5 6 
#
# 1 33.8495 6.8959 14.1116 0.0000 -6.3131 0.0000
# 2 6.8959 128.5124 47.8109 0.0000 -7.1467 0.0000
# 3 14.1116 47.8109 138.8066 0.0000 -24.5518 0.0000
# 4 0.0000 0.0000 0.0000 17.2966 0.0000 -5.4098
# 5 -6.3131 -7.1467 -24.5518 0.0000 17.1339 0.0000
# 6 0.0000 0.0000 0.0000 -5.4098 0.0000 23.1230
#
#
#
# Elastic Compliance Matrix: (Units=1/GPa)
#
#
# Indices 1 2 3 4 5 6 
#
# 1 0.032027 -0.000694 -0.001314 0.000000 0.009629 0.000000
# 2 -0.000694 0.008951 -0.003211 0.000000 -0.001124 0.000000
# 3 -0.001314 -0.003211 0.010879 0.000000 0.013765 0.000000
# 4 0.000000 0.000000 0.000000 0.062380 0.000000 0.014594
# 5 0.009629 -0.001124 0.013765 0.000000 0.081167 0.000000
# 6 0.000000 0.000000 0.000000 0.014594 0.000000 0.046661
#
#
# Mechanical properties :
#
#
# Convention : Reuss Voigt Hill
#
# Bulk Modulus (GPa) = 24.14400 48.75613 36.45007
# Shear Modulus (GPa) = 18.77516 27.00071 22.88794
#
# Velocity S-wave (km/s) = 3.05608 3.66489 3.37424
# Velocity P-wave (km/s) = 4.94603 6.49323 5.77171
#
# Compressibility (1/GPa) = 0.04141816
#
# Stress axis : x y z
#
# Youngs Moduli (GPa) = 31.22321 111.72193 91.92344
#
# Poissons Ratio (x) = 0.07757 0.12077
# Poissons Ratio (y) = 0.02168 0.29519
# Poissons Ratio (z) = 0.04102 0.35876
#
# Static dielectric constant tensor:
#      x y z
#    x 3.307250 0.000000 -0.150860 
#    y 0.000000 3.624760 0.000000 
#    z -0.150860 0.000000 4.238810 
# 
# 
# High freq. dielectric constant tensor:
#      x y z
#    x 1.749260 0.000000 -0.011440 
#    y 0.000000 1.780530 0.000000 
#    z -0.011440 0.000000 1.791270 
# 
# From -- ./inp_files/272802.got.cif
#   From: 2010.06.25/outbox.cif.g09.slc.cpg/sg15_137_cif.got.tgz:272802.got - 2010.06.28 07:06:18.
