data_PCOD8129601
_publ_section_title
;
Structure prediction by ZEFSAII (Michael W. Deem and Ramdas Pophale) SiO2 
 PCOD8129601
Probable space group: C 2/C
;
_chemical_formula_sum "Si O2"
_cell_formula_units_Z 32
_cell_length_a 15.000000
_cell_length_b 18.000000
_cell_length_c 24.000000
_cell_angle_alpha 90.000000
_cell_angle_beta 150.000000
_cell_angle_gamma 90.000000
_cell_volume 3240.000000
_symmetry_space_group_name_H-M "C 2/C"
_symmetry_group_IT_number 15
_symmetry_cell_setting 'monoclinic'
loop_
_space_group_symop_operation_xyz
x,y,z
-x,y,1/2-z
-x,-y,-z
x,-y,1/2+z
1/2+x,1/2+y,z
1/2-x,1/2+y,1/2-z
1/2-x,1/2-y,-z
1/2+x,1/2-y,1/2+z
loop_
_atom_site_type_symbol
_atom_site_label
_atom_site_fract_x
_atom_site_fract_y
_atom_site_fract_z
Si Si1 0.143194 0.858641 0.113897
Si Si2 0.679643 0.332195 0.723443
Si Si3 0.182172 0.098613 0.508483
Si Si4 0.645799 0.333311 0.375775
Si Si5 0.466838 0.189372 0.467887
Si Si6 0.481996 0.826322 0.370800
Si Si7 0.489619 0.817329 0.678801
Si Si8 0.675271 0.427686 0.491253
O O1 0.074385 0.775638 0.064584
O O2 0.307318 0.866981 0.247955
O O3 0.974739 0.906212 0.044510
O O4 0.202915 0.888792 0.085912
O O5 0.522351 0.390996 0.624681
O O6 0.798735 0.350881 0.843905
O O7 0.559380 0.258771 0.665398
O O8 0.816472 0.326125 0.745165
O O9 0.333192 0.147897 0.558341
O O10 0.225516 0.013390 0.520557
O O11 0.500000 0.342653 0.250000
O O12 0.601144 0.260386 0.389745
O O13 0.611260 0.405304 0.395094
O O14 0.848077 0.330877 0.462169
O O15 0.488168 0.165843 0.545082
O O16 0.500000 0.808425 0.750000
O O17 0.364353 0.886586 0.599763
#
# Coordination Sequence:
#
# PCOD8129601 Si02
#       8
#     8   8   8   8   8   8   8   8
#     4  11  23  43  70  99 131 168 225 280 329 390
#     4  11  23  41  66  97 133 171 230 279 318 394
#     4  12  27  44  62  97 139 184 218 264 335 403
#     4  11  21  40  69 101 130 162 223 277 333 389
#     4  11  21  41  72 100 125 166 228 284 324 378
#     4  11  24  44  69  95 129 180 228 278 323 380
#     4  11  21  38  69 101 130 167 219 283 336 383
#     4  12  24  42  66 100 139 170 212 269 344 411
#
# _framework density 9.8765429999999999
#
# number of rings (size 3 to 8) (size 9 to 14) (size 15 to 20)
#    0.000    0.750    3.750    6.000    0.000    2.500 
#    2.250    0.625    0.000    0.000    0.000    0.000 
#    0.000    0.000    0.000    0.000    0.000    0.000 
#
# Total GULP energy -396428.783880 kJ/mol
# GULP energy per Si atom -12388.399496 kJ/mol
# Density = 0.985406 g / cm^3
# Si number density = 9.876543 Si / 1000 Ang^3
#
#
#
# Elastic Constant Matrix: (Units=GPa)
#
#
# Indices 1 2 3 4 5 6 
#
# 1 161.4087 48.5304 59.4294 0.0037 9.1960 0.0022
# 2 48.5304 83.4006 32.6659 0.0110 -5.3255 0.0071
# 3 59.4294 32.6659 155.4215 0.0261 -3.4651 0.0152
# 4 0.0037 0.0110 0.0261 60.8217 0.0092 22.6797
# 5 9.1960 -5.3255 -3.4651 0.0092 48.5252 0.0062
# 6 0.0022 0.0071 0.0152 22.6797 0.0062 40.7065
#
#
#
# Elastic Compliance Matrix: (Units=1/GPa)
#
#
# Indices 1 2 3 4 5 6 
#
# 1 0.008448 -0.004112 -0.002416 0.000001 -0.002225 0.000001
# 2 -0.004112 0.015142 -0.001558 -0.000002 0.002330 -0.000001
# 3 -0.002416 -0.001558 0.007704 -0.000003 0.000837 -0.000001
# 4 0.000001 -0.000002 -0.000003 0.020753 -0.000003 -0.011563
# 5 -0.002225 0.002330 0.000837 -0.000003 0.021345 -0.000002
# 6 0.000001 -0.000001 -0.000001 -0.011563 -0.000002 0.031008
#
#
# Mechanical properties :
#
#
# Convention : Reuss Voigt Hill
#
# Bulk Modulus (GPa) = 66.12671 75.72024 70.92348
# Shear Modulus (GPa) = 39.80501 47.31769 43.56135
#
# Velocity S-wave (km/s) = 4.49389 4.89965 4.70115
# Velocity P-wave (km/s) = 7.77663 8.39198 8.09016
#
# Compressibility (1/GPa) = 0.01512248
#
# Stress axis : x y z
#
# Youngs Moduli (GPa) = 118.37278 66.04139 129.80269
#
# Poissons Ratio (x) = 0.27154 0.31356
# Poissons Ratio (y) = 0.48671 0.20228
# Poissons Ratio (z) = 0.28595 0.10292
#
# Static dielectric constant tensor:
#      x y z
#    x 4.035020 0.000000 -0.199960 
#    y 0.000000 3.481200 0.000000 
#    z -0.199960 0.000000 4.448850 
# 
# 
# High freq. dielectric constant tensor:
#      x y z
#    x 1.797970 0.000000 0.000610 
#    y 0.000000 1.748750 0.000000 
#    z 0.000610 0.000000 1.817790 
# 
# From -- ./inp_files/274841.got.cif
#   From: 2010.06.25/outbox.ucp.g09.slc.cvg/sg15_138_cif.got.tgz:274841.got - 2010.06.28 14:40:10.
