data_PCOD8129736
_publ_section_title
;
Structure prediction by ZEFSAII (Michael W. Deem and Ramdas Pophale) SiO2 
 PCOD8129736
Probable space group: C 2/C
;
_chemical_formula_sum "Si O2"
_cell_formula_units_Z 36
_cell_length_a 9.972743
_cell_length_b 30.546182
_cell_length_c 5.696086
_cell_angle_alpha 90.000000
_cell_angle_beta 70.455879
_cell_angle_gamma 90.000000
_cell_volume 1635.219579
_symmetry_space_group_name_H-M "C 2/C"
_symmetry_group_IT_number 15
_symmetry_cell_setting 'monoclinic'
loop_
_space_group_symop_operation_xyz
x,y,z
-x,y,1/2-z
-x,-y,-z
x,-y,1/2+z
1/2+x,1/2+y,z
1/2-x,1/2+y,1/2-z
1/2-x,1/2-y,-z
1/2+x,1/2-y,1/2+z
loop_
_atom_site_type_symbol
_atom_site_label
_atom_site_fract_x
_atom_site_fract_y
_atom_site_fract_z
Si Si1 0.000000 0.465406 0.250000
Si Si2 0.851156 0.768615 0.243767
Si Si3 0.639518 0.097586 0.316080
Si Si4 0.226558 0.985132 0.825723
Si Si5 0.353043 0.816776 0.447717
O O1 0.112261 0.496091 0.328604
O O2 0.896918 0.432253 0.442821
O O3 0.750000 0.750000 0.500000
O O4 0.771881 0.809012 0.166705
O O5 0.000000 0.787590 0.250000
O O6 0.889159 0.729011 0.048592
O O7 0.500000 0.107431 0.250000
O O8 0.760117 0.067138 0.119924
O O9 0.703646 0.145045 0.347213
O O10 0.152432 0.994229 0.607708
O O11 0.500000 0.834206 0.250000
#
# Coordination Sequence:
#
# PCOD8129736 Si02
#       5
#     4   8   8   8   8
#     4  10  16  28  42  68 112 160 194 224 302 350
#     4  11  23  43  62  81 116 151 193 245 310 359
#     4  11  18  28  46  73 114 150 192 237 286 359
#     4  10  17  28  42  69 109 166 190 230 298 357
#     4  11  23  35  58  89 110 151 199 245 296 360
#
# _framework density 22.015393
#
# number of rings (size 3 to 8) (size 9 to 14) (size 15 to 20)
#    0.000    1.333    6.667    2.000    0.000    0.000 
#    0.000    0.000    0.000    0.000    0.000    0.000 
#    0.000    7.111    0.000    0.444    0.000    0.000 
#
# Total GULP energy -222992.448088 kJ/mol
# GULP energy per Si atom -12388.469338 kJ/mol
# Density = 2.196528 g / cm^3
# Si number density = 22.015393 Si / 1000 Ang^3
#
#
#
# Elastic Constant Matrix: (Units=GPa)
#
#
# Indices 1 2 3 4 5 6 
#
# 1 88.2007 40.5420 33.4102 0.0000 10.2697 0.0000
# 2 40.5420 129.3477 18.4299 0.0000 25.0714 0.0000
# 3 33.4102 18.4299 86.1032 0.0000 27.1402 0.0000
# 4 0.0000 0.0000 0.0000 41.6254 0.0000 33.2579
# 5 10.2697 25.0714 27.1402 0.0000 28.1968 0.0000
# 6 0.0000 0.0000 0.0000 33.2579 0.0000 32.4660
#
#
#
# Elastic Compliance Matrix: (Units=1/GPa)
#
#
# Indices 1 2 3 4 5 6 
#
# 1 0.015479 -0.004890 -0.006536 0.000000 0.005001 0.000000
# 2 -0.004890 0.010933 0.002957 0.000000 -0.010787 0.000000
# 3 -0.006536 0.002957 0.019517 0.000000 -0.019034 0.000000
# 4 0.000000 0.000000 0.000000 0.132341 0.000000 -0.135569
# 5 0.005001 -0.010787 -0.019034 0.000000 0.061556 0.000000
# 6 0.000000 0.000000 0.000000 -0.135569 0.000000 0.169677
#
#
# Mechanical properties :
#
#
# Convention : Reuss Voigt Hill
#
# Bulk Modulus (GPa) = 34.49227 54.26842 44.38035
# Shear Modulus (GPa) = 11.46517 34.54226 23.00372
#
# Velocity S-wave (km/s) = 2.28454 3.96536 3.23599
# Velocity P-wave (km/s) = 4.76027 6.75790 5.84506
#
# Compressibility (1/GPa) = 0.02899200
#
# Stress axis : x y z
#
# Youngs Moduli (GPa) = 64.60432 91.46497 51.23771
#
# Poissons Ratio (x) = 0.44724 0.33489
# Poissons Ratio (y) = 0.31590 -0.15152
# Poissons Ratio (z) = 0.42225 -0.27048
#
# Static dielectric constant tensor:
#      x y z
#    x 3.495030 0.000000 0.316060 
#    y 0.000000 4.161610 0.000000 
#    z 0.316060 0.000000 4.059490 
# 
# 
# High freq. dielectric constant tensor:
#      x y z
#    x 1.816210 0.000000 0.023810 
#    y 0.000000 1.867200 0.000000 
#    z 0.023810 0.000000 1.873800 
# 
# From -- ./inp_files/5289.got.cif
#   From: 2010.06.25/outbox.cif.g09.slc.cpg/sg15_3_cif.got.tgz:5289.got - 2010.06.28 07:06:18.
