data_PCOD8129683
_publ_section_title
;
Structure prediction by ZEFSAII (Michael W. Deem and Ramdas Pophale) SiO2 
 PCOD8129683
Probable space group: C 2/C
;
_chemical_formula_sum "Si O2"
_cell_formula_units_Z 48
_cell_length_a 21.932742
_cell_length_b 7.804149
_cell_length_c 17.488282
_cell_angle_alpha 90.000000
_cell_angle_beta 37.088570
_cell_angle_gamma 90.000000
_cell_volume 1805.170112
_symmetry_space_group_name_H-M "C 2/C"
_symmetry_group_IT_number 15
_symmetry_cell_setting 'monoclinic'
loop_
_space_group_symop_operation_xyz
x,y,z
-x,y,1/2-z
-x,-y,-z
x,-y,1/2+z
1/2+x,1/2+y,z
1/2-x,1/2+y,1/2-z
1/2-x,1/2-y,-z
1/2+x,1/2-y,1/2+z
loop_
_atom_site_type_symbol
_atom_site_label
_atom_site_fract_x
_atom_site_fract_y
_atom_site_fract_z
Si Si1 0.403848 0.048375 0.305441
Si Si2 0.388874 0.508103 0.774739
Si Si3 0.014567 0.682941 0.897082
Si Si4 0.468554 0.348887 0.473546
Si Si5 0.815768 0.666813 0.026515
Si Si6 0.309018 0.445688 0.512966
O O1 0.500000 0.145478 0.250000
O O2 0.434071 0.981813 0.191472
O O3 0.377664 0.891372 0.389505
O O4 0.297522 0.156044 0.400633
O O5 0.463407 0.352841 0.676547
O O6 0.437621 0.673066 0.680772
O O7 0.275445 0.461655 0.861928
O O8 0.390465 0.558854 0.862573
O O9 0.048390 0.688458 0.952615
O O10 0.892989 0.665543 0.019909
O O11 0.500000 0.500000 0.500000
O O12 0.362445 0.373496 0.535168
O O13 0.771609 0.857465 0.058742
#
# Coordination Sequence:
#
# PCOD8129683 Si02
#       6
#     8   8   8   8   8   8
#     4   9  17  26  44  66  91 116 146 183 220 266
#     4  10  17  26  39  60  90 117 142 178 220 266
#     4  10  17  27  39  64  94 116 143 181 224 269
#     4  10  20  25  38  62  98 121 139 178 224 275
#     4  10  16  24  40  63  86 119 145 177 224 262
#     4  11  16  26  41  62  88 121 146 177 223 264
#
# _framework density 26.590294
#
# number of rings (size 3 to 8) (size 9 to 14) (size 15 to 20)
#    0.000    2.000    6.667    1.500    0.000    0.000 
#    0.000    0.000    0.000    0.000    0.000   64.167 
#    0.000   98.667    0.000    0.000    0.000    0.000 
#
# Total GULP energy -297375.642060 kJ/mol
# GULP energy per Si atom -12390.651753 kJ/mol
# Density = 2.652977 g / cm^3
# Si number density = 26.590294 Si / 1000 Ang^3
#
#
#
# Elastic Constant Matrix: (Units=GPa)
#
#
# Indices 1 2 3 4 5 6 
#
# 1 230.3372 29.4509 87.8053 -0.0032 -13.2841 0.0005
# 2 29.4509 49.9335 27.6093 -0.0220 -3.5385 0.0104
# 3 87.8053 27.6093 128.5280 -0.0111 -9.4779 0.0068
# 4 -0.0032 -0.0220 -0.0111 21.5284 0.0039 -7.3229
# 5 -13.2841 -3.5385 -9.4779 0.0039 49.8104 -0.0017
# 6 0.0005 0.0104 0.0068 -7.3229 -0.0017 21.8428
#
#
#
# Elastic Compliance Matrix: (Units=1/GPa)
#
#
# Indices 1 2 3 4 5 6 
#
# 1 0.005990 -0.001415 -0.003730 -0.000002 0.000787 0.000001
# 2 -0.001415 0.023084 -0.003955 0.000020 0.000510 -0.000003
# 3 -0.003730 -0.003955 0.011242 0.000001 0.000863 -0.000001
# 4 -0.000002 0.000020 0.000001 0.052429 -0.000003 0.017577
# 5 0.000787 0.000510 0.000863 -0.000003 0.020487 0.000000
# 6 0.000001 -0.000003 -0.000001 0.017577 0.000000 0.051674
#
#
# Mechanical properties :
#
#
# Convention : Reuss Voigt Hill
#
# Bulk Modulus (GPa) = 45.21463 77.61442 61.41452
# Shear Modulus (GPa) = 26.25007 36.23189 31.24098
#
# Velocity S-wave (km/s) = 3.14539 3.69534 3.43140
# Velocity P-wave (km/s) = 5.49840 6.88911 6.23266
#
# Compressibility (1/GPa) = 0.02211673
#
# Stress axis : x y z
#
# Youngs Moduli (GPa) = 166.95641 43.32054 88.95415
#
# Poissons Ratio (x) = 0.06128 0.33179
# Poissons Ratio (y) = 0.23616 0.35179
# Poissons Ratio (z) = 0.62274 0.17132
#
# Static dielectric constant tensor:
#      x y z
#    x 5.025260 0.000000 0.068190 
#    y 0.000000 4.645610 0.000040 
#    z 0.068190 0.000040 5.340720 
# 
# 
# High freq. dielectric constant tensor:
#      x y z
#    x 2.070880 0.000000 -0.013130 
#    y 0.000000 2.051760 0.000000 
#    z -0.013130 0.000000 2.071580 
# 
# From -- ./inp_files/214747.got.cif
#   From: 2010.06.25/outbox.cif.g09.slc.cpg/sg15_108_cif.got.tgz:214747.got - 2010.06.28 07:06:18.
