data_PCOD8129372
_publ_section_title
;
Structure prediction by ZEFSAII (Michael W. Deem and Ramdas Pophale) SiO2 
 PCOD8129372
Probable space group: P 21/C
;
_chemical_formula_sum "Si O2"
_cell_formula_units_Z 32
_cell_length_a 11.546133
_cell_length_b 18.079094
_cell_length_c 14.185742
_cell_angle_alpha 90.000000
_cell_angle_beta 30.162368
_cell_angle_gamma 90.000000
_cell_volume 1487.852952
_symmetry_space_group_name_H-M "P 21/C"
_symmetry_group_IT_number 14
_symmetry_cell_setting 'monoclinic'
loop_
_space_group_symop_operation_xyz
x,y,z
-x,1/2+y,1/2-z
-x,-y,-z
x,1/2-y,1/2+z
loop_
_atom_site_type_symbol
_atom_site_label
_atom_site_fract_x
_atom_site_fract_y
_atom_site_fract_z
Si Si1 0.427081 0.031498 0.285559
Si Si2 0.279980 0.325794 0.794343
Si Si3 0.426149 0.222440 0.859059
Si Si4 0.176823 0.615107 0.963546
Si Si5 0.030713 0.652339 0.266326
Si Si6 0.945637 0.511005 0.430615
Si Si7 0.526699 0.280685 0.978615
Si Si8 0.653123 0.562727 0.940998
O O1 0.411923 0.097147 0.219934
O O2 0.385287 0.063584 0.419791
O O3 0.241938 0.968303 0.387148
O O4 0.676837 0.995578 0.099437
O O5 0.311915 0.274570 0.862198
O O6 0.378882 0.283590 0.633464
O O7 0.009154 0.345930 0.973905
O O8 0.590143 0.163178 0.693841
O O9 0.572366 0.264262 0.836206
O O10 0.218736 0.187921 0.064444
O O11 0.071383 0.608517 0.141342
O O12 0.224819 0.714676 0.146172
O O13 0.037265 0.593392 0.345950
O O14 0.000000 0.500000 0.500000
O O15 0.079405 0.452337 0.270816
O O16 0.400177 0.359680 0.072230
O O17 0.500000 0.500000 0.000000
#
# Coordination Sequence:
#
# PCOD8129372 Si02
#       8
#     4   4   4   4   4   4   4   4
#     4  12  25  48  70 107 146 191 242 292 362 438
#     4  12  28  47  73 109 147 194 242 296 367 443
#     4  12  26  47  73 103 144 192 238 300 360 428
#     4  12  25  49  74 101 149 193 238 298 364 433
#     4  12  24  44  72 105 140 186 239 291 363 425
#     4  12  25  40  74 107 137 183 243 295 351 421
#     4  12  25  47  73 105 149 184 241 303 363 423
#     4  12  23  43  71 106 142 185 236 301 356 422
#
# _framework density 21.507501000000001
#
# number of rings (size 3 to 8) (size 9 to 14) (size 15 to 20)
#    0.000    0.000    8.750    1.125    1.750    2.000 
#    2.250    1.250    0.000    0.000    0.000    0.000 
#    0.000    0.000    0.000    0.000    0.000    0.000 
#
# Total GULP energy -396881.333106 kJ/mol
# GULP energy per Si atom -12402.541660 kJ/mol
# Density = 2.145855 g / cm^3
# Si number density = 21.507501 Si / 1000 Ang^3
#
#
#
# Elastic Constant Matrix: (Units=GPa)
#
#
# Indices 1 2 3 4 5 6 
#
# 1 97.8960 46.5403 30.2906 0.0000 2.0951 0.0000
# 2 46.5403 134.5780 41.0589 0.0000 0.0696 0.0000
# 3 30.2906 41.0589 112.0374 0.0000 -7.0130 0.0000
# 4 0.0000 0.0000 0.0000 35.3697 0.0000 2.5640
# 5 2.0951 0.0696 -7.0130 0.0000 37.5049 0.0000
# 6 0.0000 0.0000 0.0000 2.5640 0.0000 41.6155
#
#
#
# Elastic Compliance Matrix: (Units=1/GPa)
#
#
# Indices 1 2 3 4 5 6 
#
# 1 0.012671 -0.003733 -0.002127 0.000000 -0.001099 0.000000
# 2 -0.003733 0.009479 -0.002482 0.000000 -0.000273 0.000000
# 3 -0.002127 -0.002482 0.010541 0.000000 0.002094 0.000000
# 4 0.000000 0.000000 0.000000 0.028400 0.000000 -0.001750
# 5 -0.001099 -0.000273 0.002094 0.000000 0.027117 0.000000
# 6 0.000000 0.000000 0.000000 -0.001750 0.000000 0.024137
#
#
# Mechanical properties :
#
#
# Convention : Reuss Voigt Hill
#
# Bulk Modulus (GPa) = 62.46439 64.47676 63.47057
# Shear Modulus (GPa) = 37.21280 38.00612 37.60946
#
# Velocity S-wave (km/s) = 4.16411 4.20826 4.18624
# Velocity P-wave (km/s) = 7.22675 7.32505 7.27607
#
# Compressibility (1/GPa) = 0.01600912
#
# Stress axis : x y z
#
# Youngs Moduli (GPa) = 78.92102 105.49963 94.86651
#
# Poissons Ratio (x) = 0.39378 0.20174
# Poissons Ratio (y) = 0.29457 0.23543
# Poissons Ratio (z) = 0.16783 0.26182
#
# Static dielectric constant tensor:
#      x y z
#    x 3.862730 0.000000 -0.102620 
#    y 0.000000 4.030580 0.000000 
#    z -0.102620 0.000000 4.114590 
# 
# 
# High freq. dielectric constant tensor:
#      x y z
#    x 1.847160 0.000000 -0.002080 
#    y 0.000000 1.849540 0.000000 
#    z -0.002080 0.000000 1.849950 
# 
# From -- ./inp_files/45420.got.cif
#   From: 2010.03.12/outbox.cif.g09.slc.cpg/sg14_23_cif.got.tgz:45420.got - 2010.03.31 13:35:05.
