data_PCOD8129552
_publ_section_title
;
Structure prediction by ZEFSAII (Michael W. Deem and Ramdas Pophale) SiO2 
 PCOD8129552
Probable space group: C 2/C
;
_chemical_formula_sum "Si O2"
_cell_formula_units_Z 28
_cell_length_a 24.000000
_cell_length_b 27.000000
_cell_length_c 15.000000
_cell_angle_alpha 90.000000
_cell_angle_beta 20.000000
_cell_angle_gamma 90.000000
_cell_volume 3324.435793
_symmetry_space_group_name_H-M "C 2/C"
_symmetry_group_IT_number 15
_symmetry_cell_setting 'monoclinic'
loop_
_space_group_symop_operation_xyz
x,y,z
-x,y,1/2-z
-x,-y,-z
x,-y,1/2+z
1/2+x,1/2+y,z
1/2-x,1/2+y,1/2-z
1/2-x,1/2-y,-z
1/2+x,1/2-y,1/2+z
loop_
_atom_site_type_symbol
_atom_site_label
_atom_site_fract_x
_atom_site_fract_y
_atom_site_fract_z
Si Si1 0.383420 0.029401 0.058165
Si Si2 0.265818 0.988942 0.923155
Si Si3 0.000000 0.060998 0.250000
Si Si4 0.626984 0.361956 0.420746
Si Si5 0.283484 0.321030 0.890423
Si Si6 0.689295 0.058628 0.960209
Si Si7 0.500000 0.890483 0.250000
Si Si8 0.809555 0.221359 0.541389
O O1 0.285171 0.039864 0.298532
O O2 0.288776 0.986340 0.144425
O O3 0.397211 0.077640 0.976106
O O4 0.567669 0.016626 0.805828
O O5 0.232106 0.954190 0.060426
O O6 0.119036 0.027910 0.132548
O O7 0.897062 0.097110 0.467135
O O8 0.460817 0.346288 0.620693
O O9 0.735216 0.389079 0.183802
O O10 0.717988 0.314053 0.329936
O O11 0.280340 0.275091 0.823590
O O12 0.246690 0.305221 0.046991
O O13 0.138413 0.358511 0.088669
O O14 0.500000 0.069478 0.250000
O O15 0.000000 0.232463 0.250000
#
# Coordination Sequence:
#
# PCOD8129552 Si02
#       8
#     8   8   4   8   8   8   4   8
#     4  10  20  34  51  77 113 149 186 219 257 324
#     4  10  21  34  49  72 118 148 185 221 255 309
#     4  12  20  31  52  86 110 154 177 224 276 326
#     4  11  21  34  57  82 110 141 188 227 282 336
#     4  10  20  32  53  82 113 136 178 225 291 327
#     4  10  21  38  56  78 109 154 193 220 264 330
#     4  12  20  31  54  86 114 150 173 220 278 334
#     4   9  18  35  53  80 111 139 169 235 284 335
#
# _framework density 8.4224820000000005
#
# number of rings (size 3 to 8) (size 9 to 14) (size 15 to 20)
#    0.000    1.714    6.429    0.857    0.000    1.714 
#    0.000    0.000    0.000    0.857    0.000    0.000 
#    0.000    0.000    0.000    0.000    0.000    0.000 
#
# Total GULP energy -346952.560969 kJ/mol
# GULP energy per Si atom -12391.162892 kJ/mol
# Density = 0.840331 g / cm^3
# Si number density = 8.422482 Si / 1000 Ang^3
#
#
#
# Elastic Constant Matrix: (Units=GPa)
#
#
# Indices 1 2 3 4 5 6 
#
# 1 118.2331 56.2112 32.9451 -0.0090 1.0870 -0.0101
# 2 56.2112 113.3110 37.7066 -0.0414 -3.3721 0.0246
# 3 32.9451 37.7066 35.1077 0.0269 1.8072 -0.0336
# 4 -0.0090 -0.0414 0.0269 25.5719 0.0138 -0.2025
# 5 1.0870 -3.3721 1.8072 0.0138 31.5178 0.0063
# 6 -0.0101 0.0246 -0.0336 -0.2025 0.0063 35.2993
#
#
#
# Elastic Compliance Matrix: (Units=1/GPa)
#
#
# Indices 1 2 3 4 5 6 
#
# 1 0.012295 -0.003543 -0.007714 0.000007 -0.000361 -0.000001
# 2 -0.003543 0.014926 -0.012833 0.000035 0.002455 -0.000024
# 3 -0.007714 -0.012833 0.049709 -0.000073 -0.003957 0.000054
# 4 0.000007 0.000035 -0.000073 0.039107 -0.000010 0.000224
# 5 -0.000361 0.002455 -0.003957 -0.000010 0.032230 -0.000011
# 6 -0.000001 -0.000024 0.000054 0.000224 -0.000011 0.028331
#
#
# Mechanical properties :
#
#
# Convention : Reuss Voigt Hill
#
# Bulk Modulus (GPa) = 34.78144 57.81976 46.30060
# Shear Modulus (GPa) = 21.33454 27.79706 24.56580
#
# Velocity S-wave (km/s) = 3.56269 4.06664 3.82297
# Velocity P-wave (km/s) = 6.13322 7.51327 6.85805
#
# Compressibility (1/GPa) = 0.02875096
#
# Stress axis : x y z
#
# Youngs Moduli (GPa) = 81.33319 66.99502 20.11709
#
# Poissons Ratio (x) = 0.23738 0.15518
# Poissons Ratio (y) = 0.28818 0.25816
# Poissons Ratio (z) = 0.62738 0.85974
#
# Static dielectric constant tensor:
#      x y z
#    x 3.676630 -0.000140 -0.004360 
#    y -0.000140 3.336620 0.000190 
#    z -0.004360 0.000190 3.024290 
# 
# 
# High freq. dielectric constant tensor:
#      x y z
#    x 1.675890 -0.000010 -0.017720 
#    y -0.000010 1.649030 0.000020 
#    z -0.017720 0.000020 1.622000 
# 
# From -- ./inp_files/174854.got.cif
#   From: 2010.06.25/outbox.ucp.g09.slc.cvg/sg15_88_cif.got.tgz:174854.got - 2010.06.28 14:40:10.
