data_PCOD8129311
_publ_section_title
;
Structure prediction by ZEFSAII (Michael W. Deem and Ramdas Pophale) SiO2 
 PCOD8129311
Probable space group: P 21/C
;
_chemical_formula_sum "Si O2"
_cell_formula_units_Z 16
_cell_length_a 4.839401
_cell_length_b 8.908586
_cell_length_c 13.104055
_cell_angle_alpha 90.000000
_cell_angle_beta 95.063179
_cell_angle_gamma 90.000000
_cell_volume 562.740480
_symmetry_space_group_name_H-M "P 21/C"
_symmetry_group_IT_number 14
_symmetry_cell_setting 'monoclinic'
loop_
_space_group_symop_operation_xyz
x,y,z
-x,1/2+y,1/2-z
-x,-y,-z
x,1/2-y,1/2+z
loop_
_atom_site_type_symbol
_atom_site_label
_atom_site_fract_x
_atom_site_fract_y
_atom_site_fract_z
Si Si1 0.793357 0.419050 0.417782
Si Si2 0.451775 0.001067 0.617456
Si Si3 0.975540 0.660968 0.201073
Si Si4 0.385423 0.824861 0.884269
O O1 0.960374 0.329295 0.336618
O O2 0.631436 0.308536 0.492553
O O3 0.579136 0.534486 0.358701
O O4 0.000000 0.500000 0.500000
O O5 0.491618 0.171614 0.658935
O O6 0.500000 0.000000 0.500000
O O7 0.138759 0.956580 0.634221
O O8 0.652396 0.880991 0.681572
O O9 0.082734 0.645550 0.321851
#
# Coordination Sequence:
#
# PCOD8129311 Si02
#       4
#     4   4   4   4
#     4  11  26  48  71 106 147 194 236 305 363 429
#     4  12  26  50  72 108 143 192 238 303 359 425
#     4  12  28  46  77 107 145 191 246 294 363 437
#     4  11  27  45  74 105 147 190 244 297 363 433
#
# _framework density 28.432292
#
# number of rings (size 3 to 8) (size 9 to 14) (size 15 to 20)
#    0.000    0.500    2.500    3.750   14.000    0.000 
#    0.000    0.000    0.000    0.000    0.000    0.000 
#    0.000    0.000    0.000    0.000    0.000    0.000 
#
# Total GULP energy -198501.688479 kJ/mol
# GULP energy per Si atom -12406.355530 kJ/mol
# Density = 2.836758 g / cm^3
# Si number density = 28.432292 Si / 1000 Ang^3
#
#
#
# Elastic Constant Matrix: (Units=GPa)
#
#
# Indices 1 2 3 4 5 6 
#
# 1 46.5136 5.5651 -7.2749 0.0000 14.6497 0.0000
# 2 5.5651 137.6722 20.8457 0.0000 14.7045 0.0000
# 3 -7.2749 20.8457 137.1771 0.0000 13.0785 0.0000
# 4 0.0000 0.0000 0.0000 40.2763 0.0000 10.0285
# 5 14.6497 14.7045 13.0785 0.0000 49.2131 0.0000
# 6 0.0000 0.0000 0.0000 10.0285 0.0000 46.5815
#
#
#
# Elastic Compliance Matrix: (Units=1/GPa)
#
#
# Indices 1 2 3 4 5 6 
#
# 1 0.024291 -0.000482 0.002090 0.000000 -0.007642 0.000000
# 2 -0.000482 0.007635 -0.001008 0.000000 -0.001870 0.000000
# 3 0.002090 -0.001008 0.007782 0.000000 -0.002389 0.000000
# 4 0.000000 0.000000 0.000000 0.026235 0.000000 -0.005648
# 5 -0.007642 -0.001870 -0.002389 0.000000 0.023788 0.000000
# 6 0.000000 0.000000 0.000000 -0.005648 0.000000 0.022684
#
#
# Mechanical properties :
#
#
# Convention : Reuss Voigt Hill
#
# Bulk Modulus (GPa) = 24.44483 39.95939 32.20211
# Shear Modulus (GPa) = 40.04809 47.36265 43.70537
#
# Velocity S-wave (km/s) = 3.75713 4.08585 3.92493
# Velocity P-wave (km/s) = 5.23809 6.02857 5.64718
#
# Compressibility (1/GPa) = 0.04090844
#
# Stress axis : x y z
#
# Youngs Moduli (GPa) = 41.16814 130.96845 128.50864
#
# Poissons Ratio (x) = 0.06314 -0.26859
# Poissons Ratio (y) = 0.01985 0.12948
# Poissons Ratio (z) = -0.08604 0.13196
#
# Static dielectric constant tensor:
#      x y z
#    x 5.273980 0.000000 -0.436390 
#    y 0.000000 5.674910 0.000000 
#    z -0.436390 0.000000 5.748250 
# 
# 
# High freq. dielectric constant tensor:
#      x y z
#    x 2.143090 0.000000 -0.006750 
#    y 0.000000 2.167040 0.000000 
#    z -0.006750 0.000000 2.171070 
# 
# From -- ./inp_files/36685.got.cif
#   From: 2010.03.12/outbox.cif.g09.slc.cpg/sg14_19_cif.got.tgz:36685.got - 2010.03.31 13:35:05.
