data_PCOD8129963
_publ_section_title
;
Structure prediction by ZEFSAII (Michael W. Deem and Ramdas Pophale) SiO2 
 PCOD8129963
Probable space group: C 2/C
;
_chemical_formula_sum "Si O2"
_cell_formula_units_Z 60
_cell_length_a 17.638675
_cell_length_b 10.489662
_cell_length_c 28.107187
_cell_angle_alpha 90.000000
_cell_angle_beta 142.644518
_cell_angle_gamma 90.000000
_cell_volume 3155.445174
_symmetry_space_group_name_H-M "C 2/C"
_symmetry_group_IT_number 15
_symmetry_cell_setting 'monoclinic'
loop_
_space_group_symop_operation_xyz
x,y,z
-x,y,1/2-z
-x,-y,-z
x,-y,1/2+z
1/2+x,1/2+y,z
1/2-x,1/2+y,1/2-z
1/2-x,1/2-y,-z
1/2+x,1/2-y,1/2+z
loop_
_atom_site_type_symbol
_atom_site_label
_atom_site_fract_x
_atom_site_fract_y
_atom_site_fract_z
Si Si1 0.104880 0.104942 0.724335
Si Si2 0.229959 0.954492 0.496731
Si Si3 0.711152 0.142890 0.611169
Si Si4 0.874368 0.736461 0.119310
Si Si5 0.750991 0.878554 0.580436
Si Si6 0.528861 0.705806 0.499823
Si Si7 0.470876 0.472855 0.414112
Si Si8 0.000000 0.085580 0.250000
O O1 0.246091 0.132336 0.812022
O O2 0.020859 0.233388 0.686354
O O3 0.110350 0.049894 0.673683
O O4 0.042354 0.001242 0.727341
O O5 0.205633 0.841573 0.448248
O O6 0.350714 0.907810 0.587780
O O7 0.118148 0.962854 0.478278
O O8 0.245907 0.085957 0.474732
O O9 0.815536 0.242004 0.642373
O O10 0.569252 0.186159 0.534741
O O11 0.710465 0.003387 0.588430
O O12 0.652226 0.765269 0.537580
O O13 0.885186 0.832607 0.669914
O O14 0.452925 0.614745 0.425620
O O15 0.571839 0.630648 0.568346
#
# Coordination Sequence:
#
# PCOD8129963 Si02
#       8
#     8   8   8   8   8   8   8   4
#     4  10  17  34  57  82 105 145 188 229 280 329
#     4   9  16  30  54  80 102 136 188 228 268 322
#     4  10  18  34  55  82 111 136 181 236 286 329
#     4   9  14  27  56  80 103 131 181 231 266 319
#     4  10  20  34  58  84 106 140 191 243 278 323
#     4  11  23  37  53  81 116 151 188 230 282 347
#     4  10  21  38  55  74 114 160 187 217 289 356
#     4  10  16  34  58  80 104 134 186 240 278 336
#
# _framework density 19.014749999999999
#
# number of rings (size 3 to 8) (size 9 to 14) (size 15 to 20)
#    0.000    2.133    6.667    0.400    1.867    0.533 
#    4.800    0.000    0.000    3.200    0.000    0.000 
#    0.000    0.000    0.000    0.000    0.000    0.000 
#
# Total GULP energy -371664.381989 kJ/mol
# GULP energy per Si atom -12388.812733 kJ/mol
# Density = 1.897147 g / cm^3
# Si number density = 19.014750 Si / 1000 Ang^3
#
#
#
# Elastic Constant Matrix: (Units=GPa)
#
#
# Indices 1 2 3 4 5 6 
#
# 1 57.1112 25.1145 11.9073 0.0000 -13.7166 0.0000
# 2 25.1145 47.8986 23.3180 0.0000 0.0585 0.0000
# 3 11.9073 23.3180 56.9850 0.0000 -6.3059 0.0000
# 4 0.0000 0.0000 0.0000 9.0228 0.0000 0.5946
# 5 -13.7166 0.0585 -6.3059 0.0000 30.3964 0.0000
# 6 0.0000 0.0000 0.0000 0.5946 0.0000 25.2893
#
#
#
# Elastic Compliance Matrix: (Units=1/GPa)
#
#
# Indices 1 2 3 4 5 6 
#
# 1 0.026669 -0.014931 0.001916 0.000000 0.012461 0.000000
# 2 -0.014931 0.034591 -0.012064 0.000000 -0.009307 0.000000
# 3 0.001916 -0.012064 0.022704 0.000000 0.005598 0.000000
# 4 0.000000 0.000000 0.000000 0.111002 0.000000 -0.002610
# 5 0.012461 -0.009307 0.005598 0.000000 0.039701 0.000000
# 6 0.000000 0.000000 0.000000 -0.002610 0.000000 0.039604
#
#
# Mechanical properties :
#
#
# Convention : Reuss Voigt Hill
#
# Bulk Modulus (GPa) = 29.58147 31.40827 30.49487
# Shear Modulus (GPa) = 14.89435 19.71871 17.30653
#
# Velocity S-wave (km/s) = 2.80179 3.22378 3.02016
# Velocity P-wave (km/s) = 5.10467 5.51459 5.31358
#
# Compressibility (1/GPa) = 0.03380495
#
# Stress axis : x y z
#
# Youngs Moduli (GPa) = 37.49686 28.90943 44.04466
#
# Poissons Ratio (x) = 0.43165 -0.08439
# Poissons Ratio (y) = 0.55987 0.53137
# Poissons Ratio (z) = -0.07185 0.34877
#
# Static dielectric constant tensor:
#      x y z
#    x 3.460670 0.000000 -0.223230 
#    y 0.000000 3.296600 0.000000 
#    z -0.223230 0.000000 3.727550 
# 
# 
# High freq. dielectric constant tensor:
#      x y z
#    x 1.727860 0.000000 -0.016170 
#    y 0.000000 1.702770 0.000000 
#    z -0.016170 0.000000 1.733950 
# 
# From -- ./inp_files/298785.got.cif
#   From: 2010.06.25/outbox.cif.g09.slc.cpg/sg15_150_cif.got.tgz:298785.got - 2010.06.28 07:06:18.
