data_PCOD8129167
_publ_section_title
;
Structure prediction by ZEFSAII (Michael W. Deem and Ramdas Pophale) SiO2 
 PCOD8129167
Probable space group: P 21/C
;
_chemical_formula_sum "Si O2"
_cell_formula_units_Z 20
_cell_length_a 5.070862
_cell_length_b 8.517359
_cell_length_c 17.130994
_cell_angle_alpha 90.000000
_cell_angle_beta 74.454073
_cell_angle_gamma 90.000000
_cell_volume 712.825342
_symmetry_space_group_name_H-M "P 21/C"
_symmetry_group_IT_number 14
_symmetry_cell_setting 'monoclinic'
loop_
_space_group_symop_operation_xyz
x,y,z
-x,1/2+y,1/2-z
-x,-y,-z
x,1/2-y,1/2+z
loop_
_atom_site_type_symbol
_atom_site_label
_atom_site_fract_x
_atom_site_fract_y
_atom_site_fract_z
Si Si1 0.944449 0.010167 0.125512
Si Si2 0.072706 0.679413 0.052848
Si Si3 0.490013 0.748870 0.310732
Si Si4 0.888121 0.982980 0.713540
Si Si5 0.684950 0.774788 0.452239
O O1 0.940541 0.997917 0.220552
O O2 0.210102 0.095527 0.067466
O O3 0.679189 0.116011 0.126789
O O4 0.919827 0.840289 0.089406
O O5 0.064288 0.549484 0.121843
O O6 0.390710 0.710912 0.014767
O O7 0.902503 0.625569 0.988137
O O8 0.688399 0.667400 0.233455
O O9 0.666016 0.841711 0.363781
O O10 0.284813 0.858172 0.280068
#
# Coordination Sequence:
#
# PCOD8129167 Si02
#       5
#     4   4   4   4   4
#     4  11  24  46  75 106 145 191 245 293 356 430
#     4  12  26  46  75 108 144 191 239 295 361 423
#     4  11  25  49  70 108 144 193 241 298 359 430
#     4  11  27  44  75 105 148 192 243 297 361 428
#     4  11  26  46  74 109 145 189 239 298 355 431
#
# _framework density 28.057362000000001
#
# number of rings (size 3 to 8) (size 9 to 14) (size 15 to 20)
#    0.000    0.800    2.000    3.600   11.200    3.200 
#    0.000    0.000    0.000    0.000    0.000    0.000 
#    0.000    0.000    0.000    0.000    0.000    0.000 
#
# Total GULP energy -248042.699437 kJ/mol
# GULP energy per Si atom -12402.134972 kJ/mol
# Density = 2.799350 g / cm^3
# Si number density = 28.057362 Si / 1000 Ang^3
#
#
#
# Elastic Constant Matrix: (Units=GPa)
#
#
# Indices 1 2 3 4 5 6 
#
# 1 103.4085 0.9776 29.4169 0.0000 18.8792 0.0000
# 2 0.9776 24.5827 8.9836 0.0000 3.8943 0.0000
# 3 29.4169 8.9836 126.8559 0.0000 -8.2910 0.0000
# 4 0.0000 0.0000 0.0000 34.9558 0.0000 7.8079
# 5 18.8792 3.8943 -8.2910 0.0000 32.0982 0.0000
# 6 0.0000 0.0000 0.0000 7.8079 0.0000 28.9252
#
#
#
# Elastic Compliance Matrix: (Units=1/GPa)
#
#
# Indices 1 2 3 4 5 6 
#
# 1 0.012170 0.002120 -0.003516 0.000000 -0.008324 0.000000
# 2 0.002120 0.043269 -0.004049 0.000000 -0.007542 0.000000
# 3 -0.003516 -0.004049 0.009310 0.000000 0.004964 0.000000
# 4 0.000000 0.000000 0.000000 0.030443 0.000000 -0.008218
# 5 -0.008324 -0.007542 0.004964 0.000000 0.038247 0.000000
# 6 0.000000 0.000000 0.000000 -0.008218 0.000000 0.036790
#
#
# Mechanical properties :
#
#
# Convention : Reuss Voigt Hill
#
# Bulk Modulus (GPa) = 18.56726 37.06701 27.81713
# Shear Modulus (GPa) = 25.11642 33.56045 29.33843
#
# Velocity S-wave (km/s) = 2.99520 3.46227 3.23717
# Velocity P-wave (km/s) = 4.31203 5.40583 4.88961
#
# Compressibility (1/GPa) = 0.05385825
#
# Stress axis : x y z
#
# Youngs Moduli (GPa) = 82.16729 23.11118 107.41687
#
# Poissons Ratio (x) = -0.04899 0.37771
# Poissons Ratio (y) = -0.17417 0.43489
# Poissons Ratio (z) = 0.28893 0.09357
#
# Static dielectric constant tensor:
#      x y z
#    x 5.032660 0.000000 0.065340 
#    y 0.000000 5.131400 0.000000 
#    z 0.065340 0.000000 5.308400 
# 
# 
# High freq. dielectric constant tensor:
#      x y z
#    x 2.139620 0.000000 0.002910 
#    y 0.000000 2.150020 0.000000 
#    z 0.002910 0.000000 2.154530 
# 
# From -- ./inp_files/52639.got.cif
#   From: 2010.03.12/outbox.cif.g09.slc.cpg/sg14_27_cif.got.tgz:52639.got - 2010.03.31 13:35:05.
