data_PCOD8129176
_publ_section_title
;
Structure prediction by ZEFSAII (Michael W. Deem and Ramdas Pophale) SiO2 
 PCOD8129176
Probable space group: P 21/C
;
_chemical_formula_sum "Si O2"
_cell_formula_units_Z 32
_cell_length_a 19.433463
_cell_length_b 14.932042
_cell_length_c 13.496451
_cell_angle_alpha 90.000000
_cell_angle_beta 21.146893
_cell_angle_gamma 90.000000
_cell_volume 1412.887763
_symmetry_space_group_name_H-M "P 21/C"
_symmetry_group_IT_number 14
_symmetry_cell_setting 'monoclinic'
loop_
_space_group_symop_operation_xyz
x,y,z
-x,1/2+y,1/2-z
-x,-y,-z
x,1/2-y,1/2+z
loop_
_atom_site_type_symbol
_atom_site_label
_atom_site_fract_x
_atom_site_fract_y
_atom_site_fract_z
Si Si1 0.030152 0.838159 0.517467
Si Si2 0.057875 0.332783 0.468795
Si Si3 0.697205 0.283551 0.181614
Si Si4 0.317684 0.428176 0.419531
Si Si5 0.690290 0.731691 0.701189
Si Si6 0.687212 0.427196 0.044347
Si Si7 0.673484 0.625342 0.057893
Si Si8 0.268832 0.872805 0.013186
O O1 0.145649 0.837315 0.465658
O O2 0.122803 0.887691 0.299355
O O3 0.033508 0.733258 0.488087
O O4 0.825856 0.885798 0.806185
O O5 0.160116 0.265543 0.409997
O O6 0.208578 0.388789 0.202292
O O7 0.900688 0.398442 0.726020
O O8 0.526990 0.248309 0.477447
O O9 0.607752 0.359972 0.233040
O O10 0.786417 0.204003 0.992749
O O11 0.295485 0.371595 0.350022
O O12 0.537398 0.420873 0.156581
O O13 0.273536 0.531327 0.452375
O O14 0.750820 0.800341 0.531875
O O15 0.682429 0.527547 0.096730
O O16 0.465182 0.655508 0.302462
#
# Coordination Sequence:
#
# PCOD8129176 Si02
#       8
#     4   4   4   4   4   4   4   4
#     4  12  24  45  72 100 137 184 228 283 345 402
#     4  12  24  45  72 100 137 184 228 283 345 402
#     4  12  24  45  72 101 138 181 231 281 344 409
#     4  11  25  46  68 102 140 181 228 283 339 410
#     4  12  24  45  72 101 138 181 231 281 344 409
#     4  11  25  46  68 102 140 181 228 283 339 410
#     4  11  24  47  72 101 139 181 228 286 345 403
#     4  11  24  47  72 101 139 181 228 286 345 403
#
# _framework density 22.648648999999999
#
# number of rings (size 3 to 8) (size 9 to 14) (size 15 to 20)
#    0.000    0.500    5.000    3.750    0.000    1.000 
#   13.500    0.000    0.000    0.000    0.000    0.000 
#    0.000    0.000    0.000    0.000    0.000    0.000 
#
# Total GULP energy -396719.396223 kJ/mol
# GULP energy per Si atom -12397.481132 kJ/mol
# Density = 2.259710 g / cm^3
# Si number density = 22.648649 Si / 1000 Ang^3
#
#
#
# Elastic Constant Matrix: (Units=GPa)
#
#
# Indices 1 2 3 4 5 6 
#
# 1 64.5969 33.7648 26.6595 0.0000 15.6303 0.0000
# 2 33.7648 129.6575 10.4854 0.0000 6.3532 0.0000
# 3 26.6595 10.4854 111.3753 0.0000 5.5532 0.0000
# 4 0.0000 0.0000 0.0000 25.3930 0.0000 1.6742
# 5 15.6303 6.3532 5.5532 0.0000 31.9871 0.0000
# 6 0.0000 0.0000 0.0000 1.6742 0.0000 21.7842
#
#
#
# Elastic Compliance Matrix: (Units=1/GPa)
#
#
# Indices 1 2 3 4 5 6 
#
# 1 0.022054 -0.004948 -0.004363 0.000000 -0.009036 0.000000
# 2 -0.004948 0.008947 0.000313 0.000000 0.000586 0.000000
# 3 -0.004363 0.000313 0.009977 0.000000 0.000338 0.000000
# 4 0.000000 0.000000 0.000000 0.039582 0.000000 -0.003042
# 5 -0.009036 0.000586 0.000338 0.000000 0.035503 0.000000
# 6 0.000000 0.000000 0.000000 -0.003042 0.000000 0.046139
#
#
# Mechanical properties :
#
#
# Convention : Reuss Voigt Hill
#
# Bulk Modulus (GPa) = 43.51126 49.71656 46.61391
# Shear Modulus (GPa) = 26.61612 31.48085 29.04848
#
# Velocity S-wave (km/s) = 3.43180 3.73227 3.58518
# Velocity P-wave (km/s) = 5.91237 6.36961 6.14525
#
# Compressibility (1/GPa) = 0.02298256
#
# Stress axis : x y z
#
# Youngs Moduli (GPa) = 45.34404 111.76901 100.23422
#
# Poissons Ratio (x) = 0.55298 0.43728
# Poissons Ratio (y) = 0.22434 -0.03135
# Poissons Ratio (z) = 0.19782 -0.03495
#
# Static dielectric constant tensor:
#      x y z
#    x 3.936440 0.000000 0.128130 
#    y 0.000000 4.076100 0.000000 
#    z 0.128130 0.000000 4.211270 
# 
# 
# High freq. dielectric constant tensor:
#      x y z
#    x 1.885600 0.000000 0.003780 
#    y 0.000000 1.897170 0.000000 
#    z 0.003780 0.000000 1.905850 
# 
# From -- ./inp_files/50616.got.cif
#   From: 2010.03.12/outbox.cif.g09.slc.cpg/sg14_26_cif.got.tgz:50616.got - 2010.03.31 13:35:05.
