data_PCOD8129639
_publ_section_title
;
Structure prediction by ZEFSAII (Michael W. Deem and Ramdas Pophale) SiO2 
 PCOD8129639
Probable space group: C 2/C
;
_chemical_formula_sum "Si O2"
_cell_formula_units_Z 56
_cell_length_a 19.777107
_cell_length_b 22.925848
_cell_length_c 12.593815
_cell_angle_alpha 90.000000
_cell_angle_beta 143.075924
_cell_angle_gamma 90.000000
_cell_volume 3430.391960
_symmetry_space_group_name_H-M "C 2/C"
_symmetry_group_IT_number 15
_symmetry_cell_setting 'monoclinic'
loop_
_space_group_symop_operation_xyz
x,y,z
-x,y,1/2-z
-x,-y,-z
x,-y,1/2+z
1/2+x,1/2+y,z
1/2-x,1/2+y,1/2-z
1/2-x,1/2-y,-z
1/2+x,1/2-y,1/2+z
loop_
_atom_site_type_symbol
_atom_site_label
_atom_site_fract_x
_atom_site_fract_y
_atom_site_fract_z
Si Si1 0.691864 0.415059 0.845842
Si Si2 0.500000 0.383717 0.750000
Si Si3 0.218012 0.734898 0.788604
Si Si4 0.500000 0.405004 0.250000
Si Si5 0.130389 0.319909 0.389123
Si Si6 0.376396 0.648112 0.895457
Si Si7 0.916831 0.165622 0.467967
Si Si8 0.893524 0.030304 0.811803
O O1 0.601990 0.421318 0.829324
O O2 0.636663 0.379098 0.682042
O O3 0.707336 0.482500 0.828749
O O4 0.806059 0.382827 0.026039
O O5 0.446785 0.342975 0.592733
O O6 0.143166 0.707355 0.788256
O O7 0.262878 0.684179 0.768270
O O8 0.142596 0.772255 0.613273
O O9 0.317609 0.774899 0.961032
O O10 0.589684 0.363270 0.423940
O O11 0.570136 0.444272 0.256335
O O12 0.000000 0.330843 0.250000
O O13 0.347749 0.580574 0.833238
O O14 0.451133 0.674319 0.894151
O O15 0.000000 0.000000 0.000000
#
# Coordination Sequence:
#
# PCOD8129639 Si02
#       8
#     8   4   8   4   8   8   8   8
#     4  10  18  30  47  79 106 132 163 211 257 312
#     4  10  15  26  48  76 106 122 159 204 260 306
#     4  10  19  31  50  74 102 135 168 217 248 307
#     4  10  19  32  50  74 106 136 159 214 272 300
#     4  10  20  31  50  78 106 136 167 209 268 306
#     4  10  19  29  47  77 101 129 166 202 257 313
#     4   9  19  32  45  71 105 133 167 205 261 306
#     4  11  19  30  50  77 104 130 165 214 262 309
#
# _framework density 16.324665
#
# number of rings (size 3 to 8) (size 9 to 14) (size 15 to 20)
#    0.000    2.000    5.714    1.286    3.000    0.000 
#    0.000    2.857    0.000    0.857    5.571    0.000 
#    0.000    0.000    0.000    0.000    0.000    0.000 
#
# Total GULP energy -346994.026241 kJ/mol
# GULP energy per Si atom -12392.643794 kJ/mol
# Density = 1.628751 g / cm^3
# Si number density = 16.324665 Si / 1000 Ang^3
#
#
#
# Elastic Constant Matrix: (Units=GPa)
#
#
# Indices 1 2 3 4 5 6 
#
# 1 75.9757 48.2972 39.5931 0.0000 4.6040 0.0000
# 2 48.2972 131.1280 46.6040 0.0000 8.4115 0.0000
# 3 39.5931 46.6040 62.2860 0.0000 2.7776 0.0000
# 4 0.0000 0.0000 0.0000 29.2306 0.0000 1.8128
# 5 4.6040 8.4115 2.7776 0.0000 28.9182 0.0000
# 6 0.0000 0.0000 0.0000 1.8128 0.0000 27.6666
#
#
#
# Elastic Compliance Matrix: (Units=1/GPa)
#
#
# Indices 1 2 3 4 5 6 
#
# 1 0.021234 -0.004040 -0.010421 0.000000 -0.001205 0.000000
# 2 -0.004040 0.011310 -0.005801 0.000000 -0.002089 0.000000
# 3 -0.010421 -0.005801 0.026986 0.000000 0.000754 0.000000
# 4 0.000000 0.000000 0.000000 0.034350 0.000000 -0.002251
# 5 -0.001205 -0.002089 0.000754 0.000000 0.035307 0.000000
# 6 0.000000 0.000000 0.000000 -0.002251 0.000000 0.036292
#
#
# Mechanical properties :
#
#
# Convention : Reuss Voigt Hill
#
# Bulk Modulus (GPa) = 52.61600 59.81980 56.21790
# Shear Modulus (GPa) = 23.54713 26.15611 24.85162
#
# Velocity S-wave (km/s) = 3.80205 4.00715 3.90594
# Velocity P-wave (km/s) = 7.18158 7.62450 7.40635
#
# Compressibility (1/GPa) = 0.01900563
#
# Stress axis : x y z
#
# Youngs Moduli (GPa) = 47.09418 88.41791 37.05572
#
# Poissons Ratio (x) = 0.35720 0.38617
# Poissons Ratio (y) = 0.19025 0.21497
# Poissons Ratio (z) = 0.49078 0.51293
#
# Static dielectric constant tensor:
#      x y z
#    x 3.113540 0.000000 -0.146210 
#    y 0.000000 3.272340 0.000000 
#    z -0.146210 0.000000 2.955690 
# 
# 
# High freq. dielectric constant tensor:
#      x y z
#    x 1.616720 0.000000 -0.017340 
#    y 0.000000 1.629550 0.000000 
#    z -0.017340 0.000000 1.593670 
# 
# From -- ./inp_files/107856.got.cif
#   From: 2010.06.25/outbox.cif.g09.slc.cpg/sg15_54_cif.got.tgz:107856.got - 2010.06.28 07:06:18.
