data_PCOD8129137
_publ_section_title
;
Structure prediction by ZEFSAII (Michael W. Deem and Ramdas Pophale) SiO2 
 PCOD8129137
Probable space group: P 21/C
;
_chemical_formula_sum "Si O2"
_cell_formula_units_Z 20
_cell_length_a 23.717083
_cell_length_b 6.656320
_cell_length_c 10.533044
_cell_angle_alpha 90.000000
_cell_angle_beta 146.458371
_cell_angle_gamma 90.000000
_cell_volume 918.787796
_symmetry_space_group_name_H-M "P 21/C"
_symmetry_group_IT_number 14
_symmetry_cell_setting 'monoclinic'
loop_
_space_group_symop_operation_xyz
x,y,z
-x,1/2+y,1/2-z
-x,-y,-z
x,1/2-y,1/2+z
loop_
_atom_site_type_symbol
_atom_site_label
_atom_site_fract_x
_atom_site_fract_y
_atom_site_fract_z
Si Si1 0.741495 0.270728 0.424210
Si Si2 0.115802 0.432874 0.721492
Si Si3 0.398208 0.443829 0.464765
Si Si4 0.551869 0.137413 0.695622
Si Si5 0.795286 0.831720 0.883800
O O1 0.675179 0.366475 0.412461
O O2 0.783641 0.437088 0.406037
O O3 0.830858 0.145780 0.655443
O O4 0.658084 0.126951 0.205431
O O5 0.148417 0.331438 0.648211
O O6 0.000000 0.500000 0.500000
O O7 0.138895 0.284076 0.883825
O O8 0.491574 0.346660 0.562121
O O9 0.464956 0.535722 0.702035
O O10 0.314690 0.271280 0.342156
O O11 0.500000 0.000000 0.500000
#
# Coordination Sequence:
#
# PCOD8129137 Si02
#       5
#     4   4   4   4   4
#     4  11  24  45  70  99 141 183 234 291 352 419
#     4  11  28  47  76 105 140 185 241 298 360 424
#     4  11  25  40  65 101 138 183 233 281 346 420
#     4  12  23  40  66  98 140 188 227 285 341 423
#     4  11  25  49  72 104 144 183 236 296 359 427
#
# _framework density 21.767810999999998
#
# number of rings (size 3 to 8) (size 9 to 14) (size 15 to 20)
#    0.000    0.800    2.000    4.200    8.400    2.400 
#    0.000    0.000    0.000    0.000    0.000    0.000 
#    0.000    0.000    0.000    0.000    0.000    0.000 
#
# Total GULP energy -247803.917231 kJ/mol
# GULP energy per Si atom -12390.195862 kJ/mol
# Density = 2.171827 g / cm^3
# Si number density = 21.767811 Si / 1000 Ang^3
#
#
#
# Elastic Constant Matrix: (Units=GPa)
#
#
# Indices 1 2 3 4 5 6 
#
# 1 83.0739 20.0595 26.9628 0.0000 -2.3250 0.0000
# 2 20.0595 104.6925 40.7779 0.0000 -6.1322 0.0000
# 3 26.9628 40.7779 127.6859 0.0000 6.0410 0.0000
# 4 0.0000 0.0000 0.0000 39.9904 0.0000 -5.3473
# 5 -2.3250 -6.1322 6.0410 0.0000 37.3269 0.0000
# 6 0.0000 0.0000 0.0000 -5.3473 0.0000 35.9145
#
#
#
# Elastic Compliance Matrix: (Units=1/GPa)
#
#
# Indices 1 2 3 4 5 6 
#
# 1 0.013199 -0.001566 -0.002332 0.000000 0.000942 0.000000
# 2 -0.001566 0.011307 -0.003390 0.000000 0.002309 0.000000
# 3 -0.002332 -0.003390 0.009513 0.000000 -0.002242 0.000000
# 4 0.000000 0.000000 0.000000 0.025514 0.000000 0.003799
# 5 0.000942 0.002309 -0.002242 0.000000 0.027591 0.000000
# 6 0.000000 0.000000 0.000000 0.003799 0.000000 0.028410
#
#
# Mechanical properties :
#
#
# Convention : Reuss Voigt Hill
#
# Bulk Modulus (GPa) = 51.42792 54.56141 52.99467
# Shear Modulus (GPa) = 36.60624 37.82316 37.21470
#
# Velocity S-wave (km/s) = 4.10526 4.17294 4.13924
# Velocity P-wave (km/s) = 6.79322 6.95252 6.87333
#
# Compressibility (1/GPa) = 0.01944469
#
# Stress axis : x y z
#
# Youngs Moduli (GPa) = 75.76533 88.43861 105.12259
#
# Poissons Ratio (x) = 0.13845 0.24512
# Poissons Ratio (y) = 0.11861 0.35634
# Poissons Ratio (z) = 0.17666 0.29978
#
# Static dielectric constant tensor:
#      x y z
#    x 3.905970 0.000000 0.092300 
#    y 0.000000 4.156840 0.000000 
#    z 0.092300 0.000000 3.871820 
# 
# 
# High freq. dielectric constant tensor:
#      x y z
#    x 1.859230 0.000000 -0.003720 
#    y 0.000000 1.873920 0.000000 
#    z -0.003720 0.000000 1.861560 
# 
# From -- ./inp_files/30996.got.cif
#   From: 2010.03.12/outbox.cif.g09.slc.cpg/sg14_16_cif.got.tgz:30996.got - 2010.03.31 13:35:05.
