data_PCOD8129381
_publ_section_title
;
Structure prediction by ZEFSAII (Michael W. Deem and Ramdas Pophale) SiO2 
 PCOD8129381
Probable space group: P 21/C
;
_chemical_formula_sum "Si O2"
_cell_formula_units_Z 32
_cell_length_a 19.518656
_cell_length_b 14.239632
_cell_length_c 12.777577
_cell_angle_alpha 90.000000
_cell_angle_beta 155.214716
_cell_angle_gamma 90.000000
_cell_volume 1488.805792
_symmetry_space_group_name_H-M "P 21/C"
_symmetry_group_IT_number 14
_symmetry_cell_setting 'monoclinic'
loop_
_space_group_symop_operation_xyz
x,y,z
-x,1/2+y,1/2-z
-x,-y,-z
x,1/2-y,1/2+z
loop_
_atom_site_type_symbol
_atom_site_label
_atom_site_fract_x
_atom_site_fract_y
_atom_site_fract_z
Si Si1 0.292548 0.606959 0.016073
Si Si2 0.829246 0.900347 0.075694
Si Si3 0.472040 0.275991 0.800598
Si Si4 0.374044 0.092749 0.549858
Si Si5 0.283068 0.770422 0.694237
Si Si6 0.057357 0.666981 0.059943
Si Si7 0.729599 0.401330 0.464158
Si Si8 0.064177 0.157192 0.996287
O O1 0.106689 0.605421 0.715987
O O2 0.389816 0.688707 0.088913
O O3 0.367238 0.503638 0.106362
O O4 0.298184 0.633973 0.147209
O O5 0.910952 0.842030 0.094785
O O6 0.939229 0.902261 0.332642
O O7 0.656445 0.858229 0.867451
O O8 0.800963 0.008162 0.003191
O O9 0.384614 0.181141 0.641451
O O10 0.542523 0.255222 0.013601
O O11 0.534227 0.089510 0.699994
O O12 0.213581 0.101765 0.255949
O O13 0.154477 0.773875 0.608908
O O14 0.218660 0.688949 0.529432
O O15 0.188518 0.607349 0.307853
O O16 0.946830 0.735731 0.978400
#
# Coordination Sequence:
#
# PCOD8129381 Si02
#       8
#     4   4   4   4   4   4   4   4
#     4  12  25  46  71 101 141 184 232 289 350 416
#     4  12  27  44  73 108 138 186 235 284 352 422
#     4  12  25  45  71 102 143 184 227 296 345 409
#     4  12  25  44  70 103 140 180 232 293 343 407
#     4  12  23  44  74  97 137 194 227 279 359 412
#     4  12  23  49  72  99 148 183 229 293 348 412
#     4  12  25  46  72 104 142 187 228 287 359 414
#     4  12  25  46  72 104 138 182 238 286 348 412
#
# _framework density 21.493738
#
# number of rings (size 3 to 8) (size 9 to 14) (size 15 to 20)
#    0.000    0.000    8.750    1.500    1.750    2.500 
#    2.250    0.000    0.000    0.000    0.000    0.000 
#    0.000    0.000    0.000    0.000    0.000    0.000 
#
# Total GULP energy -396927.717890 kJ/mol
# GULP energy per Si atom -12403.991184 kJ/mol
# Density = 2.144482 g / cm^3
# Si number density = 21.493738 Si / 1000 Ang^3
#
#
#
# Elastic Constant Matrix: (Units=GPa)
#
#
# Indices 1 2 3 4 5 6 
#
# 1 103.0898 40.4421 34.5050 0.0000 -0.9730 0.0000
# 2 40.4421 110.4475 27.2825 0.0000 -3.0939 0.0000
# 3 34.5050 27.2825 135.9965 0.0000 -5.1693 0.0000
# 4 0.0000 0.0000 0.0000 26.5097 0.0000 0.4469
# 5 -0.9730 -3.0939 -5.1693 0.0000 36.1954 0.0000
# 6 0.0000 0.0000 0.0000 0.4469 0.0000 31.2307
#
#
#
# Elastic Compliance Matrix: (Units=1/GPa)
#
#
# Indices 1 2 3 4 5 6 
#
# 1 0.011961 -0.003826 -0.002280 0.000000 -0.000331 0.000000
# 2 -0.003826 0.010761 -0.001163 0.000000 0.000651 0.000000
# 3 -0.002280 -0.001163 0.008203 0.000000 0.001011 0.000000
# 4 0.000000 0.000000 0.000000 0.037731 0.000000 -0.000540
# 5 -0.000331 0.000651 0.001011 0.000000 0.027819 0.000000
# 6 0.000000 0.000000 0.000000 -0.000540 0.000000 0.032028
#
#
# Mechanical properties :
#
#
# Convention : Reuss Voigt Hill
#
# Bulk Modulus (GPa) = 61.02362 61.55477 61.28919
# Shear Modulus (GPa) = 33.66935 35.27409 34.47172
#
# Velocity S-wave (km/s) = 3.96216 4.05549 4.00910
# Velocity P-wave (km/s) = 7.02742 7.11547 7.07158
#
# Compressibility (1/GPa) = 0.01638710
#
# Stress axis : x y z
#
# Youngs Moduli (GPa) = 83.60419 92.93206 121.90136
#
# Poissons Ratio (x) = 0.35555 0.27792
# Poissons Ratio (y) = 0.31986 0.14180
# Poissons Ratio (z) = 0.19060 0.10810
#
# Static dielectric constant tensor:
#      x y z
#    x 3.810740 0.000000 -0.071340 
#    y 0.000000 3.738040 0.000000 
#    z -0.071340 0.000000 4.181060 
# 
# 
# High freq. dielectric constant tensor:
#      x y z
#    x 1.838890 0.000000 -0.000450 
#    y 0.000000 1.841080 0.000000 
#    z -0.000450 0.000000 1.862830 
# 
# From -- ./inp_files/34233.got.cif
#   From: 2010.03.12/outbox.cif.g09.slc.cpg/sg14_18_cif.got.tgz:34233.got - 2010.03.31 13:35:05.
