data_PCOD8129178
_publ_section_title
;
Structure prediction by ZEFSAII (Michael W. Deem and Ramdas Pophale) SiO2 
 PCOD8129178
Probable space group: P 21/C
;
_chemical_formula_sum "Si O2"
_cell_formula_units_Z 20
_cell_length_a 8.865215
_cell_length_b 9.776835
_cell_length_c 10.407078
_cell_angle_alpha 90.000000
_cell_angle_beta 79.485912
_cell_angle_gamma 90.000000
_cell_volume 886.875557
_symmetry_space_group_name_H-M "P 21/C"
_symmetry_group_IT_number 14
_symmetry_cell_setting 'monoclinic'
loop_
_space_group_symop_operation_xyz
x,y,z
-x,1/2+y,1/2-z
-x,-y,-z
x,1/2-y,1/2+z
loop_
_atom_site_type_symbol
_atom_site_label
_atom_site_fract_x
_atom_site_fract_y
_atom_site_fract_z
Si Si1 0.513920 0.160404 0.005955
Si Si2 0.833996 0.182943 0.041344
Si Si3 0.887775 0.469131 0.134046
Si Si4 0.096116 0.419835 0.331055
Si Si5 0.657572 0.708488 0.208727
O O1 0.692985 0.201658 0.963597
O O2 0.463668 0.199755 0.158127
O O3 0.418774 0.237102 0.910585
O O4 0.500000 0.000000 0.000000
O O5 0.835030 0.311879 0.136245
O O6 0.805956 0.041592 0.121196
O O7 0.997670 0.169958 0.946486
O O8 0.736973 0.563776 0.162539
O O9 0.984751 0.491739 0.247285
O O10 0.000000 0.500000 0.000000
O O11 0.216620 0.313529 0.254321
#
# Coordination Sequence:
#
# PCOD8129178 Si02
#       5
#     4   4   4   4   4
#     4  12  28  51  74 110 154 195 244 307 379 446
#     4  11  26  44  75 101 143 197 237 298 373 432
#     4  12  25  42  72 110 138 184 250 305 357 438
#     4  11  24  47  74 103 143 190 247 299 360 441
#     4  12  27  48  77 108 151 193 248 309 370 443
#
# _framework density 22.551079000000001
#
# number of rings (size 3 to 8) (size 9 to 14) (size 15 to 20)
#    0.000    0.400    4.000    3.600    8.400    0.800 
#    0.000    0.000    0.000    0.000    0.000    0.000 
#    0.000    0.000    0.000    0.000    0.000    0.000 
#
# Total GULP energy -248043.992852 kJ/mol
# GULP energy per Si atom -12402.199643 kJ/mol
# Density = 2.249975 g / cm^3
# Si number density = 22.551079 Si / 1000 Ang^3
#
#
#
# Elastic Constant Matrix: (Units=GPa)
#
#
# Indices 1 2 3 4 5 6 
#
# 1 118.1951 59.4512 24.0984 0.0000 19.9438 0.0000
# 2 59.4512 118.6367 40.6398 0.0000 -1.7944 0.0000
# 3 24.0984 40.6398 101.6332 0.0000 13.3637 0.0000
# 4 0.0000 0.0000 0.0000 32.8453 0.0000 0.3956
# 5 19.9438 -1.7944 13.3637 0.0000 37.5008 0.0000
# 6 0.0000 0.0000 0.0000 0.3956 0.0000 47.3976
#
#
#
# Elastic Compliance Matrix: (Units=1/GPa)
#
#
# Indices 1 2 3 4 5 6 
#
# 1 0.013053 -0.006873 0.000640 0.000000 -0.007499 0.000000
# 2 -0.006873 0.013524 -0.004557 0.000000 0.005927 0.000000
# 3 0.000640 -0.004557 0.012153 0.000000 -0.004889 0.000000
# 4 0.000000 0.000000 0.000000 0.030449 0.000000 -0.000254
# 5 -0.007499 0.005927 -0.004889 0.000000 0.032680 0.000000
# 6 0.000000 0.000000 0.000000 -0.000254 0.000000 0.021100
#
#
# Mechanical properties :
#
#
# Convention : Reuss Voigt Hill
#
# Bulk Modulus (GPa) = 58.31874 65.20486 61.76180
# Shear Modulus (GPa) = 33.27617 37.83377 35.55497
#
# Velocity S-wave (km/s) = 3.84551 4.10041 3.97500
# Velocity P-wave (km/s) = 6.75530 7.16902 6.96523
#
# Compressibility (1/GPa) = 0.01714715
#
# Stress axis : x y z
#
# Youngs Moduli (GPa) = 76.61194 73.94053 82.28483
#
# Poissons Ratio (x) = 0.50823 -0.05262
# Poissons Ratio (y) = 0.52659 0.37501
# Poissons Ratio (z) = -0.04899 0.33698
#
# Static dielectric constant tensor:
#      x y z
#    x 4.690560 0.000000 0.010150 
#    y 0.000000 4.226620 0.000000 
#    z 0.010150 0.000000 4.252190 
# 
# 
# High freq. dielectric constant tensor:
#      x y z
#    x 1.902830 0.000000 0.001210 
#    y 0.000000 1.905470 0.000000 
#    z 0.001210 0.000000 1.883420 
# 
# From -- ./inp_files/22986.got.cif
#   From: 2010.03.12/outbox.cif.g09.slc.cpg/sg14_12_cif.got.tgz:22986.got - 2010.03.31 13:35:05.
