data_PCOD8129160
_publ_section_title
;
Structure prediction by ZEFSAII (Michael W. Deem and Ramdas Pophale) SiO2 
 PCOD8129160
Probable space group: P 21/C
;
_chemical_formula_sum "Si O2"
_cell_formula_units_Z 20
_cell_length_a 7.435793
_cell_length_b 10.285089
_cell_length_c 12.180678
_cell_angle_alpha 90.000000
_cell_angle_beta 65.080596
_cell_angle_gamma 90.000000
_cell_volume 844.825215
_symmetry_space_group_name_H-M "P 21/C"
_symmetry_group_IT_number 14
_symmetry_cell_setting 'monoclinic'
loop_
_space_group_symop_operation_xyz
x,y,z
-x,1/2+y,1/2-z
-x,-y,-z
x,1/2-y,1/2+z
loop_
_atom_site_type_symbol
_atom_site_label
_atom_site_fract_x
_atom_site_fract_y
_atom_site_fract_z
Si Si1 0.029305 0.151821 0.524594
Si Si2 0.027962 0.401344 0.395074
Si Si3 0.513781 0.682910 0.034695
Si Si4 0.254281 0.887698 0.218038
Si Si5 0.553329 0.554451 0.810086
O O1 0.971006 0.252025 0.441703
O O2 0.253469 0.177938 0.502041
O O3 0.891623 0.192343 0.663645
O O4 0.000000 0.000000 0.500000
O O5 0.253940 0.396666 0.300743
O O6 0.000000 0.500000 0.500000
O O7 0.886943 0.456953 0.334320
O O8 0.418372 0.812054 0.105951
O O9 0.397405 0.568907 0.128160
O O10 0.476298 0.668395 0.913110
O O11 0.381959 0.981957 0.265211
#
# Coordination Sequence:
#
# PCOD8129160 Si02
#       5
#     4   4   4   4   4
#     4  12  25  47  76 107 146 201 248 300 374 447
#     4  12  28  48  72 111 149 190 248 308 370 437
#     4  11  24  46  75 106 149 193 252 300 374 447
#     4  12  25  46  74 105 146 196 241 308 363 439
#     4  11  24  46  71 103 145 198 240 298 369 442
#
# _framework density 23.673535999999999
#
# number of rings (size 3 to 8) (size 9 to 14) (size 15 to 20)
#    0.000    0.400    6.000    2.400    2.800    2.400 
#    3.600    0.000    0.000    0.000    0.000    0.000 
#    0.000    0.000    0.000    0.000    0.000    0.000 
#
# Total GULP energy -247885.856428 kJ/mol
# GULP energy per Si atom -12394.292821 kJ/mol
# Density = 2.361965 g / cm^3
# Si number density = 23.673536 Si / 1000 Ang^3
#
#
#
# Elastic Constant Matrix: (Units=GPa)
#
#
# Indices 1 2 3 4 5 6 
#
# 1 142.6776 16.5310 57.5592 0.0000 20.4230 0.0000
# 2 16.5310 68.3737 36.8038 0.0000 1.3903 0.0000
# 3 57.5592 36.8038 153.7303 0.0000 5.4993 0.0000
# 4 0.0000 0.0000 0.0000 29.7612 0.0000 3.5210
# 5 20.4230 1.3903 5.4993 0.0000 51.4103 0.0000
# 6 0.0000 0.0000 0.0000 3.5210 0.0000 23.5076
#
#
#
# Elastic Compliance Matrix: (Units=1/GPa)
#
#
# Indices 1 2 3 4 5 6 
#
# 1 0.008740 -0.000400 -0.003065 0.000000 -0.003133 0.000000
# 2 -0.000400 0.016807 -0.003878 0.000000 0.000119 0.000000
# 3 -0.003065 -0.003878 0.008566 0.000000 0.000406 0.000000
# 4 0.000000 0.000000 0.000000 0.034207 0.000000 -0.005124
# 5 -0.003133 0.000119 0.000406 0.000000 0.020649 0.000000
# 6 0.000000 0.000000 0.000000 -0.005124 0.000000 0.043307
#
#
# Mechanical properties :
#
#
# Convention : Reuss Voigt Hill
#
# Bulk Modulus (GPa) = 51.47162 65.17438 58.32300
# Shear Modulus (GPa) = 32.58638 37.86166 35.22402
#
# Velocity S-wave (km/s) = 3.71413 4.00349 3.86152
# Velocity P-wave (km/s) = 6.33897 6.99720 6.67620
#
# Compressibility (1/GPa) = 0.01942818
#
# Stress axis : x y z
#
# Youngs Moduli (GPa) = 114.41697 59.49780 116.73651
#
# Poissons Ratio (x) = 0.02379 0.35775
# Poissons Ratio (y) = 0.04574 0.45274
# Poissons Ratio (z) = 0.35064 0.23075
#
# Static dielectric constant tensor:
#      x y z
#    x 4.561110 0.000000 0.109170 
#    y 0.000000 3.939670 0.000000 
#    z 0.109170 0.000000 4.816770 
# 
# 
# High freq. dielectric constant tensor:
#      x y z
#    x 1.960530 0.000000 -0.006770 
#    y 0.000000 1.893610 0.000000 
#    z -0.006770 0.000000 1.967200 
# 
# From -- ./inp_files/23373.got.cif
#   From: 2010.03.12/outbox.cif.g09.slc.cpg/sg14_12_cif.got.tgz:23373.got - 2010.03.31 13:35:05.
