data_PCOD8129171
_publ_section_title
;
Structure prediction by ZEFSAII (Michael W. Deem and Ramdas Pophale) SiO2 
 PCOD8129171
Probable space group: P 21/C
;
_chemical_formula_sum "Si O2"
_cell_formula_units_Z 28
_cell_length_a 9.625447
_cell_length_b 8.107832
_cell_length_c 21.062726
_cell_angle_alpha 90.000000
_cell_angle_beta 49.913637
_cell_angle_gamma 90.000000
_cell_volume 1257.604434
_symmetry_space_group_name_H-M "P 21/C"
_symmetry_group_IT_number 14
_symmetry_cell_setting 'monoclinic'
loop_
_space_group_symop_operation_xyz
x,y,z
-x,1/2+y,1/2-z
-x,-y,-z
x,1/2-y,1/2+z
loop_
_atom_site_type_symbol
_atom_site_label
_atom_site_fract_x
_atom_site_fract_y
_atom_site_fract_z
Si Si1 0.914936 0.150600 0.831672
Si Si2 0.626648 0.430664 0.516216
Si Si3 0.795563 0.105905 0.264768
Si Si4 0.791595 0.827576 0.681530
Si Si5 0.492006 0.316703 0.153273
Si Si6 0.836855 0.184606 0.632288
Si Si7 0.862889 0.648407 0.529058
O O1 0.790592 0.238576 0.814637
O O2 0.089549 0.255602 0.797126
O O3 0.806428 0.135896 0.929360
O O4 0.005472 0.977823 0.782447
O O5 0.500000 0.500000 0.500000
O O6 0.511385 0.285192 0.582647
O O7 0.681573 0.573995 0.550078
O O8 0.779690 0.169018 0.196965
O O9 0.623118 0.984040 0.326524
O O10 0.588555 0.796845 0.766642
O O11 0.807485 0.737699 0.609709
O O12 0.849774 0.015895 0.666202
O O13 0.696598 0.350331 0.116355
O O14 0.036303 0.220373 0.545529
O O15 0.000000 0.500000 0.500000
#
# Coordination Sequence:
#
# PCOD8129171 Si02
#       7
#     4   4   4   4   4   4   4
#     4  11  24  47  67 103 141 194 235 294 362 435
#     4  12  28  43  72 102 146 190 238 298 365 423
#     4  11  25  42  73 103 147 189 241 302 360 430
#     4  11  25  40  75 104 139 187 240 290 362 434
#     4  11  26  44  66 106 141 185 242 297 357 431
#     4  12  23  43  73 104 141 185 242 292 360 433
#     4  12  22  47  71  98 143 187 231 294 359 426
#
# _framework density 22.264551000000001
#
# number of rings (size 3 to 8) (size 9 to 14) (size 15 to 20)
#    0.000    0.571    4.286    3.000    8.000    2.857 
#    0.000    0.000    0.000    0.000    0.000    0.000 
#    0.000    0.000    0.000    0.000    0.000    0.000 
#
# Total GULP energy -347162.568128 kJ/mol
# GULP energy per Si atom -12398.663147 kJ/mol
# Density = 2.221388 g / cm^3
# Si number density = 22.264551 Si / 1000 Ang^3
#
#
#
# Elastic Constant Matrix: (Units=GPa)
#
#
# Indices 1 2 3 4 5 6 
#
# 1 106.9619 23.6747 15.3029 0.0000 9.9538 0.0000
# 2 23.6747 89.3659 24.7988 0.0000 3.6176 0.0000
# 3 15.3029 24.7988 98.9101 0.0000 5.4812 0.0000
# 4 0.0000 0.0000 0.0000 31.6757 0.0000 18.5909
# 5 9.9538 3.6176 5.4812 0.0000 29.1998 0.0000
# 6 0.0000 0.0000 0.0000 18.5909 0.0000 36.0187
#
#
#
# Elastic Compliance Matrix: (Units=1/GPa)
#
#
# Indices 1 2 3 4 5 6 
#
# 1 0.010276 -0.002369 -0.000827 0.000000 -0.003054 0.000000
# 2 -0.002369 0.012598 -0.002779 0.000000 -0.000231 0.000000
# 3 -0.000827 -0.002779 0.011015 0.000000 -0.001442 0.000000
# 4 0.000000 0.000000 0.000000 0.045290 0.000000 -0.023376
# 5 -0.003054 -0.000231 -0.001442 0.000000 0.035587 0.000000
# 6 0.000000 0.000000 0.000000 -0.023376 0.000000 0.039829
#
#
# Mechanical properties :
#
#
# Convention : Reuss Voigt Hill
#
# Bulk Modulus (GPa) = 45.58135 46.97675 46.27905
# Shear Modulus (GPa) = 28.75910 34.80961 31.78436
#
# Velocity S-wave (km/s) = 3.59792 3.95834 3.78243
# Velocity P-wave (km/s) = 6.14631 6.48355 6.31718
#
# Compressibility (1/GPa) = 0.02193880
#
# Stress axis : x y z
#
# Youngs Moduli (GPa) = 97.31391 79.37627 90.78716
#
# Poissons Ratio (x) = 0.18807 0.07504
# Poissons Ratio (y) = 0.23057 0.25232
# Poissons Ratio (z) = 0.08044 0.22061
#
# Static dielectric constant tensor:
#      x y z
#    x 4.596510 0.000000 -0.289230 
#    y 0.000000 6.208400 0.000000 
#    z -0.289230 0.000000 3.396850 
# 
# 
# High freq. dielectric constant tensor:
#      x y z
#    x 1.878240 0.000000 0.002800 
#    y 0.000000 1.880220 0.000000 
#    z 0.002800 0.000000 1.883300 
# 
# From -- ./inp_files/64992.got.cif
#   From: 2010.03.12/outbox.cif.g09.slc.cpg/sg14_33_cif.got.tgz:64992.got - 2010.03.31 13:35:05.
