data_PCOD8129054
_publ_section_title
;
Structure prediction by ZEFSAII (Michael W. Deem and Ramdas Pophale) SiO2 
 PCOD8129054
Probable space group: P 21/C
;
_chemical_formula_sum "Si O2"
_cell_formula_units_Z 32
_cell_length_a 23.597089
_cell_length_b 8.558207
_cell_length_c 14.466973
_cell_angle_alpha 90.000000
_cell_angle_beta 151.353325
_cell_angle_gamma 90.000000
_cell_volume 1400.629270
_symmetry_space_group_name_H-M "P 21/C"
_symmetry_group_IT_number 14
_symmetry_cell_setting 'monoclinic'
loop_
_space_group_symop_operation_xyz
x,y,z
-x,1/2+y,1/2-z
-x,-y,-z
x,1/2-y,1/2+z
loop_
_atom_site_type_symbol
_atom_site_label
_atom_site_fract_x
_atom_site_fract_y
_atom_site_fract_z
Si Si1 0.120074 0.968691 0.878408
Si Si2 0.869192 0.561818 0.804961
Si Si3 0.112844 0.089387 0.199461
Si Si4 0.110757 0.187478 0.406690
Si Si5 0.662784 0.307422 0.225738
Si Si6 0.358189 0.954319 0.502082
Si Si7 0.501093 0.256151 0.157210
Si Si8 0.692136 0.968352 0.203408
O O1 0.178954 0.018228 0.865524
O O2 0.101879 0.127411 0.909855
O O3 0.992735 0.888519 0.679277
O O4 0.204006 0.850217 0.053623
O O5 0.865376 0.746920 0.822183
O O6 0.781576 0.477328 0.750578
O O7 0.000000 0.500000 0.000000
O O8 0.089635 0.131281 0.272436
O O9 0.223719 0.976445 0.342225
O O10 0.000000 0.000000 0.000000
O O11 0.240126 0.136255 0.624473
O O12 0.630702 0.401045 0.087937
O O13 0.572647 0.347945 0.179528
O O14 0.647809 0.123123 0.189895
O O15 0.411341 0.824551 0.645272
O O16 0.426384 0.118392 0.608606
O O17 0.417501 0.125793 0.993272
#
# Coordination Sequence:
#
# PCOD8129054 Si02
#       8
#     4   4   4   4   4   4   4   4
#     4  11  25  43  69 107 143 189 232 296 360 436
#     4  11  25  43  70 104 149 187 230 294 362 428
#     4  11  26  45  73 108 146 188 237 297 367 431
#     4  11  24  42  70 105 147 183 237 292 365 433
#     4  12  28  45  75 104 140 192 246 297 360 424
#     4  12  27  49  75 108 144 195 243 300 364 426
#     4  12  28  50  74 104 146 190 244 303 351 430
#     4  12  25  48  71 105 143 187 239 295 357 428
#
# _framework density 22.846872000000001
#
# number of rings (size 3 to 8) (size 9 to 14) (size 15 to 20)
#    0.000    0.500    2.500    4.500    8.750    2.000 
#    0.000    0.000    0.000    0.000    0.000    0.000 
#    0.000    0.000    0.000    0.000    0.000    0.000 
#
# Total GULP energy -397051.924124 kJ/mol
# GULP energy per Si atom -12407.872629 kJ/mol
# Density = 2.279487 g / cm^3
# Si number density = 22.846872 Si / 1000 Ang^3
#
#
#
# Elastic Constant Matrix: (Units=GPa)
#
#
# Indices 1 2 3 4 5 6 
#
# 1 83.2122 13.9683 25.4521 0.0000 9.5389 0.0000
# 2 13.9683 83.1524 28.1053 0.0000 -0.4758 0.0000
# 3 25.4521 28.1053 123.3705 0.0000 5.8866 0.0000
# 4 0.0000 0.0000 0.0000 48.7680 0.0000 -0.6149
# 5 9.5389 -0.4758 5.8866 0.0000 36.1967 0.0000
# 6 0.0000 0.0000 0.0000 -0.6149 0.0000 36.2449
#
#
#
# Elastic Compliance Matrix: (Units=1/GPa)
#
#
# Indices 1 2 3 4 5 6 
#
# 1 0.013321 -0.001493 -0.002257 0.000000 -0.003163 0.000000
# 2 -0.001493 0.013212 -0.002750 0.000000 0.001014 0.000000
# 3 -0.002257 -0.002750 0.009243 0.000000 -0.000944 0.000000
# 4 0.000000 0.000000 0.000000 0.020510 0.000000 0.000348
# 5 -0.003163 0.001014 -0.000944 0.000000 0.028627 0.000000
# 6 0.000000 0.000000 0.000000 0.000348 0.000000 0.027596
#
#
# Mechanical properties :
#
#
# Convention : Reuss Voigt Hill
#
# Bulk Modulus (GPa) = 43.90686 47.19850 45.55268
# Shear Modulus (GPa) = 37.56518 39.05587 38.31052
#
# Velocity S-wave (km/s) = 4.05929 4.13905 4.09936
# Velocity P-wave (km/s) = 6.42106 6.59892 6.51060
#
# Compressibility (1/GPa) = 0.02277548
#
# Stress axis : x y z
#
# Youngs Moduli (GPa) = 75.06905 75.68708 108.19046
#
# Poissons Ratio (x) = 0.11299 0.24421
# Poissons Ratio (y) = 0.11207 0.29756
# Poissons Ratio (z) = 0.16945 0.20816
#
# Static dielectric constant tensor:
#      x y z
#    x 4.314350 0.000000 -0.088440 
#    y 0.000000 4.158900 0.000000 
#    z -0.088440 0.000000 4.088960 
# 
# 
# High freq. dielectric constant tensor:
#      x y z
#    x 1.912740 0.000000 -0.005550 
#    y 0.000000 1.908740 0.000000 
#    z -0.005550 0.000000 1.910700 
# 
# From -- ./inp_files/51395.got.cif
#   From: 2010.03.12/outbox.cif.g09.slc.cpg/sg14_26_cif.got.tgz:51395.got - 2010.03.31 13:35:05.
