data_PCOD8129425
_publ_section_title
;
Structure prediction by ZEFSAII (Michael W. Deem and Ramdas Pophale) SiO2 
 PCOD8129425
Probable space group: P 21/C
;
_chemical_formula_sum "Si O2"
_cell_formula_units_Z 16
_cell_length_a 20.234189
_cell_length_b 4.767892
_cell_length_c 8.431636
_cell_angle_alpha 90.000000
_cell_angle_beta 126.688771
_cell_angle_gamma 90.000000
_cell_volume 652.289443
_symmetry_space_group_name_H-M "P 21/C"
_symmetry_group_IT_number 14
_symmetry_cell_setting 'monoclinic'
loop_
_space_group_symop_operation_xyz
x,y,z
-x,1/2+y,1/2-z
-x,-y,-z
x,1/2-y,1/2+z
loop_
_atom_site_type_symbol
_atom_site_label
_atom_site_fract_x
_atom_site_fract_y
_atom_site_fract_z
Si Si1 0.285860 0.636064 0.038036
Si Si2 0.777409 0.619493 0.372747
Si Si3 0.967292 0.629510 0.614252
Si Si4 0.530768 0.360066 0.204227
O O1 0.270095 0.400964 0.148281
O O2 0.378119 0.744256 0.185540
O O3 0.225065 0.898241 0.985197
O O4 0.270116 0.517139 0.842029
O O5 0.870695 0.691623 0.461433
O O6 0.014059 0.920654 0.713187
O O7 0.000000 0.500000 0.500000
O O8 0.528804 0.599896 0.337136
O O9 0.500000 0.500000 0.000000
#
# Coordination Sequence:
#
# PCOD8129425 Si02
#       4
#     4   4   4   4
#     4  12  27  47  73 104 143 189 238 296 357 426
#     4  12  25  47  71 105 144 189 239 294 356 427
#     4  12  25  44  71 105 144 189 238 295 357 424
#     4  12  27  50  76 108 145 189 238 295 359 429
#
# _framework density 24.528991999999999
#
# number of rings (size 3 to 8) (size 9 to 14) (size 15 to 20)
#    0.000    0.000    0.000   10.500    0.000    4.000 
#    0.000    0.000    0.000    0.000    0.000    0.000 
#    0.000    0.000    0.000    0.000    0.000    0.000 
#
# Total GULP energy -198542.715237 kJ/mol
# GULP energy per Si atom -12408.919702 kJ/mol
# Density = 2.447316 g / cm^3
# Si number density = 24.528992 Si / 1000 Ang^3
#
#
#
# Elastic Constant Matrix: (Units=GPa)
#
#
# Indices 1 2 3 4 5 6 
#
# 1 161.4624 69.0812 59.9634 0.0000 18.5371 0.0000
# 2 69.0812 146.0530 40.9843 0.0000 29.8972 0.0000
# 3 59.9634 40.9843 115.8873 0.0000 26.9425 0.0000
# 4 0.0000 0.0000 0.0000 37.4478 0.0000 -4.5129
# 5 18.5371 29.8972 26.9425 0.0000 23.1310 0.0000
# 6 0.0000 0.0000 0.0000 -4.5129 0.0000 67.6437
#
#
#
# Elastic Compliance Matrix: (Units=1/GPa)
#
#
# Indices 1 2 3 4 5 6 
#
# 1 0.008894 -0.003519 -0.003782 0.000000 0.001826 0.000000
# 2 -0.003519 0.010742 0.000815 0.000000 -0.012013 0.000000
# 3 -0.003782 0.000815 0.013491 0.000000 -0.013737 0.000000
# 4 0.000000 0.000000 0.000000 0.026920 0.000000 0.001796
# 5 0.001826 -0.012013 -0.013737 0.000000 0.073296 0.000000
# 6 0.000000 0.000000 0.000000 0.001796 0.000000 0.014903
#
#
# Mechanical properties :
#
#
# Convention : Reuss Voigt Hill
#
# Bulk Modulus (GPa) = 49.61672 84.82896 67.22284
# Shear Modulus (GPa) = 29.77300 42.53607 36.15454
#
# Velocity S-wave (km/s) = 3.48773 4.16879 3.84337
# Velocity P-wave (km/s) = 6.04075 7.60460 6.86734
#
# Compressibility (1/GPa) = 0.02015449
#
# Stress axis : x y z
#
# Youngs Moduli (GPa) = 112.43547 93.09447 74.12093
#
# Poissons Ratio (x) = 0.32763 0.28032
# Poissons Ratio (y) = 0.39570 -0.06040
# Poissons Ratio (z) = 0.42523 -0.07587
#
# Static dielectric constant tensor:
#      x y z
#    x 4.019190 0.000000 -1.272110 
#    y 0.000000 5.174480 0.000000 
#    z -1.272110 0.000000 3.139740 
# 
# 
# High freq. dielectric constant tensor:
#      x y z
#    x 1.996140 0.000000 -0.005770 
#    y 0.000000 2.004620 0.000000 
#    z -0.005770 0.000000 1.970770 
# 
# From -- ./inp_files/18416.got.cif
#   From: 2010.03.12/outbox.cif.g09.slc.cpg/sg14_10_cif.got.tgz:18416.got - 2010.03.31 13:35:05.
