data_PCOD8129456
_publ_section_title
;
Structure prediction by ZEFSAII (Michael W. Deem and Ramdas Pophale) SiO2 
 PCOD8129456
Probable space group: P 21/C
;
_chemical_formula_sum "Si O2"
_cell_formula_units_Z 20
_cell_length_a 11.538696
_cell_length_b 6.923735
_cell_length_c 23.672626
_cell_angle_alpha 90.000000
_cell_angle_beta 150.626998
_cell_angle_gamma 90.000000
_cell_volume 927.633830
_symmetry_space_group_name_H-M "P 21/C"
_symmetry_group_IT_number 14
_symmetry_cell_setting 'monoclinic'
loop_
_space_group_symop_operation_xyz
x,y,z
-x,1/2+y,1/2-z
-x,-y,-z
x,1/2-y,1/2+z
loop_
_atom_site_type_symbol
_atom_site_label
_atom_site_fract_x
_atom_site_fract_y
_atom_site_fract_z
Si Si1 0.986098 0.917009 0.169777
Si Si2 0.735653 0.072927 0.393482
Si Si3 0.410384 0.725672 0.288082
Si Si4 0.645125 0.375912 0.447628
Si Si5 0.323396 0.137700 0.392691
O O1 0.776477 0.784515 0.103764
O O2 0.157525 0.789073 0.204175
O O3 0.114663 0.011101 0.277723
O O4 0.871231 0.086063 0.083284
O O5 0.622305 0.121720 0.285367
O O6 0.737991 0.265006 0.432082
O O7 0.579296 0.909922 0.356553
O O8 0.000000 0.000000 0.500000
O O9 0.529128 0.578350 0.381757
O O10 0.451421 0.249043 0.396834
O O11 0.500000 0.000000 0.500000
#
# Coordination Sequence:
#
# PCOD8129456 Si02
#       5
#     4   4   4   4   4
#     4  12  26  45  76 104 143 190 239 297 358 427
#     4  12  28  45  76 106 147 190 240 297 356 428
#     4  12  26  49  71 110 143 189 239 293 361 428
#     4  12  27  47  74 106 145 187 239 295 358 424
#     4  12  26  48  73 107 144 186 242 297 362 426
#
# _framework density 21.560233
#
# number of rings (size 3 to 8) (size 9 to 14) (size 15 to 20)
#    0.000    0.000    4.000    5.400    8.400    1.600 
#    0.000    0.000    0.000    0.000    0.000    0.000 
#    0.000    0.000    0.000    0.000    0.000    0.000 
#
# Total GULP energy -248224.409344 kJ/mol
# GULP energy per Si atom -12411.220467 kJ/mol
# Density = 2.151116 g / cm^3
# Si number density = 21.560233 Si / 1000 Ang^3
#
#
#
# Elastic Constant Matrix: (Units=GPa)
#
#
# Indices 1 2 3 4 5 6 
#
# 1 91.3705 21.1281 21.9833 0.0000 1.7176 0.0000
# 2 21.1281 89.2246 35.8427 0.0000 -8.8932 0.0000
# 3 21.9833 35.8427 122.5350 0.0000 -13.2049 0.0000
# 4 0.0000 0.0000 0.0000 52.4187 0.0000 -2.2584
# 5 1.7176 -8.8932 -13.2049 0.0000 40.6771 0.0000
# 6 0.0000 0.0000 0.0000 -2.2584 0.0000 52.0899
#
#
#
# Elastic Compliance Matrix: (Units=1/GPa)
#
#
# Indices 1 2 3 4 5 6 
#
# 1 0.011900 -0.002319 -0.001622 0.000000 -0.001536 0.000000
# 2 -0.002319 0.013257 -0.003253 0.000000 0.001940 0.000000
# 3 -0.001622 -0.003253 0.009672 0.000000 0.002497 0.000000
# 4 0.000000 0.000000 0.000000 0.019113 0.000000 0.000829
# 5 -0.001536 0.001940 0.002497 0.000000 0.025884 0.000000
# 6 0.000000 0.000000 0.000000 0.000829 0.000000 0.019234
#
#
# Mechanical properties :
#
#
# Convention : Reuss Voigt Hill
#
# Bulk Modulus (GPa) = 48.92039 51.22649 50.07344
# Shear Modulus (GPa) = 41.57627 43.98221 42.77924
#
# Velocity S-wave (km/s) = 4.39609 4.52150 4.45924
# Velocity P-wave (km/s) = 6.96469 7.14632 7.05609
#
# Compressibility (1/GPa) = 0.02044137
#
# Stress axis : x y z
#
# Youngs Moduli (GPa) = 84.03435 75.43245 103.38644
#
# Poissons Ratio (x) = 0.17496 0.16769
# Poissons Ratio (y) = 0.19491 0.33627
# Poissons Ratio (z) = 0.13630 0.24535
#
# Static dielectric constant tensor:
#      x y z
#    x 3.951740 0.000000 -0.029920 
#    y 0.000000 4.197180 0.000000 
#    z -0.029920 0.000000 3.945780 
# 
# 
# High freq. dielectric constant tensor:
#      x y z
#    x 1.863710 0.000000 -0.003580 
#    y 0.000000 1.863780 0.000000 
#    z -0.003580 0.000000 1.862340 
# 
# From -- ./inp_files/27385.got.cif
#   From: 2010.03.12/outbox.cif.g09.slc.cpg/sg14_14_cif.got.tgz:27385.got - 2010.03.31 13:35:05.
