data_PCOD8129109
_publ_section_title
;
Structure prediction by ZEFSAII (Michael W. Deem and Ramdas Pophale) SiO2 
 PCOD8129109
Probable space group: P 21/C
;
_chemical_formula_sum "Si O2"
_cell_formula_units_Z 28
_cell_length_a 5.346779
_cell_length_b 20.985520
_cell_length_c 9.926345
_cell_angle_alpha 90.000000
_cell_angle_beta 72.119853
_cell_angle_gamma 90.000000
_cell_volume 1059.990052
_symmetry_space_group_name_H-M "P 21/C"
_symmetry_group_IT_number 14
_symmetry_cell_setting 'monoclinic'
loop_
_space_group_symop_operation_xyz
x,y,z
-x,1/2+y,1/2-z
-x,-y,-z
x,1/2-y,1/2+z
loop_
_atom_site_type_symbol
_atom_site_label
_atom_site_fract_x
_atom_site_fract_y
_atom_site_fract_z
Si Si1 0.970955 0.647898 0.266458
Si Si2 0.971453 0.141557 0.949146
Si Si3 0.842567 0.516776 0.206627
Si Si4 0.568680 0.316348 0.998323
Si Si5 0.357352 0.255982 0.283256
Si Si6 0.287560 0.053696 0.551258
Si Si7 0.509572 0.937544 0.089665
O O1 0.111440 0.664501 0.385645
O O2 0.851950 0.576341 0.309075
O O3 0.723795 0.692761 0.282800
O O4 0.165052 0.654264 0.106051
O O5 0.093268 0.200960 0.845752
O O6 0.208998 0.091281 0.926723
O O7 0.707384 0.114637 0.923131
O O8 0.587575 0.470378 0.253855
O O9 0.085790 0.468987 0.200522
O O10 0.876814 0.552959 0.060489
O O11 0.580918 0.287498 0.148359
O O12 0.369859 0.374101 0.055399
O O13 0.471159 0.261619 0.911083
O O14 0.500000 0.000000 0.500000
O O15 0.500000 0.000000 0.000000
#
# Coordination Sequence:
#
# PCOD8129109 Si02
#       7
#     4   4   4   4   4   4   4
#     4  12  27  47  77 111 154 214 260 338 390 481
#     4  12  30  52  81 116 167 208 268 331 403 480
#     4  11  25  44  74 110 154 194 263 320 406 469
#     4  12  28  48  80 103 160 204 276 326 406 473
#     4  12  29  51  72 117 154 220 263 334 397 489
#     4  11  24  44  72 110 148 203 255 334 400 480
#     4  12  28  48  81 118 156 208 261 329 402 480
#
# _framework density 26.415343
#
# number of rings (size 3 to 8) (size 9 to 14) (size 15 to 20)
#    0.000    0.286    5.714    1.286   12.000    0.000 
#    0.000    0.000    0.000    0.000    0.000    0.000 
#    0.000    0.000    0.000    0.000    0.000    0.000 
#
# Total GULP energy -346876.273294 kJ/mol
# GULP energy per Si atom -12388.438332 kJ/mol
# Density = 2.635522 g / cm^3
# Si number density = 26.415343 Si / 1000 Ang^3
#
#
#
# Elastic Constant Matrix: (Units=GPa)
#
#
# Indices 1 2 3 4 5 6 
#
# 1 49.6118 20.6183 -13.5568 0.0000 -2.7553 0.0000
# 2 20.6183 129.4895 43.0015 0.0000 -6.5160 0.0000
# 3 -13.5568 43.0015 80.0078 0.0000 5.3594 0.0000
# 4 0.0000 0.0000 0.0000 30.1120 0.0000 -0.2469
# 5 -2.7553 -6.5160 5.3594 0.0000 33.2873 0.0000
# 6 0.0000 0.0000 0.0000 -0.2469 0.0000 42.6367
#
#
#
# Elastic Compliance Matrix: (Units=1/GPa)
#
#
# Indices 1 2 3 4 5 6 
#
# 1 0.025011 -0.006603 0.007819 0.000000 -0.000481 0.000000
# 2 -0.006603 0.011387 -0.007432 0.000000 0.002879 0.000000
# 3 0.007819 -0.007432 0.018067 0.000000 -0.003716 0.000000
# 4 0.000000 0.000000 0.000000 0.033211 0.000000 0.000192
# 5 -0.000481 0.002879 -0.003716 0.000000 0.031164 0.000000
# 6 0.000000 0.000000 0.000000 0.000192 0.000000 0.023455
#
#
# Mechanical properties :
#
#
# Convention : Reuss Voigt Hill
#
# Bulk Modulus (GPa) = 23.79095 39.91501 31.85298
# Shear Modulus (GPa) = 29.63194 35.14361 32.38777
#
# Velocity S-wave (km/s) = 3.35292 3.65145 3.50537
# Velocity P-wave (km/s) = 4.90056 5.73767 5.33555
#
# Compressibility (1/GPa) = 0.04203280
#
# Stress axis : x y z
#
# Youngs Moduli (GPa) = 39.98293 87.82015 55.34958
#
# Poissons Ratio (x) = 0.57990 -0.43279
# Poissons Ratio (y) = 0.26402 0.41135
# Poissons Ratio (z) = -0.31263 0.65266
#
# Static dielectric constant tensor:
#      x y z
#    x 4.541500 0.000000 0.431320 
#    y 0.000000 5.108530 0.000000 
#    z 0.431320 0.000000 6.974050 
# 
# 
# High freq. dielectric constant tensor:
#      x y z
#    x 2.038110 0.000000 -0.003470 
#    y 0.000000 2.079530 0.000000 
#    z -0.003470 0.000000 2.082380 
# 
# From -- ./inp_files/21705.got.cif
#   From: 2010.03.12/outbox.cif.g09.slc.cpg/sg14_11_cif.got.tgz:21705.got - 2010.03.31 13:35:05.
