data_PCOD8129297
_publ_section_title
;
Structure prediction by ZEFSAII (Michael W. Deem and Ramdas Pophale) SiO2 
 PCOD8129297
Probable space group: P 21/C
;
_chemical_formula_sum "Si O2"
_cell_formula_units_Z 28
_cell_length_a 12.937322
_cell_length_b 8.292070
_cell_length_c 21.732614
_cell_angle_alpha 90.000000
_cell_angle_beta 32.463132
_cell_angle_gamma 90.000000
_cell_volume 1251.402073
_symmetry_space_group_name_H-M "P 21/C"
_symmetry_group_IT_number 14
_symmetry_cell_setting 'monoclinic'
loop_
_space_group_symop_operation_xyz
x,y,z
-x,1/2+y,1/2-z
-x,-y,-z
x,1/2-y,1/2+z
loop_
_atom_site_type_symbol
_atom_site_label
_atom_site_fract_x
_atom_site_fract_y
_atom_site_fract_z
Si Si1 0.996761 0.238198 0.384806
Si Si2 0.675571 0.470064 0.494782
Si Si3 0.746623 0.976941 0.820848
Si Si4 0.785766 0.692209 0.540978
Si Si5 0.735079 0.053185 0.604357
Si Si6 0.677727 0.558078 0.717817
Si Si7 0.787920 0.273916 0.200741
O O1 0.813918 0.340604 0.456453
O O2 0.925704 0.127194 0.477173
O O3 0.182029 0.342439 0.308880
O O4 0.069527 0.125346 0.293227
O O5 0.460773 0.398887 0.592884
O O6 0.768131 0.514045 0.382924
O O7 0.659835 0.629792 0.546010
O O8 0.757289 0.153986 0.784113
O O9 0.766007 0.557894 0.604540
O O10 0.002415 0.696326 0.409143
O O11 0.719343 0.862753 0.601235
O O12 0.538565 0.132838 0.676167
O O13 0.750466 0.084723 0.669611
O O14 0.648276 0.376198 0.757444
#
# Coordination Sequence:
#
# PCOD8129297 Si02
#       7
#     4   4   4   4   4   4   4
#     4  12  24  42  66  98 134 172 222 270 330 402
#     4  11  26  46  68  95 132 178 227 279 331 390
#     4  11  26  46  68  95 132 178 227 279 331 390
#     4  12  23  45  67  97 133 174 219 273 333 398
#     4  12  24  40  68 100 134 171 212 273 337 401
#     4  12  24  40  68 100 134 171 212 273 337 401
#     4  12  23  45  67  97 133 174 219 273 333 398
#
# _framework density 22.374901999999999
#
# number of rings (size 3 to 8) (size 9 to 14) (size 15 to 20)
#    0.000    0.286    4.286    6.000    2.000    0.000 
#    0.000    0.000    0.000    6.857    0.000    0.000 
#    0.000    0.000    0.000    0.000    0.000    0.000 
#
# Total GULP energy -347250.229342 kJ/mol
# GULP energy per Si atom -12401.793905 kJ/mol
# Density = 2.232398 g / cm^3
# Si number density = 22.374902 Si / 1000 Ang^3
#
#
#
# Elastic Constant Matrix: (Units=GPa)
#
#
# Indices 1 2 3 4 5 6 
#
# 1 73.7717 27.1816 0.2107 0.0000 13.3693 0.0000
# 2 27.1816 97.8178 11.7026 0.0000 19.6297 0.0000
# 3 0.2107 11.7026 59.7073 0.0000 5.9446 0.0000
# 4 0.0000 0.0000 0.0000 26.8974 0.0000 -2.5543
# 5 13.3693 19.6297 5.9446 0.0000 51.1765 0.0000
# 6 0.0000 0.0000 0.0000 -2.5543 0.0000 18.7181
#
#
#
# Elastic Compliance Matrix: (Units=1/GPa)
#
#
# Indices 1 2 3 4 5 6 
#
# 1 0.015465 -0.003879 0.000971 0.000000 -0.002665 0.000000
# 2 -0.003879 0.012236 -0.002042 0.000000 -0.003443 0.000000
# 3 0.000971 -0.002042 0.017292 0.000000 -0.001479 0.000000
# 4 0.000000 0.000000 0.000000 0.037666 0.000000 0.005140
# 5 -0.002665 -0.003443 -0.001479 0.000000 0.021729 0.000000
# 6 0.000000 0.000000 0.000000 0.005140 0.000000 0.054126
#
#
# Mechanical properties :
#
#
# Convention : Reuss Voigt Hill
#
# Bulk Modulus (GPa) = 28.49475 34.38738 31.44106
# Shear Modulus (GPa) = 27.76067 32.17188 29.96627
#
# Velocity S-wave (km/s) = 3.52619 3.79602 3.66359
# Velocity P-wave (km/s) = 5.41677 5.88346 5.65493
#
# Compressibility (1/GPa) = 0.03509419
#
# Stress axis : x y z
#
# Youngs Moduli (GPa) = 64.66365 81.72547 57.82882
#
# Poissons Ratio (x) = 0.31699 -0.05615
# Poissons Ratio (y) = 0.25081 0.11807
# Poissons Ratio (z) = -0.06279 0.16687
#
# Static dielectric constant tensor:
#      x y z
#    x 4.051840 0.000000 -0.160760 
#    y 0.000000 3.966410 0.000000 
#    z -0.160760 0.000000 4.147660 
# 
# 
# High freq. dielectric constant tensor:
#      x y z
#    x 1.881440 0.000000 -0.019700 
#    y 0.000000 1.873350 0.000000 
#    z -0.019700 0.000000 1.894600 
# 
# From -- ./inp_files/66969.got.cif
#   From: 2010.03.12/outbox.cif.g09.slc.cpg/sg14_34_cif.got.tgz:66969.got - 2010.03.31 13:35:05.
