data_PCOD8129246
_publ_section_title
;
Structure prediction by ZEFSAII (Michael W. Deem and Ramdas Pophale) SiO2 
 PCOD8129246
Probable space group: P 21/C
;
_chemical_formula_sum "Si O2"
_cell_formula_units_Z 20
_cell_length_a 6.496536
_cell_length_b 16.146370
_cell_length_c 10.502440
_cell_angle_alpha 90.000000
_cell_angle_beta 53.125682
_cell_angle_gamma 90.000000
_cell_volume 881.275739
_symmetry_space_group_name_H-M "P 21/C"
_symmetry_group_IT_number 14
_symmetry_cell_setting 'monoclinic'
loop_
_space_group_symop_operation_xyz
x,y,z
-x,1/2+y,1/2-z
-x,-y,-z
x,1/2-y,1/2+z
loop_
_atom_site_type_symbol
_atom_site_label
_atom_site_fract_x
_atom_site_fract_y
_atom_site_fract_z
Si Si1 0.835065 0.791564 0.686152
Si Si2 0.978316 0.312542 0.157997
Si Si3 0.428196 0.141016 0.824649
Si Si4 0.744112 0.560107 0.378747
Si Si5 0.267720 0.041455 0.657328
O O1 0.608122 0.727274 0.736893
O O2 0.715815 0.882777 0.761293
O O3 0.013433 0.789287 0.494217
O O4 0.003154 0.762033 0.746059
O O5 0.712043 0.360576 0.278702
O O6 0.208487 0.375549 0.101361
O O7 0.379879 0.062295 0.753720
O O8 0.235217 0.127521 0.014787
O O9 0.500000 0.500000 0.500000
O O10 0.013240 0.513249 0.266883
O O11 0.500000 0.000000 0.500000
#
# Coordination Sequence:
#
# PCOD8129246 Si02
#       5
#     4   4   4   4   4
#     4  11  26  45  71 106 146 196 244 301 365 449
#     4  11  25  46  70 105 146 193 246 298 370 443
#     4  11  25  46  72 103 146 194 245 297 370 442
#     4  12  25  47  75 109 148 194 247 311 367 437
#     4  11  26  45  72 106 143 190 244 306 368 432
#
# _framework density 22.694371
#
# number of rings (size 3 to 8) (size 9 to 14) (size 15 to 20)
#    0.000    0.800    4.000    1.800    5.600    3.200 
#    0.000    0.000    0.000    0.000    0.000    0.000 
#    0.000    0.000    0.000    0.000    0.000    0.000 
#
# Total GULP energy -247850.658344 kJ/mol
# GULP energy per Si atom -12392.532917 kJ/mol
# Density = 2.264272 g / cm^3
# Si number density = 22.694371 Si / 1000 Ang^3
#
#
#
# Elastic Constant Matrix: (Units=GPa)
#
#
# Indices 1 2 3 4 5 6 
#
# 1 96.5768 38.1674 57.8643 0.0000 0.2463 0.0000
# 2 38.1674 88.1049 46.4158 0.0000 -2.6908 0.0000
# 3 57.8643 46.4158 153.9927 0.0000 3.7656 0.0000
# 4 0.0000 0.0000 0.0000 47.5124 0.0000 6.0663
# 5 0.2463 -2.6908 3.7656 0.0000 50.7078 0.0000
# 6 0.0000 0.0000 0.0000 6.0663 0.0000 35.9858
#
#
#
# Elastic Compliance Matrix: (Units=1/GPa)
#
#
# Indices 1 2 3 4 5 6 
#
# 1 0.014485 -0.004049 -0.004223 0.000000 0.000028 0.000000
# 2 -0.004049 0.014677 -0.002927 0.000000 0.001016 0.000000
# 3 -0.004223 -0.002927 0.008983 0.000000 -0.000802 0.000000
# 4 0.000000 0.000000 0.000000 0.021510 0.000000 -0.003626
# 5 0.000028 0.001016 -0.000802 0.000000 0.019834 0.000000
# 6 0.000000 0.000000 0.000000 -0.003626 0.000000 0.028400
#
#
# Mechanical properties :
#
#
# Convention : Reuss Voigt Hill
#
# Bulk Modulus (GPa) = 63.50912 69.28550 66.39731
# Shear Modulus (GPa) = 36.89030 39.92300 38.40665
#
# Velocity S-wave (km/s) = 4.03616 4.19878 4.11827
# Velocity P-wave (km/s) = 7.05450 7.35544 7.20654
#
# Compressibility (1/GPa) = 0.01574577
#
# Stress axis : x y z
#
# Youngs Moduli (GPa) = 69.03739 68.13169 111.32626
#
# Poissons Ratio (x) = 0.27588 0.47013
# Poissons Ratio (y) = 0.27955 0.32589
# Poissons Ratio (z) = 0.29155 0.19944
#
# Static dielectric constant tensor:
#      x y z
#    x 5.228510 0.000000 0.563000 
#    y 0.000000 4.274040 0.000000 
#    z 0.563000 0.000000 4.207450 
# 
# 
# High freq. dielectric constant tensor:
#      x y z
#    x 1.889950 0.000000 0.014960 
#    y 0.000000 1.906790 0.000000 
#    z 0.014960 0.000000 1.904580 
# 
# From -- ./inp_files/21138.got.cif
#   From: 2010.03.12/outbox.cif.g09.slc.cpg/sg14_11_cif.got.tgz:21138.got - 2010.03.31 13:35:05.
