data_PCOD8129684
_publ_section_title
;
Structure prediction by ZEFSAII (Michael W. Deem and Ramdas Pophale) SiO2 
 PCOD8129684
Probable space group: C 2/C
;
_chemical_formula_sum "Si O2"
_cell_formula_units_Z 64
_cell_length_a 18.774805
_cell_length_b 13.311222
_cell_length_c 13.844488
_cell_angle_alpha 90.000000
_cell_angle_beta 90.000020
_cell_angle_gamma 90.000000
_cell_volume 3459.953489
_symmetry_space_group_name_H-M "C 2/C"
_symmetry_group_IT_number 15
_symmetry_cell_setting 'monoclinic'
loop_
_space_group_symop_operation_xyz
x,y,z
-x,y,1/2-z
-x,-y,-z
x,-y,1/2+z
1/2+x,1/2+y,z
1/2-x,1/2+y,1/2-z
1/2-x,1/2-y,-z
1/2+x,1/2-y,1/2+z
loop_
_atom_site_type_symbol
_atom_site_label
_atom_site_fract_x
_atom_site_fract_y
_atom_site_fract_z
Si Si1 0.000000 0.739429 0.359008
Si Si2 0.500000 0.991904 0.887536
Si Si3 0.848251 0.515915 0.354707
Si Si4 0.285110 0.189902 0.639810
Si Si5 0.214890 0.689901 0.639810
Si Si6 0.348251 0.015915 0.145293
Si Si7 0.852955 0.274044 0.552064
Si Si8 0.352955 0.774044 0.947936
O O1 0.070269 0.771675 0.419309
O O2 0.000000 0.785730 0.250000
O O3 1.000000 0.620742 0.347659
O O4 0.929731 0.771676 0.419309
O O5 0.573928 0.040592 0.850819
O O6 0.426072 0.040592 0.850819
O O7 0.500000 0.000000 0.000000
O O8 0.790171 0.430366 0.375960
O O9 0.832541 0.564917 0.250000
O O10 0.848360 0.604675 0.433327
O O11 0.306611 0.219373 0.750000
O O12 0.290171 0.069634 0.624040
O O13 0.336027 0.246143 0.561350
O O14 0.203842 0.219556 0.620379
O O15 0.163973 0.746143 0.561350
O O16 0.296158 0.719555 0.620379
O O17 0.348360 0.104675 0.066673
#
# Coordination Sequence:
#
# PCOD8129684 Si02
#       8
#     8   8   8   8   8   8   8   8
#     4  10  18  30  49  68  89 122 158 192 233 274
#     4  10  16  24  40  64  94 122 148 180 226 276
#     4  10  18  29  46  68  95 124 153 187 230 279
#     4  10  20  31  46  70  97 127 158 188 233 287
#     4  10  20  31  46  70  97 127 158 188 233 287
#     4  10  18  29  46  68  95 124 153 187 230 279
#     4  10  19  33  49  69  98 124 155 197 236 274
#     4  10  19  33  49  69  98 124 155 197 236 274
#
# _framework density 18.497357999999998
#
# number of rings (size 3 to 8) (size 9 to 14) (size 15 to 20)
#    0.000    2.000    0.000    8.625    0.000    0.000 
#    0.000    1.875    0.000    0.000    0.000   15.750 
#    0.000   16.000    0.000    0.000    0.000    0.000 
#
# Total GULP energy -396449.639917 kJ/mol
# GULP energy per Si atom -12389.051247 kJ/mol
# Density = 1.845526 g / cm^3
# Si number density = 18.497358 Si / 1000 Ang^3
#
#
#
# Elastic Constant Matrix: (Units=GPa)
#
#
# Indices 1 2 3 4 5 6 
#
# 1 144.1988 37.1179 50.1161 0.0000 -3.9745 0.0000
# 2 37.1179 38.3127 4.6817 0.0000 -3.0387 0.0000
# 3 50.1161 4.6817 150.3812 0.0000 4.5537 0.0000
# 4 0.0000 0.0000 0.0000 18.7625 0.0000 -0.3066
# 5 -3.9745 -3.0387 4.5537 0.0000 26.6279 0.0000
# 6 0.0000 0.0000 0.0000 -0.3066 0.0000 22.0353
#
#
#
# Elastic Compliance Matrix: (Units=1/GPa)
#
#
# Indices 1 2 3 4 5 6 
#
# 1 0.010624 -0.009812 -0.003266 0.000000 0.001025 0.000000
# 2 -0.009812 0.035528 0.002096 0.000000 0.002231 0.000000
# 3 -0.003266 0.002096 0.007720 0.000000 -0.001569 0.000000
# 4 0.000000 0.000000 0.000000 0.053310 0.000000 0.000742
# 5 0.001025 0.002231 -0.001569 0.000000 0.038230 0.000000
# 6 0.000000 0.000000 0.000000 0.000742 0.000000 0.045392
#
#
# Mechanical properties :
#
#
# Convention : Reuss Voigt Hill
#
# Bulk Modulus (GPa) = 31.33950 57.41378 44.37664
# Shear Modulus (GPa) = 22.38084 29.55027 25.96556
#
# Velocity S-wave (km/s) = 3.48220 4.00126 3.75072
# Velocity P-wave (km/s) = 5.75735 7.24245 6.54218
#
# Compressibility (1/GPa) = 0.03190862
#
# Stress axis : x y z
#
# Youngs Moduli (GPa) = 94.12642 28.14666 129.52596
#
# Poissons Ratio (x) = 0.27618 0.42305
# Poissons Ratio (y) = 0.92360 -0.27154
# Poissons Ratio (z) = 0.30743 -0.05901
#
# Static dielectric constant tensor:
#      x y z
#    x 3.779090 0.000000 -0.009200 
#    y 0.000000 2.756940 0.000000 
#    z -0.009200 0.000000 3.680940 
# 
# 
# High freq. dielectric constant tensor:
#      x y z
#    x 1.716790 0.000000 0.002810 
#    y 0.000000 1.647470 0.000000 
#    z 0.002810 0.000000 1.746780 
# 
# From -- ./inp_files/161924.got.cif
#   From: 2010.06.25/outbox.cif.g09.slc.cpg/sg15_81_cif.got.tgz:161924.got - 2010.06.28 07:06:18.
