data_PCOD8129108
_publ_section_title
;
Structure prediction by ZEFSAII (Michael W. Deem and Ramdas Pophale) SiO2 
 PCOD8129108
Probable space group: P 21/C
;
_chemical_formula_sum "Si O2"
_cell_formula_units_Z 32
_cell_length_a 11.410044
_cell_length_b 14.275909
_cell_length_c 8.889261
_cell_angle_alpha 90.000000
_cell_angle_beta 101.481811
_cell_angle_gamma 90.000000
_cell_volume 1418.983946
_symmetry_space_group_name_H-M "P 21/C"
_symmetry_group_IT_number 14
_symmetry_cell_setting 'monoclinic'
loop_
_space_group_symop_operation_xyz
x,y,z
-x,1/2+y,1/2-z
-x,-y,-z
x,1/2-y,1/2+z
loop_
_atom_site_type_symbol
_atom_site_label
_atom_site_fract_x
_atom_site_fract_y
_atom_site_fract_z
Si Si1 0.627531 0.719468 0.310975
Si Si2 0.486507 0.457082 0.829943
Si Si3 0.403589 0.855301 0.236723
Si Si4 0.015323 0.586667 0.612930
Si Si5 0.809742 0.102856 0.598574
Si Si6 0.266875 0.552871 0.229366
Si Si7 0.200262 0.809665 0.966967
Si Si8 0.243003 0.146664 0.864291
O O1 0.607842 0.628558 0.198019
O O2 0.508745 0.782663 0.306885
O O3 0.669165 0.679643 0.481332
O O4 0.734654 0.780869 0.266463
O O5 0.456863 0.542823 0.707572
O O6 0.604767 0.409839 0.791085
O O7 0.500000 0.500000 0.000000
O O8 0.319749 0.884606 0.356144
O O9 0.330930 0.812058 0.078400
O O10 0.086213 0.551327 0.779235
O O11 0.103814 0.657937 0.559848
O O12 0.000000 0.500000 0.500000
O O13 0.894352 0.642472 0.619512
O O14 0.806377 0.041832 0.445023
O O15 0.849815 0.208235 0.579827
O O16 0.203413 0.630540 0.315450
O O17 0.277841 0.456726 0.321017
#
# Coordination Sequence:
#
# PCOD8129108 Si02
#       8
#     4   4   4   4   4   4   4   4
#     4  12  28  47  73 107 156 193 244 310 374 453
#     4  12  24  41  71 107 156 194 237 298 376 455
#     4  11  24  44  72 108 145 192 242 301 375 439
#     4  11  26  52  71 101 146 194 246 308 366 435
#     4  11  25  44  76 105 138 189 250 300 362 440
#     4  12  24  44  74 110 140 191 247 298 373 441
#     4  11  24  46  74 107 140 184 252 310 358 431
#     4  12  29  48  69 107 146 201 243 303 380 439
#
# _framework density 22.551347
#
# number of rings (size 3 to 8) (size 9 to 14) (size 15 to 20)
#    0.000    0.500    3.750    4.500    7.000    1.500 
#    0.000    0.000    0.000    0.000    0.000    0.000 
#    0.000    0.000    0.000    0.000    0.000    0.000 
#
# Total GULP energy -396651.105674 kJ/mol
# GULP energy per Si atom -12395.347052 kJ/mol
# Density = 2.250002 g / cm^3
# Si number density = 22.551347 Si / 1000 Ang^3
#
#
#
# Elastic Constant Matrix: (Units=GPa)
#
#
# Indices 1 2 3 4 5 6 
#
# 1 122.3015 28.3172 46.8967 0.0000 14.5346 0.0000
# 2 28.3172 109.5648 33.2228 0.0000 19.7807 0.0000
# 3 46.8967 33.2228 127.5203 0.0000 16.7999 0.0000
# 4 0.0000 0.0000 0.0000 27.6862 0.0000 -17.3716
# 5 14.5346 19.7807 16.7999 0.0000 25.8444 0.0000
# 6 0.0000 0.0000 0.0000 -17.3716 0.0000 14.3889
#
#
#
# Elastic Compliance Matrix: (Units=1/GPa)
#
#
# Indices 1 2 3 4 5 6 
#
# 1 0.009916 -0.001162 -0.002982 0.000000 -0.002749 0.000000
# 2 -0.001162 0.011141 -0.001573 0.000000 -0.006851 0.000000
# 3 -0.002982 -0.001573 0.009809 0.000000 -0.003496 0.000000
# 4 0.000000 0.000000 0.000000 0.148951 0.000000 0.179827
# 5 -0.002749 -0.006851 -0.003496 0.000000 0.047755 0.000000
# 6 0.000000 0.000000 0.000000 0.179827 0.000000 0.286601
#
#
# Mechanical properties :
#
#
# Convention : Reuss Voigt Hill
#
# Bulk Modulus (GPa) = 51.46047 64.02886 57.74467
# Shear Modulus (GPa) = 9.39704 30.31391 19.85548
#
# Velocity S-wave (km/s) = 2.04353 3.67033 2.97047
# Velocity P-wave (km/s) = 5.33262 6.81292 6.11771
#
# Compressibility (1/GPa) = 0.01943239
#
# Stress axis : x y z
#
# Youngs Moduli (GPa) = 100.85116 89.75703 101.95132
#
# Poissons Ratio (x) = 0.10433 0.30398
# Poissons Ratio (y) = 0.11723 0.16032
# Poissons Ratio (z) = 0.30070 0.14115
#
# Static dielectric constant tensor:
#      x y z
#    x 4.872910 0.000000 -0.049250 
#    y 0.000000 4.260870 0.000000 
#    z -0.049250 0.000000 4.378150 
# 
# 
# High freq. dielectric constant tensor:
#      x y z
#    x 1.884690 0.000000 -0.003680 
#    y 0.000000 1.896120 0.000000 
#    z -0.003680 0.000000 1.899710 
# 
# From -- ./inp_files/13335.got.cif
#   From: 2010.03.12/outbox.cif.g09.slc.cpg/sg14_7_cif.got.tgz:13335.got - 2010.03.31 13:35:05.
