data_PCOD8129693
_publ_section_title
;
Structure prediction by ZEFSAII (Michael W. Deem and Ramdas Pophale) SiO2 
 PCOD8129693
Probable space group: C 2/C
;
_chemical_formula_sum "Si O2"
_cell_formula_units_Z 44
_cell_length_a 17.933560
_cell_length_b 10.801600
_cell_length_c 12.281526
_cell_angle_alpha 90.000000
_cell_angle_beta 118.284782
_cell_angle_gamma 90.000000
_cell_volume 2095.015367
_symmetry_space_group_name_H-M "C 2/C"
_symmetry_group_IT_number 15
_symmetry_cell_setting 'monoclinic'
loop_
_space_group_symop_operation_xyz
x,y,z
-x,y,1/2-z
-x,-y,-z
x,-y,1/2+z
1/2+x,1/2+y,z
1/2-x,1/2+y,1/2-z
1/2-x,1/2-y,-z
1/2+x,1/2-y,1/2+z
loop_
_atom_site_type_symbol
_atom_site_label
_atom_site_fract_x
_atom_site_fract_y
_atom_site_fract_z
Si Si1 0.500000 0.341383 0.250000
Si Si2 0.835820 0.904933 0.035732
Si Si3 0.581915 0.956121 0.442119
Si Si4 0.200654 0.444154 0.337881
Si Si5 0.201454 0.331207 0.111999
Si Si6 0.571863 0.123644 0.163740
O O1 0.433316 0.428471 0.139243
O O2 0.551111 0.254502 0.202030
O O3 0.789351 0.853728 0.111135
O O4 0.834861 0.804248 0.938282
O O5 0.791045 0.028924 0.958753
O O6 0.633480 0.890506 0.379903
O O7 0.570490 0.857874 0.532012
O O8 0.632505 0.073414 0.522189
O O9 0.491883 0.012952 0.343621
O O10 0.214476 0.345480 0.251216
O O11 0.164050 0.576652 0.268922
#
# Coordination Sequence:
#
# PCOD8129693 Si02
#       6
#     4   8   8   8   8   8
#     4  12  18  32  52  74 106 136 174 216 244 310
#     4  10  20  33  51  78  99 137 178 209 252 308
#     4   9  16  26  44  77 106 131 163 200 273 319
#     4  10  18  31  51  76 106 135 168 216 260 305
#     4   9  17  32  52  74 105 134 173 212 254 306
#     4  10  16  25  45  74 106 133 163 205 258 313
#
# _framework density 21.002234000000001
#
# number of rings (size 3 to 8) (size 9 to 14) (size 15 to 20)
#    0.000    2.182    3.636    2.182    0.000    0.000 
#    0.000    0.909    0.000   17.455    0.000    0.000 
#    0.000    1.455    0.000    0.000    0.000    0.000 
#
# Total GULP energy -272690.433765 kJ/mol
# GULP energy per Si atom -12395.019717 kJ/mol
# Density = 2.095443 g / cm^3
# Si number density = 21.002234 Si / 1000 Ang^3
#
#
#
# Elastic Constant Matrix: (Units=GPa)
#
#
# Indices 1 2 3 4 5 6 
#
# 1 86.8701 23.2536 65.9305 0.0000 -8.0391 0.0000
# 2 23.2536 16.6220 20.4109 0.0000 -5.1740 0.0000
# 3 65.9305 20.4109 126.0972 0.0000 -3.3630 0.0000
# 4 0.0000 0.0000 0.0000 23.1095 0.0000 -5.2926
# 5 -8.0391 -5.1740 -3.3630 0.0000 59.5545 0.0000
# 6 0.0000 0.0000 0.0000 -5.2926 0.0000 16.1890
#
#
#
# Elastic Compliance Matrix: (Units=1/GPa)
#
#
# Indices 1 2 3 4 5 6 
#
# 1 0.024722 -0.023072 -0.009170 0.000000 0.000815 0.000000
# 2 -0.023072 0.098706 -0.003774 0.000000 0.005248 0.000000
# 3 -0.009170 -0.003774 0.013314 0.000000 -0.000814 0.000000
# 4 0.000000 0.000000 0.000000 0.046775 0.000000 0.015292
# 5 0.000815 0.005248 -0.000814 0.000000 0.017311 0.000000
# 6 0.000000 0.000000 0.000000 0.015292 0.000000 0.066770
#
#
# Mechanical properties :
#
#
# Convention : Reuss Voigt Hill
#
# Bulk Modulus (GPa) = 15.45341 49.86435 32.65888
# Shear Modulus (GPa) = 13.84278 27.77022 20.80650
#
# Velocity S-wave (km/s) = 2.57010 3.64022 3.15092
# Velocity P-wave (km/s) = 4.02258 6.43912 5.36858
#
# Compressibility (1/GPa) = 0.06471065
#
# Stress axis : x y z
#
# Youngs Moduli (GPa) = 40.44927 10.13114 75.10855
#
# Poissons Ratio (x) = 0.23374 0.68874
# Poissons Ratio (y) = 0.93324 0.28345
# Poissons Ratio (z) = 0.37092 0.03823
#
# Static dielectric constant tensor:
#      x y z
#    x 4.102370 0.000000 -0.127940 
#    y 0.000000 3.012070 0.000000 
#    z -0.127940 0.000000 4.116570 
# 
# 
# High freq. dielectric constant tensor:
#      x y z
#    x 1.826150 0.000000 0.000610 
#    y 0.000000 1.738400 0.000000 
#    z 0.000610 0.000000 1.840990 
# 
# From -- ./inp_files/104327.got.cif
#   From: 2010.06.25/outbox.cif.g09.slc.cpg/sg15_53_cif.got.tgz:104327.got - 2010.06.28 07:06:18.
