data_PCOD8129597
_publ_section_title
;
Structure prediction by ZEFSAII (Michael W. Deem and Ramdas Pophale) SiO2 
 PCOD8129597
Probable space group: C 2/C
;
_chemical_formula_sum "Si O2"
_cell_formula_units_Z 32
_cell_length_a 15.000000
_cell_length_b 18.000000
_cell_length_c 24.000000
_cell_angle_alpha 90.000000
_cell_angle_beta 30.000000
_cell_angle_gamma 90.000000
_cell_volume 3240.000000
_symmetry_space_group_name_H-M "C 2/C"
_symmetry_group_IT_number 15
_symmetry_cell_setting 'monoclinic'
loop_
_space_group_symop_operation_xyz
x,y,z
-x,y,1/2-z
-x,-y,-z
x,-y,1/2+z
1/2+x,1/2+y,z
1/2-x,1/2+y,1/2-z
1/2-x,1/2-y,-z
1/2+x,1/2-y,1/2+z
loop_
_atom_site_type_symbol
_atom_site_label
_atom_site_fract_x
_atom_site_fract_y
_atom_site_fract_z
Si Si1 0.795389 0.372113 0.991253
Si Si2 0.373134 0.761765 0.768985
Si Si3 0.294518 0.534233 0.720466
Si Si4 0.584411 0.068393 0.260857
Si Si5 0.465134 0.198978 0.504823
Si Si6 0.914831 0.000139 0.354925
Si Si7 0.510829 0.314966 0.402983
Si Si8 0.451414 0.059156 0.979056
O O1 0.889822 0.321991 0.985086
O O2 0.636014 0.413893 0.110393
O O3 0.703966 0.330029 0.987910
O O4 0.936989 0.430454 0.889683
O O5 0.500000 0.734587 0.750000
O O6 0.337795 0.849686 0.791625
O O7 0.190651 0.716744 0.868198
O O8 0.454573 0.741281 0.666169
O O9 0.242355 0.485536 0.695137
O O10 0.433214 0.482946 0.681142
O O11 0.385428 0.608557 0.650204
O O12 0.121756 0.561440 0.847496
O O13 0.500000 0.035618 0.250000
O O14 0.563529 0.275388 0.433383
O O15 0.585430 0.136998 0.468836
O O16 0.729040 0.045791 0.458653
O O17 0.000000 0.016061 0.250000
O O18 0.500000 0.000000 0.000000
#
# Coordination Sequence:
#
# PCOD8129597 Si02
#       8
#     8   8   8   8   8   8   8   8
#     4  11  20  34  57  88 127 154 195 246 309 371
#     4  11  21  33  57  91 124 156 199 251 314 368
#     4  11  23  41  61  90 126 163 201 252 304 365
#     4  11  23  41  62  88 121 165 207 251 306 368
#     4  12  21  35  57  88 125 158 199 249 312 365
#     4  11  22  34  59  97 124 156 199 247 308 360
#     4  11  22  34  56  92 126 159 194 251 310 368
#     4  12  21  36  62  92 124 160 200 249 310 366
#
# _framework density 9.8765429999999999
#
# number of rings (size 3 to 8) (size 9 to 14) (size 15 to 20)
#    0.000    0.750    7.500    1.875    1.750    0.000 
#    0.000    5.625    0.000    3.000    0.000    0.000 
#    0.000    0.000    0.000    0.000    0.000    0.000 
#
# Total GULP energy -396481.438440 kJ/mol
# GULP energy per Si atom -12390.044951 kJ/mol
# Density = 0.985406 g / cm^3
# Si number density = 9.876543 Si / 1000 Ang^3
#
#
#
# Elastic Constant Matrix: (Units=GPa)
#
#
# Indices 1 2 3 4 5 6 
#
# 1 103.4892 54.8970 25.6756 -0.0009 -24.5231 -0.0112
# 2 54.8970 78.1120 14.9176 0.0086 -11.8419 -0.0075
# 3 25.6756 14.9176 64.5613 0.0324 -12.9659 -0.0028
# 4 -0.0009 0.0086 0.0324 15.8744 -0.0021 -15.0301
# 5 -24.5231 -11.8419 -12.9659 -0.0021 18.8422 0.0169
# 6 -0.0112 -0.0075 -0.0028 -15.0301 0.0169 4.9873
#
#
#
# Elastic Compliance Matrix: (Units=1/GPa)
#
#
# Indices 1 2 3 4 5 6 
#
# 1 0.020386 -0.011212 -0.001860 0.000010 0.018206 -0.000004
# 2 -0.011212 0.020484 -0.000719 -0.000001 -0.002213 0.000010
# 3 -0.001860 -0.000719 0.018355 0.000034 0.009757 0.000073
# 4 0.000010 -0.000001 0.000034 -0.033988 0.000123 -0.102431
# 5 0.018206 -0.002213 0.009757 0.000123 0.082090 0.000137
# 6 -0.000004 0.000010 0.000073 -0.102431 0.000137 -0.108184
#
#
# Mechanical properties :
#
#
# Convention : Reuss Voigt Hill
#
# Bulk Modulus (GPa) = 31.60336 48.57143 40.08739
# Shear Modulus (GPa) = 134.15404 17.98560 76.06982
#
# Velocity S-wave (km/s) = 8.25003 3.02076 6.21240
# Velocity P-wave (km/s) = 10.33366 6.06707 8.47331
#
# Compressibility (1/GPa) = 0.03164221
#
# Stress axis : x y z
#
# Youngs Moduli (GPa) = 49.05336 48.81967 54.48212
#
# Poissons Ratio (x) = 0.54736 0.10136
# Poissons Ratio (y) = 0.54998 0.03915
# Poissons Ratio (z) = 0.09126 0.03508
#
# Static dielectric constant tensor:
#      x y z
#    x 3.539600 -0.000030 -0.062160 
#    y -0.000030 3.538320 0.000040 
#    z -0.062160 0.000040 3.725070 
# 
# 
# High freq. dielectric constant tensor:
#      x y z
#    x 1.740670 0.000000 0.008580 
#    y 0.000000 1.757310 0.000000 
#    z 0.008580 0.000000 1.769580 
# 
# From -- ./inp_files/174257.got.cif
#   From: 2010.06.25/outbox.ucp.g09.slc.cvg/sg15_88_cif.got.tgz:174257.got - 2010.06.28 14:40:10.
