data_PCOD8129332
_publ_section_title
;
Structure prediction by ZEFSAII (Michael W. Deem and Ramdas Pophale) SiO2 
 PCOD8129332
Probable space group: P 21/C
;
_chemical_formula_sum "Si O2"
_cell_formula_units_Z 20
_cell_length_a 5.179901
_cell_length_b 18.054632
_cell_length_c 8.601375
_cell_angle_alpha 90.000000
_cell_angle_beta 102.968612
_cell_angle_gamma 90.000000
_cell_volume 783.892978
_symmetry_space_group_name_H-M "P 21/C"
_symmetry_group_IT_number 14
_symmetry_cell_setting 'monoclinic'
loop_
_space_group_symop_operation_xyz
x,y,z
-x,1/2+y,1/2-z
-x,-y,-z
x,1/2-y,1/2+z
loop_
_atom_site_type_symbol
_atom_site_label
_atom_site_fract_x
_atom_site_fract_y
_atom_site_fract_z
Si Si1 0.531785 0.754128 0.287615
Si Si2 0.662798 0.044555 0.243272
Si Si3 0.830000 0.618989 0.732821
Si Si4 0.871094 0.613079 0.399654
Si Si5 0.267843 0.664090 0.021904
O O1 0.600624 0.820288 0.176014
O O2 0.769597 0.693925 0.333374
O O3 0.268161 0.713746 0.181404
O O4 0.482547 0.794552 0.444488
O O5 0.380278 0.056764 0.121466
O O6 0.642888 0.081661 0.412524
O O7 0.903969 0.082788 0.182885
O O8 0.712770 0.958348 0.275022
O O9 0.988997 0.612534 0.591709
O O10 0.994900 0.656236 0.895087
#
# Coordination Sequence:
#
# PCOD8129332 Si02
#       5
#     4   4   4   4   4
#     4  11  27  47  72 110 147 201 251 319 369 454
#     4  11  28  51  77 115 152 201 249 313 378 457
#     4  12  27  45  81 109 154 200 251 314 381 445
#     4  11  27  51  77 111 156 198 253 304 382 450
#     4  11  28  46  74 105 154 195 258 308 380 446
#
# _framework density 25.513684000000001
#
# number of rings (size 3 to 8) (size 9 to 14) (size 15 to 20)
#    0.000    0.800    2.000    1.800   19.600    0.800 
#    0.000    0.000    0.000    0.000    0.000    0.000 
#    0.000    0.000    0.000    0.000    0.000    0.000 
#
# Total GULP energy -247857.738868 kJ/mol
# GULP energy per Si atom -12392.886943 kJ/mol
# Density = 2.545561 g / cm^3
# Si number density = 25.513684 Si / 1000 Ang^3
#
#
#
# Elastic Constant Matrix: (Units=GPa)
#
#
# Indices 1 2 3 4 5 6 
#
# 1 88.4488 35.5290 19.6791 0.0000 2.4065 0.0000
# 2 35.5290 177.3923 36.8066 0.0000 10.8207 0.0000
# 3 19.6791 36.8066 112.4700 0.0000 21.6847 0.0000
# 4 0.0000 0.0000 0.0000 30.2364 0.0000 -2.7088
# 5 2.4065 10.8207 21.6847 0.0000 24.4770 0.0000
# 6 0.0000 0.0000 0.0000 -2.7088 0.0000 36.6813
#
#
#
# Elastic Compliance Matrix: (Units=1/GPa)
#
#
# Indices 1 2 3 4 5 6 
#
# 1 0.012550 -0.002236 -0.001709 0.000000 0.001268 0.000000
# 2 -0.002236 0.006472 -0.001468 0.000000 -0.001340 0.000000
# 3 -0.001709 -0.001468 0.011473 0.000000 -0.009347 0.000000
# 4 0.000000 0.000000 0.000000 0.033293 0.000000 0.002459
# 5 0.001268 -0.001340 -0.009347 0.000000 0.049603 0.000000
# 6 0.000000 0.000000 0.000000 0.002459 0.000000 0.027443
#
#
# Mechanical properties :
#
#
# Convention : Reuss Voigt Hill
#
# Bulk Modulus (GPa) = 50.84386 62.48229 56.66307
# Shear Modulus (GPa) = 31.60234 37.36536 34.48385
#
# Velocity S-wave (km/s) = 3.52325 3.83106 3.68038
# Velocity P-wave (km/s) = 6.04338 6.64170 6.34959
#
# Compressibility (1/GPa) = 0.01966806
#
# Stress axis : x y z
#
# Youngs Moduli (GPa) = 79.68156 154.52313 87.16262
#
# Poissons Ratio (x) = 0.34558 0.14892
# Poissons Ratio (y) = 0.17820 0.12796
# Poissons Ratio (z) = 0.13614 0.22686
#
# Static dielectric constant tensor:
#      x y z
#    x 4.151970 0.000000 0.051150 
#    y 0.000000 4.993530 0.000000 
#    z 0.051150 0.000000 4.727880 
# 
# 
# High freq. dielectric constant tensor:
#      x y z
#    x 1.993380 0.000000 0.002630 
#    y 0.000000 2.044360 0.000000 
#    z 0.002630 0.000000 2.028340 
# 
# From -- ./inp_files/5531.got.cif
#   From: 2010.03.12/outbox.cif.g09.slc.cpg/sg14_3_cif.got.tgz:5531.got - 2010.03.31 13:35:05.
