data_PCOD8129904
_publ_section_title
;
Structure prediction by ZEFSAII (Michael W. Deem and Ramdas Pophale) SiO2 
 PCOD8129904
Probable space group: C 2/C
;
_chemical_formula_sum "Si O2"
_cell_formula_units_Z 56
_cell_length_a 13.153294
_cell_length_b 14.331920
_cell_length_c 14.793192
_cell_angle_alpha 90.000000
_cell_angle_beta 96.411304
_cell_angle_gamma 90.000000
_cell_volume 2771.252833
_symmetry_space_group_name_H-M "C 2/C"
_symmetry_group_IT_number 15
_symmetry_cell_setting 'monoclinic'
loop_
_space_group_symop_operation_xyz
x,y,z
-x,y,1/2-z
-x,-y,-z
x,-y,1/2+z
1/2+x,1/2+y,z
1/2-x,1/2+y,1/2-z
1/2-x,1/2-y,-z
1/2+x,1/2-y,1/2+z
loop_
_atom_site_type_symbol
_atom_site_label
_atom_site_fract_x
_atom_site_fract_y
_atom_site_fract_z
Si Si1 0.731000 0.524949 0.449676
Si Si2 0.922502 0.775196 0.813265
Si Si3 0.119844 0.782007 0.258294
Si Si4 0.808395 0.938828 0.360451
Si Si5 0.007372 0.959860 0.857731
Si Si6 0.731626 0.822576 0.076556
Si Si7 0.735052 0.105191 0.231168
O O1 0.746013 0.576209 0.547622
O O2 0.614167 0.508386 0.408813
O O3 0.784965 0.424358 0.466578
O O4 0.786758 0.582076 0.375841
O O5 0.989258 0.849896 0.876580
O O6 0.868524 0.701778 0.873542
O O7 0.839816 0.836474 0.749379
O O8 0.000000 0.723950 0.750000
O O9 0.177226 0.837852 0.183536
O O10 0.165559 0.822359 0.354695
O O11 0.141889 0.671146 0.253659
O O12 0.000000 0.801504 0.250000
O O13 0.918344 0.981668 0.396977
O O14 0.742743 0.009856 0.290616
O O15 0.000000 0.982242 0.750000
O O16 0.750000 0.750000 0.000000
#
# Coordination Sequence:
#
# PCOD8129904 Si02
#       7
#     8   8   8   8   8   8   8
#     4  12  20  34  60  85 124 161 196 253 314 368
#     4   9  17  34  57  84 122 160 199 253 304 371
#     4  11  23  41  64  90 127 164 205 259 311 372
#     4  11  21  35  60  90 119 158 201 253 320 362
#     4  10  16  32  55  86 118 149 196 255 307 360
#     4  11  22  37  62  96 125 161 213 261 311 370
#     4  10  21  39  58  87 126 157 199 256 307 367
#
# _framework density 20.207467999999999
#
# number of rings (size 3 to 8) (size 9 to 14) (size 15 to 20)
#    0.000    1.429    5.714    4.286    0.000    1.714 
#    0.000    0.714    0.000    1.714    0.000    0.000 
#    0.000    0.000    0.000    0.000    0.000    0.000 
#
# Total GULP energy -347104.499396 kJ/mol
# GULP energy per Si atom -12396.589264 kJ/mol
# Density = 2.016148 g / cm^3
# Si number density = 20.207468 Si / 1000 Ang^3
#
#
#
# Elastic Constant Matrix: (Units=GPa)
#
#
# Indices 1 2 3 4 5 6 
#
# 1 57.9776 21.1501 21.3562 0.0000 -11.2894 0.0000
# 2 21.1501 84.2670 22.0143 0.0000 -5.4794 0.0000
# 3 21.3562 22.0143 114.7077 0.0000 -16.7520 0.0000
# 4 0.0000 0.0000 0.0000 29.8326 0.0000 -12.1972
# 5 -11.2894 -5.4794 -16.7520 0.0000 18.3232 0.0000
# 6 0.0000 0.0000 0.0000 -12.1972 0.0000 25.6893
#
#
#
# Elastic Compliance Matrix: (Units=1/GPa)
#
#
# Indices 1 2 3 4 5 6 
#
# 1 0.021445 -0.004273 -0.001650 0.000000 0.010427 0.000000
# 2 -0.004273 0.013396 -0.001817 0.000000 -0.000289 0.000000
# 3 -0.001650 -0.001817 0.010555 0.000000 0.008090 0.000000
# 4 0.000000 0.000000 0.000000 0.041595 0.000000 0.019749
# 5 0.010427 -0.000289 0.008090 0.000000 0.068310 0.000000
# 6 0.000000 0.000000 0.000000 0.019749 0.000000 0.048303
#
#
# Mechanical properties :
#
#
# Convention : Reuss Voigt Hill
#
# Bulk Modulus (GPa) = 33.42846 42.88815 38.15831
# Shear Modulus (GPa) = 21.82864 27.59779 24.71321
#
# Velocity S-wave (km/s) = 3.29025 3.69958 3.50090
# Velocity P-wave (km/s) = 5.56892 6.28643 5.93852
#
# Compressibility (1/GPa) = 0.02991463
#
# Stress axis : x y z
#
# Youngs Moduli (GPa) = 46.63103 74.65105 94.73958
#
# Poissons Ratio (x) = 0.31902 0.15630
# Poissons Ratio (y) = 0.19928 0.17218
# Poissons Ratio (z) = 0.07693 0.13567
#
# Static dielectric constant tensor:
#      x y z
#    x 3.808720 0.000000 0.034260 
#    y 0.000000 3.702840 0.000000 
#    z 0.034260 0.000000 3.887530 
# 
# 
# High freq. dielectric constant tensor:
#      x y z
#    x 1.760650 0.000000 -0.017010 
#    y 0.000000 1.780820 0.000000 
#    z -0.017010 0.000000 1.786560 
# 
# From -- ./inp_files/153507.got.cif
#   From: 2010.06.25/outbox.cif.g09.slc.cpg/sg15_77_cif.got.tgz:153507.got - 2010.06.28 07:06:18.
