data_PCOD8129640
_publ_section_title
;
Structure prediction by ZEFSAII (Michael W. Deem and Ramdas Pophale) SiO2 
 PCOD8129640
Probable space group: C 2/C
;
_chemical_formula_sum "Si O2"
_cell_formula_units_Z 40
_cell_length_a 13.914919
_cell_length_b 24.380771
_cell_length_c 7.842996
_cell_angle_alpha 90.000000
_cell_angle_beta 136.303675
_cell_angle_gamma 90.000000
_cell_volume 1838.167555
_symmetry_space_group_name_H-M "C 2/C"
_symmetry_group_IT_number 15
_symmetry_cell_setting 'monoclinic'
loop_
_space_group_symop_operation_xyz
x,y,z
-x,y,1/2-z
-x,-y,-z
x,-y,1/2+z
1/2+x,1/2+y,z
1/2-x,1/2+y,1/2-z
1/2-x,1/2-y,-z
1/2+x,1/2-y,1/2+z
loop_
_atom_site_type_symbol
_atom_site_label
_atom_site_fract_x
_atom_site_fract_y
_atom_site_fract_z
Si Si1 0.151775 0.079513 0.493256
Si Si2 0.872186 0.659517 0.873843
Si Si3 0.849727 0.771391 0.981214
Si Si4 0.673791 0.131240 0.291764
Si Si5 0.845991 0.963933 0.122791
O O1 0.259538 0.129634 0.608731
O O2 0.155777 0.057285 0.689004
O O3 0.194852 0.028246 0.428910
O O4 0.000000 0.102371 0.250000
O O5 0.863714 0.726108 0.846855
O O6 0.842332 0.648036 0.032647
O O7 0.022674 0.636042 0.009913
O O8 0.781015 0.828365 0.828890
O O9 0.750000 0.750000 0.000000
O O10 0.000000 0.785142 0.250000
O O11 0.736264 0.069866 0.365275
O O12 0.000000 0.956068 0.250000
#
# Coordination Sequence:
#
# PCOD8129640 Si02
#       5
#     8   8   8   8   8
#     4  10  20  34  54  75 104 141 176 217 262 320
#     4   9  17  30  47  75 107 132 171 217 270 307
#     4  10  15  27  48  76 105 131 171 222 259 305
#     4   9  17  29  49  79 104 130 173 222 262 309
#     4  10  19  33  53  79 103 136 176 218 264 316
#
# _framework density 21.7608
#
# number of rings (size 3 to 8) (size 9 to 14) (size 15 to 20)
#    0.000    2.400    4.000    3.000    0.000    0.800 
#    0.000    0.000    0.000    4.800    0.000    0.000 
#    0.000    0.000    0.000    0.000    0.000    0.000 
#
# Total GULP energy -247856.669683 kJ/mol
# GULP energy per Si atom -12392.833484 kJ/mol
# Density = 2.171127 g / cm^3
# Si number density = 21.760800 Si / 1000 Ang^3
#
#
#
# Elastic Constant Matrix: (Units=GPa)
#
#
# Indices 1 2 3 4 5 6 
#
# 1 38.7001 11.8517 28.9403 0.0000 23.3954 0.0000
# 2 11.8517 113.0914 82.8937 0.0000 34.1650 0.0000
# 3 28.9403 82.8937 145.1970 0.0000 49.9247 0.0000
# 4 0.0000 0.0000 0.0000 40.7885 0.0000 6.5867
# 5 23.3954 34.1650 49.9247 0.0000 38.7916 0.0000
# 6 0.0000 0.0000 0.0000 6.5867 0.0000 24.0461
#
#
#
# Elastic Compliance Matrix: (Units=1/GPa)
#
#
# Indices 1 2 3 4 5 6 
#
# 1 0.042500 0.005415 -0.001990 0.000000 -0.027840 0.000000
# 2 0.005415 0.016246 -0.007734 0.000000 -0.007621 0.000000
# 3 -0.001990 -0.007734 0.016044 0.000000 -0.012638 0.000000
# 4 0.000000 0.000000 0.000000 0.025651 0.000000 -0.007026
# 5 -0.027840 -0.007621 -0.012638 0.000000 0.065546 0.000000
# 6 0.000000 0.000000 0.000000 -0.007026 0.000000 0.043512
#
#
# Mechanical properties :
#
#
# Convention : Reuss Voigt Hill
#
# Bulk Modulus (GPa) = 15.11191 60.48442 37.79817
# Shear Modulus (GPa) = 20.81828 32.27876 26.54852
#
# Velocity S-wave (km/s) = 3.09639 3.85560 3.49666
# Velocity P-wave (km/s) = 4.44333 6.90480 5.80601
#
# Compressibility (1/GPa) = 0.06617296
#
# Stress axis : x y z
#
# Youngs Moduli (GPa) = 23.52956 61.55387 62.32678
#
# Poissons Ratio (x) = -0.33333 0.12403
# Poissons Ratio (y) = -0.12742 0.48203
# Poissons Ratio (z) = 0.04682 0.47605
#
# Static dielectric constant tensor:
#      x y z
#    x 3.585240 0.000000 0.373550 
#    y 0.000000 4.986730 0.000000 
#    z 0.373550 0.000000 4.007400 
# 
# 
# High freq. dielectric constant tensor:
#      x y z
#    x 1.825560 0.000000 0.029580 
#    y 0.000000 1.862040 0.000000 
#    z 0.029580 0.000000 1.839460 
# 
# From -- ./inp_files/24420.got.cif
#   From: 2010.06.25/outbox.cif.g09.slc.cpg/sg15_13_cif.got.tgz:24420.got - 2010.06.28 07:06:18.
