data_PCOD8129026
_publ_section_title
;
Structure prediction by ZEFSAII (Michael W. Deem and Ramdas Pophale) SiO2 
 PCOD8129026
Probable space group: P 21/C
;
_chemical_formula_sum "Si O2"
_cell_formula_units_Z 24
_cell_length_a 14.103283
_cell_length_b 8.111878
_cell_length_c 9.416925
_cell_angle_alpha 90.000000
_cell_angle_beta 99.816281
_cell_angle_gamma 90.000000
_cell_volume 1061.562204
_symmetry_space_group_name_H-M "P 21/C"
_symmetry_group_IT_number 14
_symmetry_cell_setting 'monoclinic'
loop_
_space_group_symop_operation_xyz
x,y,z
-x,1/2+y,1/2-z
-x,-y,-z
x,1/2-y,1/2+z
loop_
_atom_site_type_symbol
_atom_site_label
_atom_site_fract_x
_atom_site_fract_y
_atom_site_fract_z
Si Si1 0.449067 0.479187 0.133442
Si Si2 0.818998 0.233679 0.734939
Si Si3 0.258846 0.465363 0.436733
Si Si4 0.374299 0.663291 0.666246
Si Si5 0.262483 0.190036 0.644295
Si Si6 0.105580 0.932044 0.506181
O O1 0.531500 0.435248 0.265523
O O2 0.393921 0.643745 0.162099
O O3 0.367874 0.338434 0.103013
O O4 0.500000 0.500000 0.000000
O O5 0.817738 0.405626 0.645465
O O6 0.714859 0.154664 0.745321
O O7 0.877476 0.267507 0.895284
O O8 0.878921 0.104917 0.656062
O O9 0.348347 0.582514 0.506531
O O10 0.228443 0.369100 0.575301
O O11 0.278189 0.326767 0.319350
O O12 0.184375 0.062118 0.572968
O O13 0.000000 0.000000 0.500000
#
# Coordination Sequence:
#
# PCOD8129026 Si02
#       6
#     4   4   4   4   4   4
#     4  12  26  39  68 103 143 188 241 291 360 432
#     4  11  23  49  73 104 146 190 233 312 364 431
#     4  11  24  44  69  97 143 191 232 297 362 422
#     4  12  24  45  70 103 146 195 241 292 369 429
#     4  11  26  44  66 105 144 185 245 301 357 430
#     4  11  25  47  76 105 141 191 247 295 373 436
#
# _framework density 22.60819
#
# number of rings (size 3 to 8) (size 9 to 14) (size 15 to 20)
#    0.000    0.667    5.000    3.000    7.000    3.333 
#    0.000    1.667    0.000    0.000    0.000    0.000 
#    0.000    0.000    0.000    0.000    0.000    0.000 
#
# Total GULP energy -297431.930552 kJ/mol
# GULP energy per Si atom -12392.997106 kJ/mol
# Density = 2.255673 g / cm^3
# Si number density = 22.608190 Si / 1000 Ang^3
#
#
#
# Elastic Constant Matrix: (Units=GPa)
#
#
# Indices 1 2 3 4 5 6 
#
# 1 134.0453 13.7669 39.1199 0.0000 -9.8365 0.0000
# 2 13.7669 60.0532 23.8468 0.0000 -7.2628 0.0000
# 3 39.1199 23.8468 90.8272 0.0000 -2.6535 0.0000
# 4 0.0000 0.0000 0.0000 54.0466 0.0000 -2.8448
# 5 -9.8365 -7.2628 -2.6535 0.0000 31.1883 0.0000
# 6 0.0000 0.0000 0.0000 -2.8448 0.0000 29.6758
#
#
#
# Elastic Compliance Matrix: (Units=1/GPa)
#
#
# Indices 1 2 3 4 5 6 
#
# 1 0.008717 -0.000276 -0.003613 0.000000 0.002378 0.000000
# 2 -0.000276 0.019090 -0.004778 0.000000 0.003952 0.000000
# 3 -0.003613 -0.004778 0.013789 0.000000 -0.001079 0.000000
# 4 0.000000 0.000000 0.000000 0.018596 0.000000 0.001783
# 5 0.002378 0.003952 -0.001079 0.000000 0.033642 0.000000
# 6 0.000000 0.000000 0.000000 0.001783 0.000000 0.033868
#
#
# Mechanical properties :
#
#
# Convention : Reuss Voigt Hill
#
# Bulk Modulus (GPa) = 41.21472 48.71033 44.96252
# Shear Modulus (GPa) = 32.65328 36.86161 34.75744
#
# Velocity S-wave (km/s) = 3.80453 4.04227 3.92520
# Velocity P-wave (km/s) = 6.12934 6.58626 6.36190
#
# Compressibility (1/GPa) = 0.02426318
#
# Stress axis : x y z
#
# Youngs Moduli (GPa) = 114.71411 52.38238 72.52276
#
# Poissons Ratio (x) = 0.01447 0.26200
# Poissons Ratio (y) = 0.03170 0.34649
# Poissons Ratio (z) = 0.41442 0.25027
#
# Static dielectric constant tensor:
#      x y z
#    x 3.775350 0.000000 0.407370 
#    y 0.000000 4.079150 0.000000 
#    z 0.407370 0.000000 5.883370 
# 
# 
# High freq. dielectric constant tensor:
#      x y z
#    x 1.863960 0.000000 0.003960 
#    y 0.000000 1.895300 0.000000 
#    z 0.003960 0.000000 1.910180 
# 
# From -- ./inp_files/15143.got.cif
#   From: 2010.03.12/outbox.cif.g09.slc.cpg/sg14_8_cif.got.tgz:15143.got - 2010.03.31 13:35:05.
