data_PCOD8129265
_publ_section_title
;
Structure prediction by ZEFSAII (Michael W. Deem and Ramdas Pophale) SiO2 
 PCOD8129265
Probable space group: P 21/C
;
_chemical_formula_sum "Si O2"
_cell_formula_units_Z 12
_cell_length_a 16.391481
_cell_length_b 6.528930
_cell_length_c 12.201052
_cell_angle_alpha 90.000000
_cell_angle_beta 156.023255
_cell_angle_gamma 90.000000
_cell_volume 530.609059
_symmetry_space_group_name_H-M "P 21/C"
_symmetry_group_IT_number 14
_symmetry_cell_setting 'monoclinic'
loop_
_space_group_symop_operation_xyz
x,y,z
-x,1/2+y,1/2-z
-x,-y,-z
x,1/2-y,1/2+z
loop_
_atom_site_type_symbol
_atom_site_label
_atom_site_fract_x
_atom_site_fract_y
_atom_site_fract_z
Si Si1 0.066032 0.202627 0.017627
Si Si2 0.409471 0.361516 0.794219
Si Si3 0.316150 0.973607 0.951577
O O1 0.173095 0.162596 0.032109
O O2 0.234304 0.321076 0.295021
O O3 0.870937 0.330358 0.750002
O O4 0.000000 0.000000 0.000000
O O5 0.432286 0.471222 0.705383
O O6 0.500000 0.500000 0.000000
O O7 0.526929 0.144590 0.934326
#
# Coordination Sequence:
#
# PCOD8129265 Si02
#       3
#     4   4   4
#     4  11  25  47  69 103 141 186 236 292 359 422
#     4  12  25  45  73 100 144 184 239 293 356 423
#     4  11  27  44  71 104 139 189 236 292 361 419
#
# _framework density 22.615521000000001
#
# number of rings (size 3 to 8) (size 9 to 14) (size 15 to 20)
#    0.000    0.667    3.333    3.000    4.667    0.000 
#    0.000    0.000    0.000    0.000    0.000    0.000 
#    0.000    0.000    0.000    0.000    0.000    0.000 
#
# Total GULP energy -148836.260013 kJ/mol
# GULP energy per Si atom -12403.021668 kJ/mol
# Density = 2.256405 g / cm^3
# Si number density = 22.615521 Si / 1000 Ang^3
#
#
#
# Elastic Constant Matrix: (Units=GPa)
#
#
# Indices 1 2 3 4 5 6 
#
# 1 121.8970 57.8948 23.9852 0.0000 23.6530 0.0000
# 2 57.8948 147.1568 43.9772 0.0000 0.5293 0.0000
# 3 23.9852 43.9772 78.7339 0.0000 -5.0329 0.0000
# 4 0.0000 0.0000 0.0000 44.5519 0.0000 7.6422
# 5 23.6530 0.5293 -5.0329 0.0000 53.2329 0.0000
# 6 0.0000 0.0000 0.0000 7.6422 0.0000 53.2879
#
#
#
# Elastic Compliance Matrix: (Units=1/GPa)
#
#
# Indices 1 2 3 4 5 6 
#
# 1 0.011421 -0.004004 -0.001574 0.000000 -0.005184 0.000000
# 2 -0.004004 0.009575 -0.004045 0.000000 0.001302 0.000000
# 3 -0.001574 -0.004045 0.015581 0.000000 0.002213 0.000000
# 4 0.000000 0.000000 0.000000 0.023012 0.000000 -0.003300
# 5 -0.005184 0.001302 0.002213 0.000000 0.021285 0.000000
# 6 0.000000 0.000000 0.000000 -0.003300 0.000000 0.019239
#
#
# Mechanical properties :
#
#
# Convention : Reuss Voigt Hill
#
# Bulk Modulus (GPa) = 57.70134 66.61135 62.15635
# Shear Modulus (GPa) = 39.95614 45.00991 42.48302
#
# Velocity S-wave (km/s) = 4.20784 4.46603 4.33886
# Velocity P-wave (km/s) = 7.01266 7.49077 7.25565
#
# Compressibility (1/GPa) = 0.01733062
#
# Stress axis : x y z
#
# Youngs Moduli (GPa) = 87.55779 104.43832 64.17909
#
# Poissons Ratio (x) = 0.41820 0.10102
# Poissons Ratio (y) = 0.35060 0.25961
# Poissons Ratio (z) = 0.13782 0.42247
#
# Static dielectric constant tensor:
#      x y z
#    x 4.678630 0.000000 0.486430 
#    y 0.000000 4.698790 0.000000 
#    z 0.486430 0.000000 4.050490 
# 
# 
# High freq. dielectric constant tensor:
#      x y z
#    x 1.903350 0.000000 0.015590 
#    y 0.000000 1.906900 0.000000 
#    z 0.015590 0.000000 1.892610 
# 
# From -- ./inp_files/22388.got.cif
#   From: 2010.03.12/outbox.cif.g09.slc.cpg/sg14_12_cif.got.tgz:22388.got - 2010.03.31 13:35:05.
