data_PCOD8129333
_publ_section_title
;
Structure prediction by ZEFSAII (Michael W. Deem and Ramdas Pophale) SiO2 
 PCOD8129333
Probable space group: P 21/C
;
_chemical_formula_sum "Si O2"
_cell_formula_units_Z 20
_cell_length_a 16.268121
_cell_length_b 11.724151
_cell_length_c 7.638764
_cell_angle_alpha 90.000000
_cell_angle_beta 144.157225
_cell_angle_gamma 90.000000
_cell_volume 853.130629
_symmetry_space_group_name_H-M "P 21/C"
_symmetry_group_IT_number 14
_symmetry_cell_setting 'monoclinic'
loop_
_space_group_symop_operation_xyz
x,y,z
-x,1/2+y,1/2-z
-x,-y,-z
x,1/2-y,1/2+z
loop_
_atom_site_type_symbol
_atom_site_label
_atom_site_fract_x
_atom_site_fract_y
_atom_site_fract_z
Si Si1 0.612065 0.708883 0.959990
Si Si2 0.151663 0.585196 0.436881
Si Si3 0.264818 0.985001 0.487927
Si Si4 0.839269 0.903467 0.342274
Si Si5 0.601209 0.258213 0.664383
O O1 0.561863 0.711388 0.074928
O O2 0.444954 0.736999 0.618868
O O3 0.645574 0.586967 0.938921
O O4 0.741144 0.794189 0.158134
O O5 0.155219 0.553833 0.648693
O O6 0.182133 0.473892 0.372803
O O7 0.266318 0.677863 0.580347
O O8 0.000303 0.638996 0.130648
O O9 0.186442 0.020081 0.530327
O O10 0.371693 0.884567 0.716688
#
# Coordination Sequence:
#
# PCOD8129333 Si02
#       5
#     4   4   4   4   4
#     4  12  25  45  74 105 144 190 238 302 358 431
#     4  11  27  48  73 106 145 192 243 304 360 431
#     4  12  26  48  75 106 147 194 244 296 368 427
#     4  11  27  48  73 106 146 190 247 298 363 434
#     4  12  25  45  74 107 143 189 242 299 360 431
#
# _framework density 23.443071
#
# number of rings (size 3 to 8) (size 9 to 14) (size 15 to 20)
#    0.000    0.400    4.000    3.600    2.800    4.800 
#    0.000    0.000    0.000    0.000    0.000    0.000 
#    0.000    0.000    0.000    0.000    0.000    0.000 
#
# Total GULP energy -247799.726765 kJ/mol
# GULP energy per Si atom -12389.986338 kJ/mol
# Density = 2.338971 g / cm^3
# Si number density = 23.443071 Si / 1000 Ang^3
#
#
#
# Elastic Constant Matrix: (Units=GPa)
#
#
# Indices 1 2 3 4 5 6 
#
# 1 74.8552 34.6498 34.0683 0.0000 12.0340 0.0000
# 2 34.6498 93.5987 67.2185 0.0000 2.1701 0.0000
# 3 34.0683 67.2185 144.7681 0.0000 12.1034 0.0000
# 4 0.0000 0.0000 0.0000 28.8311 0.0000 8.2170
# 5 12.0340 2.1701 12.1034 0.0000 38.0331 0.0000
# 6 0.0000 0.0000 0.0000 8.2170 0.0000 40.1741
#
#
#
# Elastic Compliance Matrix: (Units=1/GPa)
#
#
# Indices 1 2 3 4 5 6 
#
# 1 0.017149 -0.005439 -0.001112 0.000000 -0.004762 0.000000
# 2 -0.005439 0.017837 -0.007254 0.000000 0.003012 0.000000
# 3 -0.001112 -0.007254 0.010760 0.000000 -0.002658 0.000000
# 4 0.000000 0.000000 0.000000 0.036832 0.000000 -0.007533
# 5 -0.004762 0.003012 -0.002658 0.000000 0.028474 0.000000
# 6 0.000000 0.000000 0.000000 -0.007533 0.000000 0.026433
#
#
# Mechanical properties :
#
#
# Convention : Reuss Voigt Hill
#
# Bulk Modulus (GPa) = 55.14186 65.01057 60.07622
# Shear Modulus (GPa) = 29.21608 33.22666 31.22137
#
# Velocity S-wave (km/s) = 3.53407 3.76883 3.65334
# Velocity P-wave (km/s) = 6.34236 6.83595 6.59378
#
# Compressibility (1/GPa) = 0.01813504
#
# Stress axis : x y z
#
# Youngs Moduli (GPa) = 58.31399 56.06276 92.94032
#
# Poissons Ratio (x) = 0.30495 0.10333
# Poissons Ratio (y) = 0.31720 0.67418
# Poissons Ratio (z) = 0.06483 0.40667
#
# Static dielectric constant tensor:
#      x y z
#    x 4.632460 0.000000 -0.480150 
#    y 0.000000 3.991120 0.000000 
#    z -0.480150 0.000000 4.473790 
# 
# 
# High freq. dielectric constant tensor:
#      x y z
#    x 1.961320 0.000000 -0.019120 
#    y 0.000000 1.916690 0.000000 
#    z -0.019120 0.000000 1.954780 
# 
# From -- ./inp_files/7842.got.cif
#   From: 2010.03.12/outbox.cif.g09.slc.cpg/sg14_4_cif.got.tgz:7842.got - 2010.03.31 13:35:05.
