data_PCOD8129720
_publ_section_title
;
Structure prediction by ZEFSAII (Michael W. Deem and Ramdas Pophale) SiO2 
 PCOD8129720
Probable space group: C 2/C
;
_chemical_formula_sum "Si O2"
_cell_formula_units_Z 48
_cell_length_a 25.942688
_cell_length_b 5.090262
_cell_length_c 17.701343
_cell_angle_alpha 90.000000
_cell_angle_beta 99.681178
_cell_angle_gamma 90.000000
_cell_volume 2304.262617
_symmetry_space_group_name_H-M "C 2/C"
_symmetry_group_IT_number 15
_symmetry_cell_setting 'monoclinic'
loop_
_space_group_symop_operation_xyz
x,y,z
-x,y,1/2-z
-x,-y,-z
x,-y,1/2+z
1/2+x,1/2+y,z
1/2-x,1/2+y,1/2-z
1/2-x,1/2-y,-z
1/2+x,1/2-y,1/2+z
loop_
_atom_site_type_symbol
_atom_site_label
_atom_site_fract_x
_atom_site_fract_y
_atom_site_fract_z
Si Si1 0.729503 0.919601 0.703607
Si Si2 0.481849 0.012899 0.080661
Si Si3 0.686669 0.477619 0.880745
Si Si4 0.521590 0.491444 0.671414
Si Si5 0.628623 0.274666 0.239146
Si Si6 0.369781 0.028082 0.107605
O O1 0.760053 0.657672 0.736893
O O2 0.666946 0.865320 0.687598
O O3 0.750924 0.985362 0.623464
O O4 0.515345 0.800586 0.136274
O O5 0.419814 0.961623 0.068803
O O6 0.488471 0.306333 0.113594
O O7 0.500000 0.000000 0.000000
O O8 0.660616 0.497433 0.790424
O O9 0.670189 0.208838 0.915227
O O10 0.664597 0.717775 0.926465
O O11 0.500000 0.490273 0.750000
O O12 0.581158 0.590047 0.683401
O O13 0.610676 0.064726 0.299993
#
# Coordination Sequence:
#
# PCOD8129720 Si02
#       6
#     8   8   8   8   8   8
#     4  10  16  27  46  78 124 140 170 231 307 341
#     4  12  26  41  56  83 119 158 196 240 298 357
#     4   9  17  29  49  81 112 144 173 236 292 340
#     4  12  23  38  63  85 114 152 199 249 290 341
#     4   9  20  29  53  83 113 140 188 235 292 332
#     4  10  18  33  52  75 109 140 196 222 284 338
#
# _framework density 20.830959
#
# number of rings (size 3 to 8) (size 9 to 14) (size 15 to 20)
#    1.000    0.667    3.333    3.000    2.333    0.000 
#    0.000    0.000    0.000    0.000    0.000    7.000 
#    0.000    0.000    0.000    0.000    0.000    0.000 
#
# Total GULP energy -297353.049424 kJ/mol
# GULP energy per Si atom -12389.710393 kJ/mol
# Density = 2.078355 g / cm^3
# Si number density = 20.830959 Si / 1000 Ang^3
#
#
#
# Elastic Constant Matrix: (Units=GPa)
#
#
# Indices 1 2 3 4 5 6 
#
# 1 103.4305 24.8253 46.0833 0.0000 -44.5821 0.0000
# 2 24.8253 113.1870 20.1583 0.0000 -12.0737 0.0000
# 3 46.0833 20.1583 65.2021 0.0000 -28.3984 0.0000
# 4 0.0000 0.0000 0.0000 -30.3216 0.0000 -18.8992
# 5 -44.5821 -12.0737 -28.3984 0.0000 30.5456 0.0000
# 6 0.0000 0.0000 0.0000 -18.8992 0.0000 31.8102
#
#
#
# Elastic Compliance Matrix: (Units=1/GPa)
#
#
# Indices 1 2 3 4 5 6 
#
# 1 0.026699 -0.001540 -0.002835 0.000000 0.035724 0.000000
# 2 -0.001540 0.009491 -0.002001 0.000000 -0.000357 0.000000
# 3 -0.002835 -0.002001 0.026573 0.000000 0.019776 0.000000
# 4 0.000000 0.000000 0.000000 -0.024067 0.000000 -0.014299
# 5 0.035724 -0.000357 0.019776 0.000000 0.103122 0.000000
# 6 0.000000 0.000000 0.000000 -0.014299 0.000000 0.022941
#
#
# Mechanical properties :
#
#
# Convention : Reuss Voigt Hill
#
# Bulk Modulus (GPa) = 19.99602 51.55038 35.77320
# Shear Modulus (GPa) = 25.74901 19.12368 22.43634
#
# Velocity S-wave (km/s) = 3.51963 3.03321 3.28543
# Velocity P-wave (km/s) = 5.11244 6.08834 5.62161
#
# Compressibility (1/GPa) = 0.05000995
#
# Stress axis : x y z
#
# Youngs Moduli (GPa) = 37.45407 105.36197 37.63269
#
# Poissons Ratio (x) = 0.16230 0.10669
# Poissons Ratio (y) = 0.05769 0.07531
# Poissons Ratio (z) = 0.10618 0.21085
#
# Static dielectric constant tensor:
#      x y z
#    x 3.876110 0.000000 -0.438450 
#    y 0.000000 3.650390 0.000000 
#    z -0.438450 0.000000 3.074940 
# 
# 
# High freq. dielectric constant tensor:
#      x y z
#    x 1.823760 0.000000 -0.039470 
#    y 0.000000 1.831900 0.000000 
#    z -0.039470 0.000000 1.744070 
# 
# From -- ./inp_files/223318.got.cif
#   From: 2010.06.25/outbox.cif.g09.slc.cpg/sg15_112_cif.got.tgz:223318.got - 2010.06.28 07:06:18.
