data_PCOD8129501
_publ_section_title
;
Structure prediction by ZEFSAII (Michael W. Deem and Ramdas Pophale) SiO2 
 PCOD8129501
Probable space group: P 21/C
;
_chemical_formula_sum "Si O2"
_cell_formula_units_Z 16
_cell_length_a 11.288356
_cell_length_b 7.822375
_cell_length_c 8.233403
_cell_angle_alpha 90.000000
_cell_angle_beta 51.755108
_cell_angle_gamma 90.000000
_cell_volume 570.984321
_symmetry_space_group_name_H-M "P 21/C"
_symmetry_group_IT_number 14
_symmetry_cell_setting 'monoclinic'
loop_
_space_group_symop_operation_xyz
x,y,z
-x,1/2+y,1/2-z
-x,-y,-z
x,1/2-y,1/2+z
loop_
_atom_site_type_symbol
_atom_site_label
_atom_site_fract_x
_atom_site_fract_y
_atom_site_fract_z
Si Si1 0.228526 0.143885 0.465801
Si Si2 0.537731 0.358073 0.838817
Si Si3 0.713886 0.429503 0.377828
Si Si4 0.016381 0.461205 0.672219
O O1 0.375338 0.219789 0.430268
O O2 0.098244 0.280123 0.609263
O O3 0.152527 0.969471 0.605931
O O4 0.274321 0.102377 0.241444
O O5 0.598741 0.451740 0.625133
O O6 0.657002 0.222519 0.807944
O O7 0.500000 0.500000 0.000000
O O8 0.879265 0.400581 0.316620
O O9 0.000000 0.500000 0.500000
#
# Coordination Sequence:
#
# PCOD8129501 Si02
#       4
#     4   4   4   4
#     4  12  30  55  85 128 173 235 288 361 442 522
#     4  12  30  54  91 126 176 228 288 368 440 528
#     4  12  30  55  87 129 175 228 297 360 441 524
#     4  12  30  53  87 125 180 229 291 362 439 524
#
# _framework density 28.021785000000001
#
# number of rings (size 3 to 8) (size 9 to 14) (size 15 to 20)
#    0.000    0.000    0.000    6.000   24.500    0.000 
#    0.000    0.000    0.000    0.000    0.000    0.000 
#    0.000    0.000    0.000    0.000    0.000    0.000 
#
# Total GULP energy -198239.242595 kJ/mol
# GULP energy per Si atom -12389.952662 kJ/mol
# Density = 2.795801 g / cm^3
# Si number density = 28.021785 Si / 1000 Ang^3
#
#
#
# Elastic Constant Matrix: (Units=GPa)
#
#
# Indices 1 2 3 4 5 6 
#
# 1 220.3924 53.7690 56.9298 0.0000 5.6583 0.0000
# 2 53.7690 94.5393 56.0121 0.0000 4.1999 0.0000
# 3 56.9298 56.0121 203.8616 0.0000 18.1909 0.0000
# 4 0.0000 0.0000 0.0000 47.7284 0.0000 -15.9677
# 5 5.6583 4.1999 18.1909 0.0000 52.3680 0.0000
# 6 0.0000 0.0000 0.0000 -15.9677 0.0000 31.0287
#
#
#
# Elastic Compliance Matrix: (Units=1/GPa)
#
#
# Indices 1 2 3 4 5 6 
#
# 1 0.005373 -0.002589 -0.000780 0.000000 -0.000102 0.000000
# 2 -0.002589 0.013884 -0.003114 0.000000 0.000248 0.000000
# 3 -0.000780 -0.003114 0.006139 0.000000 -0.001799 0.000000
# 4 0.000000 0.000000 0.000000 0.025309 0.000000 0.013024
# 5 -0.000102 0.000248 -0.001799 0.000000 0.019712 0.000000
# 6 0.000000 0.000000 0.000000 0.013024 0.000000 0.038931
#
#
# Mechanical properties :
#
#
# Convention : Reuss Voigt Hill
#
# Bulk Modulus (GPa) = 80.44887 94.69054 87.56970
# Shear Modulus (GPa) = 39.53900 49.69717 44.61808
#
# Velocity S-wave (km/s) = 3.76042 4.21589 3.99465
# Velocity P-wave (km/s) = 6.90116 7.58705 7.25222
#
# Compressibility (1/GPa) = 0.01243026
#
# Stress axis : x y z
#
# Youngs Moduli (GPa) = 186.10979 72.02482 162.89009
#
# Poissons Ratio (x) = 0.18650 0.12705
# Poissons Ratio (y) = 0.48190 0.50720
# Poissons Ratio (z) = 0.14516 0.22427
#
# Static dielectric constant tensor:
#      x y z
#    x 6.476560 0.000000 -0.177270 
#    y 0.000000 6.669280 0.000000 
#    z -0.177270 0.000000 5.506900 
# 
# 
# High freq. dielectric constant tensor:
#      x y z
#    x 2.157720 0.000000 -0.001570 
#    y 0.000000 2.126220 0.000000 
#    z -0.001570 0.000000 2.155400 
# 
# From -- ./inp_files/11698.got.cif
#   From: 2010.03.12/outbox.cif.g09.slc.cpg/sg14_6_cif.got.tgz:11698.got - 2010.03.31 13:35:05.
