data_PCOD8129374
_publ_section_title
;
Structure prediction by ZEFSAII (Michael W. Deem and Ramdas Pophale) SiO2 
 PCOD8129374
Probable space group: P 21/C
;
_chemical_formula_sum "Si O2"
_cell_formula_units_Z 24
_cell_length_a 14.855317
_cell_length_b 8.176760
_cell_length_c 17.344233
_cell_angle_alpha 90.000000
_cell_angle_beta 148.925737
_cell_angle_gamma 90.000000
_cell_volume 1087.409357
_symmetry_space_group_name_H-M "P 21/C"
_symmetry_group_IT_number 14
_symmetry_cell_setting 'monoclinic'
loop_
_space_group_symop_operation_xyz
x,y,z
-x,1/2+y,1/2-z
-x,-y,-z
x,1/2-y,1/2+z
loop_
_atom_site_type_symbol
_atom_site_label
_atom_site_fract_x
_atom_site_fract_y
_atom_site_fract_z
Si Si1 0.179582 0.403720 0.623857
Si Si2 0.204174 0.300914 0.466345
Si Si3 0.068132 0.096280 0.623857
Si Si4 0.876492 0.401293 0.697919
Si Si5 0.728516 0.300914 0.966345
Si Si6 0.519346 0.098707 0.697919
O O1 0.206765 0.330696 0.559172
O O2 0.187376 0.250000 0.687376
O O3 0.341330 0.526892 0.762226
O O4 0.000000 0.500000 0.500000
O O5 0.130693 0.458775 0.371035
O O6 0.399134 0.249136 0.579692
O O7 0.077774 0.149312 0.354967
O O8 0.911579 0.169303 0.559173
O O9 0.183123 0.973107 0.762226
O O10 0.000000 0.000000 0.500000
O O11 0.760248 0.250864 0.579691
O O12 0.632161 0.149312 0.854968
O O13 0.611376 0.458774 0.871034
#
# Coordination Sequence:
#
# PCOD8129374 Si02
#       6
#     4   4   4   4   4   4
#     4  12  24  42  70 102 137 177 223 287 353 399
#     4  12  23  43  73  99 135 183 238 278 327 426
#     4  12  24  42  70 102 137 177 223 287 353 399
#     4  12  23  43  72 101 135 182 237 273 337 415
#     4  12  23  43  73  99 135 183 238 278 327 426
#     4  12  23  43  72 101 135 182 237 273 337 415
#
# _framework density 22.070803999999999
#
# number of rings (size 3 to 8) (size 9 to 14) (size 15 to 20)
#    0.000    0.000   10.000    0.000    0.000    0.000 
#    0.000    1.667    0.000    0.000    0.000    0.000 
#    0.000    0.000    0.000    0.000    0.000    0.000 
#
# Total GULP energy -297480.443836 kJ/mol
# GULP energy per Si atom -12395.018493 kJ/mol
# Density = 2.202057 g / cm^3
# Si number density = 22.070804 Si / 1000 Ang^3
#
#
#
# Elastic Constant Matrix: (Units=GPa)
#
#
# Indices 1 2 3 4 5 6 
#
# 1 58.9786 26.6054 23.8435 0.0000 -1.7321 0.0000
# 2 26.6054 85.0065 34.5610 0.0000 -0.2598 0.0000
# 3 23.8435 34.5610 84.9233 0.0000 0.8851 0.0000
# 4 0.0000 0.0000 0.0000 36.0772 0.0000 0.4429
# 5 -1.7321 -0.2598 0.8851 0.0000 44.0045 0.0000
# 6 0.0000 0.0000 0.0000 0.4429 0.0000 49.6425
#
#
#
# Elastic Compliance Matrix: (Units=1/GPa)
#
#
# Indices 1 2 3 4 5 6 
#
# 1 0.020755 -0.004937 -0.003827 0.000000 0.000865 0.000000
# 2 -0.004937 0.015272 -0.004829 0.000000 -0.000007 0.000000
# 3 -0.003827 -0.004829 0.014820 0.000000 -0.000477 0.000000
# 4 0.000000 0.000000 0.000000 0.027721 0.000000 -0.000247
# 5 0.000865 -0.000007 -0.000477 0.000000 0.022769 0.000000
# 6 0.000000 0.000000 0.000000 -0.000247 0.000000 0.020146
#
#
# Mechanical properties :
#
#
# Convention : Reuss Voigt Hill
#
# Bulk Modulus (GPa) = 42.26402 44.32533 43.29467
# Shear Modulus (GPa) = 31.93714 35.53807 33.73760
#
# Velocity S-wave (km/s) = 3.80811 4.01706 3.91398
# Velocity P-wave (km/s) = 6.20697 6.45311 6.33123
#
# Compressibility (1/GPa) = 0.02366079
#
# Stress axis : x y z
#
# Youngs Moduli (GPa) = 48.18088 65.47741 67.47619
#
# Poissons Ratio (x) = 0.32329 0.25823
# Poissons Ratio (y) = 0.23789 0.32585
# Poissons Ratio (z) = 0.18439 0.31619
#
# Static dielectric constant tensor:
#      x y z
#    x 3.922350 0.000000 -0.016960 
#    y 0.000000 4.466660 0.000000 
#    z -0.016960 0.000000 4.441660 
# 
# 
# High freq. dielectric constant tensor:
#      x y z
#    x 1.832440 0.000000 -0.001260 
#    y 0.000000 1.898970 0.000000 
#    z -0.001260 0.000000 1.871150 
# 
# From -- ./inp_files/8548.got.cif
#   From: 2010.03.12/outbox.cif.g09.slc.cpg/sg14_5_cif.got.tgz:8548.got - 2010.03.31 13:35:05.
