data_PCOD8129276
_publ_section_title
;
Structure prediction by ZEFSAII (Michael W. Deem and Ramdas Pophale) SiO2 
 PCOD8129276
Probable space group: P 21/C
;
_chemical_formula_sum "Si O2"
_cell_formula_units_Z 20
_cell_length_a 10.871731
_cell_length_b 7.524177
_cell_length_c 23.204774
_cell_angle_alpha 90.000000
_cell_angle_beta 156.469757
_cell_angle_gamma 90.000000
_cell_volume 757.812139
_symmetry_space_group_name_H-M "P 21/C"
_symmetry_group_IT_number 14
_symmetry_cell_setting 'monoclinic'
loop_
_space_group_symop_operation_xyz
x,y,z
-x,1/2+y,1/2-z
-x,-y,-z
x,1/2-y,1/2+z
loop_
_atom_site_type_symbol
_atom_site_label
_atom_site_fract_x
_atom_site_fract_y
_atom_site_fract_z
Si Si1 0.257831 0.404368 0.469514
Si Si2 0.241753 0.887066 0.340965
Si Si3 0.336662 0.263531 0.347201
Si Si4 0.212267 0.236929 0.073357
Si Si5 0.577769 0.374113 0.836112
O O1 0.496833 0.259821 0.549281
O O2 0.403726 0.597912 0.521807
O O3 0.168063 0.380083 0.497484
O O4 0.945363 0.388125 0.299659
O O5 0.001927 0.847644 0.289527
O O6 0.386713 0.086884 0.409050
O O7 0.358340 0.217538 0.288900
O O8 0.360889 0.423990 0.118735
O O9 0.428051 0.125430 0.208709
O O10 0.893174 0.264593 0.969211
#
# Coordination Sequence:
#
# PCOD8129276 Si02
#       5
#     4   4   4   4   4
#     4  12  27  49  79 109 156 194 249 316 372 450
#     4  12  28  49  76 113 150 200 252 308 380 438
#     4  12  27  48  75 111 148 201 250 308 373 446
#     4  11  25  48  71 114 144 194 242 310 368 448
#     4  11  26  44  76 106 151 190 248 302 376 437
#
# _framework density 26.391766000000001
#
# number of rings (size 3 to 8) (size 9 to 14) (size 15 to 20)
#    0.000    0.400    4.000    3.000    2.800    5.600 
#    0.000    0.000    0.000    0.000    0.000    0.000 
#    0.000    0.000    0.000    0.000    0.000    0.000 
#
# Total GULP energy -248221.355916 kJ/mol
# GULP energy per Si atom -12411.067796 kJ/mol
# Density = 2.633170 g / cm^3
# Si number density = 26.391766 Si / 1000 Ang^3
#
#
#
# Elastic Constant Matrix: (Units=GPa)
#
#
# Indices 1 2 3 4 5 6 
#
# 1 125.1876 54.0607 10.0802 0.0000 9.8568 0.0000
# 2 54.0607 166.2937 38.6891 0.0000 11.7285 0.0000
# 3 10.0802 38.6891 52.3434 0.0000 8.0747 0.0000
# 4 0.0000 0.0000 0.0000 35.2653 0.0000 2.5614
# 5 9.8568 11.7285 8.0747 0.0000 35.6832 0.0000
# 6 0.0000 0.0000 0.0000 2.5614 0.0000 38.7858
#
#
#
# Elastic Compliance Matrix: (Units=1/GPa)
#
#
# Indices 1 2 3 4 5 6 
#
# 1 0.009408 -0.003112 0.000758 0.000000 -0.001748 0.000000
# 2 -0.003112 0.008343 -0.005468 0.000000 -0.000645 0.000000
# 3 0.000758 -0.005468 0.023578 0.000000 -0.003748 0.000000
# 4 0.000000 0.000000 0.000000 0.028493 0.000000 -0.001882
# 5 -0.001748 -0.000645 -0.003748 0.000000 0.029567 0.000000
# 6 0.000000 0.000000 0.000000 -0.001882 0.000000 0.025907
#
#
# Mechanical properties :
#
#
# Convention : Reuss Voigt Hill
#
# Bulk Modulus (GPa) = 38.93169 61.05387 49.99278
# Shear Modulus (GPa) = 33.44452 38.01318 35.72885
#
# Velocity S-wave (km/s) = 3.56368 3.79930 3.68338
# Velocity P-wave (km/s) = 5.63175 6.51384 6.08879
#
# Compressibility (1/GPa) = 0.02568602
#
# Stress axis : x y z
#
# Youngs Moduli (GPa) = 106.28914 119.86704 42.41218
#
# Poissons Ratio (x) = 0.37298 -0.03213
# Poissons Ratio (y) = 0.33073 0.23189
# Poissons Ratio (z) = -0.08053 0.65538
#
# Static dielectric constant tensor:
#      x y z
#    x 4.855840 0.000000 0.147170 
#    y 0.000000 5.135470 0.000000 
#    z 0.147170 0.000000 4.757780 
# 
# 
# High freq. dielectric constant tensor:
#      x y z
#    x 2.076740 0.000000 0.002190 
#    y 0.000000 2.075510 0.000000 
#    z 0.002190 0.000000 2.066430 
# 
# From -- ./inp_files/77178.got.cif
#   From: 2010.03.12/outbox.cif.g09.slc.cpg/sg14_39_cif.got.tgz:77178.got - 2010.03.31 13:35:05.
