data_PCOD8129614
_publ_section_title
;
Structure prediction by ZEFSAII (Michael W. Deem and Ramdas Pophale) SiO2 
 PCOD8129614
Probable space group: C 2/C
;
_chemical_formula_sum "Si O2"
_cell_formula_units_Z 52
_cell_length_a 15.288194
_cell_length_b 22.563404
_cell_length_c 18.495700
_cell_angle_alpha 90.000000
_cell_angle_beta 148.575970
_cell_angle_gamma 90.000000
_cell_volume 3326.408554
_symmetry_space_group_name_H-M "C 2/C"
_symmetry_group_IT_number 15
_symmetry_cell_setting 'monoclinic'
loop_
_space_group_symop_operation_xyz
x,y,z
-x,y,1/2-z
-x,-y,-z
x,-y,1/2+z
1/2+x,1/2+y,z
1/2-x,1/2+y,1/2-z
1/2-x,1/2-y,-z
1/2+x,1/2-y,1/2+z
loop_
_atom_site_type_symbol
_atom_site_label
_atom_site_fract_x
_atom_site_fract_y
_atom_site_fract_z
Si Si1 0.110924 0.491575 0.918168
Si Si2 0.695093 0.690553 0.885674
Si Si3 0.500000 0.885558 0.750000
Si Si4 0.706870 0.685082 0.060756
Si Si5 0.837691 0.065228 0.685521
Si Si6 0.988881 0.920322 0.442054
Si Si7 0.749471 0.521307 0.626649
O O1 0.216028 0.532046 0.934676
O O2 0.107717 0.426801 0.879598
O O3 0.924443 0.518189 0.795143
O O4 0.204761 0.483807 0.061629
O O5 0.500000 0.708235 0.750000
O O6 0.800698 0.745273 0.923999
O O7 0.735855 0.632137 0.867726
O O8 0.748774 0.679417 0.005373
O O9 0.626934 0.846468 0.789865
O O10 0.539504 0.648827 0.965772
O O11 0.890308 0.051024 0.804321
O O12 0.000000 0.063683 0.750000
O O13 0.862831 0.924736 0.421532
O O14 0.154259 0.959099 0.573161
#
# Coordination Sequence:
#
# PCOD8129614 Si02
#       7
#     8   8   4   8   8   8   8
#     4  10  17  31  45  59  84 112 152 178 216 258
#     4  10  18  24  37  61  83 115 150 165 206 252
#     4  10  14  24  38  56  74 114 142 172 198 240
#     4  11  17  25  39  58  84 116 149 177 196 255
#     4  11  17  29  42  64  88 121 142 183 209 253
#     4  11  18  29  43  62  89 112 153 183 217 241
#     4   9  19  29  44  62  80 118 149 185 214 262
#
# _framework density 15.632474999999999
#
# number of rings (size 3 to 8) (size 9 to 14) (size 15 to 20)
#    0.000    1.846   10.000    0.000    0.000    0.615 
#    0.000    0.000    0.000    0.000    0.000    0.000 
#    0.000    4.923    0.000    0.308    0.000    3.538 
#
# Total GULP energy -322119.932593 kJ/mol
# GULP energy per Si atom -12389.228177 kJ/mol
# Density = 1.559690 g / cm^3
# Si number density = 15.632475 Si / 1000 Ang^3
#
#
#
# Elastic Constant Matrix: (Units=GPa)
#
#
# Indices 1 2 3 4 5 6 
#
# 1 66.3012 29.9383 24.7986 -0.0011 11.2933 -0.0006
# 2 29.9383 50.0731 9.9105 0.0017 7.1414 0.0003
# 3 24.7986 9.9105 64.9075 -0.0048 3.4058 -0.0013
# 4 -0.0011 0.0017 -0.0048 10.6608 -0.0017 3.6887
# 5 11.2933 7.1414 3.4058 -0.0017 18.9537 0.0010
# 6 -0.0006 0.0003 -0.0013 3.6887 0.0010 19.5926
#
#
#
# Elastic Compliance Matrix: (Units=1/GPa)
#
#
# Indices 1 2 3 4 5 6 
#
# 1 0.024733 -0.012107 -0.007134 0.000000 -0.008893 0.000001
# 2 -0.012107 0.027560 0.000590 -0.000006 -0.003276 0.000001
# 3 -0.007134 0.000590 0.018001 0.000008 0.000794 0.000000
# 4 0.000000 -0.000006 0.000008 0.100338 0.000011 -0.018891
# 5 -0.008893 -0.003276 0.000794 0.000011 0.059151 -0.000005
# 6 0.000001 0.000001 0.000000 -0.018891 -0.000005 0.054596
#
#
# Mechanical properties :
#
#
# Convention : Reuss Voigt Hill
#
# Bulk Modulus (GPa) = 30.31241 34.50852 32.41047
# Shear Modulus (GPa) = 15.02950 17.61703 16.32326
#
# Velocity S-wave (km/s) = 3.10405 3.36065 3.23490
# Velocity P-wave (km/s) = 5.68152 6.09766 5.89326
#
# Compressibility (1/GPa) = 0.03298978
#
# Stress axis : x y z
#
# Youngs Moduli (GPa) = 40.43184 36.28413 55.55375
#
# Poissons Ratio (x) = 0.43930 0.39634
# Poissons Ratio (y) = 0.48952 -0.03275
# Poissons Ratio (z) = 0.28845 -0.02139
#
# Static dielectric constant tensor:
#      x y z
#    x 2.725580 0.000000 0.064190 
#    y 0.000000 2.856910 0.000000 
#    z 0.064190 0.000000 3.262640 
# 
# 
# High freq. dielectric constant tensor:
#      x y z
#    x 1.547870 0.000000 0.013490 
#    y 0.000000 1.567940 0.000000 
#    z 0.013490 0.000000 1.614950 
# 
# From -- ./inp_files/206640.got.cif
#   From: 2010.06.25/outbox.cif.g09.slc.cpg/sg15_104_cif.got.tgz:206640.got - 2010.06.28 07:06:18.
