data_PCOD8129068
_publ_section_title
;
Structure prediction by ZEFSAII (Michael W. Deem and Ramdas Pophale) SiO2 
 PCOD8129068
Probable space group: P 21/C
;
_chemical_formula_sum "Si O2"
_cell_formula_units_Z 16
_cell_length_a 9.533806
_cell_length_b 8.402142
_cell_length_c 9.093899
_cell_angle_alpha 90.000000
_cell_angle_beta 118.405223
_cell_angle_gamma 90.000000
_cell_volume 640.758311
_symmetry_space_group_name_H-M "P 21/C"
_symmetry_group_IT_number 14
_symmetry_cell_setting 'monoclinic'
loop_
_space_group_symop_operation_xyz
x,y,z
-x,1/2+y,1/2-z
-x,-y,-z
x,1/2-y,1/2+z
loop_
_atom_site_type_symbol
_atom_site_label
_atom_site_fract_x
_atom_site_fract_y
_atom_site_fract_z
Si Si1 0.891930 0.788964 0.866552
Si Si2 0.082561 0.625498 0.737073
Si Si3 0.416898 0.371940 0.643440
Si Si4 0.614526 0.282664 0.470829
O O1 0.727354 0.759793 0.871309
O O2 0.935844 0.642460 0.780633
O O3 0.873206 0.941124 0.749578
O O4 0.036378 0.811381 0.052932
O O5 0.228016 0.733028 0.865105
O O6 0.468225 0.311009 0.509437
O O7 0.355982 0.554339 0.606420
O O8 0.562623 0.355522 0.831491
#
# Coordination Sequence:
#
# PCOD8129068 Si02
#       4
#     4   4   4   4
#     4  11  24  43  67  95 131 172 217 267 325 386
#     4  11  24  44  67  96 132 169 216 271 324 387
#     4  11  24  43  68  99 133 173 217 267 325 386
#     4  11  24  43  68  98 134 172 216 268 324 387
#
# _framework density 24.970410999999999
#
# number of rings (size 3 to 8) (size 9 to 14) (size 15 to 20)
#    0.000    1.000    0.000    7.500    0.000    9.000 
#    0.000    0.000    0.000    0.000    0.000    0.000 
#    0.000    0.000    0.000    0.000    0.000    0.000 
#
# Total GULP energy -198510.994716 kJ/mol
# GULP energy per Si atom -12406.937170 kJ/mol
# Density = 2.491358 g / cm^3
# Si number density = 24.970411 Si / 1000 Ang^3
#
#
#
# Elastic Constant Matrix: (Units=GPa)
#
#
# Indices 1 2 3 4 5 6 
#
# 1 107.0314 25.5025 7.1365 0.0000 -8.3841 0.0000
# 2 25.5025 58.3656 53.5208 0.0000 1.0351 0.0000
# 3 7.1365 53.5208 121.5105 0.0000 5.6787 0.0000
# 4 0.0000 0.0000 0.0000 37.1690 0.0000 -0.2022
# 5 -8.3841 1.0351 5.6787 0.0000 34.8874 0.0000
# 6 0.0000 0.0000 0.0000 -0.2022 0.0000 25.2836
#
#
#
# Elastic Compliance Matrix: (Units=1/GPa)
#
#
# Indices 1 2 3 4 5 6 
#
# 1 0.011051 -0.006997 0.002317 0.000000 0.002486 0.000000
# 2 -0.006997 0.033224 -0.014206 0.000000 -0.000355 0.000000
# 3 0.002317 -0.014206 0.014415 0.000000 -0.001368 0.000000
# 4 0.000000 0.000000 0.000000 0.026905 0.000000 0.000215
# 5 0.002486 -0.000355 -0.001368 0.000000 0.029494 0.000000
# 6 0.000000 0.000000 0.000000 0.000215 0.000000 0.039553
#
#
# Mechanical properties :
#
#
# Convention : Reuss Voigt Hill
#
# Bulk Modulus (GPa) = 47.80966 51.02522 49.41744
# Shear Modulus (GPa) = 25.07672 32.85116 28.96394
#
# Velocity S-wave (km/s) = 3.17244 3.63106 3.40947
# Velocity P-wave (km/s) = 5.71028 6.16912 5.94413
#
# Compressibility (1/GPa) = 0.02091628
#
# Stress axis : x y z
#
# Youngs Moduli (GPa) = 90.49360 30.09853 69.37195
#
# Poissons Ratio (x) = 0.21060 -0.16071
# Poissons Ratio (y) = 0.63318 0.98553
# Poissons Ratio (z) = -0.20965 0.42759
#
# Static dielectric constant tensor:
#      x y z
#    x 4.631300 0.000000 -0.206310 
#    y 0.000000 4.225310 0.000000 
#    z -0.206310 0.000000 4.531960 
# 
# 
# High freq. dielectric constant tensor:
#      x y z
#    x 2.011560 0.000000 -0.009030 
#    y 0.000000 1.965030 0.000000 
#    z -0.009030 0.000000 2.008740 
# 
# From -- ./inp_files/7347.got.cif
#   From: 2010.03.12/outbox.cif.g09.slc.cpg/sg14_4_cif.got.tgz:7347.got - 2010.03.31 13:35:05.
