data_PCOD8129548
_publ_section_title
;
Structure prediction by ZEFSAII (Michael W. Deem and Ramdas Pophale) SiO2 
 PCOD8129548
Probable space group: C 2/C
;
_chemical_formula_sum "Si O2"
_cell_formula_units_Z 32
_cell_length_a 12.000000
_cell_length_b 21.000000
_cell_length_c 27.000000
_cell_angle_alpha 90.000000
_cell_angle_beta 30.000000
_cell_angle_gamma 90.000000
_cell_volume 3402.000000
_symmetry_space_group_name_H-M "C 2/C"
_symmetry_group_IT_number 15
_symmetry_cell_setting 'monoclinic'
loop_
_space_group_symop_operation_xyz
x,y,z
-x,y,1/2-z
-x,-y,-z
x,-y,1/2+z
1/2+x,1/2+y,z
1/2-x,1/2+y,1/2-z
1/2-x,1/2-y,-z
1/2+x,1/2-y,1/2+z
loop_
_atom_site_type_symbol
_atom_site_label
_atom_site_fract_x
_atom_site_fract_y
_atom_site_fract_z
Si Si1 0.156265 0.935002 0.042277
Si Si2 0.299582 0.152177 0.357838
Si Si3 0.463563 0.435235 0.616407
Si Si4 0.739482 0.809858 0.846131
Si Si5 0.091568 0.205728 0.527879
Si Si6 0.081035 0.590019 0.331155
Si Si7 0.840578 0.407961 0.542187
Si Si8 0.697420 0.461970 0.137091
O O1 0.075171 0.867068 0.052725
O O2 0.119725 0.934369 0.114561
O O3 0.422796 0.947740 0.930727
O O4 0.019995 0.995108 0.071641
O O5 0.500000 0.185768 0.250000
O O6 0.129913 0.113019 0.388404
O O7 0.174341 0.205261 0.438767
O O8 0.414686 0.101932 0.349748
O O9 0.290921 0.448138 0.728629
O O10 0.682354 0.401709 0.555186
O O11 0.650716 0.737610 0.878325
O O12 0.665635 0.845035 0.824134
O O13 0.643777 0.843802 0.931927
O O14 0.000000 0.806754 0.750000
O O15 0.250000 0.250000 0.500000
O O16 0.746062 0.462673 0.615256
O O17 0.084493 0.424963 0.427922
O O18 0.500000 0.447621 0.250000
#
# Coordination Sequence:
#
# PCOD8129548 Si02
#       8
#     8   8   8   8   8   8   8   8
#     4  10  21  36  60  89 120 155 207 246 304 354
#     4   9  20  40  64  89 113 160 211 240 292 360
#     4  10  21  35  61  95 119 150 198 257 304 350
#     4  12  21  37  62  86 113 157 211 237 287 356
#     4  11  21  40  63  85 118 164 208 243 284 370
#     4  10  19  37  62  83 115 166 203 240 284 370
#     4  10  20  33  56  84 120 152 195 245 298 353
#     4  10  20  33  55  88 119 152 194 249 309 352
#
# _framework density 9.4062319999999993
#
# number of rings (size 3 to 8) (size 9 to 14) (size 15 to 20)
#    0.000    1.750    5.000    0.375    1.750    2.000 
#    0.000    7.500    0.000    0.000    0.000    0.000 
#    0.000    0.000    0.000    0.000    0.000    0.000 
#
# Total GULP energy -396578.944155 kJ/mol
# GULP energy per Si atom -12393.092005 kJ/mol
# Density = 0.938482 g / cm^3
# Si number density = 9.406232 Si / 1000 Ang^3
#
#
#
# Elastic Constant Matrix: (Units=GPa)
#
#
# Indices 1 2 3 4 5 6 
#
# 1 107.7252 33.0177 43.7843 0.0791 -7.2335 -0.0631
# 2 33.0177 93.6703 40.7418 -0.1757 -0.3463 0.0510
# 3 43.7843 40.7418 137.7960 -0.1641 1.0568 0.0471
# 4 0.0791 -0.1757 -0.1641 25.7088 0.0182 -1.9847
# 5 -7.2335 -0.3463 1.0568 0.0182 30.3341 0.0602
# 6 -0.0631 0.0510 0.0471 -1.9847 0.0602 30.3580
#
#
#
# Elastic Compliance Matrix: (Units=1/GPa)
#
#
# Indices 1 2 3 4 5 6 
#
# 1 0.011486 -0.002802 -0.002843 -0.000073 0.002806 0.000023
# 2 -0.002802 0.012937 -0.002931 0.000077 -0.000418 -0.000017
# 3 -0.002843 -0.002931 0.009035 0.000046 -0.001026 -0.000010
# 4 -0.000073 0.000077 0.000046 0.039096 -0.000047 0.002556
# 5 0.002806 -0.000418 -0.001026 -0.000047 0.033666 -0.000062
# 6 0.000023 -0.000017 -0.000010 0.002556 -0.000062 0.033108
#
#
# Mechanical properties :
#
#
# Convention : Reuss Voigt Hill
#
# Bulk Modulus (GPa) = 61.32889 63.80879 62.56884
# Shear Modulus (GPa) = 30.88053 32.05669 31.46861
#
# Velocity S-wave (km/s) = 4.05593 4.13245 4.09437
# Velocity P-wave (km/s) = 7.38952 7.53402 7.46212
#
# Compressibility (1/GPa) = 0.01630553
#
# Stress axis : x y z
#
# Youngs Moduli (GPa) = 87.06613 77.29761 110.68033
#
# Poissons Ratio (x) = 0.21658 0.31463
# Poissons Ratio (y) = 0.24395 0.32446
# Poissons Ratio (z) = 0.24750 0.22660
#
# Static dielectric constant tensor:
#      x y z
#    x 3.778100 -0.000940 0.069800 
#    y -0.000940 3.331680 0.001140 
#    z 0.069800 0.001140 3.848020 
# 
# 
# High freq. dielectric constant tensor:
#      x y z
#    x 1.737720 0.000000 -0.004940 
#    y 0.000000 1.700280 0.000010 
#    z -0.004940 0.000010 1.732480 
# 
# From -- ./inp_files/293749.got.cif
#   From: 2010.06.25/outbox.ucp.g09.slc.cvg/sg15_147_cif.got.tgz:293749.got - 2010.06.28 14:40:10.
