data_PCOD8129518
_publ_section_title
;
Structure prediction by ZEFSAII (Michael W. Deem and Ramdas Pophale) SiO2 
 PCOD8129518
Probable space group: P 21/C
;
_chemical_formula_sum "Si O2"
_cell_formula_units_Z 16
_cell_length_a 7.777166
_cell_length_b 9.706833
_cell_length_c 9.436240
_cell_angle_alpha 90.000000
_cell_angle_beta 107.946472
_cell_angle_gamma 90.000000
_cell_volume 677.697451
_symmetry_space_group_name_H-M "P 21/C"
_symmetry_group_IT_number 14
_symmetry_cell_setting 'monoclinic'
loop_
_space_group_symop_operation_xyz
x,y,z
-x,1/2+y,1/2-z
-x,-y,-z
x,1/2-y,1/2+z
loop_
_atom_site_type_symbol
_atom_site_label
_atom_site_fract_x
_atom_site_fract_y
_atom_site_fract_z
Si Si1 0.402898 0.367380 0.167447
Si Si2 0.097100 0.367383 0.332553
Si Si3 0.105529 0.436997 0.897209
Si Si4 0.605530 0.936999 0.897209
O O1 0.249999 0.368591 0.250000
O O2 0.474963 0.212770 0.162913
O O3 0.573558 0.462940 0.254152
O O4 0.315861 0.422452 0.996871
O O5 0.025034 0.212773 0.337089
O O6 0.184138 0.422456 0.503129
O O7 0.926441 0.462943 0.245848
O O8 0.000000 0.500000 0.000000
O O9 0.500000 0.000000 0.000000
#
# Coordination Sequence:
#
# PCOD8129518 Si02
#       4
#     4   4   4   4
#     4   9  18  34  53  75 102 130 164 205 248 295
#     4   9  18  34  53  75 102 130 164 205 248 295
#     4   9  18  34  53  74 102 132 165 206 247 293
#     4   9  18  34  53  74 102 132 165 206 247 293
#
# _framework density 23.609352999999999
#
# number of rings (size 3 to 8) (size 9 to 14) (size 15 to 20)
#    0.000    3.000    0.000    0.000    0.000    2.000 
#    0.000   30.000    0.000    0.000    0.000    0.000 
#    0.000    0.000    0.000    0.000    0.000    0.000 
#
# Total GULP energy -198260.913577 kJ/mol
# GULP energy per Si atom -12391.307099 kJ/mol
# Density = 2.355562 g / cm^3
# Si number density = 23.609353 Si / 1000 Ang^3
#
#
#
# Elastic Constant Matrix: (Units=GPa)
#
#
# Indices 1 2 3 4 5 6 
#
# 1 24.1328 21.0264 14.4850 0.0000 2.7796 0.0000
# 2 21.0264 224.4278 137.9092 0.0000 33.9484 0.0000
# 3 14.4850 137.9092 172.3570 0.0000 31.0969 0.0000
# 4 0.0000 0.0000 0.0000 69.1196 0.0000 6.0529
# 5 2.7796 33.9484 31.0969 0.0000 17.7705 0.0000
# 6 0.0000 0.0000 0.0000 6.0529 0.0000 25.1721
#
#
#
# Elastic Compliance Matrix: (Units=1/GPa)
#
#
# Indices 1 2 3 4 5 6 
#
# 1 0.045238 -0.003925 -0.001078 0.000000 0.002309 0.000000
# 2 -0.003925 0.009658 -0.006109 0.000000 -0.007148 0.000000
# 3 -0.001078 -0.006109 0.012633 0.000000 -0.010268 0.000000
# 4 0.000000 0.000000 0.000000 0.014779 0.000000 -0.003554
# 5 0.002309 -0.007148 -0.010268 0.000000 0.087535 0.000000
# 6 0.000000 0.000000 0.000000 -0.003554 0.000000 0.040581
#
#
# Mechanical properties :
#
#
# Convention : Reuss Voigt Hill
#
# Bulk Modulus (GPa) = 22.07187 85.30655 53.68921
# Shear Modulus (GPa) = 20.18166 38.91224 29.54695
#
# Velocity S-wave (km/s) = 2.92690 4.06417 3.54148
# Velocity P-wave (km/s) = 4.55976 7.63114 6.28592
#
# Compressibility (1/GPa) = 0.04530653
#
# Stress axis : x y z
#
# Youngs Moduli (GPa) = 22.10513 103.53647 79.15951
#
# Poissons Ratio (x) = 0.40643 0.08529
# Poissons Ratio (y) = 0.08677 0.48355
# Poissons Ratio (z) = 0.02382 0.63246
#
# Static dielectric constant tensor:
#      x y z
#    x 3.501890 0.000000 0.381140 
#    y 0.000000 4.550280 0.000000 
#    z 0.381140 0.000000 5.638840 
# 
# 
# High freq. dielectric constant tensor:
#      x y z
#    x 1.879620 0.000000 0.000580 
#    y 0.000000 1.942700 0.000000 
#    z 0.000580 0.000000 1.966120 
# 
# From -- ./inp_files/7695.got.cif
#   From: 2010.03.12/outbox.cif.g09.slc.cpg/sg14_4_cif.got.tgz:7695.got - 2010.03.31 13:35:05.
