data_PCOD8129440
_publ_section_title
;
Structure prediction by ZEFSAII (Michael W. Deem and Ramdas Pophale) SiO2 
 PCOD8129440
Probable space group: P 21/C
;
_chemical_formula_sum "Si O2"
_cell_formula_units_Z 20
_cell_length_a 8.237551
_cell_length_b 11.302142
_cell_length_c 9.012384
_cell_angle_alpha 90.000000
_cell_angle_beta 89.999972
_cell_angle_gamma 90.000000
_cell_volume 839.070715
_symmetry_space_group_name_H-M "P 21/C"
_symmetry_group_IT_number 14
_symmetry_cell_setting 'monoclinic'
loop_
_space_group_symop_operation_xyz
x,y,z
-x,1/2+y,1/2-z
-x,-y,-z
x,1/2-y,1/2+z
loop_
_atom_site_type_symbol
_atom_site_label
_atom_site_fract_x
_atom_site_fract_y
_atom_site_fract_z
Si Si1 0.675283 0.270140 0.466060
Si Si2 0.175283 0.229860 0.033940
Si Si3 0.974734 0.336033 0.804725
Si Si4 0.250000 1.000000 0.843331
Si Si5 0.474734 0.336033 0.195275
O O1 0.838738 0.247312 0.377318
O O2 0.690696 0.391835 0.556961
O O3 0.527051 0.279341 0.351162
O O4 0.626773 0.163687 0.580557
O O5 0.338738 0.252688 0.122682
O O6 0.027051 0.220659 0.148838
O O7 0.126773 0.336313 0.919443
O O8 0.190696 0.108165 0.943039
O O9 0.899043 0.464312 0.766659
O O10 0.399043 0.035688 0.733341
#
# Coordination Sequence:
#
# PCOD8129440 Si02
#       5
#     4   4   4   4   4
#     4  12  25  48  74 109 149 189 250 302 359 444
#     4  12  25  48  74 109 149 189 250 302 359 444
#     4  12  25  47  75 109 145 193 247 302 361 443
#     4  12  26  46  80 102 152 196 240 304 384 404
#     4  12  25  47  75 109 145 193 247 302 361 443
#
# _framework density 23.835892999999999
#
# number of rings (size 3 to 8) (size 9 to 14) (size 15 to 20)
#    0.000    0.000    8.000    1.200    0.000    1.600 
#    0.000    4.000    0.000    0.000    0.000    0.000 
#    0.000    0.000    0.000    0.000    0.000    0.000 
#
# Total GULP energy -247887.972046 kJ/mol
# GULP energy per Si atom -12394.398602 kJ/mol
# Density = 2.378164 g / cm^3
# Si number density = 23.835893 Si / 1000 Ang^3
#
#
#
# Elastic Constant Matrix: (Units=GPa)
#
#
# Indices 1 2 3 4 5 6 
#
# 1 91.9154 42.3092 59.9770 0.0000 0.0001 0.0000
# 2 42.3092 76.4328 59.2759 0.0000 0.0000 0.0000
# 3 59.9770 59.2759 137.5199 0.0000 0.0001 0.0000
# 4 0.0000 0.0000 0.0000 9.0065 0.0000 0.0000
# 5 0.0001 0.0000 0.0001 0.0000 53.1431 0.0000
# 6 0.0000 0.0000 0.0000 0.0000 0.0000 42.1111
#
#
#
# Elastic Compliance Matrix: (Units=1/GPa)
#
#
# Indices 1 2 3 4 5 6 
#
# 1 0.016547 -0.005352 -0.004910 0.000000 0.000000 0.000000
# 2 -0.005352 0.021384 -0.006883 0.000000 0.000000 0.000000
# 3 -0.004910 -0.006883 0.012380 0.000000 0.000000 0.000000
# 4 0.000000 0.000000 0.000000 0.111030 0.000000 0.000000
# 5 0.000000 0.000000 0.000000 0.000000 0.018817 0.000000
# 6 0.000000 0.000000 0.000000 0.000000 0.000000 0.023747
#
#
# Mechanical properties :
#
#
# Convention : Reuss Voigt Hill
#
# Bulk Modulus (GPa) = 62.41732 69.88803 66.15267
# Shear Modulus (GPa) = 20.53097 30.47254 25.50175
#
# Velocity S-wave (km/s) = 2.93805 3.57939 3.27446
# Velocity P-wave (km/s) = 6.14432 6.81666 6.48921
#
# Compressibility (1/GPa) = 0.01602120
#
# Stress axis : x y z
#
# Youngs Moduli (GPa) = 60.43474 46.76416 80.77604
#
# Poissons Ratio (x) = 0.25027 0.39660
# Poissons Ratio (y) = 0.32343 0.55599
# Poissons Ratio (z) = 0.29672 0.32189
#
# Static dielectric constant tensor:
#      x y z
#    x 4.646850 0.000000 0.000010 
#    y 0.000000 3.956370 0.000000 
#    z 0.000010 0.000000 4.982070 
# 
# 
# High freq. dielectric constant tensor:
#      x y z
#    x 1.960780 0.000000 0.000000 
#    y 0.000000 1.906160 0.000000 
#    z 0.000000 0.000000 1.981180 
# 
# From -- ./inp_files/7863.got.cif
#   From: 2010.03.12/outbox.cif.g09.slc.cpg/sg14_4_cif.got.tgz:7863.got - 2010.03.31 13:35:05.
