data_PCOD8129459
_publ_section_title
;
Structure prediction by ZEFSAII (Michael W. Deem and Ramdas Pophale) SiO2 
 PCOD8129459
Probable space group: P 21/C
;
_chemical_formula_sum "Si O2"
_cell_formula_units_Z 20
_cell_length_a 23.676291
_cell_length_b 8.573699
_cell_length_c 9.660056
_cell_angle_alpha 90.000000
_cell_angle_beta 26.354540
_cell_angle_gamma 90.000000
_cell_volume 870.503498
_symmetry_space_group_name_H-M "P 21/C"
_symmetry_group_IT_number 14
_symmetry_cell_setting 'monoclinic'
loop_
_space_group_symop_operation_xyz
x,y,z
-x,1/2+y,1/2-z
-x,-y,-z
x,1/2-y,1/2+z
loop_
_atom_site_type_symbol
_atom_site_label
_atom_site_fract_x
_atom_site_fract_y
_atom_site_fract_z
Si Si1 0.295041 0.695518 0.739770
Si Si2 0.549566 0.327703 0.868384
Si Si3 0.938961 0.419533 0.268495
Si Si4 0.839010 0.780330 0.131511
Si Si5 0.308855 0.345640 0.784317
O O1 0.406594 0.785318 0.574204
O O2 0.331050 0.676247 0.499348
O O3 0.290670 0.529921 0.824838
O O4 0.162524 0.786719 0.050263
O O5 0.500000 0.500000 0.000000
O O6 0.446402 0.206571 0.036009
O O7 0.873202 0.546920 0.508676
O O8 0.000000 0.500000 0.000000
O O9 0.044250 0.339494 0.135567
O O10 0.799248 0.777660 0.378357
O O11 0.718109 0.722811 0.308287
#
# Coordination Sequence:
#
# PCOD8129459 Si02
#       5
#     4   4   4   4   4
#     4  12  27  45  74 105 148 191 248 299 373 433
#     4  12  26  47  75 107 149 191 245 304 371 446
#     4  12  28  47  73 108 144 195 247 307 364 439
#     4  12  26  46  74 101 148 185 248 296 369 429
#     4  12  26  46  72 108 143 192 240 304 367 442
#
# _framework density 22.975209
#
# number of rings (size 3 to 8) (size 9 to 14) (size 15 to 20)
#    0.000    0.000    2.000    7.800    8.400    1.600 
#    0.000    0.000    0.000    0.000    0.000    0.000 
#    0.000    0.000    0.000    0.000    0.000    0.000 
#
# Total GULP energy -248113.097778 kJ/mol
# GULP energy per Si atom -12405.654889 kJ/mol
# Density = 2.292292 g / cm^3
# Si number density = 22.975209 Si / 1000 Ang^3
#
#
#
# Elastic Constant Matrix: (Units=GPa)
#
#
# Indices 1 2 3 4 5 6 
#
# 1 90.5042 9.4117 17.0130 0.0000 2.2599 0.0000
# 2 9.4117 98.3452 30.6903 0.0000 8.3546 0.0000
# 3 17.0130 30.6903 95.2211 0.0000 2.7731 0.0000
# 4 0.0000 0.0000 0.0000 44.2023 0.0000 -5.5833
# 5 2.2599 8.3546 2.7731 0.0000 36.0211 0.0000
# 6 0.0000 0.0000 0.0000 -5.5833 0.0000 46.9291
#
#
#
# Elastic Compliance Matrix: (Units=1/GPa)
#
#
# Indices 1 2 3 4 5 6 
#
# 1 0.011464 -0.000470 -0.001883 0.000000 -0.000465 0.000000
# 2 -0.000470 0.011526 -0.003562 0.000000 -0.002370 0.000000
# 3 -0.001883 -0.003562 0.011986 0.000000 0.000022 0.000000
# 4 0.000000 0.000000 0.000000 0.022968 0.000000 0.002733
# 5 -0.000465 -0.002370 0.000022 0.000000 0.028339 0.000000
# 6 0.000000 0.000000 0.000000 0.002733 0.000000 0.021634
#
#
# Mechanical properties :
#
#
# Convention : Reuss Voigt Hill
#
# Bulk Modulus (GPa) = 43.20501 44.25562 43.73032
# Shear Modulus (GPa) = 39.22745 40.56087 39.89416
#
# Velocity S-wave (km/s) = 4.13653 4.20625 4.17153
# Velocity P-wave (km/s) = 6.45449 6.54936 6.50210
#
# Compressibility (1/GPa) = 0.02314546
#
# Stress axis : x y z
#
# Youngs Moduli (GPa) = 87.23190 86.75955 83.43226
#
# Poissons Ratio (x) = 0.04077 0.15712
# Poissons Ratio (y) = 0.04099 0.29718
# Poissons Ratio (z) = 0.16428 0.30904
#
# Static dielectric constant tensor:
#      x y z
#    x 4.431350 0.000000 0.009660 
#    y 0.000000 4.278670 0.000000 
#    z 0.009660 0.000000 4.163250 
# 
# 
# High freq. dielectric constant tensor:
#      x y z
#    x 1.918940 0.000000 0.002890 
#    y 0.000000 1.926840 0.000000 
#    z 0.002890 0.000000 1.913190 
# 
# From -- ./inp_files/11845.got.cif
#   From: 2010.03.12/outbox.cif.g09.slc.cpg/sg14_6_cif.got.tgz:11845.got - 2010.03.31 13:35:05.
