data_PCOD8129555
_publ_section_title
;
Structure prediction by ZEFSAII (Michael W. Deem and Ramdas Pophale) SiO2 
 PCOD8129555
Probable space group: C 2/C
;
_chemical_formula_sum "Si O2"
_cell_formula_units_Z 30
_cell_length_a 12.000000
_cell_length_b 21.000000
_cell_length_c 24.000000
_cell_angle_alpha 90.000000
_cell_angle_beta 150.000000
_cell_angle_gamma 90.000000
_cell_volume 3024.000000
_symmetry_space_group_name_H-M "C 2/C"
_symmetry_group_IT_number 15
_symmetry_cell_setting 'monoclinic'
loop_
_space_group_symop_operation_xyz
x,y,z
-x,y,1/2-z
-x,-y,-z
x,-y,1/2+z
1/2+x,1/2+y,z
1/2-x,1/2+y,1/2-z
1/2-x,1/2-y,-z
1/2+x,1/2-y,1/2+z
loop_
_atom_site_type_symbol
_atom_site_label
_atom_site_fract_x
_atom_site_fract_y
_atom_site_fract_z
Si Si1 0.051879 0.322557 0.210449
Si Si2 0.144645 0.399284 0.595184
Si Si3 0.697730 0.458271 0.443806
Si Si4 0.927351 0.835771 0.064039
Si Si5 0.564562 0.235180 0.342678
Si Si6 0.000000 0.994707 0.250000
Si Si7 0.224817 0.606013 0.005495
Si Si8 0.631726 0.686083 0.217032
O O1 0.315576 0.320321 0.327509
O O2 0.986040 0.249182 0.168538
O O3 0.000000 0.346225 0.250000
O O4 0.932765 0.368140 0.112782
O O5 0.276613 0.464919 0.654351
O O6 0.112986 0.377698 0.517004
O O7 0.281819 0.346135 0.688345
O O8 0.912839 0.416790 0.521641
O O9 0.591964 0.412802 0.444930
O O10 0.522243 0.454686 0.316362
O O11 0.745285 0.529189 0.487611
O O12 0.860811 0.800760 0.093891
O O13 0.780471 0.810306 0.947770
O O14 0.500000 0.247131 0.250000
O O15 0.346395 0.201418 0.273109
O O16 0.470053 0.638509 0.112081
#
# Coordination Sequence:
#
# PCOD8129555 Si02
#       8
#     8   8   8   8   8   4   8   8
#     4  11  26  42  61  89 126 164 209 258 297 365
#     4  11  20  38  61  95 126 154 203 258 315 366
#     4  11  23  36  63  92 128 157 201 261 312 370
#     4  10  24  43  62  96 124 158 207 260 303 367
#     4  10  23  43  67  92 124 166 206 250 311 368
#     4  10  20  34  58  92 128 160 194 256 314 372
#     4  11  23  39  63  93 122 166 209 250 316 366
#     4  11  21  42  64  91 123 164 205 256 307 367
#
# _framework density 9.9206350000000008
#
# number of rings (size 3 to 8) (size 9 to 14) (size 15 to 20)
#    0.000    1.333    4.000    2.800    6.533    1.067 
#    0.000    1.333    0.000    0.000    0.000    0.000 
#    0.000    0.000    0.000    0.000    0.000    0.000 
#
# Total GULP energy -371672.037009 kJ/mol
# GULP energy per Si atom -12389.067900 kJ/mol
# Density = 0.989806 g / cm^3
# Si number density = 9.920635 Si / 1000 Ang^3
#
#
#
# Elastic Constant Matrix: (Units=GPa)
#
#
# Indices 1 2 3 4 5 6 
#
# 1 51.5043 24.0508 31.8565 -0.0019 -20.7686 0.0009
# 2 24.0508 122.3070 40.9083 -0.0063 -14.0265 0.0000
# 3 31.8565 40.9083 138.9395 0.0086 -30.5210 0.0007
# 4 -0.0019 -0.0063 0.0086 4.6386 0.0000 -9.5306
# 5 -20.7686 -14.0265 -30.5210 0.0000 39.2058 0.0004
# 6 0.0009 0.0000 0.0007 -9.5306 0.0004 24.2811
#
#
#
# Elastic Compliance Matrix: (Units=1/GPa)
#
#
# Indices 1 2 3 4 5 6 
#
# 1 0.027078 -0.003100 -0.002881 0.000051 0.010992 0.000019
# 2 -0.003100 0.009489 -0.002048 0.000081 0.000158 0.000032
# 3 -0.002881 -0.002048 0.009608 -0.000116 0.005221 -0.000046
# 4 0.000051 0.000081 -0.000116 1.113933 -0.000040 0.437231
# 5 0.010992 0.000158 0.005221 -0.000040 0.035450 -0.000017
# 6 0.000019 0.000032 -0.000046 0.437231 -0.000017 0.212802
#
#
# Mechanical properties :
#
#
# Convention : Reuss Voigt Hill
#
# Bulk Modulus (GPa) = 33.20567 56.26466 44.73517
# Shear Modulus (GPa) = 3.48564 28.02076 15.75320
#
# Velocity S-wave (km/s) = 1.32687 3.76206 2.82079
# Velocity P-wave (km/s) = 4.37258 6.87676 5.76234
#
# Compressibility (1/GPa) = 0.03011534
#
# Stress axis : x y z
#
# Youngs Moduli (GPa) = 36.93021 105.38463 104.08144
#
# Poissons Ratio (x) = 0.32674 0.29986
# Poissons Ratio (y) = 0.11450 0.21319
# Poissons Ratio (z) = 0.10640 0.21586
#
# Static dielectric constant tensor:
#      x y z
#    x 3.672120 -0.000020 -0.097230 
#    y -0.000020 3.839470 -0.000010 
#    z -0.097230 -0.000010 3.961020 
# 
# 
# High freq. dielectric constant tensor:
#      x y z
#    x 1.746730 0.000000 -0.000110 
#    y 0.000000 1.785510 0.000000 
#    z -0.000110 0.000000 1.804980 
# 
# From -- ./inp_files/271041.got.cif
#   From: 2010.06.25/outbox.ucp.g09.slc.cvg/sg15_136_cif.got.tgz:271041.got - 2010.06.28 14:40:10.
