data_PCOD8129590
_publ_section_title
;
Structure prediction by ZEFSAII (Michael W. Deem and Ramdas Pophale) SiO2 
 PCOD8129590
Probable space group: C 2/C
;
_chemical_formula_sum "Si O2"
_cell_formula_units_Z 32
_cell_length_a 18.000000
_cell_length_b 9.000000
_cell_length_c 30.000000
_cell_angle_alpha 90.000000
_cell_angle_beta 40.000000
_cell_angle_gamma 90.000000
_cell_volume 3123.947783
_symmetry_space_group_name_H-M "C 2/C"
_symmetry_group_IT_number 15
_symmetry_cell_setting 'monoclinic'
loop_
_space_group_symop_operation_xyz
x,y,z
-x,y,1/2-z
-x,-y,-z
x,-y,1/2+z
1/2+x,1/2+y,z
1/2-x,1/2+y,1/2-z
1/2-x,1/2-y,-z
1/2+x,1/2-y,1/2+z
loop_
_atom_site_type_symbol
_atom_site_label
_atom_site_fract_x
_atom_site_fract_y
_atom_site_fract_z
Si Si1 0.684685 0.664883 0.234429
Si Si2 0.247531 0.815018 0.383979
Si Si3 0.074715 0.857114 0.536908
Si Si4 0.165004 0.810884 0.258420
Si Si5 0.553557 0.175868 0.633884
Si Si6 0.320007 0.632115 0.120311
Si Si7 0.670455 0.679223 0.482618
Si Si8 0.429911 0.164585 0.391222
O O1 0.730784 0.686048 0.162485
O O2 0.774390 0.748113 0.225295
O O3 0.677367 0.489558 0.249207
O O4 0.560982 0.743377 0.295948
O O5 0.131241 0.783032 0.466412
O O6 0.354335 0.820984 0.368845
O O7 0.235505 0.970584 0.362887
O O8 0.102075 0.758419 0.567698
O O9 0.936343 0.878280 0.596395
O O10 0.136217 0.015520 0.515652
O O11 0.224923 0.734662 0.188075
O O12 0.029133 0.768795 0.323859
O O13 0.527979 0.005254 0.632373
O O14 0.359318 0.704193 0.055417
O O15 0.594782 0.797382 0.545384
O O16 0.808868 0.699065 0.422433
#
# Coordination Sequence:
#
# PCOD8129590 Si02
#       8
#     8   8   8   8   8   8   8   8
#     4  12  27  47  67 102 136 185 235 291 354 413
#     4  11  24  43  71 101 140 181 230 283 345 420
#     4  11  23  43  73 103 141 183 228 288 348 415
#     4  12  27  47  70  98 139 184 235 291 352 418
#     4  12  23  46  67 105 139 186 228 283 349 410
#     4  11  23  46  71 104 138 185 230 284 351 417
#     4  10  23  44  68 106 139 181 230 281 352 408
#     4  11  24  42  71 100 142 181 227 288 342 415
#
# _framework density 10.243449
#
# number of rings (size 3 to 8) (size 9 to 14) (size 15 to 20)
#    0.000    0.750    3.750    5.250    3.500    1.500 
#    6.750    1.250    0.000    0.000    0.000    0.000 
#    0.000    0.000    0.000    0.000    0.000    0.000 
#
# Total GULP energy -396854.459138 kJ/mol
# GULP energy per Si atom -12401.701848 kJ/mol
# Density = 1.022013 g / cm^3
# Si number density = 10.243449 Si / 1000 Ang^3
#
#
#
# Elastic Constant Matrix: (Units=GPa)
#
#
# Indices 1 2 3 4 5 6 
#
# 1 109.1140 60.8070 41.4312 0.0003 -1.1272 -0.0180
# 2 60.8070 147.6837 68.9082 -0.0015 3.0581 -0.0041
# 3 41.4312 68.9082 143.4999 -0.0003 -5.8601 -0.0043
# 4 0.0003 -0.0015 -0.0003 50.3574 0.0007 2.7768
# 5 -1.1272 3.0581 -5.8601 0.0007 50.4220 -0.0003
# 6 -0.0180 -0.0041 -0.0043 2.7768 -0.0003 35.1424
#
#
#
# Elastic Compliance Matrix: (Units=1/GPa)
#
#
# Indices 1 2 3 4 5 6 
#
# 1 0.012121 -0.004347 -0.001397 -0.000001 0.000372 0.000006
# 2 -0.004347 0.010338 -0.003757 0.000000 -0.001161 -0.000002
# 3 -0.001397 -0.003757 0.009228 0.000000 0.001269 0.000000
# 4 -0.000001 0.000000 0.000000 0.019945 0.000000 -0.001576
# 5 0.000372 -0.001161 0.001269 0.000000 0.020059 0.000000
# 6 0.000006 -0.000002 0.000000 -0.001576 0.000000 0.028580
#
#
# Mechanical properties :
#
#
# Convention : Reuss Voigt Hill
#
# Bulk Modulus (GPa) = 78.82704 82.51006 80.66855
# Shear Modulus (GPa) = 40.48568 42.46111 41.47340
#
# Velocity S-wave (km/s) = 4.45024 4.55752 4.50420
# Velocity P-wave (km/s) = 8.06018 8.24964 8.15546
#
# Compressibility (1/GPa) = 0.01268600
#
# Stress axis : x y z
#
# Youngs Moduli (GPa) = 82.49886 96.73307 108.36821
#
# Poissons Ratio (x) = 0.42046 0.15142
# Poissons Ratio (y) = 0.35859 0.40710
# Poissons Ratio (z) = 0.11527 0.36339
#
# Static dielectric constant tensor:
#      x y z
#    x 3.875180 0.000000 0.034960 
#    y 0.000000 3.885890 0.000000 
#    z 0.034960 0.000000 4.179890 
# 
# 
# High freq. dielectric constant tensor:
#      x y z
#    x 1.815250 0.000000 -0.001460 
#    y 0.000000 1.806730 0.000000 
#    z -0.001460 0.000000 1.837290 
# 
# From -- ./inp_files/315657.got.cif
#   From: 2010.06.25/outbox.ucp.g09.slc.cvg/sg15_158_cif.got.tgz:315657.got - 2010.06.28 14:40:10.
