data_PCOD8129471
_publ_section_title
;
Structure prediction by ZEFSAII (Michael W. Deem and Ramdas Pophale) SiO2 
 PCOD8129471
Probable space group: P 21/C
;
_chemical_formula_sum "Si O2"
_cell_formula_units_Z 16
_cell_length_a 4.920625
_cell_length_b 8.470508
_cell_length_c 16.967076
_cell_angle_alpha 90.000000
_cell_angle_beta 90.155405
_cell_angle_gamma 90.000000
_cell_volume 707.188408
_symmetry_space_group_name_H-M "P 21/C"
_symmetry_group_IT_number 14
_symmetry_cell_setting 'monoclinic'
loop_
_space_group_symop_operation_xyz
x,y,z
-x,1/2+y,1/2-z
-x,-y,-z
x,1/2-y,1/2+z
loop_
_atom_site_type_symbol
_atom_site_label
_atom_site_fract_x
_atom_site_fract_y
_atom_site_fract_z
Si Si1 0.892084 0.665347 0.030294
Si Si2 0.761379 0.596588 0.206006
Si Si3 0.607153 0.163555 0.032301
Si Si4 0.262493 0.722009 0.292207
O O1 0.858295 0.667639 0.123703
O O2 0.605052 0.697489 0.987854
O O3 0.000000 0.500000 0.000000
O O4 0.104595 0.801395 0.007949
O O5 0.465037 0.666544 0.223709
O O6 0.749566 0.409254 0.201826
O O7 0.034671 0.153604 0.225933
O O8 0.639600 0.148790 0.125768
O O9 0.500000 0.000000 0.000000
#
# Coordination Sequence:
#
# PCOD8129471 Si02
#       4
#     4   4   4   4
#     4  12  26  50  75 103 143 197 241 293 359 431
#     4  12  28  47  75 105 147 191 240 296 368 429
#     4  12  28  48  75 108 148 187 246 300 356 426
#     4  12  28  48  73 109 147 190 240 298 363 432
#
# _framework density 22.624806
#
# number of rings (size 3 to 8) (size 9 to 14) (size 15 to 20)
#    0.000    0.000    2.500    6.000   14.000    0.000 
#    0.000    0.000    0.000    0.000    0.000    0.000 
#    0.000    0.000    0.000    0.000    0.000    0.000 
#
# Total GULP energy -198587.091041 kJ/mol
# GULP energy per Si atom -12411.693190 kJ/mol
# Density = 2.257331 g / cm^3
# Si number density = 22.624806 Si / 1000 Ang^3
#
#
#
# Elastic Constant Matrix: (Units=GPa)
#
#
# Indices 1 2 3 4 5 6 
#
# 1 79.6251 1.4012 6.2634 0.0000 -2.3561 0.0000
# 2 1.4012 67.7043 26.9954 0.0000 -9.6892 0.0000
# 3 6.2634 26.9954 119.6749 0.0000 -5.3338 0.0000
# 4 0.0000 0.0000 0.0000 74.7771 0.0000 11.1119
# 5 -2.3561 -9.6892 -5.3338 0.0000 48.3403 0.0000
# 6 0.0000 0.0000 0.0000 11.1119 0.0000 55.9442
#
#
#
# Elastic Compliance Matrix: (Units=1/GPa)
#
#
# Indices 1 2 3 4 5 6 
#
# 1 0.012625 0.000079 -0.000654 0.000000 0.000559 0.000000
# 2 0.000079 0.016634 -0.003626 0.000000 0.002938 0.000000
# 3 -0.000654 -0.003626 0.009220 0.000000 0.000259 0.000000
# 4 0.000000 0.000000 0.000000 0.013780 0.000000 -0.002737
# 5 0.000559 0.002938 0.000259 0.000000 0.021331 0.000000
# 6 0.000000 0.000000 0.000000 -0.002737 0.000000 0.018419
#
#
# Mechanical properties :
#
#
# Convention : Reuss Voigt Hill
#
# Bulk Modulus (GPa) = 33.24500 37.36939 35.30719
# Shear Modulus (GPa) = 45.27529 51.30195 48.28862
#
# Velocity S-wave (km/s) = 4.47826 4.76700 4.62488
# Velocity P-wave (km/s) = 6.43938 6.84485 6.64521
#
# Compressibility (1/GPa) = 0.03007971
#
# Stress axis : x y z
#
# Youngs Moduli (GPa) = 79.20520 60.11604 108.46539
#
# Poissons Ratio (x) = -0.00477 0.07091
# Poissons Ratio (y) = -0.00629 0.39324
# Poissons Ratio (z) = 0.05178 0.21795
#
# Static dielectric constant tensor:
#      x y z
#    x 4.422870 0.000000 0.179380 
#    y 0.000000 4.089180 0.000000 
#    z 0.179380 0.000000 3.632750 
# 
# 
# High freq. dielectric constant tensor:
#      x y z
#    x 1.914860 0.000000 -0.001650 
#    y 0.000000 1.903720 0.000000 
#    z -0.001650 0.000000 1.905620 
# 
# From -- ./inp_files/62808.got.cif
#   From: 2010.03.12/outbox.cif.g09.slc.cpg/sg14_32_cif.got.tgz:62808.got - 2010.03.31 13:35:05.
