data_PCOD8129510
_publ_section_title
;
Structure prediction by ZEFSAII (Michael W. Deem and Ramdas Pophale) SiO2 
 PCOD8129510
Probable space group: P 21/C
;
_chemical_formula_sum "Si O2"
_cell_formula_units_Z 28
_cell_length_a 14.590693
_cell_length_b 9.559352
_cell_length_c 19.833283
_cell_angle_alpha 90.000000
_cell_angle_beta 141.126455
_cell_angle_gamma 90.000000
_cell_volume 1736.138813
_symmetry_space_group_name_H-M "P 21/C"
_symmetry_group_IT_number 14
_symmetry_cell_setting 'monoclinic'
loop_
_space_group_symop_operation_xyz
x,y,z
-x,1/2+y,1/2-z
-x,-y,-z
x,1/2-y,1/2+z
loop_
_atom_site_type_symbol
_atom_site_label
_atom_site_fract_x
_atom_site_fract_y
_atom_site_fract_z
Si Si1 0.710303 0.168357 0.527682
Si Si2 0.869898 0.120800 0.213508
Si Si3 0.867480 0.074408 0.495454
Si Si4 0.540265 0.634337 0.609864
Si Si5 0.673979 0.601268 0.543802
Si Si6 0.812094 0.998899 0.320426
Si Si7 0.803234 0.624641 0.067037
O O1 0.786834 0.249414 0.632763
O O2 0.800423 0.188858 0.508737
O O3 0.546482 0.224256 0.420641
O O4 0.710382 0.003443 0.547318
O O5 0.815670 0.107528 0.260072
O O6 0.042978 0.140398 0.305559
O O7 0.823875 0.977899 0.149217
O O8 0.796502 0.087217 0.380787
O O9 0.835337 0.917716 0.507444
O O10 0.041958 0.095617 0.592318
O O11 0.590886 0.654468 0.562265
O O12 0.432159 0.502217 0.557533
O O13 0.677784 0.609526 0.737318
O O14 0.712281 0.732889 0.518629
#
# Coordination Sequence:
#
# PCOD8129510 Si02
#       7
#     4   4   4   4   4   4   4
#     4   9  18  31  46  80 102 117 165 216 240 278
#     4   9  16  28  53  74  93 126 171 200 239 291
#     4   8  18  32  49  75  95 125 170 207 231 286
#     4   9  18  30  48  69 100 131 159 195 245 302
#     4   9  17  30  46  72  97 129 162 196 243 297
#     4   9  16  33  52  69  94 137 167 190 239 303
#     4   9  17  28  47  73  99 125 157 212 242 273
#
# _framework density 16.127742000000001
#
# number of rings (size 3 to 8) (size 9 to 14) (size 15 to 20)
#    0.857    2.286    0.000    1.714    2.000    0.571 
#    2.571    0.000    0.000    0.000    3.714   13.000 
#    0.000    0.000    0.000    0.000    0.000    0.000 
#
# Total GULP energy -346921.444312 kJ/mol
# GULP energy per Si atom -12390.051583 kJ/mol
# Density = 1.609103 g / cm^3
# Si number density = 16.127742 Si / 1000 Ang^3
#
#
#
# Elastic Constant Matrix: (Units=GPa)
#
#
# Indices 1 2 3 4 5 6 
#
# 1 52.7154 20.0367 30.7859 0.0000 0.3073 0.0000
# 2 20.0367 65.6393 18.8668 0.0000 4.2149 0.0000
# 3 30.7859 18.8668 79.6797 0.0000 0.7703 0.0000
# 4 0.0000 0.0000 0.0000 14.0320 0.0000 6.0398
# 5 0.3073 4.2149 0.7703 0.0000 30.1033 0.0000
# 6 0.0000 0.0000 0.0000 6.0398 0.0000 27.6025
#
#
#
# Elastic Compliance Matrix: (Units=1/GPa)
#
#
# Indices 1 2 3 4 5 6 
#
# 1 0.026218 -0.005512 -0.008832 0.000000 0.000730 0.000000
# 2 -0.005512 0.017652 -0.002027 0.000000 -0.002363 0.000000
# 3 -0.008832 -0.002027 0.016443 0.000000 -0.000047 0.000000
# 4 0.000000 0.000000 0.000000 0.078676 0.000000 -0.017215
# 5 0.000730 -0.002363 -0.000047 0.000000 0.033544 0.000000
# 6 0.000000 0.000000 0.000000 -0.017215 0.000000 0.039995
#
#
# Mechanical properties :
#
#
# Convention : Reuss Voigt Hill
#
# Bulk Modulus (GPa) = 36.26935 37.49036 36.87986
# Shear Modulus (GPa) = 19.64944 22.90389 21.27666
#
# Velocity S-wave (km/s) = 3.49429 3.77258 3.63610
# Velocity P-wave (km/s) = 6.23039 6.50176 6.36752
#
# Compressibility (1/GPa) = 0.02757149
#
# Stress axis : x y z
#
# Youngs Moduli (GPa) = 38.14120 56.65184 60.81554
#
# Poissons Ratio (x) = 0.31224 0.53712
# Poissons Ratio (y) = 0.21022 0.12329
# Poissons Ratio (z) = 0.33686 0.11485
#
# Static dielectric constant tensor:
#      x y z
#    x 2.984840 0.000000 0.116120 
#    y 0.000000 2.750240 0.000000 
#    z 0.116120 0.000000 3.083710 
# 
# 
# High freq. dielectric constant tensor:
#      x y z
#    x 1.608570 0.000000 0.012290 
#    y 0.000000 1.587610 0.000000 
#    z 0.012290 0.000000 1.620720 
# 
# From -- ./inp_files/74131.got.cif
#   From: 2010.03.12/outbox.cif.g09.slc.cpg/sg14_38_cif.got.tgz:74131.got - 2010.03.31 13:35:05.
