data_PCOD8129385
_publ_section_title
;
Structure prediction by ZEFSAII (Michael W. Deem and Ramdas Pophale) SiO2 
 PCOD8129385
Probable space group: P 21/C
;
_chemical_formula_sum "Si O2"
_cell_formula_units_Z 24
_cell_length_a 6.495488
_cell_length_b 12.730628
_cell_length_c 14.265956
_cell_angle_alpha 90.000000
_cell_angle_beta 59.445719
_cell_angle_gamma 90.000000
_cell_volume 1015.874971
_symmetry_space_group_name_H-M "P 21/C"
_symmetry_group_IT_number 14
_symmetry_cell_setting 'monoclinic'
loop_
_space_group_symop_operation_xyz
x,y,z
-x,1/2+y,1/2-z
-x,-y,-z
x,1/2-y,1/2+z
loop_
_atom_site_type_symbol
_atom_site_label
_atom_site_fract_x
_atom_site_fract_y
_atom_site_fract_z
Si Si1 0.524637 0.042745 0.260360
Si Si2 0.217856 0.750063 0.720494
Si Si3 0.823622 0.741917 0.953813
Si Si4 0.053822 0.348982 0.884273
Si Si5 0.457549 0.905156 0.442920
Si Si6 0.420798 0.429989 0.433640
O O1 0.645372 0.143721 0.280971
O O2 0.243555 0.065114 0.302453
O O3 0.547725 0.939025 0.319694
O O4 0.652195 0.008212 0.134113
O O5 0.385610 0.656026 0.647314
O O6 0.068916 0.710478 0.845423
O O7 0.027521 0.775356 0.682491
O O8 0.595515 0.697422 0.948278
O O9 0.803032 0.708002 0.066266
O O10 0.801861 0.867852 0.968706
O O11 0.826272 0.394177 0.990828
O O12 0.500000 0.000000 0.500000
O O13 0.500000 0.500000 0.500000
#
# Coordination Sequence:
#
# PCOD8129385 Si02
#       6
#     4   4   4   4   4   4
#     4  12  27  47  78 110 148 200 253 305 379 448
#     4  12  28  49  73 114 150 199 249 310 379 446
#     4  12  28  47  74 108 154 200 245 315 372 443
#     4  12  23  47  75 104 153 192 251 312 369 445
#     4  12  23  45  73 110 146 191 257 301 368 450
#     4  12  28  51  74 112 153 195 252 310 377 446
#
# _framework density 23.624953999999999
#
# number of rings (size 3 to 8) (size 9 to 14) (size 15 to 20)
#    0.000    0.000    6.667    2.500    7.000    4.667 
#    0.000    0.000    0.000    0.000    0.000    0.000 
#    0.000    0.000    0.000    0.000    0.000    0.000 
#
# Total GULP energy -297434.587441 kJ/mol
# GULP energy per Si atom -12393.107810 kJ/mol
# Density = 2.357118 g / cm^3
# Si number density = 23.624954 Si / 1000 Ang^3
#
#
#
# Elastic Constant Matrix: (Units=GPa)
#
#
# Indices 1 2 3 4 5 6 
#
# 1 93.6974 32.3757 22.0794 0.0000 9.5632 0.0000
# 2 32.3757 105.6868 38.2257 0.0000 7.5967 0.0000
# 3 22.0794 38.2257 111.7109 0.0000 16.0384 0.0000
# 4 0.0000 0.0000 0.0000 50.3738 0.0000 4.8367
# 5 9.5632 7.5967 16.0384 0.0000 46.9573 0.0000
# 6 0.0000 0.0000 0.0000 4.8367 0.0000 31.9303
#
#
#
# Elastic Compliance Matrix: (Units=1/GPa)
#
#
# Indices 1 2 3 4 5 6 
#
# 1 0.012207 -0.003235 -0.001077 0.000000 -0.001595 0.000000
# 2 -0.003235 0.011668 -0.003340 0.000000 -0.000088 0.000000
# 3 -0.001077 -0.003340 0.010724 0.000000 -0.002903 0.000000
# 4 0.000000 0.000000 0.000000 0.020145 0.000000 -0.003051
# 5 -0.001595 -0.000088 -0.002903 0.000000 0.022627 0.000000
# 6 0.000000 0.000000 0.000000 -0.003051 0.000000 0.031780
#
#
# Mechanical properties :
#
#
# Convention : Reuss Voigt Hill
#
# Bulk Modulus (GPa) = 51.82929 55.16186 53.49557
# Shear Modulus (GPa) = 38.20097 40.41323 39.30710
#
# Velocity S-wave (km/s) = 4.02553 4.14045 4.08339
# Velocity P-wave (km/s) = 6.60246 6.80128 6.70261
#
# Compressibility (1/GPa) = 0.01929411
#
# Stress axis : x y z
#
# Youngs Moduli (GPa) = 81.91954 85.70794 93.24608
#
# Poissons Ratio (x) = 0.27730 0.10039
# Poissons Ratio (y) = 0.26505 0.31148
# Poissons Ratio (z) = 0.08819 0.28630
#
# Static dielectric constant tensor:
#      x y z
#    x 3.144370 0.000000 -0.143330 
#    y 0.000000 3.981880 0.000000 
#    z -0.143330 0.000000 4.458450 
# 
# 
# High freq. dielectric constant tensor:
#      x y z
#    x 1.936800 0.000000 0.008710 
#    y 0.000000 1.933080 0.000000 
#    z 0.008710 0.000000 1.954060 
# 
# From -- ./inp_files/37243.got.cif
#   From: 2010.03.12/outbox.cif.g09.slc.cpg/sg14_19_cif.got.tgz:37243.got - 2010.03.31 13:35:05.
