data_PCOD8129036
_publ_section_title
;
Structure prediction by ZEFSAII (Michael W. Deem and Ramdas Pophale) SiO2 
 PCOD8129036
Probable space group: P 21/C
;
_chemical_formula_sum "Si O2"
_cell_formula_units_Z 24
_cell_length_a 13.336734
_cell_length_b 5.093405
_cell_length_c 14.145758
_cell_angle_alpha 90.000000
_cell_angle_beta 80.534814
_cell_angle_gamma 90.000000
_cell_volume 947.830530
_symmetry_space_group_name_H-M "P 21/C"
_symmetry_group_IT_number 14
_symmetry_cell_setting 'monoclinic'
loop_
_space_group_symop_operation_xyz
x,y,z
-x,1/2+y,1/2-z
-x,-y,-z
x,1/2-y,1/2+z
loop_
_atom_site_type_symbol
_atom_site_label
_atom_site_fract_x
_atom_site_fract_y
_atom_site_fract_z
Si Si1 0.439743 0.107439 0.278707
Si Si2 0.261025 0.377257 0.673024
Si Si3 0.194146 0.836538 0.426500
Si Si4 0.311982 0.172740 0.958181
Si Si5 0.928658 0.301311 0.383611
Si Si6 0.879901 0.031846 0.220483
O O1 0.491537 0.350266 0.214768
O O2 0.343969 0.997581 0.231839
O O3 0.411482 0.227708 0.386541
O O4 0.323067 0.284704 0.569304
O O5 0.167887 0.553103 0.649803
O O6 0.218663 0.140232 0.742830
O O7 0.284318 0.630265 0.438608
O O8 0.096283 0.785775 0.507456
O O9 0.162961 0.799396 0.321550
O O10 0.221224 0.139154 0.436093
O O11 0.941757 0.057900 0.309098
O O12 0.038856 0.433103 0.369810
#
# Coordination Sequence:
#
# PCOD8129036 Si02
#       6
#     4   4   4   4   4   4
#     4  12  28  47  74 102 131 180 232 290 356 409
#     4  11  25  45  69  98 143 182 224 290 338 406
#     4  11  24  41  71 101 144 184 226 278 330 409
#     4  11  24  46  71 103 135 178 229 281 352 408
#     4  11  24  41  66 106 140 187 234 270 339 404
#     4  12  22  42  67 101 142 191 225 277 333 406
#
# _framework density 25.320985
#
# number of rings (size 3 to 8) (size 9 to 14) (size 15 to 20)
#    0.000    0.667    5.000    2.500    2.333    1.333 
#    0.000    3.333    0.000    0.000    0.000    0.000 
#    0.000    0.000    0.000    0.000    0.000    0.000 
#
# Total GULP energy -297398.637230 kJ/mol
# GULP energy per Si atom -12391.609885 kJ/mol
# Density = 2.526335 g / cm^3
# Si number density = 25.320985 Si / 1000 Ang^3
#
#
#
# Elastic Constant Matrix: (Units=GPa)
#
#
# Indices 1 2 3 4 5 6 
#
# 1 76.9648 4.2929 16.6479 0.0000 -10.0793 0.0000
# 2 4.2929 47.2908 -15.8961 0.0000 -0.8567 0.0000
# 3 16.6479 -15.8961 104.0087 0.0000 -11.4240 0.0000
# 4 0.0000 0.0000 0.0000 24.3556 0.0000 -1.0387
# 5 -10.0793 -0.8567 -11.4240 0.0000 41.7365 0.0000
# 6 0.0000 0.0000 0.0000 -1.0387 0.0000 31.3709
#
#
#
# Elastic Compliance Matrix: (Units=1/GPa)
#
#
# Indices 1 2 3 4 5 6 
#
# 1 0.013941 -0.001967 -0.002234 0.000000 0.002715 0.000000
# 2 -0.001967 0.022652 0.003893 0.000000 0.001055 0.000000
# 3 -0.002234 0.003893 0.010843 0.000000 0.002508 0.000000
# 4 0.000000 0.000000 0.000000 0.041116 0.000000 0.001361
# 5 0.002715 0.001055 0.002508 0.000000 0.025324 0.000000
# 6 0.000000 0.000000 0.000000 0.001361 0.000000 0.031922
#
#
# Mechanical properties :
#
#
# Convention : Reuss Voigt Hill
#
# Bulk Modulus (GPa) = 21.35880 26.48376 23.92128
# Shear Modulus (GPa) = 30.86015 34.37390 32.61702
#
# Velocity S-wave (km/s) = 3.49486 3.68846 3.59296
# Velocity P-wave (km/s) = 4.97382 5.34991 5.16529
#
# Compressibility (1/GPa) = 0.04681910
#
# Stress axis : x y z
#
# Youngs Moduli (GPa) = 71.72850 44.14627 92.22879
#
# Poissons Ratio (x) = 0.08685 0.20604
# Poissons Ratio (y) = 0.14111 -0.35903
# Poissons Ratio (z) = 0.16024 -0.17185
#
# Static dielectric constant tensor:
#      x y z
#    x 4.276400 0.000000 -0.329290 
#    y 0.000000 4.373880 0.000000 
#    z -0.329290 0.000000 5.102830 
# 
# 
# High freq. dielectric constant tensor:
#      x y z
#    x 1.990920 0.000000 -0.017070 
#    y 0.000000 1.999450 0.000000 
#    z -0.017070 0.000000 2.041440 
# 
# From -- ./inp_files/45834.got.cif
#   From: 2010.03.12/outbox.cif.g09.slc.cpg/sg14_23_cif.got.tgz:45834.got - 2010.03.31 13:35:05.
