data_PCOD8129820
_publ_section_title
;
Structure prediction by ZEFSAII (Michael W. Deem and Ramdas Pophale) SiO2 
 PCOD8129820
Probable space group: C 2/C
;
_chemical_formula_sum "Si O2"
_cell_formula_units_Z 56
_cell_length_a 19.350046
_cell_length_b 11.813765
_cell_length_c 22.577957
_cell_angle_alpha 90.000000
_cell_angle_beta 37.886055
_cell_angle_gamma 90.000000
_cell_volume 3169.488714
_symmetry_space_group_name_H-M "C 2/C"
_symmetry_group_IT_number 15
_symmetry_cell_setting 'monoclinic'
loop_
_space_group_symop_operation_xyz
x,y,z
-x,y,1/2-z
-x,-y,-z
x,-y,1/2+z
1/2+x,1/2+y,z
1/2-x,1/2+y,1/2-z
1/2-x,1/2-y,-z
1/2+x,1/2-y,1/2+z
loop_
_atom_site_type_symbol
_atom_site_label
_atom_site_fract_x
_atom_site_fract_y
_atom_site_fract_z
Si Si1 0.696581 0.940960 0.705586
Si Si2 0.404400 0.163345 0.766925
Si Si3 0.437446 0.615465 0.024115
Si Si4 0.028859 0.309071 0.410929
Si Si5 0.612368 0.732889 0.826974
Si Si6 0.789088 0.322509 0.620096
Si Si7 0.730145 0.045258 0.805244
O O1 0.805955 0.898188 0.595000
O O2 0.607108 0.844551 0.788368
O O3 0.631123 0.031295 0.709313
O O4 0.753217 0.000334 0.723810
O O5 0.500000 0.182122 0.750000
O O6 0.447752 0.201347 0.673888
O O7 0.301590 0.246902 0.853661
O O8 0.441305 0.689397 0.080758
O O9 0.500000 0.500000 0.000000
O O10 0.493387 0.682404 0.930210
O O11 0.102396 0.406723 0.393512
O O12 0.898362 0.336826 0.505979
O O13 0.686087 0.760235 0.834875
O O14 0.678709 0.641662 0.742836
O O15 0.747843 0.449852 0.660538
#
# Coordination Sequence:
#
# PCOD8129820 Si02
#       7
#     8   8   8   8   8   8   8
#     4  10  18  34  49  76 112 136 179 217 264 329
#     4  11  23  39  55  72 104 153 192 223 257 308
#     4  11  18  28  54  86 114 138 165 217 285 336
#     4  10  19  33  52  83 110 134 173 218 273 330
#     4  10  18  29  51  84 110 135 165 215 284 329
#     4  10  19  32  51  81 111 135 172 218 275 325
#     4  10  16  30  52  81 113 135 156 220 282 328
#
# _framework density 17.668464
#
# number of rings (size 3 to 8) (size 9 to 14) (size 15 to 20)
#    0.000    1.714    5.714    2.143    0.000    1.714 
#    0.000    0.000    0.000    1.714    0.000    0.000 
#    0.000    0.000    0.000    0.000    0.000    0.000 
#
# Total GULP energy -347084.870599 kJ/mol
# GULP energy per Si atom -12395.888236 kJ/mol
# Density = 1.762825 g / cm^3
# Si number density = 17.668464 Si / 1000 Ang^3
#
#
#
# Elastic Constant Matrix: (Units=GPa)
#
#
# Indices 1 2 3 4 5 6 
#
# 1 48.7845 27.1706 31.5704 0.0000 -14.1227 0.0000
# 2 27.1706 111.9886 56.4053 0.0000 -7.7819 0.0000
# 3 31.5704 56.4053 124.9747 0.0000 -16.6507 0.0000
# 4 0.0000 0.0000 0.0000 36.7253 0.0000 -3.7618
# 5 -14.1227 -7.7819 -16.6507 0.0000 14.0877 0.0000
# 6 0.0000 0.0000 0.0000 -3.7618 0.0000 15.4500
#
#
#
# Elastic Compliance Matrix: (Units=1/GPa)
#
#
# Indices 1 2 3 4 5 6 
#
# 1 0.032615 -0.004787 -0.002462 0.000000 0.027142 0.000000
# 2 -0.004787 0.012260 -0.004820 0.000000 -0.003724 0.000000
# 3 -0.002462 -0.004820 0.012006 0.000000 0.009059 0.000000
# 4 0.000000 0.000000 0.000000 0.027926 0.000000 0.006799
# 5 0.027142 -0.003724 0.009059 0.000000 0.106844 0.000000
# 6 0.000000 0.000000 0.000000 0.006799 0.000000 0.066381
#
#
# Mechanical properties :
#
#
# Convention : Reuss Voigt Hill
#
# Bulk Modulus (GPa) = 30.54149 57.33783 43.93966
# Shear Modulus (GPa) = 17.05993 24.62603 20.84298
#
# Velocity S-wave (km/s) = 3.11071 3.73739 3.43836
# Velocity P-wave (km/s) = 5.49777 7.15169 6.37856
#
# Compressibility (1/GPa) = 0.03274235
#
# Stress axis : x y z
#
# Youngs Moduli (GPa) = 30.66059 81.56675 83.29042
#
# Poissons Ratio (x) = 0.39044 0.20510
# Poissons Ratio (y) = 0.14677 0.40148
# Poissons Ratio (z) = 0.07550 0.39317
#
# Static dielectric constant tensor:
#      x y z
#    x 2.626380 0.000000 -0.112480 
#    y 0.000000 3.615820 0.000000 
#    z -0.112480 0.000000 3.581110 
# 
# 
# High freq. dielectric constant tensor:
#      x y z
#    x 1.601240 0.000000 -0.010770 
#    y 0.000000 1.704910 0.000000 
#    z -0.010770 0.000000 1.701070 
# 
# From -- ./inp_files/277042.got.cif
#   From: 2010.06.25/outbox.cif.g09.slc.cpg/sg15_139_cif.got.tgz:277042.got - 2010.06.28 07:06:18.
