data_PCOD8129554
_publ_section_title
;
Structure prediction by ZEFSAII (Michael W. Deem and Ramdas Pophale) SiO2 
 PCOD8129554
Probable space group: C 2/C
;
_chemical_formula_sum "Si O2"
_cell_formula_units_Z 24
_cell_length_a 15.000000
_cell_length_b 18.000000
_cell_length_c 9.000000
_cell_angle_alpha 90.000000
_cell_angle_beta 90.000000
_cell_angle_gamma 90.000000
_cell_volume 2430.000000
_symmetry_space_group_name_H-M "C 2/C"
_symmetry_group_IT_number 15
_symmetry_cell_setting 'monoclinic'
loop_
_space_group_symop_operation_xyz
x,y,z
-x,y,1/2-z
-x,-y,-z
x,-y,1/2+z
1/2+x,1/2+y,z
1/2-x,1/2+y,1/2-z
1/2-x,1/2-y,-z
1/2+x,1/2-y,1/2+z
loop_
_atom_site_type_symbol
_atom_site_label
_atom_site_fract_x
_atom_site_fract_y
_atom_site_fract_z
Si Si1 0.494296 0.164015 0.571612
Si Si2 0.585878 0.954403 0.648120
Si Si3 0.091782 0.954538 0.164849
Si Si4 0.991758 0.188791 0.920066
Si Si5 0.846978 0.088282 0.538790
Si Si6 0.154286 0.409061 0.949912
O O1 0.500000 0.150932 0.750000
O O2 0.432882 0.104631 0.483855
O O3 0.459261 0.246595 0.531847
O O4 0.591458 0.159600 0.494599
O O5 0.500000 0.975466 0.750000
O O6 0.654811 0.925443 0.772441
O O7 0.622910 0.024181 0.558006
O O8 0.079556 0.878590 0.070255
O O9 0.165442 0.940518 0.291938
O O10 0.000000 0.973084 0.250000
O O11 0.118776 0.020064 0.058768
O O12 0.000000 0.218252 0.750000
O O13 0.086829 0.157489 0.974156
O O14 0.753074 0.117105 0.482956
#
# Coordination Sequence:
#
# PCOD8129554 Si02
#       6
#     8   8   8   8   8   8
#     4  11  22  36  55  76 102 140 182 217 254 309
#     4  10  20  35  55  78 106 139 176 212 254 313
#     4   9  18  34  55  79 108 139 175 211 252 312
#     4   9  19  36  55  75 104 141 177 212 255 310
#     4  10  20  33  56  83 108 136 169 217 265 307
#     4  11  20  34  56  81 109 135 169 218 265 308
#
# _framework density 9.8765429999999999
#
# number of rings (size 3 to 8) (size 9 to 14) (size 15 to 20)
#    0.000    2.333    0.000    8.000    0.000    2.667 
#    0.000    0.000    0.000    6.000    0.000    0.000 
#    0.000    0.000    0.000    0.000    0.000    0.000 
#
# Total GULP energy -297381.054562 kJ/mol
# GULP energy per Si atom -12390.877273 kJ/mol
# Density = 0.985406 g / cm^3
# Si number density = 9.876543 Si / 1000 Ang^3
#
#
#
# Elastic Constant Matrix: (Units=GPa)
#
#
# Indices 1 2 3 4 5 6 
#
# 1 59.9783 1.9382 14.3732 0.0000 24.6544 0.0000
# 2 1.9382 45.7466 15.6337 0.0000 -7.7388 0.0000
# 3 14.3732 15.6337 119.9016 0.0000 19.4258 0.0000
# 4 0.0000 0.0000 0.0000 41.1500 0.0000 -1.5755
# 5 24.6544 -7.7388 19.4258 0.0000 30.0706 0.0000
# 6 0.0000 0.0000 0.0000 -1.5755 0.0000 -19.0100
#
#
#
# Elastic Compliance Matrix: (Units=1/GPa)
#
#
# Indices 1 2 3 4 5 6 
#
# 1 0.026391 -0.005692 0.001476 0.000000 -0.024056 0.000000
# 2 -0.005692 0.026360 -0.005149 0.000000 0.014777 0.000000
# 3 0.001476 -0.005149 0.010326 0.000000 -0.009206 0.000000
# 4 0.000000 0.000000 0.000000 0.024224 0.000000 -0.002008
# 5 -0.024056 0.014777 -0.009206 0.000000 0.062728 0.000000
# 6 0.000000 0.000000 0.000000 -0.002008 0.000000 -0.052438
#
#
# Mechanical properties :
#
#
# Convention : Reuss Voigt Hill
#
# Bulk Modulus (GPa) = 22.54906 32.16852 27.35879
# Shear Modulus (GPa) = 38.13741 23.35421 30.74581
#
# Velocity S-wave (km/s) = 4.39875 3.44220 3.94954
# Velocity P-wave (km/s) = 6.10237 5.66736 5.88888
#
# Compressibility (1/GPa) = 0.04434775
#
# Stress axis : x y z
#
# Youngs Moduli (GPa) = 37.89124 37.93623 96.84230
#
# Poissons Ratio (x) = 0.21593 -0.14294
# Poissons Ratio (y) = 0.21568 0.49862
# Poissons Ratio (z) = -0.05593 0.19532
#
# Static dielectric constant tensor:
#      x y z
#    x 3.520580 0.000000 0.369220 
#    y 0.000000 3.444250 0.000000 
#    z 0.369220 0.000000 4.023480 
# 
# 
# High freq. dielectric constant tensor:
#      x y z
#    x 1.740330 0.000000 0.024820 
#    y 0.000000 1.763740 0.000000 
#    z 0.024820 0.000000 1.793640 
# 
# From -- ./inp_files/39659.got.cif
#   From: 2010.06.25/outbox.ucp.g09.slc.cvg/sg15_20_cif.got.tgz:39659.got - 2010.06.28 14:40:10.
