data_PCOD8129826
_publ_section_title
;
Structure prediction by ZEFSAII (Michael W. Deem and Ramdas Pophale) SiO2 
 PCOD8129826
Probable space group: C 2/C
;
_chemical_formula_sum "Si O2"
_cell_formula_units_Z 52
_cell_length_a 10.631282
_cell_length_b 17.634682
_cell_length_c 24.269488
_cell_angle_alpha 90.000000
_cell_angle_beta 37.715178
_cell_angle_gamma 90.000000
_cell_volume 2783.417564
_symmetry_space_group_name_H-M "C 2/C"
_symmetry_group_IT_number 15
_symmetry_cell_setting 'monoclinic'
loop_
_space_group_symop_operation_xyz
x,y,z
-x,y,1/2-z
-x,-y,-z
x,-y,1/2+z
1/2+x,1/2+y,z
1/2-x,1/2+y,1/2-z
1/2-x,1/2-y,-z
1/2+x,1/2-y,1/2+z
loop_
_atom_site_type_symbol
_atom_site_label
_atom_site_fract_x
_atom_site_fract_y
_atom_site_fract_z
Si Si1 0.576795 0.653249 0.602263
Si Si2 0.000000 0.992737 0.250000
Si Si3 0.196380 0.624148 0.799827
Si Si4 0.878116 0.114457 0.033020
Si Si5 0.778987 0.750092 0.352672
Si Si6 0.234978 0.507400 0.436164
Si Si7 0.282963 0.043044 0.935741
O O1 0.333282 0.654150 0.701424
O O2 0.609390 0.665639 0.526243
O O3 0.697312 0.717319 0.594028
O O4 0.672121 0.574690 0.587972
O O5 0.181164 0.939695 0.209558
O O6 0.116035 0.044337 0.163173
O O7 0.146399 0.694214 0.859045
O O8 0.991066 0.586117 0.846668
O O9 0.101703 0.080182 0.964336
O O10 0.823693 0.167536 0.104019
O O11 0.711021 0.046502 0.082766
O O12 0.000000 0.738470 0.250000
O O13 0.252668 0.554639 0.486376
O O14 0.000000 0.500000 0.500000
#
# Coordination Sequence:
#
# PCOD8129826 Si02
#       7
#     8   4   8   8   8   8   8
#     4   9  18  33  56  77 101 141 189 222 265 336
#     4  10  16  30  54  82  98 136 186 234 268 310
#     4  10  17  34  60  80  99 140 195 232 265 325
#     4  10  22  36  49  80 117 147 174 221 281 342
#     4  10  18  36  57  80 102 138 191 235 272 320
#     4  10  16  30  53  77 105 135 182 236 266 318
#     4  10  21  36  50  80 116 143 181 221 281 337
#
# _framework density 18.682071000000001
#
# number of rings (size 3 to 8) (size 9 to 14) (size 15 to 20)
#    0.000    2.154    5.385    0.462    0.000    1.231 
#   11.077    0.000    0.000    0.000    0.000    0.000 
#    0.000    0.000    0.000    0.000    0.000    0.000 
#
# Total GULP energy -322203.122943 kJ/mol
# GULP energy per Si atom -12392.427806 kJ/mol
# Density = 1.863955 g / cm^3
# Si number density = 18.682071 Si / 1000 Ang^3
#
#
#
# Elastic Constant Matrix: (Units=GPa)
#
#
# Indices 1 2 3 4 5 6 
#
# 1 57.4941 18.0056 16.3574 0.0069 -6.9640 -0.0015
# 2 18.0056 64.6755 28.8540 0.0100 -3.3535 -0.0042
# 3 16.3574 28.8540 64.3159 0.0210 -4.5962 -0.0079
# 4 0.0069 0.0100 0.0210 26.9150 0.0066 5.6904
# 5 -6.9640 -3.3535 -4.5962 0.0066 27.7407 0.0017
# 6 -0.0015 -0.0042 -0.0079 5.6904 0.0017 17.9120
#
#
#
# Elastic Compliance Matrix: (Units=1/GPa)
#
#
# Indices 1 2 3 4 5 6 
#
# 1 0.019993 -0.004022 -0.002992 -0.000002 0.004037 0.000000
# 2 -0.004022 0.020163 -0.008016 0.000000 0.000100 0.000001
# 3 -0.002992 -0.008016 0.020019 -0.000015 0.001597 0.000011
# 4 -0.000002 0.000000 -0.000015 0.039829 -0.000012 -0.012653
# 5 0.004037 0.000100 0.001597 -0.000012 0.037338 0.000001
# 6 0.000000 0.000001 0.000011 -0.012653 0.000001 0.059848
#
#
# Mechanical properties :
#
#
# Convention : Reuss Voigt Hill
#
# Bulk Modulus (GPa) = 33.20478 34.76883 33.98680
# Shear Modulus (GPa) = 21.07145 22.73144 21.90144
#
# Velocity S-wave (km/s) = 3.36206 3.49198 3.42764
# Velocity P-wave (km/s) = 5.73441 5.90845 5.82208
#
# Compressibility (1/GPa) = 0.03011615
#
# Stress axis : x y z
#
# Youngs Moduli (GPa) = 50.01787 49.59661 49.95174
#
# Poissons Ratio (x) = 0.19947 0.14945
# Poissons Ratio (y) = 0.20116 0.40039
# Poissons Ratio (z) = 0.14965 0.39755
#
# Static dielectric constant tensor:
#      x y z
#    x 3.213220 0.000000 0.411010 
#    y 0.000000 3.225490 0.000010 
#    z 0.411010 0.000010 3.739110 
# 
# 
# High freq. dielectric constant tensor:
#      x y z
#    x 1.718790 0.000000 0.010010 
#    y 0.000000 1.694160 0.000000 
#    z 0.010010 0.000000 1.728480 
# 
# From -- ./inp_files/183032.got.cif
#   From: 2010.06.25/outbox.cif.g09.slc.cpg/sg15_92_cif.got.tgz:183032.got - 2010.06.28 07:06:18.
