data_PCOD8129884
_publ_section_title
;
Structure prediction by ZEFSAII (Michael W. Deem and Ramdas Pophale) SiO2 
 PCOD8129884
Probable space group: C 2/C
;
_chemical_formula_sum "Si O2"
_cell_formula_units_Z 60
_cell_length_a 24.766390
_cell_length_b 9.417479
_cell_length_c 22.340491
_cell_angle_alpha 90.000000
_cell_angle_beta 145.157647
_cell_angle_gamma 90.000000
_cell_volume 2976.938186
_symmetry_space_group_name_H-M "C 2/C"
_symmetry_group_IT_number 15
_symmetry_cell_setting 'monoclinic'
loop_
_space_group_symop_operation_xyz
x,y,z
-x,y,1/2-z
-x,-y,-z
x,-y,1/2+z
1/2+x,1/2+y,z
1/2-x,1/2+y,1/2-z
1/2-x,1/2-y,-z
1/2+x,1/2-y,1/2+z
loop_
_atom_site_type_symbol
_atom_site_label
_atom_site_fract_x
_atom_site_fract_y
_atom_site_fract_z
Si Si1 0.003190 0.541239 0.405014
Si Si2 0.166687 0.461421 0.326846
Si Si3 0.789274 0.899399 0.337854
Si Si4 0.133993 0.562309 0.927262
Si Si5 0.834108 0.863876 0.663617
Si Si6 0.518405 0.229897 0.002814
Si Si7 0.000000 0.792277 0.750000
Si Si8 0.337088 0.638623 0.297293
O O1 0.089181 0.547544 0.434771
O O2 0.016745 0.398644 0.455138
O O3 0.904035 0.547942 0.280013
O O4 0.002516 0.676597 0.448639
O O5 0.270518 0.456134 0.389077
O O6 0.160777 0.521566 0.389632
O O7 0.133329 0.300083 0.301790
O O8 0.883422 0.810712 0.415133
O O9 0.704094 0.796903 0.241080
O O10 0.778357 0.035217 0.285970
O O11 0.058252 0.689831 0.849427
O O12 0.233251 0.623416 0.040800
O O13 0.926266 0.910383 0.710077
O O14 0.832356 0.934030 0.727448
O O15 0.442972 0.350354 0.917847
#
# Coordination Sequence:
#
# PCOD8129884 Si02
#       8
#     8   8   8   8   8   8   4   8
#     4  11  19  35  59  85 119 153 204 245 303 363
#     4  10  18  34  52  86 115 152 195 248 297 349
#     4  11  23  39  60  86 123 157 199 252 304 368
#     4  11  19  31  54  84 117 153 198 248 298 360
#     4  10  20  30  53  84 117 151 191 245 308 352
#     4  11  23  36  59  86 118 161 198 249 305 363
#     4  10  16  32  48  82 122 148 186 252 298 354
#     4  11  23  40  58  90 120 156 199 249 307 360
#
# _framework density 20.154935999999999
#
# number of rings (size 3 to 8) (size 9 to 14) (size 15 to 20)
#    0.000    1.333    5.333    4.400    3.733    1.067 
#    0.000    0.000    0.000    0.800   10.400    0.000 
#    0.000    0.000    0.000    0.000    0.000    0.000 
#
# Total GULP energy -371670.498639 kJ/mol
# GULP energy per Si atom -12389.016621 kJ/mol
# Density = 2.010906 g / cm^3
# Si number density = 20.154936 Si / 1000 Ang^3
#
#
#
# Elastic Constant Matrix: (Units=GPa)
#
#
# Indices 1 2 3 4 5 6 
#
# 1 195.2772 32.4087 62.4006 0.0000 -3.5224 0.0000
# 2 32.4087 21.5814 18.0954 0.0000 -4.7445 0.0000
# 3 62.4006 18.0954 127.3847 0.0000 1.5689 0.0000
# 4 0.0000 0.0000 0.0000 8.6384 0.0000 -4.9056
# 5 -3.5224 -4.7445 1.5689 0.0000 38.9488 0.0000
# 6 0.0000 0.0000 0.0000 -4.9056 0.0000 19.2202
#
#
#
# Elastic Compliance Matrix: (Units=1/GPa)
#
#
# Indices 1 2 3 4 5 6 
#
# 1 0.007382 -0.009238 -0.002299 0.000000 -0.000365 0.000000
# 2 -0.009238 0.065976 -0.004938 0.000000 0.007400 0.000000
# 3 -0.002299 -0.004938 0.009693 0.000000 -0.001200 0.000000
# 4 0.000000 0.000000 0.000000 0.135386 0.000000 0.034555
# 5 -0.000365 0.007400 -0.001200 0.000000 0.026592 0.000000
# 6 0.000000 0.000000 0.000000 0.034555 0.000000 0.060848
#
#
# Mechanical properties :
#
#
# Convention : Reuss Voigt Hill
#
# Bulk Modulus (GPa) = 19.95989 63.33917 41.64953
# Shear Modulus (GPa) = 14.06358 28.78406 21.42382
#
# Velocity S-wave (km/s) = 2.64441 3.78317 3.26384
# Velocity P-wave (km/s) = 4.38732 7.11179 5.90873
#
# Compressibility (1/GPa) = 0.05010047
#
# Stress axis : x y z
#
# Youngs Moduli (GPa) = 135.45847 15.15693 103.16846
#
# Poissons Ratio (x) = 0.14002 0.23723
# Poissons Ratio (y) = 1.25140 0.50943
# Poissons Ratio (z) = 0.31149 0.07484
#
# Static dielectric constant tensor:
#      x y z
#    x 4.587960 0.000000 -0.044530 
#    y 0.000000 3.078180 0.000000 
#    z -0.044530 0.000000 3.682100 
# 
# 
# High freq. dielectric constant tensor:
#      x y z
#    x 1.821580 0.000000 0.005080 
#    y 0.000000 1.714540 0.000000 
#    z 0.005080 0.000000 1.791550 
# 
# From -- ./inp_files/283410.got.cif
#   From: 2010.06.25/outbox.cif.g09.slc.cpg/sg15_142_cif.got.tgz:283410.got - 2010.06.28 07:06:18.
