data_PCOD8129761
_publ_section_title
;
Structure prediction by ZEFSAII (Michael W. Deem and Ramdas Pophale) SiO2 
 PCOD8129761
Probable space group: C 2/C
;
_chemical_formula_sum "Si O2"
_cell_formula_units_Z 52
_cell_length_a 18.870142
_cell_length_b 18.185290
_cell_length_c 9.643587
_cell_angle_alpha 90.000000
_cell_angle_beta 63.150549
_cell_angle_gamma 90.000000
_cell_volume 2952.530824
_symmetry_space_group_name_H-M "C 2/C"
_symmetry_group_IT_number 15
_symmetry_cell_setting 'monoclinic'
loop_
_space_group_symop_operation_xyz
x,y,z
-x,y,1/2-z
-x,-y,-z
x,-y,1/2+z
1/2+x,1/2+y,z
1/2-x,1/2+y,1/2-z
1/2-x,1/2-y,-z
1/2+x,1/2-y,1/2+z
loop_
_atom_site_type_symbol
_atom_site_label
_atom_site_fract_x
_atom_site_fract_y
_atom_site_fract_z
Si Si1 0.840849 0.674943 0.482256
Si Si2 0.604693 0.673545 0.850586
Si Si3 0.263114 0.774348 0.768075
Si Si4 0.990301 0.070818 0.101594
Si Si5 0.000000 0.726275 0.250000
Si Si6 0.213737 0.937887 0.088506
Si Si7 0.313834 0.579361 0.206646
O O1 0.816833 0.727212 0.633102
O O2 0.804586 0.710202 0.377228
O O3 0.802629 0.594001 0.535746
O O4 0.936372 0.673143 0.383687
O O5 0.670868 0.724737 0.870280
O O6 0.541069 0.721728 0.825339
O O7 0.648048 0.618255 0.705378
O O8 0.558883 0.629531 0.009817
O O9 0.241490 0.850016 0.709908
O O10 0.904078 0.105097 0.149513
O O11 0.000000 0.044560 0.250000
O O12 0.000000 0.000000 0.000000
O O13 0.209793 0.016039 0.165891
O O14 0.197814 0.949192 0.939647
#
# Coordination Sequence:
#
# PCOD8129761 Si02
#       7
#     8   8   8   8   4   8   8
#     4   8  15  29  48  78  98 126 172 212 242 292
#     4  10  19  32  52  77 105 131 169 211 252 295
#     4   8  16  31  50  71  99 133 171 205 244 301
#     4  12  24  34  50  78 109 135 166 206 255 307
#     4  10  16  28  58  78  98 132 168 214 258 286
#     4  10  20  32  54  75 104 130 174 210 244 304
#     4  11  20  34  53  76 102 138 166 208 255 299
#
# _framework density 17.612010000000001
#
# number of rings (size 3 to 8) (size 9 to 14) (size 15 to 20)
#    0.000    2.154    1.538    5.538    1.077    0.000 
#    0.000    0.769    3.385    8.308    0.000    0.000 
#    0.000    0.000    0.000    0.000    0.000    0.000 
#
# Total GULP energy -322261.285554 kJ/mol
# GULP energy per Si atom -12394.664829 kJ/mol
# Density = 1.757192 g / cm^3
# Si number density = 17.612010 Si / 1000 Ang^3
#
#
#
# Elastic Constant Matrix: (Units=GPa)
#
#
# Indices 1 2 3 4 5 6 
#
# 1 102.7411 59.7948 48.5057 0.0000 -25.0501 0.0000
# 2 59.7948 103.7861 52.4381 0.0000 -15.4436 0.0000
# 3 48.5057 52.4381 83.2850 0.0000 -10.4091 0.0000
# 4 0.0000 0.0000 0.0000 21.6879 0.0000 -0.8074
# 5 -25.0501 -15.4436 -10.4091 0.0000 35.2752 0.0000
# 6 0.0000 0.0000 0.0000 -0.8074 0.0000 25.0707
#
#
#
# Elastic Compliance Matrix: (Units=1/GPa)
#
#
# Indices 1 2 3 4 5 6 
#
# 1 0.018096 -0.006421 -0.005442 0.000000 0.008433 0.000000
# 2 -0.006421 0.016889 -0.006790 0.000000 0.000831 0.000000
# 3 -0.005442 -0.006790 0.019309 0.000000 -0.001140 0.000000
# 4 0.000000 0.000000 0.000000 0.046164 0.000000 0.001487
# 5 0.008433 0.000831 -0.001140 0.000000 0.034365 0.000000
# 6 0.000000 0.000000 0.000000 0.001487 0.000000 0.039935
#
#
# Mechanical properties :
#
#
# Convention : Reuss Voigt Hill
#
# Bulk Modulus (GPa) = 58.86799 67.92104 63.39452
# Shear Modulus (GPa) = 22.96452 25.01166 23.98809
#
# Velocity S-wave (km/s) = 3.61489 3.77257 3.69457
# Velocity P-wave (km/s) = 7.13588 7.59113 7.36702
#
# Compressibility (1/GPa) = 0.01698716
#
# Stress axis : x y z
#
# Youngs Moduli (GPa) = 55.26153 59.21048 51.78826
#
# Poissons Ratio (x) = 0.38019 0.28185
# Poissons Ratio (y) = 0.35483 0.35165
# Poissons Ratio (z) = 0.30075 0.40205
#
# Static dielectric constant tensor:
#      x y z
#    x 3.525190 0.000000 -0.455850 
#    y 0.000000 3.395040 0.000000 
#    z -0.455850 0.000000 3.299400 
# 
# 
# High freq. dielectric constant tensor:
#      x y z
#    x 1.672860 0.000000 -0.019110 
#    y 0.000000 1.674250 0.000000 
#    z -0.019110 0.000000 1.661410 
# 
# From -- ./inp_files/48476.got.cif
#   From: 2010.06.25/outbox.cif.g09.slc.cpg/sg15_25_cif.got.tgz:48476.got - 2010.06.28 07:06:18.
