data_PCOD8129271
_publ_section_title
;
Structure prediction by ZEFSAII (Michael W. Deem and Ramdas Pophale) SiO2 
 PCOD8129271
Probable space group: P 21/C
;
_chemical_formula_sum "Si O2"
_cell_formula_units_Z 24
_cell_length_a 11.958522
_cell_length_b 11.601744
_cell_length_c 8.795440
_cell_angle_alpha 90.000000
_cell_angle_beta 116.249326
_cell_angle_gamma 90.000000
_cell_volume 1094.439350
_symmetry_space_group_name_H-M "P 21/C"
_symmetry_group_IT_number 14
_symmetry_cell_setting 'monoclinic'
loop_
_space_group_symop_operation_xyz
x,y,z
-x,1/2+y,1/2-z
-x,-y,-z
x,1/2-y,1/2+z
loop_
_atom_site_type_symbol
_atom_site_label
_atom_site_fract_x
_atom_site_fract_y
_atom_site_fract_z
Si Si1 0.600823 0.876947 0.938881
Si Si2 0.669651 0.099857 0.137801
Si Si3 0.283512 0.188352 0.298383
Si Si4 0.953399 0.723054 0.000804
Si Si5 0.128433 0.787250 0.348013
Si Si6 0.209247 0.481035 0.001035
O O1 0.459054 0.840190 0.890215
O O2 0.619608 0.845353 0.774027
O O3 0.688141 0.811863 0.112065
O O4 0.634913 0.011463 0.981332
O O5 0.767140 0.194222 0.134893
O O6 0.716027 0.032111 0.313370
O O7 0.147510 0.194280 0.138699
O O8 0.293168 0.102134 0.446988
O O9 0.088333 0.726149 0.999691
O O10 0.906349 0.592391 0.000413
O O11 0.993651 0.776255 0.186047
O O12 0.173394 0.918612 0.360173
#
# Coordination Sequence:
#
# PCOD8129271 Si02
#       6
#     4   4   4   4   4   4
#     4  11  25  47  74 101 143 184 246 292 349 429
#     4  11  27  48  70 104 141 189 237 301 350 419
#     4  12  24  46  76 103 137 194 234 289 361 421
#     4  12  24  45  70 105 141 183 231 288 356 425
#     4  12  27  43  72 105 142 186 230 296 352 429
#     4  12  26  47  70 106 145 187 234 291 363 418
#
# _framework density 21.929036
#
# number of rings (size 3 to 8) (size 9 to 14) (size 15 to 20)
#    0.000    0.333    6.667    0.500    4.667    1.333 
#    3.000    0.000    0.000    0.000    0.000    0.000 
#    0.000    0.000    0.000    0.000    0.000    0.000 
#
# Total GULP energy -297509.892168 kJ/mol
# GULP energy per Si atom -12396.245507 kJ/mol
# Density = 2.187912 g / cm^3
# Si number density = 21.929036 Si / 1000 Ang^3
#
#
#
# Elastic Constant Matrix: (Units=GPa)
#
#
# Indices 1 2 3 4 5 6 
#
# 1 134.3627 50.9076 41.6913 0.0000 -22.6886 0.0000
# 2 50.9076 108.1453 38.3167 0.0000 -10.1249 0.0000
# 3 41.6913 38.3167 80.6051 0.0000 -5.0426 0.0000
# 4 0.0000 0.0000 0.0000 35.9645 0.0000 -7.9749
# 5 -22.6886 -10.1249 -5.0426 0.0000 40.7473 0.0000
# 6 0.0000 0.0000 0.0000 -7.9749 0.0000 39.8641
#
#
#
# Elastic Compliance Matrix: (Units=1/GPa)
#
#
# Indices 1 2 3 4 5 6 
#
# 1 0.010590 -0.003263 -0.003636 0.000000 0.004636 0.000000
# 2 -0.003263 0.012310 -0.004119 0.000000 0.000733 0.000000
# 3 -0.003636 -0.004119 0.016179 0.000000 -0.001046 0.000000
# 4 0.000000 0.000000 0.000000 0.029096 0.000000 0.005821
# 5 0.004636 0.000733 -0.001046 0.000000 0.027175 0.000000
# 6 0.000000 0.000000 0.000000 0.005821 0.000000 0.026250
#
#
# Mechanical properties :
#
#
# Convention : Reuss Voigt Hill
#
# Bulk Modulus (GPa) = 58.67003 64.99383 61.83193
# Shear Modulus (GPa) = 33.48570 36.12833 34.80702
#
# Velocity S-wave (km/s) = 3.91193 4.06336 3.98836
# Velocity P-wave (km/s) = 6.87145 7.19146 7.03328
#
# Compressibility (1/GPa) = 0.01704448
#
# Stress axis : x y z
#
# Youngs Moduli (GPa) = 94.43029 81.23175 61.80681
#
# Poissons Ratio (x) = 0.26502 0.22476
# Poissons Ratio (y) = 0.30808 0.25456
# Poissons Ratio (z) = 0.34339 0.33456
#
# Static dielectric constant tensor:
#      x y z
#    x 4.011540 0.000000 -0.131950 
#    y 0.000000 4.026580 0.000000 
#    z -0.131950 0.000000 3.972530 
# 
# 
# High freq. dielectric constant tensor:
#      x y z
#    x 1.866620 0.000000 -0.007990 
#    y 0.000000 1.859190 0.000000 
#    z -0.007990 0.000000 1.876370 
# 
# From -- ./inp_files/12354.got.cif
#   From: 2010.03.12/outbox.cif.g09.slc.cpg/sg14_7_cif.got.tgz:12354.got - 2010.03.31 13:35:05.
