data_PCOD8129598
_publ_section_title
;
Structure prediction by ZEFSAII (Michael W. Deem and Ramdas Pophale) SiO2 
 PCOD8129598
Probable space group: C 2/C
;
_chemical_formula_sum "Si O2"
_cell_formula_units_Z 30
_cell_length_a 12.000000
_cell_length_b 18.000000
_cell_length_c 21.000000
_cell_angle_alpha 90.000000
_cell_angle_beta 40.000000
_cell_angle_gamma 90.000000
_cell_volume 2915.684598
_symmetry_space_group_name_H-M "C 2/C"
_symmetry_group_IT_number 15
_symmetry_cell_setting 'monoclinic'
loop_
_space_group_symop_operation_xyz
x,y,z
-x,y,1/2-z
-x,-y,-z
x,-y,1/2+z
1/2+x,1/2+y,z
1/2-x,1/2+y,1/2-z
1/2-x,1/2-y,-z
1/2+x,1/2-y,1/2+z
loop_
_atom_site_type_symbol
_atom_site_label
_atom_site_fract_x
_atom_site_fract_y
_atom_site_fract_z
Si Si1 0.181031 0.677849 0.340130
Si Si2 0.615131 0.486201 0.106337
Si Si3 0.500000 0.597763 0.250000
Si Si4 0.154399 0.406440 0.734118
Si Si5 0.198186 0.333239 0.176253
Si Si6 0.226083 0.555692 0.772530
Si Si7 0.961833 0.926678 0.977861
Si Si8 0.078563 0.580363 0.970325
O O1 0.378458 0.646495 0.257572
O O2 0.112425 0.663722 0.298231
O O3 0.188344 0.765273 0.347776
O O4 0.055013 0.643600 0.449327
O O5 0.634118 0.542508 0.156986
O O6 0.433385 0.443700 0.184794
O O7 0.641159 0.542830 0.037387
O O8 0.764440 0.423883 0.046648
O O9 0.156400 0.473503 0.785302
O O10 0.344845 0.393222 0.619511
O O11 0.000000 0.415969 0.750000
O O12 0.162831 0.395246 0.242851
O O13 0.000000 0.306673 0.250000
O O14 0.323780 0.368281 0.066928
O O15 0.150973 0.595576 0.867995
O O16 0.000000 0.000000 0.000000
O O17 0.000000 0.500000 0.000000
#
# Coordination Sequence:
#
# PCOD8129598 Si02
#       8
#     8   8   4   8   8   8   8   8
#     4  12  26  44  65 101 141 175 225 280 342 406
#     4  11  20  39  70  97 135 166 231 287 324 387
#     4  12  18  44  64  94 134 176 210 290 326 386
#     4  11  23  43  72  99 138 180 227 280 338 404
#     4  12  28  45  68  98 141 179 224 286 345 403
#     4  11  22  42  65 101 132 176 233 274 336 401
#     4  11  24  41  69 103 132 174 231 275 337 404
#     4  12  22  36  69 104 129 176 234 273 334 401
#
# _framework density 10.289179000000001
#
# number of rings (size 3 to 8) (size 9 to 14) (size 15 to 20)
#    0.000    0.533   10.000    0.400    3.733    1.067 
#    0.000    6.000    0.000    0.000    0.000    0.000 
#    0.000    0.000    0.000    0.000    0.000    0.000 
#
# Total GULP energy -371666.682144 kJ/mol
# GULP energy per Si atom -12388.889405 kJ/mol
# Density = 1.026576 g / cm^3
# Si number density = 10.289179 Si / 1000 Ang^3
#
#
#
# Elastic Constant Matrix: (Units=GPa)
#
#
# Indices 1 2 3 4 5 6 
#
# 1 90.0170 -0.9268 33.2253 -0.0068 -0.0034 -0.0003
# 2 -0.9268 56.6019 35.1629 -0.0086 13.5576 -0.0034
# 3 33.2253 35.1629 126.5554 -0.0066 -2.4736 -0.0092
# 4 -0.0068 -0.0086 -0.0066 22.8959 0.0072 -6.7111
# 5 -0.0034 13.5576 -2.4736 0.0072 23.9461 0.0015
# 6 -0.0003 -0.0034 -0.0092 -6.7111 0.0015 25.4001
#
#
#
# Elastic Compliance Matrix: (Units=1/GPa)
#
#
# Indices 1 2 3 4 5 6 
#
# 1 0.012759 0.003509 -0.004372 0.000005 -0.002436 0.000000
# 2 0.003509 0.027047 -0.008753 0.000015 -0.016217 0.000006
# 3 -0.004372 -0.008753 0.011602 -0.000003 0.006153 0.000002
# 4 0.000005 0.000015 -0.000003 0.047342 -0.000024 0.012509
# 5 -0.002436 -0.016217 0.006153 -0.000024 0.051577 -0.000009
# 6 0.000000 0.000006 0.000002 0.012509 -0.000009 0.042675
#
#
# Mechanical properties :
#
#
# Convention : Reuss Voigt Hill
#
# Bulk Modulus (GPa) = 31.08076 45.34414 38.21245
# Shear Modulus (GPa) = 22.42565 28.16262 25.29413
#
# Velocity S-wave (km/s) = 3.30475 3.70341 3.50974
# Velocity P-wave (km/s) = 5.44961 6.35372 5.91895
#
# Compressibility (1/GPa) = 0.03217424
#
# Stress axis : x y z
#
# Youngs Moduli (GPa) = 78.37736 36.97329 86.19411
#
# Poissons Ratio (x) = -0.12972 0.37685
# Poissons Ratio (y) = -0.27499 0.75444
# Poissons Ratio (z) = 0.34267 0.32362
#
# Static dielectric constant tensor:
#      x y z
#    x 3.093050 0.000000 0.113750 
#    y 0.000000 3.677930 0.000070 
#    z 0.113750 0.000070 4.254390 
# 
# 
# High freq. dielectric constant tensor:
#      x y z
#    x 1.813040 0.000000 -0.006700 
#    y 0.000000 1.773520 0.000000 
#    z -0.006700 0.000000 1.822280 
# 
# From -- ./inp_files/239942.got.cif
#   From: 2010.06.25/outbox.ucp.g09.slc.cvg/sg15_120_cif.got.tgz:239942.got - 2010.06.28 14:40:10.
