data_PCOD8129212
_publ_section_title
;
Structure prediction by ZEFSAII (Michael W. Deem and Ramdas Pophale) SiO2 
 PCOD8129212
Probable space group: P 21/C
;
_chemical_formula_sum "Si O2"
_cell_formula_units_Z 20
_cell_length_a 8.864503
_cell_length_b 4.880222
_cell_length_c 18.749120
_cell_angle_alpha 90.000000
_cell_angle_beta 86.967743
_cell_angle_gamma 90.000000
_cell_volume 809.965241
_symmetry_space_group_name_H-M "P 21/C"
_symmetry_group_IT_number 14
_symmetry_cell_setting 'monoclinic'
loop_
_space_group_symop_operation_xyz
x,y,z
-x,1/2+y,1/2-z
-x,-y,-z
x,1/2-y,1/2+z
loop_
_atom_site_type_symbol
_atom_site_label
_atom_site_fract_x
_atom_site_fract_y
_atom_site_fract_z
Si Si1 0.424509 0.946454 0.219226
Si Si2 0.082806 0.455309 0.718387
Si Si3 0.768146 0.928144 0.552380
Si Si4 0.573850 0.434332 0.572768
Si Si5 0.958944 0.706051 0.436176
O O1 0.480393 0.637459 0.229528
O O2 0.450205 0.038958 0.137413
O O3 0.247816 0.961752 0.242656
O O4 0.082621 0.465418 0.632453
O O5 0.954852 0.653744 0.752442
O O6 0.624448 0.121324 0.565235
O O7 0.910728 0.072629 0.587507
O O8 0.718561 0.632595 0.586125
O O9 0.814303 0.880396 0.467968
O O10 0.500000 0.500000 0.500000
O O11 0.000000 0.500000 0.500000
#
# Coordination Sequence:
#
# PCOD8129212 Si02
#       5
#     4   4   4   4   4
#     4  12  29  50  74 109 153 198 248 308 377 455
#     4  12  31  49  78 110 153 202 256 309 381 454
#     4  11  25  42  77 106 143 190 246 310 370 436
#     4  12  26  46  75 105 149 192 255 302 381 435
#     4  11  26  47  78 110 153 189 259 309 379 441
#
# _framework density 24.692416999999999
#
# number of rings (size 3 to 8) (size 9 to 14) (size 15 to 20)
#    0.000    0.400    2.000    4.200   14.000    1.600 
#    0.000    0.000    0.000    0.000    0.000    0.000 
#    0.000    0.000    0.000    0.000    0.000    0.000 
#
# Total GULP energy -248055.678728 kJ/mol
# GULP energy per Si atom -12402.783936 kJ/mol
# Density = 2.463622 g / cm^3
# Si number density = 24.692417 Si / 1000 Ang^3
#
#
#
# Elastic Constant Matrix: (Units=GPa)
#
#
# Indices 1 2 3 4 5 6 
#
# 1 102.9767 14.0171 13.3805 0.0000 -12.4037 0.0000
# 2 14.0171 98.7872 13.9180 0.0000 -0.8005 0.0000
# 3 13.3805 13.9180 94.5959 0.0000 -5.8602 0.0000
# 4 0.0000 0.0000 0.0000 41.7623 0.0000 -10.8126
# 5 -12.4037 -0.8005 -5.8602 0.0000 37.4103 0.0000
# 6 0.0000 0.0000 0.0000 -10.8126 0.0000 43.8174
#
#
#
# Elastic Compliance Matrix: (Units=1/GPa)
#
#
# Indices 1 2 3 4 5 6 
#
# 1 0.010421 -0.001300 -0.001081 0.000000 0.003258 0.000000
# 2 -0.001300 0.010499 -0.001387 0.000000 -0.000424 0.000000
# 3 -0.001081 -0.001387 0.011011 0.000000 0.001337 0.000000
# 4 0.000000 0.000000 0.000000 0.025579 0.000000 0.006312
# 5 0.003258 -0.000424 0.001337 0.000000 0.028011 0.000000
# 6 0.000000 0.000000 0.000000 0.006312 0.000000 0.024380
#
#
# Mechanical properties :
#
#
# Convention : Reuss Voigt Hill
#
# Bulk Modulus (GPa) = 40.99182 42.11009 41.55096
# Shear Modulus (GPa) = 39.81882 41.60094 40.70988
#
# Velocity S-wave (km/s) = 4.02007 4.10904 4.06480
# Velocity P-wave (km/s) = 6.17940 6.29311 6.23651
#
# Compressibility (1/GPa) = 0.02439511
#
# Stress axis : x y z
#
# Youngs Moduli (GPa) = 95.96225 95.24516 90.81757
#
# Poissons Ratio (x) = 0.12381 0.09817
# Poissons Ratio (y) = 0.12474 0.12598
# Poissons Ratio (z) = 0.10373 0.13212
#
# Static dielectric constant tensor:
#      x y z
#    x 6.640130 0.000000 -0.277170 
#    y 0.000000 4.687730 0.000000 
#    z -0.277170 0.000000 4.304180 
# 
# 
# High freq. dielectric constant tensor:
#      x y z
#    x 1.984450 0.000000 -0.024090 
#    y 0.000000 1.997590 0.000000 
#    z -0.024090 0.000000 1.974850 
# 
# From -- ./inp_files/54002.got.cif
#   From: 2010.03.12/outbox.cif.g09.slc.cpg/sg14_28_cif.got.tgz:54002.got - 2010.03.31 13:35:05.
