data_PCOD8129257
_publ_section_title
;
Structure prediction by ZEFSAII (Michael W. Deem and Ramdas Pophale) SiO2 
 PCOD8129257
Probable space group: P 21/C
;
_chemical_formula_sum "Si O2"
_cell_formula_units_Z 24
_cell_length_a 25.136176
_cell_length_b 8.598923
_cell_length_c 8.248758
_cell_angle_alpha 90.000000
_cell_angle_beta 146.357771
_cell_angle_gamma 90.000000
_cell_volume 987.747055
_symmetry_space_group_name_H-M "P 21/C"
_symmetry_group_IT_number 14
_symmetry_cell_setting 'monoclinic'
loop_
_space_group_symop_operation_xyz
x,y,z
-x,1/2+y,1/2-z
-x,-y,-z
x,1/2-y,1/2+z
loop_
_atom_site_type_symbol
_atom_site_label
_atom_site_fract_x
_atom_site_fract_y
_atom_site_fract_z
Si Si1 0.239268 0.469504 0.899729
Si Si2 0.546977 0.867657 0.517562
Si Si3 0.888051 0.464907 0.896968
Si Si4 0.922892 0.151506 0.137052
Si Si5 0.420452 0.575447 0.191705
Si Si6 0.734943 0.837460 0.178067
O O1 0.142030 0.569903 0.667192
O O2 0.213528 0.330165 0.707327
O O3 0.321867 0.587401 0.044187
O O4 0.270177 0.395054 0.150202
O O5 0.464304 0.744333 0.251171
O O6 0.500000 0.000000 0.500000
O O7 0.598837 0.955139 0.501891
O O8 0.629153 0.794886 0.840508
O O9 0.874883 0.388903 0.687519
O O10 0.787176 0.533853 0.700573
O O11 0.922828 0.335728 0.112818
O O12 0.967048 0.600278 0.094393
O O13 0.500000 0.500000 0.500000
#
# Coordination Sequence:
#
# PCOD8129257 Si02
#       6
#     4   4   4   4   4   4
#     4  12  26  46  73 104 147 192 245 299 367 435
#     4  12  27  46  72 104 143 193 246 305 370 440
#     4  11  25  46  75 108 148 187 241 294 363 434
#     4  11  25  46  74 110 144 190 237 298 359 436
#     4  12  25  46  72 103 145 192 246 305 366 440
#     4  12  26  47  72 104 146 195 240 303 364 437
#
# _framework density 24.297719000000001
#
# number of rings (size 3 to 8) (size 9 to 14) (size 15 to 20)
#    0.000    0.333    1.667    7.000    2.333    5.333 
#    3.000    0.000    0.000    0.000    0.000    0.000 
#    0.000    0.000    0.000    0.000    0.000    0.000 
#
# Total GULP energy -297616.286480 kJ/mol
# GULP energy per Si atom -12400.678603 kJ/mol
# Density = 2.424242 g / cm^3
# Si number density = 24.297719 Si / 1000 Ang^3
#
#
#
# Elastic Constant Matrix: (Units=GPa)
#
#
# Indices 1 2 3 4 5 6 
#
# 1 118.6427 29.7522 21.5424 0.0000 -1.1493 0.0000
# 2 29.7522 110.7401 4.6180 0.0000 4.9788 0.0000
# 3 21.5424 4.6180 75.4257 0.0000 -5.4137 0.0000
# 4 0.0000 0.0000 0.0000 44.2005 0.0000 0.2694
# 5 -1.1493 4.9788 -5.4137 0.0000 25.9007 0.0000
# 6 0.0000 0.0000 0.0000 0.2694 0.0000 41.3641
#
#
#
# Elastic Compliance Matrix: (Units=1/GPa)
#
#
# Indices 1 2 3 4 5 6 
#
# 1 0.009512 -0.002466 -0.002539 0.000000 0.000365 0.000000
# 2 -0.002466 0.009784 -0.000038 0.000000 -0.001998 0.000000
# 3 -0.002539 -0.000038 0.014191 0.000000 0.002861 0.000000
# 4 0.000000 0.000000 0.000000 0.022625 0.000000 -0.000147
# 5 0.000365 -0.001998 0.002861 0.000000 0.039607 0.000000
# 6 0.000000 0.000000 0.000000 -0.000147 0.000000 0.024177
#
#
# Mechanical properties :
#
#
# Convention : Reuss Voigt Hill
#
# Bulk Modulus (GPa) = 42.73561 46.29262 44.51411
# Shear Modulus (GPa) = 36.28902 38.88612 37.58757
#
# Velocity S-wave (km/s) = 3.86880 4.00484 3.93741
# Velocity P-wave (km/s) = 6.13052 6.36228 6.24748
#
# Compressibility (1/GPa) = 0.02339969
#
# Stress axis : x y z
#
# Youngs Moduli (GPa) = 105.13353 102.20648 70.46699
#
# Poissons Ratio (x) = 0.25204 0.17895
# Poissons Ratio (y) = 0.25926 0.00269
# Poissons Ratio (z) = 0.26698 0.00390
#
# Static dielectric constant tensor:
#      x y z
#    x 4.065770 0.000000 -0.181910 
#    y 0.000000 13.688580 0.000000 
#    z -0.181910 0.000000 3.958630 
# 
# 
# High freq. dielectric constant tensor:
#      x y z
#    x 1.974100 0.000000 0.000820 
#    y 0.000000 1.975790 0.000000 
#    z 0.000820 0.000000 1.960260 
# 
# From -- ./inp_files/19700.got.cif
#   From: 2010.03.12/outbox.cif.g09.slc.cpg/sg14_10_cif.got.tgz:19700.got - 2010.03.31 13:35:05.
