data_PCOD8129795
_publ_section_title
;
Structure prediction by ZEFSAII (Michael W. Deem and Ramdas Pophale) SiO2 
 PCOD8129795
Probable space group: C 2/C
;
_chemical_formula_sum "Si O2"
_cell_formula_units_Z 60
_cell_length_a 19.512085
_cell_length_b 8.297258
_cell_length_c 23.007591
_cell_angle_alpha 90.000000
_cell_angle_beta 63.928014
_cell_angle_gamma 90.000000
_cell_volume 3345.823722
_symmetry_space_group_name_H-M "C 2/C"
_symmetry_group_IT_number 15
_symmetry_cell_setting 'monoclinic'
loop_
_space_group_symop_operation_xyz
x,y,z
-x,y,1/2-z
-x,-y,-z
x,-y,1/2+z
1/2+x,1/2+y,z
1/2-x,1/2+y,1/2-z
1/2-x,1/2-y,-z
1/2+x,1/2-y,1/2+z
loop_
_atom_site_type_symbol
_atom_site_label
_atom_site_fract_x
_atom_site_fract_y
_atom_site_fract_z
Si Si1 0.445625 0.593380 0.441951
Si Si2 0.404916 0.374263 0.363280
Si Si3 0.500000 0.607281 0.250000
Si Si4 0.458422 0.832730 0.661984
Si Si5 0.673882 0.313229 0.219419
Si Si6 0.554791 0.207992 0.829709
Si Si7 0.410250 0.623449 0.581607
Si Si8 0.807655 0.078128 0.194805
O O1 0.386244 0.474370 0.429629
O O2 0.476740 0.744983 0.393101
O O3 0.402390 0.656502 0.515714
O O4 0.521146 0.496504 0.430475
O O5 0.459326 0.499323 0.311834
O O6 0.452399 0.211847 0.361163
O O7 0.332318 0.338485 0.348656
O O8 0.442384 0.721587 0.236443
O O9 0.410764 0.728353 0.726480
O O10 0.429284 0.789379 0.607930
O O11 0.442715 0.018150 0.676611
O O12 0.727108 0.160142 0.211589
O O13 0.699877 0.478646 0.241651
O O14 0.631507 0.276591 0.829815
O O15 0.331068 0.548501 0.635504
#
# Coordination Sequence:
#
# PCOD8129795 Si02
#       8
#     8   8   4   8   8   8   8   8
#     4   8  16  31  52  70  95 132 170 199 251 285
#     4  10  17  32  50  71  98 131 160 207 250 292
#     4  10  16  30  48  66 104 122 156 204 252 292
#     4  10  19  29  50  76 102 126 162 208 253 287
#     4  11  19  33  47  70 100 134 160 205 249 304
#     4  10  19  29  47  79  97 126 163 204 248 299
#     4   8  16  33  50  69  98 134 165 205 240 296
#     4  10  20  33  49  70 102 132 167 195 252 298
#
# _framework density 17.932804000000001
#
# number of rings (size 3 to 8) (size 9 to 14) (size 15 to 20)
#    0.000    2.400    2.667    2.400    1.867    0.533 
#    0.000    0.667    0.000    0.000    0.000    9.333 
#    0.000    0.000    0.000    0.000    0.000    0.000 
#
# Total GULP energy -371729.793706 kJ/mol
# GULP energy per Si atom -12390.993124 kJ/mol
# Density = 1.789199 g / cm^3
# Si number density = 17.932804 Si / 1000 Ang^3
#
#
#
# Elastic Constant Matrix: (Units=GPa)
#
#
# Indices 1 2 3 4 5 6 
#
# 1 72.2054 24.0249 21.3608 -0.0001 14.2582 -0.0004
# 2 24.0249 82.7420 4.2750 0.0000 6.7880 -0.0004
# 3 21.3608 4.2750 62.2238 0.0000 17.9333 0.0000
# 4 -0.0001 0.0000 0.0000 12.4614 0.0000 2.5268
# 5 14.2582 6.7880 17.9333 0.0000 20.6512 -0.0001
# 6 -0.0004 -0.0004 0.0000 2.5268 -0.0001 26.6968
#
#
#
# Elastic Compliance Matrix: (Units=1/GPa)
#
#
# Indices 1 2 3 4 5 6 
#
# 1 0.017910 -0.004374 -0.003599 0.000000 -0.007802 0.000000
# 2 -0.004374 0.013498 0.001311 0.000000 -0.002555 0.000000
# 3 -0.003599 0.001311 0.022174 0.000000 -0.017202 0.000000
# 4 0.000000 0.000000 0.000000 0.081818 0.000000 -0.007744
# 5 -0.007802 -0.002555 -0.017202 0.000000 0.069588 0.000000
# 6 0.000000 0.000000 0.000000 -0.007744 0.000000 0.038191
#
#
# Mechanical properties :
#
#
# Convention : Reuss Voigt Hill
#
# Bulk Modulus (GPa) = 24.84080 35.16583 30.00332
# Shear Modulus (GPa) = 18.52374 23.12924 20.82649
#
# Velocity S-wave (km/s) = 3.21745 3.59524 3.41157
# Velocity P-wave (km/s) = 5.26164 6.07344 5.68205
#
# Compressibility (1/GPa) = 0.04025635
#
# Stress axis : x y z
#
# Youngs Moduli (GPa) = 55.83362 74.08632 45.09754
#
# Poissons Ratio (x) = 0.32408 0.16231
# Poissons Ratio (y) = 0.24424 -0.05910
# Poissons Ratio (z) = 0.20096 -0.09710
#
# Static dielectric constant tensor:
#      x y z
#    x 3.258960 0.000000 0.447420 
#    y 0.000000 3.193110 0.000000 
#    z 0.447420 0.000000 3.705310 
# 
# 
# High freq. dielectric constant tensor:
#      x y z
#    x 1.666820 0.000000 0.025300 
#    y 0.000000 1.690490 0.000000 
#    z 0.025300 0.000000 1.675920 
# 
# From -- ./inp_files/247402.got.cif
#   From: 2010.06.25/outbox.cif.g09.slc.cpg/sg15_124_cif.got.tgz:247402.got - 2010.06.28 07:06:18.
