data_PCOD8129762
_publ_section_title
;
Structure prediction by ZEFSAII (Michael W. Deem and Ramdas Pophale) SiO2 
 PCOD8129762
Probable space group: C 2/C
;
_chemical_formula_sum "Si O2"
_cell_formula_units_Z 44
_cell_length_a 26.258100
_cell_length_b 16.332639
_cell_length_c 14.227715
_cell_angle_alpha 90.000000
_cell_angle_beta 21.517938
_cell_angle_gamma 90.000000
_cell_volume 2238.078248
_symmetry_space_group_name_H-M "C 2/C"
_symmetry_group_IT_number 15
_symmetry_cell_setting 'monoclinic'
loop_
_space_group_symop_operation_xyz
x,y,z
-x,y,1/2-z
-x,-y,-z
x,-y,1/2+z
1/2+x,1/2+y,z
1/2-x,1/2+y,1/2-z
1/2-x,1/2-y,-z
1/2+x,1/2-y,1/2+z
loop_
_atom_site_type_symbol
_atom_site_label
_atom_site_fract_x
_atom_site_fract_y
_atom_site_fract_z
Si Si1 0.135188 0.685734 0.232758
Si Si2 0.869988 0.238827 0.113337
Si Si3 0.930828 0.122448 0.164651
Si Si4 0.085789 0.757327 0.518910
Si Si5 0.500000 0.384749 0.250000
Si Si6 0.837767 0.951664 0.366124
O O1 0.105547 0.699158 0.394331
O O2 0.995563 0.696838 0.411415
O O3 0.250000 0.750000 0.000000
O O4 0.188541 0.593573 0.121301
O O5 0.844955 0.191253 0.254980
O O6 0.733312 0.284971 0.310993
O O7 0.903274 0.171169 0.979259
O O8 0.997437 0.161698 0.143762
O O9 0.824246 0.048472 0.369178
O O10 0.062621 0.091990 0.879287
O O11 0.000000 0.711737 0.750000
O O12 0.401142 0.443400 0.360566
#
# Coordination Sequence:
#
# PCOD8129762 Si02
#       6
#     8   8   8   8   4   8
#     4  11  18  35  59  89 119 157 206 255 304 363
#     4  10  19  34  58  88 118 154 209 253 292 359
#     4   9  21  34  54  87 125 154 193 252 306 360
#     4  11  22  36  57  88 118 163 213 251 297 368
#     4  10  16  28  62  84 108 154 196 250 290 356
#     4  10  18  34  55  87 123 152 195 248 311 361
#
# _framework density 19.659725000000002
#
# number of rings (size 3 to 8) (size 9 to 14) (size 15 to 20)
#    0.000    1.818    7.273    0.000    1.273    2.909 
#    0.000    0.000    0.000   10.909    0.000    0.000 
#    0.000    0.000    0.000    0.000    0.000    0.000 
#
# Total GULP energy -272655.485437 kJ/mol
# GULP energy per Si atom -12393.431156 kJ/mol
# Density = 1.961498 g / cm^3
# Si number density = 19.659725 Si / 1000 Ang^3
#
#
#
# Elastic Constant Matrix: (Units=GPa)
#
#
# Indices 1 2 3 4 5 6 
#
# 1 102.5395 25.7000 36.9071 0.0000 1.9320 0.0000
# 2 25.7000 91.2738 25.5312 -0.0001 3.9229 0.0001
# 3 36.9071 25.5312 70.4784 -0.0003 7.3400 0.0001
# 4 0.0000 -0.0001 -0.0003 29.8652 0.0001 3.4455
# 5 1.9320 3.9229 7.3400 0.0001 31.4340 0.0000
# 6 0.0000 0.0001 0.0001 3.4455 0.0000 18.2633
#
#
#
# Elastic Compliance Matrix: (Units=1/GPa)
#
#
# Indices 1 2 3 4 5 6 
#
# 1 0.012313 -0.001864 -0.005861 0.000000 0.000844 0.000000
# 2 -0.001864 0.012481 -0.003480 0.000000 -0.000631 0.000000
# 3 -0.005861 -0.003480 0.018895 0.000000 -0.003618 0.000000
# 4 0.000000 0.000000 0.000000 0.034229 0.000000 -0.006458
# 5 0.000844 -0.000631 -0.003618 0.000000 0.032684 0.000000
# 6 0.000000 0.000000 0.000000 -0.006458 0.000000 0.055973
#
#
# Mechanical properties :
#
#
# Convention : Reuss Voigt Hill
#
# Bulk Modulus (GPa) = 46.99047 48.95205 47.97126
# Shear Modulus (GPa) = 25.50013 27.65605 26.57809
#
# Velocity S-wave (km/s) = 3.60540 3.75472 3.68082
# Velocity P-wave (km/s) = 6.42539 6.61445 6.52060
#
# Compressibility (1/GPa) = 0.02128091
#
# Stress axis : x y z
#
# Youngs Moduli (GPa) = 81.21488 80.11972 52.92388
#
# Poissons Ratio (x) = 0.14934 0.31017
# Poissons Ratio (y) = 0.15138 0.18416
# Poissons Ratio (z) = 0.47597 0.27879
#
# Static dielectric constant tensor:
#      x y z
#    x 0.803240 0.000000 4.489080 
#    y 0.000000 3.451450 -0.000010 
#    z 4.489080 -0.000010 -2.633050 
# 
# 
# High freq. dielectric constant tensor:
#      x y z
#    x 1.785230 0.000000 0.007370 
#    y 0.000000 1.727430 0.000000 
#    z 0.007370 0.000000 1.750270 
# 
# From -- ./inp_files/134286.got.cif
#   From: 2010.06.25/outbox.cif.g09.slc.cpg/sg15_68_cif.got.tgz:134286.got - 2010.06.28 07:06:18.
