data_PCOD8129304
_publ_section_title
;
Structure prediction by ZEFSAII (Michael W. Deem and Ramdas Pophale) SiO2 
 PCOD8129304
Probable space group: P 21/C
;
_chemical_formula_sum "Si O2"
_cell_formula_units_Z 24
_cell_length_a 12.486777
_cell_length_b 9.083090
_cell_length_c 11.084612
_cell_angle_alpha 90.000000
_cell_angle_beta 117.134297
_cell_angle_gamma 90.000000
_cell_volume 1118.832764
_symmetry_space_group_name_H-M "P 21/C"
_symmetry_group_IT_number 14
_symmetry_cell_setting 'monoclinic'
loop_
_space_group_symop_operation_xyz
x,y,z
-x,1/2+y,1/2-z
-x,-y,-z
x,1/2-y,1/2+z
loop_
_atom_site_type_symbol
_atom_site_label
_atom_site_fract_x
_atom_site_fract_y
_atom_site_fract_z
Si Si1 0.620179 0.465594 0.406957
Si Si2 0.893063 0.509263 0.165742
Si Si3 0.997679 0.787624 0.100794
Si Si4 0.772209 0.304496 0.913387
Si Si5 0.227173 0.162777 0.177948
Si Si6 0.654221 0.537759 0.695532
O O1 0.680928 0.306556 0.429838
O O2 0.662784 0.572542 0.322047
O O3 0.652405 0.541063 0.550279
O O4 0.478450 0.442551 0.318694
O O5 0.977287 0.623006 0.137891
O O6 0.803996 0.593586 0.209394
O O7 0.983232 0.396639 0.277317
O O8 0.808536 0.424806 0.029737
O O9 0.114225 0.788716 0.075322
O O10 0.887017 0.849362 0.967967
O O11 0.708607 0.383233 0.767795
O O12 0.262558 0.331489 0.213505
#
# Coordination Sequence:
#
# PCOD8129304 Si02
#       6
#     4   4   4   4   4   4
#     4  11  26  47  72 100 138 185 233 285 337 404
#     4  12  26  42  71 102 137 182 220 286 352 412
#     4  12  26  44  70 104 142 176 226 284 348 414
#     4  12  25  47  69 104 139 180 232 282 347 410
#     4  12  25  47  69 104 139 180 232 282 347 410
#     4  11  26  47  72 100 138 185 233 285 337 404
#
# _framework density 21.450925999999999
#
# number of rings (size 3 to 8) (size 9 to 14) (size 15 to 20)
#    0.000    0.333    3.333    5.000    7.000    0.000 
#    0.000    1.667    0.000    0.000    0.000    0.000 
#    0.000    0.000    0.000    0.000    0.000    0.000 
#
# Total GULP energy -297870.625291 kJ/mol
# GULP energy per Si atom -12411.276054 kJ/mol
# Density = 2.140210 g / cm^3
# Si number density = 21.450926 Si / 1000 Ang^3
#
#
#
# Elastic Constant Matrix: (Units=GPa)
#
#
# Indices 1 2 3 4 5 6 
#
# 1 87.8894 10.6240 11.4542 0.0000 0.9093 0.0000
# 2 10.6240 81.6074 2.0380 0.0000 1.6840 0.0000
# 3 11.4542 2.0380 66.3116 0.0000 3.1298 0.0000
# 4 0.0000 0.0000 0.0000 41.8002 0.0000 -8.4318
# 5 0.9093 1.6840 3.1298 0.0000 27.8143 0.0000
# 6 0.0000 0.0000 0.0000 -8.4318 0.0000 37.1990
#
#
#
# Elastic Compliance Matrix: (Units=1/GPa)
#
#
# Indices 1 2 3 4 5 6 
#
# 1 0.011818 -0.001487 -0.001992 0.000000 -0.000072 0.000000
# 2 -0.001487 0.012464 -0.000093 0.000000 -0.000696 0.000000
# 3 -0.001992 -0.000093 0.015506 0.000000 -0.001674 0.000000
# 4 0.000000 0.000000 0.000000 0.025070 0.000000 0.005682
# 5 -0.000072 -0.000696 -0.001674 0.000000 0.036186 0.000000
# 6 0.000000 0.000000 0.000000 0.005682 0.000000 0.028170
#
#
# Mechanical properties :
#
#
# Convention : Reuss Voigt Hill
#
# Bulk Modulus (GPa) = 30.63467 31.56009 31.09738
# Shear Modulus (GPa) = 33.95799 35.47553 34.71676
#
# Velocity S-wave (km/s) = 3.98308 4.07111 4.02733
# Velocity P-wave (km/s) = 5.95529 6.06986 6.01285
#
# Compressibility (1/GPa) = 0.03264276
#
# Stress axis : x y z
#
# Youngs Moduli (GPa) = 84.61594 80.23046 64.48979
#
# Poissons Ratio (x) = 0.11933 0.12848
# Poissons Ratio (y) = 0.12585 0.00602
# Poissons Ratio (z) = 0.16858 0.00749
#
# Static dielectric constant tensor:
#      x y z
#    x 3.920360 0.000000 -0.071830 
#    y 0.000000 3.915020 0.000000 
#    z -0.071830 0.000000 3.903170 
# 
# 
# High freq. dielectric constant tensor:
#      x y z
#    x 1.851420 0.000000 -0.004590 
#    y 0.000000 1.858410 0.000000 
#    z -0.004590 0.000000 1.848670 
# 
# From -- ./inp_files/28172.got.cif
#   From: 2010.03.12/outbox.cif.g09.slc.cpg/sg14_15_cif.got.tgz:28172.got - 2010.03.31 13:35:05.
