data_PCOD8129821
_publ_section_title
;
Structure prediction by ZEFSAII (Michael W. Deem and Ramdas Pophale) SiO2 
 PCOD8129821
Probable space group: C 2/C
;
_chemical_formula_sum "Si O2"
_cell_formula_units_Z 60
_cell_length_a 15.128768
_cell_length_b 12.003195
_cell_length_c 18.321359
_cell_angle_alpha 90.000000
_cell_angle_beta 92.764205
_cell_angle_gamma 90.000000
_cell_volume 3323.169524
_symmetry_space_group_name_H-M "C 2/C"
_symmetry_group_IT_number 15
_symmetry_cell_setting 'monoclinic'
loop_
_space_group_symop_operation_xyz
x,y,z
-x,y,1/2-z
-x,-y,-z
x,-y,1/2+z
1/2+x,1/2+y,z
1/2-x,1/2+y,1/2-z
1/2-x,1/2-y,-z
1/2+x,1/2-y,1/2+z
loop_
_atom_site_type_symbol
_atom_site_label
_atom_site_fract_x
_atom_site_fract_y
_atom_site_fract_z
Si Si1 0.849191 0.389075 0.182402
Si Si2 0.828076 0.994418 0.143180
Si Si3 0.308694 0.451274 0.813116
Si Si4 0.516622 0.564862 0.669132
Si Si5 0.234196 0.212997 0.417863
Si Si6 0.500000 0.023959 0.250000
Si Si7 0.244543 0.288465 0.192739
Si Si8 0.110642 0.717915 0.187917
O O1 0.773262 0.477815 0.160996
O O2 0.841365 0.292082 0.121245
O O3 0.945577 0.447789 0.189839
O O4 0.834392 0.335542 0.261053
O O5 0.814799 0.043578 0.224946
O O6 0.798166 0.085618 0.083718
O O7 0.770136 0.880770 0.132977
O O8 0.928393 0.967257 0.122348
O O9 0.396722 0.498690 0.855722
O O10 0.291357 0.326563 0.841782
O O11 0.500000 0.523794 0.750000
O O12 0.530820 0.698056 0.666374
O O13 0.250000 0.250000 0.500000
O O14 0.326995 0.212124 0.379431
O O15 0.569957 0.098246 0.207102
O O16 0.334096 0.269972 0.243054
#
# Coordination Sequence:
#
# PCOD8129821 Si02
#       8
#     8   8   8   8   8   4   8   8
#     4  10  20  31  51  84 110 140 178 222 281 325
#     4  10  18  31  51  82 103 138 181 224 269 319
#     4  10  16  30  52  81 116 131 165 231 289 324
#     4  10  17  27  52  84 111 129 166 223 283 327
#     4  11  23  41  56  70 111 164 191 204 257 348
#     4  12  20  30  58  94 114 126 174 250 292 318
#     4  10  16  31  51  79 113 137 169 224 286 328
#     4  11  17  33  55  85 110 145 173 217 288 332
#
# _framework density 18.055052
#
# number of rings (size 3 to 8) (size 9 to 14) (size 15 to 20)
#    0.000    1.600   10.000    0.800    0.000    1.067 
#    0.000    1.333    0.000    0.800    0.000    0.000 
#    0.000    0.000    0.000    0.000    0.000    0.000 
#
# Total GULP energy -371848.675960 kJ/mol
# GULP energy per Si atom -12394.955865 kJ/mol
# Density = 1.801396 g / cm^3
# Si number density = 18.055052 Si / 1000 Ang^3
#
#
#
# Elastic Constant Matrix: (Units=GPa)
#
#
# Indices 1 2 3 4 5 6 
#
# 1 79.9515 36.1818 18.5815 0.0000 1.0366 0.0000
# 2 36.1818 126.1995 14.1632 0.0000 3.9362 0.0000
# 3 18.5815 14.1632 34.3762 0.0000 0.2972 0.0000
# 4 0.0000 0.0000 0.0000 12.9419 0.0000 1.2693
# 5 1.0366 3.9362 0.2972 0.0000 8.8127 0.0000
# 6 0.0000 0.0000 0.0000 1.2693 0.0000 41.9459
#
#
#
# Elastic Compliance Matrix: (Units=1/GPa)
#
#
# Indices 1 2 3 4 5 6 
#
# 1 0.015836 -0.003755 -0.007013 0.000000 0.000051 0.000000
# 2 -0.003755 0.009314 -0.001776 0.000000 -0.003658 0.000000
# 3 -0.007013 -0.001776 0.033608 0.000000 0.000485 0.000000
# 4 0.000000 0.000000 0.000000 0.077498 0.000000 -0.002345
# 5 0.000051 -0.003658 0.000485 0.000000 0.115084 0.000000
# 6 0.000000 0.000000 0.000000 -0.002345 0.000000 0.023911
#
#
# Mechanical properties :
#
#
# Convention : Reuss Voigt Hill
#
# Bulk Modulus (GPa) = 29.70021 42.04224 35.87122
# Shear Modulus (GPa) = 16.04808 24.18017 20.11412
#
# Velocity S-wave (km/s) = 2.98458 3.66354 3.34135
# Velocity P-wave (km/s) = 5.32564 6.42118 5.89890
#
# Compressibility (1/GPa) = 0.03366980
#
# Stress axis : x y z
#
# Youngs Moduli (GPa) = 63.14692 107.36638 29.75443
#
# Poissons Ratio (x) = 0.40313 0.20868
# Poissons Ratio (y) = 0.23710 0.05285
# Poissons Ratio (z) = 0.44287 0.19070
#
# Static dielectric constant tensor:
#      x y z
#    x 3.537060 0.000000 -0.058950 
#    y 0.000000 3.659160 0.000000 
#    z -0.058950 0.000000 2.616270 
# 
# 
# High freq. dielectric constant tensor:
#      x y z
#    x 1.706180 0.000000 -0.008780 
#    y 0.000000 1.721240 0.000000 
#    z -0.008780 0.000000 1.611300 
# 
# From -- ./inp_files/204061.got.cif
#   From: 2010.06.25/outbox.cif.g09.slc.cpg/sg15_103_cif.got.tgz:204061.got - 2010.06.28 07:06:18.
