data_PCOD8129948
_publ_section_title
;
Structure prediction by ZEFSAII (Michael W. Deem and Ramdas Pophale) SiO2 
 PCOD8129948
Probable space group: C 2/C
;
_chemical_formula_sum "Si O2"
_cell_formula_units_Z 44
_cell_length_a 27.342187
_cell_length_b 18.045580
_cell_length_c 8.485063
_cell_angle_alpha 90.000000
_cell_angle_beta 143.845207
_cell_angle_gamma 90.000000
_cell_volume 2469.950208
_symmetry_space_group_name_H-M "C 2/C"
_symmetry_group_IT_number 15
_symmetry_cell_setting 'monoclinic'
loop_
_space_group_symop_operation_xyz
x,y,z
-x,y,1/2-z
-x,-y,-z
x,-y,1/2+z
1/2+x,1/2+y,z
1/2-x,1/2+y,1/2-z
1/2-x,1/2-y,-z
1/2+x,1/2-y,1/2+z
loop_
_atom_site_type_symbol
_atom_site_label
_atom_site_fract_x
_atom_site_fract_y
_atom_site_fract_z
Si Si1 0.141648 0.962474 0.766054
Si Si2 0.752729 0.662750 0.998902
Si Si3 0.000000 0.513466 0.250000
Si Si4 0.617064 0.945073 0.796983
Si Si5 0.086469 0.903633 0.932498
Si Si6 0.250798 0.937318 0.774098
O O1 0.089231 0.911125 0.748770
O O2 0.193539 0.914348 0.773869
O O3 0.082892 0.017213 0.513529
O O4 0.206642 0.005926 0.042118
O O5 0.663992 0.641151 0.698649
O O6 0.750000 0.750000 0.000000
O O7 0.823767 0.626750 0.071758
O O8 0.769617 0.635790 0.221755
O O9 0.945065 0.567368 0.217941
O O10 0.061044 0.457596 0.498668
O O11 0.667777 0.021421 0.951760
O O12 0.000000 0.862515 0.750000
#
# Coordination Sequence:
#
# PCOD8129948 Si02
#       6
#     8   8   4   8   8   8
#     4   9  16  29  56  83 100 138 183 228 277 325
#     4  11  23  38  57  81 119 158 185 233 303 351
#     4  10  22  30  62  96 104 146 202 256 272 330
#     4  11  18  37  58  87 114 143 200 238 293 336
#     4  10  19  33  54  84 110 139 185 233 279 338
#     4  10  16  33  60  79 108 147 188 231 275 347
#
# _framework density 17.814124
#
# number of rings (size 3 to 8) (size 9 to 14) (size 15 to 20)
#    0.000    1.818    7.273    0.545    0.000    0.000 
#    1.636    0.909    4.000    0.000    0.000    0.000 
#    0.000    0.000    0.000    0.000    0.000    0.000 
#
# Total GULP energy -272631.363669 kJ/mol
# GULP energy per Si atom -12392.334712 kJ/mol
# Density = 1.777358 g / cm^3
# Si number density = 17.814124 Si / 1000 Ang^3
#
#
#
# Elastic Constant Matrix: (Units=GPa)
#
#
# Indices 1 2 3 4 5 6 
#
# 1 155.6383 59.4694 54.4227 0.0000 0.5191 0.0000
# 2 59.4694 97.4280 27.5136 0.0000 7.9598 0.0000
# 3 54.4227 27.5136 86.1381 0.0000 12.3084 0.0000
# 4 0.0000 0.0000 0.0000 6.6171 0.0000 -2.4142
# 5 0.5191 7.9598 12.3084 0.0000 33.9050 0.0000
# 6 0.0000 0.0000 0.0000 -2.4142 0.0000 16.0002
#
#
#
# Elastic Compliance Matrix: (Units=1/GPa)
#
#
# Indices 1 2 3 4 5 6 
#
# 1 0.010138 -0.004946 -0.005241 0.000000 0.002908 0.000000
# 2 -0.004946 0.013759 -0.000864 0.000000 -0.002841 0.000000
# 3 -0.005241 -0.000864 0.015985 0.000000 -0.005520 0.000000
# 4 0.000000 0.000000 0.000000 0.159927 0.000000 0.024130
# 5 0.002908 -0.002841 -0.005520 0.000000 0.032120 0.000000
# 6 0.000000 0.000000 0.000000 0.024130 0.000000 0.066140
#
#
# Mechanical properties :
#
#
# Convention : Reuss Voigt Hill
#
# Bulk Modulus (GPa) = 56.24172 69.11288 62.67730
# Shear Modulus (GPa) = 15.33280 24.49105 19.91192
#
# Velocity S-wave (km/s) = 2.93697 3.71187 3.34692
# Velocity P-wave (km/s) = 6.56818 7.56647 7.08493
#
# Compressibility (1/GPa) = 0.01778040
#
# Stress axis : x y z
#
# Youngs Moduli (GPa) = 98.64031 72.68034 62.55712
#
# Poissons Ratio (x) = 0.35945 0.32787
# Poissons Ratio (y) = 0.48784 0.05406
# Poissons Ratio (z) = 0.51698 0.06281
#
# Static dielectric constant tensor:
#      x y z
#    x 4.090130 0.000000 -0.225040 
#    y 0.000000 2.848630 0.000000 
#    z -0.225040 0.000000 3.497700 
# 
# 
# High freq. dielectric constant tensor:
#      x y z
#    x 1.714360 0.000000 -0.001140 
#    y 0.000000 1.615370 0.000000 
#    z -0.001140 0.000000 1.703730 
# 
# From -- ./inp_files/47909.got.cif
#   From: 2010.06.25/outbox.cif.g09.slc.cpg/sg15_24_cif.got.tgz:47909.got - 2010.06.28 07:06:18.
