data_PCOD8129223
_publ_section_title
;
Structure prediction by ZEFSAII (Michael W. Deem and Ramdas Pophale) SiO2 
 PCOD8129223
Probable space group: P 21/C
;
_chemical_formula_sum "Si O2"
_cell_formula_units_Z 20
_cell_length_a 10.866123
_cell_length_b 7.326619
_cell_length_c 22.872342
_cell_angle_alpha 90.000000
_cell_angle_beta 155.301889
_cell_angle_gamma 90.000000
_cell_volume 760.844457
_symmetry_space_group_name_H-M "P 21/C"
_symmetry_group_IT_number 14
_symmetry_cell_setting 'monoclinic'
loop_
_space_group_symop_operation_xyz
x,y,z
-x,1/2+y,1/2-z
-x,-y,-z
x,1/2-y,1/2+z
loop_
_atom_site_type_symbol
_atom_site_label
_atom_site_fract_x
_atom_site_fract_y
_atom_site_fract_z
Si Si1 0.744982 0.178107 0.444434
Si Si2 0.668651 0.931394 0.957119
Si Si3 0.263519 0.069792 0.318105
Si Si4 0.356605 0.710913 0.427254
Si Si5 0.162696 0.854677 0.648764
O O1 0.795377 0.373089 0.495428
O O2 0.440322 0.083093 0.333325
O O3 0.730827 0.206334 0.369037
O O4 0.018244 0.054742 0.583273
O O5 0.509605 0.946424 0.952641
O O6 0.444375 0.860898 0.811470
O O7 0.935582 0.789687 0.078020
O O8 0.417353 0.203951 0.430094
O O9 0.930656 0.135025 0.163482
O O10 0.260534 0.863611 0.338955
#
# Coordination Sequence:
#
# PCOD8129223 Si02
#       5
#     4   4   4   4   4
#     4  11  27  46  73 107 147 199 243 306 367 440
#     4  12  26  48  77 109 148 194 247 308 371 438
#     4  11  25  44  69 102 150 180 248 294 364 438
#     4  11  25  44  70 107 139 194 234 304 362 436
#     4  11  28  48  74 111 149 193 250 305 372 442
#
# _framework density 26.286584000000001
#
# number of rings (size 3 to 8) (size 9 to 14) (size 15 to 20)
#    0.000    0.800    2.000    3.000   11.200    6.400 
#    0.000    0.000    0.000    0.000    0.000    0.000 
#    0.000    0.000    0.000    0.000    0.000    0.000 
#
# Total GULP energy -248221.740787 kJ/mol
# GULP energy per Si atom -12411.087039 kJ/mol
# Density = 2.622675 g / cm^3
# Si number density = 26.286584 Si / 1000 Ang^3
#
#
#
# Elastic Constant Matrix: (Units=GPa)
#
#
# Indices 1 2 3 4 5 6 
#
# 1 154.6151 11.0770 9.6285 0.0000 23.9854 0.0000
# 2 11.0770 93.7590 31.9186 0.0000 15.9292 0.0000
# 3 9.6285 31.9186 109.4745 0.0000 4.2018 0.0000
# 4 0.0000 0.0000 0.0000 29.4780 0.0000 9.8965
# 5 23.9854 15.9292 4.2018 0.0000 35.2164 0.0000
# 6 0.0000 0.0000 0.0000 9.8965 0.0000 44.4171
#
#
#
# Elastic Compliance Matrix: (Units=1/GPa)
#
#
# Indices 1 2 3 4 5 6 
#
# 1 0.007256 0.000152 -0.000492 0.000000 -0.004952 0.000000
# 2 0.000152 0.012777 -0.003529 0.000000 -0.005462 0.000000
# 3 -0.000492 -0.003529 0.010179 0.000000 0.000717 0.000000
# 4 0.000000 0.000000 0.000000 0.036666 0.000000 -0.008170
# 5 -0.004952 -0.005462 0.000717 0.000000 0.034153 0.000000
# 6 0.000000 0.000000 0.000000 -0.008170 0.000000 0.024334
#
#
# Mechanical properties :
#
#
# Convention : Reuss Voigt Hill
#
# Bulk Modulus (GPa) = 44.49882 51.45521 47.97701
# Shear Modulus (GPa) = 35.56299 42.17061 38.86680
#
# Velocity S-wave (km/s) = 3.68216 4.00967 3.84940
# Velocity P-wave (km/s) = 5.91970 6.40733 6.16833
#
# Compressibility (1/GPa) = 0.02247250
#
# Stress axis : x y z
#
# Youngs Moduli (GPa) = 137.82462 78.26560 98.23908
#
# Poissons Ratio (x) = -0.01187 0.04836
# Poissons Ratio (y) = -0.02090 0.34669
# Poissons Ratio (z) = 0.06785 0.27620
#
# Static dielectric constant tensor:
#      x y z
#    x 5.207130 0.000000 0.127390 
#    y 0.000000 5.151460 0.000000 
#    z 0.127390 0.000000 4.629070 
# 
# 
# High freq. dielectric constant tensor:
#      x y z
#    x 2.074790 0.000000 -0.005320 
#    y 0.000000 2.081860 0.000000 
#    z -0.005320 0.000000 2.061670 
# 
# From -- ./inp_files/77177.got.cif
#   From: 2010.03.12/outbox.cif.g09.slc.cpg/sg14_39_cif.got.tgz:77177.got - 2010.03.31 13:35:05.
