data_PCOD8129551
_publ_section_title
;
Structure prediction by ZEFSAII (Michael W. Deem and Ramdas Pophale) SiO2 
 PCOD8129551
Probable space group: C 2/C
;
_chemical_formula_sum "Si O2"
_cell_formula_units_Z 32
_cell_length_a 24.000000
_cell_length_b 18.000000
_cell_length_c 27.000000
_cell_angle_alpha 90.000000
_cell_angle_beta 20.000000
_cell_angle_gamma 90.000000
_cell_volume 3989.322952
_symmetry_space_group_name_H-M "C 2/C"
_symmetry_group_IT_number 15
_symmetry_cell_setting 'monoclinic'
loop_
_space_group_symop_operation_xyz
x,y,z
-x,y,1/2-z
-x,-y,-z
x,-y,1/2+z
1/2+x,1/2+y,z
1/2-x,1/2+y,1/2-z
1/2-x,1/2-y,-z
1/2+x,1/2-y,1/2+z
loop_
_atom_site_type_symbol
_atom_site_label
_atom_site_fract_x
_atom_site_fract_y
_atom_site_fract_z
Si Si1 0.196113 0.398432 0.707215
Si Si2 0.565987 0.976263 0.374458
Si Si3 0.255848 0.953827 0.683118
Si Si4 0.398543 0.348935 0.383777
Si Si5 0.551385 0.186316 0.152925
Si Si6 0.814492 0.332576 0.178793
Si Si7 0.521382 0.417755 0.377368
Si Si8 0.839025 0.684818 0.160849
O O1 0.125255 0.481788 0.775265
O O2 0.384265 0.405184 0.533679
O O3 0.177480 0.345938 0.769930
O O4 0.092244 0.359917 0.751376
O O5 0.367460 0.972794 0.541726
O O6 0.640264 0.893948 0.317591
O O7 0.630424 0.026759 0.365231
O O8 0.234238 0.865007 0.709047
O O9 0.084981 0.996840 0.826082
O O10 0.500000 0.362788 0.250000
O O11 0.416723 0.268509 0.396543
O O12 0.214501 0.362554 0.518739
O O13 0.448685 0.408142 0.383448
O O14 0.500000 0.209089 0.250000
O O15 0.674996 0.363673 0.258445
O O16 0.743411 0.265267 0.270252
O O17 0.971017 0.310651 0.014585
#
# Coordination Sequence:
#
# PCOD8129551 Si02
#       8
#     8   8   8   8   8   8   8   8
#     4  11  20  30  49  66  93 127 156 190 232 267
#     4   8  17  32  46  65  89 123 149 187 231 270
#     4   8  17  32  46  64  93 117 153 188 226 273
#     4  10  22  32  48  65  89 126 159 195 231 260
#     4  10  20  36  44  63  95 120 157 200 226 262
#     4  10  20  32  48  68  95 119 157 189 227 279
#     4  11  20  31  46  70  92 123 161 190 225 276
#     4  10  20  32  48  69  92 125 150 191 231 273
#
# _framework density 8.0214110000000005
#
# number of rings (size 3 to 8) (size 9 to 14) (size 15 to 20)
#    0.000    2.250    1.250    3.750    3.500    5.500 
#    0.000    0.000    0.000    0.000    0.000    0.000 
#    0.000    2.000    0.000    0.125    0.000    0.125 
#
# Total GULP energy -396562.100145 kJ/mol
# GULP energy per Si atom -12392.565630 kJ/mol
# Density = 0.800315 g / cm^3
# Si number density = 8.021411 Si / 1000 Ang^3
#
#
#
# Elastic Constant Matrix: (Units=GPa)
#
#
# Indices 1 2 3 4 5 6 
#
# 1 34.7115 17.9301 16.6510 0.0001 1.1826 -0.0006
# 2 17.9301 78.6772 32.7750 0.0094 1.4281 -0.0085
# 3 16.6510 32.7750 111.7419 -0.0492 0.0764 -0.0007
# 4 0.0001 0.0094 -0.0492 27.3321 0.0149 -0.7097
# 5 1.1826 1.4281 0.0764 0.0149 22.4162 0.0035
# 6 -0.0006 -0.0085 -0.0007 -0.7097 0.0035 19.5535
#
#
#
# Elastic Compliance Matrix: (Units=1/GPa)
#
#
# Indices 1 2 3 4 5 6 
#
# 1 0.033637 -0.006326 -0.003156 -0.000003 -0.001361 -0.000002
# 2 -0.006326 0.015688 -0.003658 -0.000011 -0.000653 0.000006
# 3 -0.003156 -0.003658 0.010492 0.000020 0.000364 -0.000001
# 4 -0.000003 -0.000011 0.000020 0.036622 -0.000024 0.001329
# 5 -0.001361 -0.000653 0.000364 -0.000024 0.044723 -0.000009
# 6 -0.000002 0.000006 -0.000001 0.001329 -0.000009 0.051190
#
#
# Mechanical properties :
#
#
# Convention : Reuss Voigt Hill
#
# Bulk Modulus (GPa) = 29.81864 39.98253 34.90059
# Shear Modulus (GPa) = 21.75705 24.37866 23.06786
#
# Velocity S-wave (km/s) = 3.68664 3.90243 3.79607
# Velocity P-wave (km/s) = 6.06209 6.72917 6.40433
#
# Compressibility (1/GPa) = 0.03353607
#
# Stress axis : x y z
#
# Youngs Moduli (GPa) = 29.72926 63.74430 95.30885
#
# Poissons Ratio (x) = 0.40327 0.30078
# Poissons Ratio (y) = 0.18808 0.34866
# Poissons Ratio (z) = 0.09382 0.23319
#
# Static dielectric constant tensor:
#      x y z
#    x 2.677220 0.000020 0.105930 
#    y 0.000020 3.193880 0.000170 
#    z 0.105930 0.000170 3.161890 
# 
# 
# High freq. dielectric constant tensor:
#      x y z
#    x 1.568860 0.000000 0.007000 
#    y 0.000000 1.607240 0.000020 
#    z 0.007000 0.000020 1.638870 
# 
# From -- ./inp_files/302418.got.cif
#   From: 2010.06.25/outbox.ucp.g09.slc.cvg/sg15_152_cif.got.tgz:302418.got - 2010.06.28 14:40:10.
