data_PCOD8129878
_publ_section_title
;
Structure prediction by ZEFSAII (Michael W. Deem and Ramdas Pophale) SiO2 
 PCOD8129878
Probable space group: C 2/C
;
_chemical_formula_sum "Si O2"
_cell_formula_units_Z 48
_cell_length_a 20.179606
_cell_length_b 17.602704
_cell_length_c 8.375028
_cell_angle_alpha 90.000000
_cell_angle_beta 62.967334
_cell_angle_gamma 90.000000
_cell_volume 2649.921269
_symmetry_space_group_name_H-M "C 2/C"
_symmetry_group_IT_number 15
_symmetry_cell_setting 'monoclinic'
loop_
_space_group_symop_operation_xyz
x,y,z
-x,y,1/2-z
-x,-y,-z
x,-y,1/2+z
1/2+x,1/2+y,z
1/2-x,1/2+y,1/2-z
1/2-x,1/2-y,-z
1/2+x,1/2-y,1/2+z
loop_
_atom_site_type_symbol
_atom_site_label
_atom_site_fract_x
_atom_site_fract_y
_atom_site_fract_z
Si Si1 0.579330 0.599663 0.119041
Si Si2 0.844217 0.451767 0.307724
Si Si3 0.728791 0.334055 0.570198
Si Si4 0.634796 0.462822 0.247337
Si Si5 0.230588 0.072798 0.359769
Si Si6 0.445033 0.032727 0.431641
O O1 0.500000 0.637357 0.250000
O O2 0.643551 0.654629 0.112732
O O3 0.581397 0.518120 0.205214
O O4 0.586515 0.589675 0.919096
O O5 0.779924 0.392918 0.418709
O O6 0.809861 0.536414 0.319186
O O7 0.904684 0.463098 0.381575
O O8 0.883092 0.420843 0.100763
O O9 0.750000 0.250000 0.500000
O O10 0.739370 0.349128 0.748945
O O11 0.692993 0.511118 0.285296
O O12 0.681069 0.410935 0.071294
O O13 0.500000 0.079848 0.250000
O O14 0.500000 0.000000 0.500000
#
# Coordination Sequence:
#
# PCOD8129878 Si02
#       6
#     8   8   8   8   8   8
#     4  10  19  33  54  81 115 141 181 233 287 339
#     4  11  16  33  59  75 111 144 188 234 272 334
#     4  11  23  36  54  84 114 150 188 228 286 343
#     4   9  16  29  53  85 107 134 186 237 274 328
#     4  10  16  31  57  83 105 141 192 233 271 325
#     4   9  19  30  51  88 109 135 187 245 280 316
#
# _framework density 18.113747
#
# number of rings (size 3 to 8) (size 9 to 14) (size 15 to 20)
#    0.000    2.000    6.667    0.500    0.000    0.000 
#    0.000    3.333    0.000    0.000    0.000    0.000 
#    0.000    0.000    0.000    0.000    0.000    0.000 
#
# Total GULP energy -297330.268523 kJ/mol
# GULP energy per Si atom -12388.761188 kJ/mol
# Density = 1.807252 g / cm^3
# Si number density = 18.113747 Si / 1000 Ang^3
#
#
#
# Elastic Constant Matrix: (Units=GPa)
#
#
# Indices 1 2 3 4 5 6 
#
# 1 98.0478 31.8258 53.1067 0.0000 -12.5870 0.0000
# 2 31.8258 65.3150 34.1346 0.0000 -0.9880 0.0000
# 3 53.1067 34.1346 171.4523 0.0000 -6.3651 0.0000
# 4 0.0000 0.0000 0.0000 17.0570 0.0000 0.4771
# 5 -12.5870 -0.9880 -6.3651 0.0000 33.3636 0.0000
# 6 0.0000 0.0000 0.0000 0.4771 0.0000 7.9899
#
#
#
# Elastic Compliance Matrix: (Units=1/GPa)
#
#
# Indices 1 2 3 4 5 6 
#
# 1 0.014202 -0.005180 -0.003197 0.000000 0.004595 0.000000
# 2 -0.005180 0.018978 -0.002242 0.000000 -0.001820 0.000000
# 3 -0.003197 -0.002242 0.007273 0.000000 0.000115 0.000000
# 4 0.000000 0.000000 0.000000 0.058725 0.000000 -0.003507
# 5 0.004595 -0.001820 0.000115 0.000000 0.031674 0.000000
# 6 0.000000 0.000000 0.000000 -0.003507 0.000000 0.125368
#
#
# Mechanical properties :
#
#
# Convention : Reuss Voigt Hill
#
# Bulk Modulus (GPa) = 52.03820 63.66104 57.84962
# Shear Modulus (GPa) = 17.61409 26.06529 21.83969
#
# Velocity S-wave (km/s) = 3.12174 3.79750 3.47608
# Velocity P-wave (km/s) = 6.46410 7.37899 6.93665
#
# Compressibility (1/GPa) = 0.01921665
#
# Stress axis : x y z
#
# Youngs Moduli (GPa) = 70.41261 52.69186 137.48738
#
# Poissons Ratio (x) = 0.27293 0.43958
# Poissons Ratio (y) = 0.36472 0.30819
# Poissons Ratio (z) = 0.22512 0.11811
#
# Static dielectric constant tensor:
#      x y z
#    x 3.545000 0.000000 -0.061320 
#    y 0.000000 2.790830 0.000000 
#    z -0.061320 0.000000 4.619010 
# 
# 
# High freq. dielectric constant tensor:
#      x y z
#    x 1.714890 0.000000 -0.001170 
#    y 0.000000 1.608340 0.000000 
#    z -0.001170 0.000000 1.737810 
# 
# From -- ./inp_files/56024.got.cif
#   From: 2010.06.25/outbox.cif.g09.slc.cpg/sg15_29_cif.got.tgz:56024.got - 2010.06.28 07:06:18.
