data_PCOD8129617
_publ_section_title
;
Structure prediction by ZEFSAII (Michael W. Deem and Ramdas Pophale) SiO2 
 PCOD8129617
Probable space group: C 2/C
;
_chemical_formula_sum "Si O2"
_cell_formula_units_Z 52
_cell_length_a 11.354264
_cell_length_b 17.874326
_cell_length_c 14.486365
_cell_angle_alpha 90.000000
_cell_angle_beta 90.045858
_cell_angle_gamma 90.000000
_cell_volume 2940.004173
_symmetry_space_group_name_H-M "C 2/C"
_symmetry_group_IT_number 15
_symmetry_cell_setting 'monoclinic'
loop_
_space_group_symop_operation_xyz
x,y,z
-x,y,1/2-z
-x,-y,-z
x,-y,1/2+z
1/2+x,1/2+y,z
1/2-x,1/2+y,1/2-z
1/2-x,1/2-y,-z
1/2+x,1/2-y,1/2+z
loop_
_atom_site_type_symbol
_atom_site_label
_atom_site_fract_x
_atom_site_fract_y
_atom_site_fract_z
Si Si1 0.861653 0.145764 0.238969
Si Si2 0.342752 0.895238 0.414265
Si Si3 0.183439 0.395854 0.884607
Si Si4 0.382799 0.931101 0.084106
Si Si5 0.000000 0.402923 0.750000
Si Si6 0.362180 0.815042 0.236005
Si Si7 0.300996 0.946472 0.884384
O O1 0.808073 0.119359 0.336651
O O2 0.824354 0.230646 0.213947
O O3 0.811841 0.097338 0.154412
O O4 0.000000 0.135074 0.250000
O O5 0.315549 0.858815 0.514108
O O6 0.476934 0.924125 0.411776
O O7 0.306183 0.837503 0.334710
O O8 0.261037 0.968404 0.402220
O O9 0.155086 0.484852 0.888733
O O10 0.080144 0.355911 0.822543
O O11 0.322844 0.871843 0.154813
O O12 0.341527 0.909368 0.980948
O O13 0.906489 0.450986 0.809284
O O14 0.500000 0.820023 0.250000
#
# Coordination Sequence:
#
# PCOD8129617 Si02
#       7
#     8   8   8   8   4   8   8
#     4  10  22  36  45  70 100 149 181 193 227 309
#     4  10  17  31  53  86 102 121 159 223 272 310
#     4  10  18  29  54  78 105 124 163 213 266 296
#     4  10  17  31  53  86 102 121 159 223 272 310
#     4  10  14  26  46  82 104 118 142 210 266 302
#     4   9  19  31  49  68 108 139 169 202 250 301
#     4  10  18  29  54  78 105 124 163 213 266 296
#
# _framework density 17.687049999999999
#
# number of rings (size 3 to 8) (size 9 to 14) (size 15 to 20)
#    0.000    2.154    3.077    2.769    2.154    1.231 
#    0.000    3.077    0.000    0.000   32.000    0.000 
#    0.000    0.000    0.000    0.000    0.000    0.000 
#
# Total GULP energy -322161.637543 kJ/mol
# GULP energy per Si atom -12390.832213 kJ/mol
# Density = 1.764679 g / cm^3
# Si number density = 17.687050 Si / 1000 Ang^3
#
#
#
# Elastic Constant Matrix: (Units=GPa)
#
#
# Indices 1 2 3 4 5 6 
#
# 1 66.6803 32.1581 36.1802 0.0000 1.4205 0.0000
# 2 32.1581 65.1183 39.9788 0.0000 8.2799 0.0000
# 3 36.1802 39.9788 148.0619 0.0000 4.3362 0.0000
# 4 0.0000 0.0000 0.0000 17.5732 0.0000 3.0903
# 5 1.4205 8.2799 4.3362 0.0000 25.9319 0.0000
# 6 0.0000 0.0000 0.0000 3.0903 0.0000 18.1491
#
#
#
# Elastic Compliance Matrix: (Units=1/GPa)
#
#
# Indices 1 2 3 4 5 6 
#
# 1 0.020684 -0.008804 -0.002740 0.000000 0.002136 0.000000
# 2 -0.008804 0.022844 -0.003836 0.000000 -0.006170 0.000000
# 3 -0.002740 -0.003836 0.008460 0.000000 -0.000040 0.000000
# 4 0.000000 0.000000 0.000000 0.058661 0.000000 -0.009989
# 5 0.002136 -0.006170 -0.000040 0.000000 0.040422 0.000000
# 6 0.000000 0.000000 0.000000 -0.009989 0.000000 0.056800
#
#
# Mechanical properties :
#
#
# Convention : Reuss Voigt Hill
#
# Bulk Modulus (GPa) = 47.10632 55.16607 51.13619
# Shear Modulus (GPa) = 20.34930 23.76706 22.05818
#
# Velocity S-wave (km/s) = 3.39561 3.66970 3.53531
# Velocity P-wave (km/s) = 6.48572 7.01523 6.75567
#
# Compressibility (1/GPa) = 0.02122858
#
# Stress axis : x y z
#
# Youngs Moduli (GPa) = 48.34656 43.77449 118.19820
#
# Poissons Ratio (x) = 0.38540 0.32382
# Poissons Ratio (y) = 0.42566 0.45343
# Poissons Ratio (z) = 0.13245 0.16793
#
# Static dielectric constant tensor:
#      x y z
#    x 2.935700 0.000000 0.011380 
#    y 0.000000 3.186500 0.000000 
#    z 0.011380 0.000000 3.857110 
# 
# 
# High freq. dielectric constant tensor:
#      x y z
#    x 1.641830 0.000000 -0.000530 
#    y 0.000000 1.657340 0.000000 
#    z -0.000530 0.000000 1.711580 
# 
# From -- ./inp_files/145049.got.cif
#   From: 2010.06.25/outbox.cif.g09.slc.cpg/sg15_73_cif.got.tgz:145049.got - 2010.06.28 07:06:18.
