data_PCOD8129211
_publ_section_title
;
Structure prediction by ZEFSAII (Michael W. Deem and Ramdas Pophale) SiO2 
 PCOD8129211
Probable space group: P 21/C
;
_chemical_formula_sum "Si O2"
_cell_formula_units_Z 32
_cell_length_a 15.196932
_cell_length_b 9.038027
_cell_length_c 10.300421
_cell_angle_alpha 90.000000
_cell_angle_beta 109.871525
_cell_angle_gamma 90.000000
_cell_volume 1330.526576
_symmetry_space_group_name_H-M "P 21/C"
_symmetry_group_IT_number 14
_symmetry_cell_setting 'monoclinic'
loop_
_space_group_symop_operation_xyz
x,y,z
-x,1/2+y,1/2-z
-x,-y,-z
x,1/2-y,1/2+z
loop_
_atom_site_type_symbol
_atom_site_label
_atom_site_fract_x
_atom_site_fract_y
_atom_site_fract_z
Si Si1 0.863936 0.876188 0.931294
Si Si2 0.254718 0.088119 0.575576
Si Si3 0.962767 0.233954 0.351995
Si Si4 0.905035 0.493476 0.175624
Si Si5 0.463332 0.066930 0.112650
Si Si6 0.273892 0.904199 0.029930
Si Si7 0.457986 0.091594 0.599131
Si Si8 0.245533 0.822426 0.729387
O O1 0.791603 0.740968 0.904137
O O2 0.867602 0.930638 0.786920
O O3 0.824736 0.009474 0.001189
O O4 0.969065 0.833565 0.024914
O O5 0.183157 0.986382 0.461069
O O6 0.345793 0.107937 0.532131
O O7 0.278567 0.989709 0.714320
O O8 0.943179 0.328081 0.211977
O O9 0.863240 0.199662 0.365744
O O10 0.009365 0.079599 0.343995
O O11 0.492467 0.239370 0.123009
O O12 0.353349 0.030818 0.068010
O O13 0.517194 0.994521 0.258784
O O14 0.500000 0.000000 0.000000
O O15 0.298756 0.797808 0.165621
O O16 0.267670 0.805470 0.894430
O O17 0.500000 0.000000 0.500000
#
# Coordination Sequence:
#
# PCOD8129211 Si02
#       8
#     4   4   4   4   4   4   4   4
#     4  11  25  46  73  99 151 206 247 311 377 457
#     4  11  28  46  72 107 147 198 249 306 383 452
#     4  11  25  42  68 105 145 194 255 307 371 429
#     4  11  25  43  72 102 149 195 256 310 373 445
#     4  12  29  52  81 115 153 199 252 319 389 466
#     4  12  28  51  77 110 154 201 251 314 388 450
#     4  12  29  52  82 115 153 197 256 317 386 466
#     4  12  28  45  78 110 153 195 256 316 368 452
#
# _framework density 24.050626000000001
#
# number of rings (size 3 to 8) (size 9 to 14) (size 15 to 20)
#    0.000    0.500    2.500    3.375   15.750    2.000 
#    0.000    0.000    0.000    0.000    0.000    0.000 
#    0.000    0.000    0.000    0.000    0.000    0.000 
#
# Total GULP energy -396779.440817 kJ/mol
# GULP energy per Si atom -12399.357526 kJ/mol
# Density = 2.399589 g / cm^3
# Si number density = 24.050626 Si / 1000 Ang^3
#
#
#
# Elastic Constant Matrix: (Units=GPa)
#
#
# Indices 1 2 3 4 5 6 
#
# 1 83.9985 12.7477 23.2357 0.0000 4.6358 0.0000
# 2 12.7477 125.5306 35.8859 0.0000 -8.8725 0.0000
# 3 23.2357 35.8859 107.4806 0.0000 -19.4339 0.0000
# 4 0.0000 0.0000 0.0000 25.2971 0.0000 -13.1859
# 5 4.6358 -8.8725 -19.4339 0.0000 34.3832 0.0000
# 6 0.0000 0.0000 0.0000 -13.1859 0.0000 37.3822
#
#
#
# Elastic Compliance Matrix: (Units=1/GPa)
#
#
# Indices 1 2 3 4 5 6 
#
# 1 0.013130 -0.000657 -0.003308 0.000000 -0.003810 0.000000
# 2 -0.000657 0.008854 -0.002657 0.000000 0.000872 0.000000
# 3 -0.003308 -0.002657 0.012099 0.000000 0.006599 0.000000
# 4 0.000000 0.000000 0.000000 0.048435 0.000000 0.017085
# 5 -0.003810 0.000872 0.006599 0.000000 0.033553 0.000000
# 6 0.000000 0.000000 0.000000 0.017085 0.000000 0.032777
#
#
# Mechanical properties :
#
#
# Convention : Reuss Voigt Hill
#
# Bulk Modulus (GPa) = 47.98380 51.19424 49.58902
# Shear Modulus (GPa) = 29.57919 35.75521 32.66720
#
# Velocity S-wave (km/s) = 3.51076 3.85991 3.68947
# Velocity P-wave (km/s) = 6.03559 6.41853 6.23000
#
# Compressibility (1/GPa) = 0.02084037
#
# Stress axis : x y z
#
# Youngs Moduli (GPa) = 76.16164 112.94393 82.64923
#
# Poissons Ratio (x) = 0.07420 0.27340
# Poissons Ratio (y) = 0.05003 0.21956
# Poissons Ratio (z) = 0.25194 0.30004
#
# Static dielectric constant tensor:
#      x y z
#    x 4.593720 0.000000 -0.003120 
#    y 0.000000 5.709550 0.000000 
#    z -0.003120 0.000000 4.175390 
# 
# 
# High freq. dielectric constant tensor:
#      x y z
#    x 1.969270 0.000000 -0.000350 
#    y 0.000000 1.969930 0.000000 
#    z -0.000350 0.000000 1.949720 
# 
# From -- ./inp_files/31869.got.cif
#   From: 2010.03.12/outbox.cif.g09.slc.cpg/sg14_16_cif.got.tgz:31869.got - 2010.03.31 13:35:05.
