data_PCOD8129155
_publ_section_title
;
Structure prediction by ZEFSAII (Michael W. Deem and Ramdas Pophale) SiO2 
 PCOD8129155
Probable space group: P 21/C
;
_chemical_formula_sum "Si O2"
_cell_formula_units_Z 32
_cell_length_a 22.770116
_cell_length_b 8.370771
_cell_length_c 22.196805
_cell_angle_alpha 90.000000
_cell_angle_beta 19.110521
_cell_angle_gamma 90.000000
_cell_volume 1385.123355
_symmetry_space_group_name_H-M "P 21/C"
_symmetry_group_IT_number 14
_symmetry_cell_setting 'monoclinic'
loop_
_space_group_symop_operation_xyz
x,y,z
-x,1/2+y,1/2-z
-x,-y,-z
x,1/2-y,1/2+z
loop_
_atom_site_type_symbol
_atom_site_label
_atom_site_fract_x
_atom_site_fract_y
_atom_site_fract_z
Si Si1 0.645679 0.247933 0.107985
Si Si2 0.809730 0.378832 0.570933
Si Si3 0.720363 0.890424 0.518189
Si Si4 0.833123 0.780602 0.799717
Si Si5 0.296247 0.139978 0.200013
Si Si6 0.979716 0.795556 0.947436
Si Si7 0.682628 0.226650 0.809816
Si Si8 0.072843 0.895620 0.244921
O O1 0.714496 0.145055 0.098653
O O2 0.433442 0.222456 0.305049
O O3 0.674500 0.435017 0.086753
O O4 0.748270 0.197121 0.948072
O O5 0.885603 0.558167 0.504277
O O6 0.673055 0.322460 0.755753
O O7 0.983097 0.269272 0.409489
O O8 0.733247 0.862894 0.433114
O O9 0.917168 0.845144 0.350136
O O10 0.707490 0.849641 0.869030
O O11 0.879031 0.917863 0.803818
O O12 0.146549 0.247965 0.375188
O O13 0.262370 0.958550 0.254499
O O14 0.489782 0.215548 0.030092
O O15 0.176878 0.826997 0.784989
O O16 0.007191 0.650302 0.874980
#
# Coordination Sequence:
#
# PCOD8129155 Si02
#       8
#     4   4   4   4   4   4   4   4
#     4  12  28  47  71 104 141 182 237 294 352 421
#     4  12  25  45  72  99 142 184 233 291 348 416
#     4  12  26  46  72 103 140 184 232 291 355 422
#     4  12  23  47  75 100 140 184 233 289 350 413
#     4  11  25  46  71 102 139 183 232 291 345 418
#     4  12  26  44  70 103 141 185 230 285 349 412
#     4  11  24  46  70 103 141 183 233 285 352 413
#     4  12  25  46  72 102 140 187 231 289 351 420
#
# _framework density 23.102636
#
# number of rings (size 3 to 8) (size 9 to 14) (size 15 to 20)
#    0.000    0.250    5.000    3.750    3.500    1.500 
#    2.250    0.000    0.000    0.000    0.000    0.000 
#    0.000    0.000    0.000    0.000    0.000    0.000 
#
# Total GULP energy -396800.115592 kJ/mol
# GULP energy per Si atom -12400.003612 kJ/mol
# Density = 2.305005 g / cm^3
# Si number density = 23.102636 Si / 1000 Ang^3
#
#
#
# Elastic Constant Matrix: (Units=GPa)
#
#
# Indices 1 2 3 4 5 6 
#
# 1 90.8953 34.9602 28.0817 0.0000 5.2334 0.0000
# 2 34.9602 67.5150 21.4998 0.0000 2.8909 0.0000
# 3 28.0817 21.4998 102.0876 0.0000 3.4621 0.0000
# 4 0.0000 0.0000 0.0000 26.9525 0.0000 0.8220
# 5 5.2334 2.8909 3.4621 0.0000 29.3822 0.0000
# 6 0.0000 0.0000 0.0000 0.8220 0.0000 36.4562
#
#
#
# Elastic Compliance Matrix: (Units=1/GPa)
#
#
# Indices 1 2 3 4 5 6 
#
# 1 0.014408 -0.006588 -0.002521 0.000000 -0.001621 0.000000
# 2 -0.006588 0.018929 -0.002160 0.000000 -0.000435 0.000000
# 3 -0.002521 -0.002160 0.010965 0.000000 -0.000631 0.000000
# 4 0.000000 0.000000 0.000000 0.037128 0.000000 -0.000837
# 5 -0.001621 -0.000435 -0.000631 0.000000 0.034440 0.000000
# 6 0.000000 0.000000 0.000000 -0.000837 0.000000 0.027449
#
#
# Mechanical properties :
#
#
# Convention : Reuss Voigt Hill
#
# Bulk Modulus (GPa) = 45.94543 47.73125 46.83834
# Shear Modulus (GPa) = 28.88312 30.28860 29.58586
#
# Velocity S-wave (km/s) = 3.53967 3.62476 3.58247
# Velocity P-wave (km/s) = 6.05280 6.18255 6.11802
#
# Compressibility (1/GPa) = 0.02176495
#
# Stress axis : x y z
#
# Youngs Moduli (GPa) = 69.40677 52.82785 91.19872
#
# Poissons Ratio (x) = 0.34805 0.22989
# Poissons Ratio (y) = 0.45728 0.19694
# Poissons Ratio (z) = 0.17495 0.11408
#
# Static dielectric constant tensor:
#      x y z
#    x 4.046840 0.000000 -0.083310 
#    y 0.000000 4.086670 0.000000 
#    z -0.083310 0.000000 4.286080 
# 
# 
# High freq. dielectric constant tensor:
#      x y z
#    x 1.907460 0.000000 0.001020 
#    y 0.000000 1.909470 0.000000 
#    z 0.001020 0.000000 1.926800 
# 
# From -- ./inp_files/74896.got.cif
#   From: 2010.03.12/outbox.cif.g09.slc.cpg/sg14_38_cif.got.tgz:74896.got - 2010.03.31 13:35:05.
