data_PCOD8129931
_publ_section_title
;
Structure prediction by ZEFSAII (Michael W. Deem and Ramdas Pophale) SiO2 
 PCOD8129931
Probable space group: C 2/C
;
_chemical_formula_sum "Si O2"
_cell_formula_units_Z 52
_cell_length_a 13.971035
_cell_length_b 19.691062
_cell_length_c 19.029002
_cell_angle_alpha 90.000000
_cell_angle_beta 147.985603
_cell_angle_gamma 90.000000
_cell_volume 2775.223928
_symmetry_space_group_name_H-M "C 2/C"
_symmetry_group_IT_number 15
_symmetry_cell_setting 'monoclinic'
loop_
_space_group_symop_operation_xyz
x,y,z
-x,y,1/2-z
-x,-y,-z
x,-y,1/2+z
1/2+x,1/2+y,z
1/2-x,1/2+y,1/2-z
1/2-x,1/2-y,-z
1/2+x,1/2-y,1/2+z
loop_
_atom_site_type_symbol
_atom_site_label
_atom_site_fract_x
_atom_site_fract_y
_atom_site_fract_z
Si Si1 0.611510 0.701152 0.252853
Si Si2 0.860671 0.595384 0.932364
Si Si3 0.463768 0.198239 0.548816
Si Si4 0.489506 0.557036 0.364278
Si Si5 0.891948 0.587721 0.617868
Si Si6 0.500000 0.449973 0.250000
Si Si7 0.625685 0.984673 0.678125
O O1 0.500000 0.726738 0.250000
O O2 0.546781 0.738909 0.142123
O O3 0.815416 0.721930 0.399825
O O4 0.589253 0.621116 0.227271
O O5 0.671182 0.599692 0.854225
O O6 0.858095 0.531243 0.879723
O O7 0.879357 0.663909 0.899224
O O8 0.019034 0.583700 0.088466
O O9 0.372617 0.142827 0.544068
O O10 0.689919 0.570518 0.520082
O O11 0.520211 0.495786 0.330696
O O12 0.335302 0.536701 0.327057
O O13 0.000000 0.620846 0.750000
O O14 0.011868 0.522265 0.668487
#
# Coordination Sequence:
#
# PCOD8129931 Si02
#       7
#     8   8   8   8   8   4   8
#     4  12  22  34  54  79 112 150 184 219 271 339
#     4   9  17  32  55  82 105 136 188 233 270 326
#     4  11  23  36  52  81 112 151 186 223 273 327
#     4  11  19  32  56  82 107 144 180 221 281 327
#     4  11  22  35  52  80 119 145 181 228 276 337
#     4  10  16  32  62  82 102 132 188 232 278 326
#     4   9  18  33  53  78 109 142 180 230 277 331
#
# _framework density 18.737227000000001
#
# number of rings (size 3 to 8) (size 9 to 14) (size 15 to 20)
#    0.000    1.538    5.385    0.923    2.154    0.615 
#    0.000    0.000    0.000    0.923    2.000    0.000 
#    0.000    0.000    0.000    0.000    0.000    0.000 
#
# Total GULP energy -322191.901226 kJ/mol
# GULP energy per Si atom -12391.996201 kJ/mol
# Density = 1.869458 g / cm^3
# Si number density = 18.737227 Si / 1000 Ang^3
#
#
#
# Elastic Constant Matrix: (Units=GPa)
#
#
# Indices 1 2 3 4 5 6 
#
# 1 59.7631 29.6542 39.7132 -0.0011 26.1016 0.0000
# 2 29.6542 47.4228 20.8346 -0.0071 12.2449 -0.0024
# 3 39.7132 20.8346 132.1523 -0.0077 27.9273 -0.0047
# 4 -0.0011 -0.0071 -0.0077 20.7216 -0.0013 -4.1254
# 5 26.1016 12.2449 27.9273 -0.0013 34.1909 -0.0009
# 6 0.0000 -0.0024 -0.0047 -4.1254 -0.0009 12.6222
#
#
#
# Elastic Compliance Matrix: (Units=1/GPa)
#
#
# Indices 1 2 3 4 5 6 
#
# 1 0.034964 -0.015401 -0.004356 -0.000008 -0.017618 -0.000008
# 2 -0.015401 0.030613 -0.000442 0.000012 0.001155 0.000010
# 3 -0.004356 -0.000442 0.009922 0.000004 -0.004621 0.000005
# 4 -0.000008 0.000012 0.000004 0.051618 0.000001 0.016871
# 5 -0.017618 0.001155 -0.004621 0.000001 0.046058 0.000002
# 6 -0.000008 0.000010 0.000005 0.016871 0.000002 0.084739
#
#
# Mechanical properties :
#
#
# Convention : Reuss Voigt Hill
#
# Bulk Modulus (GPa) = 28.48842 46.63804 37.56323
# Shear Modulus (GPa) = 16.12839 23.44936 19.78888
#
# Velocity S-wave (km/s) = 2.93707 3.54147 3.25334
# Velocity P-wave (km/s) = 5.17098 6.45502 5.84835
#
# Compressibility (1/GPa) = 0.03510198
#
# Stress axis : x y z
#
# Youngs Moduli (GPa) = 28.60111 32.66555 100.78381
#
# Poissons Ratio (x) = 0.50307 0.43899
# Poissons Ratio (y) = 0.44047 0.04458
# Poissons Ratio (z) = 0.12458 0.01445
#
# Static dielectric constant tensor:
#      x y z
#    x 3.410370 0.000000 0.378430 
#    y 0.000000 3.181980 0.000000 
#    z 0.378430 0.000000 3.606420 
# 
# 
# High freq. dielectric constant tensor:
#      x y z
#    x 1.700320 0.000000 0.022950 
#    y 0.000000 1.696810 0.000000 
#    z 0.022950 0.000000 1.735780 
# 
# From -- ./inp_files/97786.got.cif
#   From: 2010.06.25/outbox.cif.g09.slc.cpg/sg15_49_cif.got.tgz:97786.got - 2010.06.28 07:06:18.
