data_PCOD8129643
_publ_section_title
;
Structure prediction by ZEFSAII (Michael W. Deem and Ramdas Pophale) SiO2 
 PCOD8129643
Probable space group: C 2/C
;
_chemical_formula_sum "Si O2"
_cell_formula_units_Z 40
_cell_length_a 7.576363
_cell_length_b 24.308171
_cell_length_c 11.002961
_cell_angle_alpha 90.000000
_cell_angle_beta 122.655612
_cell_angle_gamma 90.000000
_cell_volume 1706.075051
_symmetry_space_group_name_H-M "C 2/C"
_symmetry_group_IT_number 15
_symmetry_cell_setting 'monoclinic'
loop_
_space_group_symop_operation_xyz
x,y,z
-x,y,1/2-z
-x,-y,-z
x,-y,1/2+z
1/2+x,1/2+y,z
1/2-x,1/2+y,1/2-z
1/2-x,1/2-y,-z
1/2+x,1/2-y,1/2+z
loop_
_atom_site_type_symbol
_atom_site_label
_atom_site_fract_x
_atom_site_fract_y
_atom_site_fract_z
Si Si1 0.933013 0.572486 0.588495
Si Si2 0.980596 0.228497 0.603918
Si Si3 0.177182 0.026133 0.913913
Si Si4 0.328434 0.628183 0.433329
Si Si5 0.379239 0.843208 0.877424
O O1 0.744430 0.528536 0.511519
O O2 0.851246 0.629776 0.499697
O O3 0.000000 0.584221 0.750000
O O4 0.127478 0.550891 0.584452
O O5 0.750000 0.250000 0.500000
O O6 0.008619 0.172880 0.535042
O O7 0.000000 0.210607 0.750000
O O8 0.146698 0.276494 0.627867
O O9 0.000000 0.012298 0.750000
O O10 0.098856 0.068914 0.988636
O O11 0.295608 0.628988 0.275560
O O12 0.109207 0.644829 0.411931
#
# Coordination Sequence:
#
# PCOD8129643 Si02
#       5
#     8   8   8   8   8
#     4  10  23  39  59  83 125 166 193 241 309 365
#     4  10  15  27  51  84 111 138 185 254 296 325
#     4  10  22  38  61  89 116 155 209 251 293 352
#     4   9  17  30  55  87 113 144 195 254 296 333
#     4   9  17  32  52  81 119 150 188 240 303 356
#
# _framework density 23.445627999999999
#
# number of rings (size 3 to 8) (size 9 to 14) (size 15 to 20)
#    0.000    2.400    4.000    0.600    8.400    0.800 
#    0.000    0.000    0.000    1.200    0.000    0.000 
#    0.000    0.000    0.000    0.000    0.000    0.000 
#
# Total GULP energy -247897.902429 kJ/mol
# GULP energy per Si atom -12394.895121 kJ/mol
# Density = 2.339226 g / cm^3
# Si number density = 23.445628 Si / 1000 Ang^3
#
#
#
# Elastic Constant Matrix: (Units=GPa)
#
#
# Indices 1 2 3 4 5 6 
#
# 1 12.2820 31.6015 24.2976 0.0000 -7.8223 0.0000
# 2 31.6015 149.0643 90.2158 0.0000 -21.4696 0.0000
# 3 24.2976 90.2158 223.7433 0.0000 -26.5228 0.0000
# 4 0.0000 0.0000 0.0000 46.7126 0.0000 -2.2513
# 5 -7.8223 -21.4696 -26.5228 0.0000 32.1995 0.0000
# 6 0.0000 0.0000 0.0000 -2.2513 0.0000 4.5350
#
#
#
# Elastic Compliance Matrix: (Units=1/GPa)
#
#
# Indices 1 2 3 4 5 6 
#
# 1 0.194814 -0.035796 -0.004368 0.000000 0.019861 0.000000
# 2 -0.035796 0.015778 -0.002503 0.000000 -0.000237 0.000000
# 3 -0.004368 -0.002503 0.006238 0.000000 0.002409 0.000000
# 4 0.000000 0.000000 0.000000 0.021932 0.000000 0.010888
# 5 0.019861 -0.000237 0.002409 0.000000 0.037707 0.000000
# 6 0.000000 0.000000 0.000000 0.010888 0.000000 0.225912
#
#
# Mechanical properties :
#
#
# Convention : Reuss Voigt Hill
#
# Bulk Modulus (GPa) = 7.60479 75.25771 41.43125
# Shear Modulus (GPa) = 7.91706 32.62105 20.26906
#
# Velocity S-wave (km/s) = 1.83959 3.73413 2.94345
# Velocity P-wave (km/s) = 2.78617 7.12461 5.40938
#
# Compressibility (1/GPa) = 0.13149607
#
# Stress axis : x y z
#
# Youngs Moduli (GPa) = 5.13310 63.38079 160.29805
#
# Poissons Ratio (x) = 2.26879 0.70022
# Poissons Ratio (y) = 0.18375 0.40116
# Poissons Ratio (z) = 0.02242 0.15861
#
# Static dielectric constant tensor:
#      x y z
#    x 3.617250 0.000000 0.002180 
#    y 0.000000 5.422060 0.000000 
#    z 0.002180 0.000000 4.453330 
# 
# 
# High freq. dielectric constant tensor:
#      x y z
#    x 1.875360 0.000000 -0.000380 
#    y 0.000000 1.934410 0.000000 
#    z -0.000380 0.000000 1.944970 
# 
# From -- ./inp_files/81006.got.cif
#   From: 2010.06.25/outbox.cif.g09.slc.cpg/sg15_41_cif.got.tgz:81006.got - 2010.06.28 07:06:18.
