data_PCOD8129306
_publ_section_title
;
Structure prediction by ZEFSAII (Michael W. Deem and Ramdas Pophale) SiO2 
 PCOD8129306
Probable space group: P 21/C
;
_chemical_formula_sum "Si O2"
_cell_formula_units_Z 32
_cell_length_a 8.708938
_cell_length_b 27.390971
_cell_length_c 12.355760
_cell_angle_alpha 90.000000
_cell_angle_beta 148.815177
_cell_angle_gamma 90.000000
_cell_volume 1526.175526
_symmetry_space_group_name_H-M "P 21/C"
_symmetry_group_IT_number 14
_symmetry_cell_setting 'monoclinic'
loop_
_space_group_symop_operation_xyz
x,y,z
-x,1/2+y,1/2-z
-x,-y,-z
x,1/2-y,1/2+z
loop_
_atom_site_type_symbol
_atom_site_label
_atom_site_fract_x
_atom_site_fract_y
_atom_site_fract_z
Si Si1 0.215013 0.122393 0.237448
Si Si2 0.180720 0.929297 0.365670
Si Si3 0.676869 0.703276 0.369773
Si Si4 0.726286 0.846963 0.124365
Si Si5 0.989464 0.701703 0.984141
Si Si6 0.188775 0.548743 0.622274
Si Si7 0.144992 0.022672 0.482691
Si Si8 0.941411 0.374974 0.794482
O O1 0.513503 0.091439 0.402832
O O2 0.240109 0.171316 0.183912
O O3 0.165390 0.137572 0.331942
O O4 0.938669 0.089606 0.034212
O O5 0.178946 0.929440 0.236026
O O6 0.917230 0.896021 0.252465
O O7 0.144238 0.984389 0.384272
O O8 0.786351 0.676027 0.543341
O O9 0.848598 0.753880 0.464737
O O10 0.328790 0.714013 0.163174
O O11 0.817436 0.807246 0.268646
O O12 0.386524 0.860069 0.938098
O O13 0.954821 0.653887 0.037052
O O14 0.000000 0.500000 0.500000
O O15 0.523832 0.539105 0.788097
O O16 0.946725 0.067816 0.324587
O O17 0.000000 0.000000 0.500000
#
# Coordination Sequence:
#
# PCOD8129306 Si02
#       8
#     4   4   4   4   4   4   4   4
#     4  12  25  46  71 103 140 181 237 286 351 417
#     4  12  24  47  70  99 143 187 236 284 348 415
#     4  11  27  46  74 105 134 186 229 290 351 423
#     4  11  26  47  72 102 144 186 224 294 351 411
#     4  11  27  48  72 102 143 176 235 287 353 421
#     4  12  25  43  69  99 139 187 231 282 345 411
#     4  12  27  43  69 103 142 186 239 289 341 411
#     4  11  28  46  68 108 143 182 236 287 349 419
#
# _framework density 20.967442999999999
#
# number of rings (size 3 to 8) (size 9 to 14) (size 15 to 20)
#    0.000    0.500    5.000    1.875   10.500    2.500 
#    0.000    0.000    0.000    0.000    0.000    0.000 
#    0.000    0.000    0.000    0.000    0.000    0.000 
#
# Total GULP energy -397100.261706 kJ/mol
# GULP energy per Si atom -12409.383178 kJ/mol
# Density = 2.091972 g / cm^3
# Si number density = 20.967443 Si / 1000 Ang^3
#
#
#
# Elastic Constant Matrix: (Units=GPa)
#
#
# Indices 1 2 3 4 5 6 
#
# 1 110.9388 37.3218 24.5722 0.0000 -0.2384 0.0000
# 2 37.3218 111.5974 36.4654 0.0000 11.0511 0.0000
# 3 24.5722 36.4654 94.8372 0.0000 2.3271 0.0000
# 4 0.0000 0.0000 0.0000 30.9154 0.0000 0.6279
# 5 -0.2384 11.0511 2.3271 0.0000 31.6809 0.0000
# 6 0.0000 0.0000 0.0000 0.6279 0.0000 44.5931
#
#
#
# Elastic Compliance Matrix: (Units=1/GPa)
#
#
# Indices 1 2 3 4 5 6 
#
# 1 0.010400 -0.003103 -0.001533 0.000000 0.001273 0.000000
# 2 -0.003103 0.011529 -0.003536 0.000000 -0.003785 0.000000
# 3 -0.001533 -0.003536 0.012293 0.000000 0.000319 0.000000
# 4 0.000000 0.000000 0.000000 0.032356 0.000000 -0.000456
# 5 0.001273 -0.003785 0.000319 0.000000 0.032871 0.000000
# 6 0.000000 0.000000 0.000000 -0.000456 0.000000 0.022431
#
#
# Mechanical properties :
#
#
# Convention : Reuss Voigt Hill
#
# Bulk Modulus (GPa) = 55.93370 57.12135 56.52753
# Shear Modulus (GPa) = 34.67785 36.03882 35.35834
#
# Velocity S-wave (km/s) = 4.07122 4.15034 4.11097
# Velocity P-wave (km/s) = 6.98814 7.09007 7.03929
#
# Compressibility (1/GPa) = 0.01787831
#
# Stress axis : x y z
#
# Youngs Moduli (GPa) = 96.15152 86.73837 81.34551
#
# Poissons Ratio (x) = 0.26919 0.12467
# Poissons Ratio (y) = 0.29840 0.28763
# Poissons Ratio (z) = 0.14736 0.30670
#
# Static dielectric constant tensor:
#      x y z
#    x 3.881410 0.000000 0.034450 
#    y 0.000000 3.827660 0.000000 
#    z 0.034450 0.000000 3.982510 
# 
# 
# High freq. dielectric constant tensor:
#      x y z
#    x 1.834980 0.000000 -0.000980 
#    y 0.000000 1.827870 0.000000 
#    z -0.000980 0.000000 1.832680 
# 
# From -- ./inp_files/27184.got.cif
#   From: 2010.03.12/outbox.cif.g09.slc.cpg/sg14_14_cif.got.tgz:27184.got - 2010.03.31 13:35:05.
