data_PCOD8129253
_publ_section_title
;
Structure prediction by ZEFSAII (Michael W. Deem and Ramdas Pophale) SiO2 
 PCOD8129253
Probable space group: P 21/C
;
_chemical_formula_sum "Si O2"
_cell_formula_units_Z 20
_cell_length_a 10.194882
_cell_length_b 11.684228
_cell_length_c 10.949626
_cell_angle_alpha 90.000000
_cell_angle_beta 140.368472
_cell_angle_gamma 90.000000
_cell_volume 831.952688
_symmetry_space_group_name_H-M "P 21/C"
_symmetry_group_IT_number 14
_symmetry_cell_setting 'monoclinic'
loop_
_space_group_symop_operation_xyz
x,y,z
-x,1/2+y,1/2-z
-x,-y,-z
x,1/2-y,1/2+z
loop_
_atom_site_type_symbol
_atom_site_label
_atom_site_fract_x
_atom_site_fract_y
_atom_site_fract_z
Si Si1 0.793425 0.958667 0.981089
Si Si2 0.513762 0.797144 0.638486
Si Si3 0.262597 0.422106 0.287329
Si Si4 0.180818 0.649868 0.092285
Si Si5 0.225133 0.624780 0.739866
O O1 0.714337 0.851612 0.844316
O O2 0.731925 0.073737 0.864290
O O3 0.687935 0.962230 0.038753
O O4 0.041106 0.947437 0.171174
O O5 0.568765 0.670502 0.631397
O O6 0.329758 0.790962 0.602296
O O7 0.434381 0.877895 0.469968
O O8 0.274121 0.530325 0.205820
O O9 0.037903 0.367284 0.127529
O O10 0.157615 0.741639 0.184540
#
# Coordination Sequence:
#
# PCOD8129253 Si02
#       5
#     4   4   4   4   4
#     4  11  25  47  73 109 148 193 242 308 369 436
#     4  12  25  47  76 108 144 197 246 301 375 441
#     4  11  26  50  76 107 151 196 247 310 372 448
#     4  11  26  48  76 108 147 198 248 306 377 442
#     4  11  25  46  73 108 148 190 248 305 369 436
#
# _framework density 24.039829000000001
#
# number of rings (size 3 to 8) (size 9 to 14) (size 15 to 20)
#    0.000    0.800    4.000    1.800    5.600    1.600 
#    3.600    0.000    0.000    0.000    0.000    0.000 
#    0.000    0.000    0.000    0.000    0.000    0.000 
#
# Total GULP energy -248054.289494 kJ/mol
# GULP energy per Si atom -12402.714475 kJ/mol
# Density = 2.398511 g / cm^3
# Si number density = 24.039829 Si / 1000 Ang^3
#
#
#
# Elastic Constant Matrix: (Units=GPa)
#
#
# Indices 1 2 3 4 5 6 
#
# 1 122.0994 50.6466 46.0412 0.0000 -7.7071 0.0000
# 2 50.6466 96.8975 24.1777 0.0000 -7.6517 0.0000
# 3 46.0412 24.1777 120.7043 0.0000 -9.5495 0.0000
# 4 0.0000 0.0000 0.0000 44.0646 0.0000 -2.0841
# 5 -7.7071 -7.6517 -9.5495 0.0000 36.7478 0.0000
# 6 0.0000 0.0000 0.0000 -2.0841 0.0000 40.1915
#
#
#
# Elastic Compliance Matrix: (Units=1/GPa)
#
#
# Indices 1 2 3 4 5 6 
#
# 1 0.011650 -0.005212 -0.003361 0.000000 0.000485 0.000000
# 2 -0.005212 0.013304 -0.000555 0.000000 0.001533 0.000000
# 3 -0.003361 -0.000555 0.009815 0.000000 0.001730 0.000000
# 4 0.000000 0.000000 0.000000 0.022750 0.000000 0.001180
# 5 0.000485 0.001533 0.001730 0.000000 0.028083 0.000000
# 6 0.000000 0.000000 0.000000 0.001180 0.000000 0.024942
#
#
# Mechanical properties :
#
#
# Convention : Reuss Voigt Hill
#
# Bulk Modulus (GPa) = 60.56585 64.60358 62.58472
# Shear Modulus (GPa) = 37.22832 38.78982 38.00907
#
# Velocity S-wave (km/s) = 3.93951 4.02128 3.98060
# Velocity P-wave (km/s) = 6.77802 6.96368 6.87148
#
# Compressibility (1/GPa) = 0.01651095
#
# Stress axis : x y z
#
# Youngs Moduli (GPa) = 85.83501 75.16404 101.88468
#
# Poissons Ratio (x) = 0.39178 0.34248
# Poissons Ratio (y) = 0.44740 0.05659
# Poissons Ratio (z) = 0.28853 0.04175
#
# Static dielectric constant tensor:
#      x y z
#    x 4.042220 0.000000 -0.017050 
#    y 0.000000 4.166380 0.000000 
#    z -0.017050 0.000000 4.482970 
# 
# 
# High freq. dielectric constant tensor:
#      x y z
#    x 1.945890 0.000000 0.006250 
#    y 0.000000 1.957120 0.000000 
#    z 0.006250 0.000000 1.969040 
# 
# From -- ./inp_files/29264.got.cif
#   From: 2010.03.12/outbox.cif.g09.slc.cpg/sg14_15_cif.got.tgz:29264.got - 2010.03.31 13:35:05.
