data_PCOD8129750
_publ_section_title
;
Structure prediction by ZEFSAII (Michael W. Deem and Ramdas Pophale) SiO2 
 PCOD8129750
Probable space group: C 2/C
;
_chemical_formula_sum "Si O2"
_cell_formula_units_Z 52
_cell_length_a 15.175011
_cell_length_b 9.734051
_cell_length_c 22.218432
_cell_angle_alpha 90.000000
_cell_angle_beta 69.111695
_cell_angle_gamma 90.000000
_cell_volume 3066.280082
_symmetry_space_group_name_H-M "C 2/C"
_symmetry_group_IT_number 15
_symmetry_cell_setting 'monoclinic'
loop_
_space_group_symop_operation_xyz
x,y,z
-x,y,1/2-z
-x,-y,-z
x,-y,1/2+z
1/2+x,1/2+y,z
1/2-x,1/2+y,1/2-z
1/2-x,1/2-y,-z
1/2+x,1/2-y,1/2+z
loop_
_atom_site_type_symbol
_atom_site_label
_atom_site_fract_x
_atom_site_fract_y
_atom_site_fract_z
Si Si1 0.647266 0.309769 0.628346
Si Si2 0.672458 0.374591 0.405163
Si Si3 0.321692 0.616378 0.919815
Si Si4 0.329791 0.328664 0.557454
Si Si5 0.532680 0.665354 0.047598
Si Si6 0.500000 0.585908 0.250000
Si Si7 0.520388 0.586332 0.859094
O O1 0.730216 0.205097 0.620620
O O2 0.688873 0.457981 0.598434
O O3 0.577762 0.250595 0.592791
O O4 0.585400 0.321846 0.704074
O O5 0.693275 0.537714 0.396557
O O6 0.613370 0.336248 0.478151
O O7 0.611788 0.331087 0.360185
O O8 0.241295 0.706385 0.906984
O O9 0.424624 0.675262 0.873165
O O10 0.311737 0.626974 0.993600
O O11 0.435760 0.271349 0.544687
O O12 0.508923 0.512412 0.077137
O O13 0.455219 0.493983 0.207736
#
# Coordination Sequence:
#
# PCOD8129750 Si02
#       7
#     8   8   8   8   8   4   8
#     4  10  20  32  52  71 100 127 168 201 244 283
#     4  11  17  30  52  80  94 128 160 203 241 297
#     4   9  17  29  46  72 101 133 152 197 229 296
#     4  10  16  28  48  74 105 125 160 183 247 292
#     4   9  16  29  48  75 102 128 153 192 240 308
#     4   8  18  36  48  66  90 136 172 202 232 288
#     4   9  16  32  52  68  95 132 168 193 232 298
#
# _framework density 16.958659999999998
#
# number of rings (size 3 to 8) (size 9 to 14) (size 15 to 20)
#    0.000    2.769    4.615    1.385    0.000    0.000 
#    0.000   11.538    0.000    3.692    0.000    0.000 
#    0.000    0.000    0.000    0.000    0.000    0.000 
#
# Total GULP energy -322109.813442 kJ/mol
# GULP energy per Si atom -12388.838979 kJ/mol
# Density = 1.692006 g / cm^3
# Si number density = 16.958660 Si / 1000 Ang^3
#
#
#
# Elastic Constant Matrix: (Units=GPa)
#
#
# Indices 1 2 3 4 5 6 
#
# 1 138.0279 44.5663 42.3785 0.0000 -20.3938 0.0000
# 2 44.5663 46.2047 22.5744 0.0000 -11.5801 0.0000
# 3 42.3785 22.5744 92.0448 0.0000 -6.9102 0.0000
# 4 0.0000 0.0000 0.0000 11.2657 0.0000 -7.1518
# 5 -20.3938 -11.5801 -6.9102 0.0000 17.3857 0.0000
# 6 0.0000 0.0000 0.0000 -7.1518 0.0000 34.2044
#
#
#
# Elastic Compliance Matrix: (Units=1/GPa)
#
#
# Indices 1 2 3 4 5 6 
#
# 1 0.011860 -0.008191 -0.002903 0.000000 0.007302 0.000000
# 2 -0.008191 0.034331 -0.003766 0.000000 0.011762 0.000000
# 3 -0.002903 -0.003766 0.013071 0.000000 -0.000719 0.000000
# 4 0.000000 0.000000 0.000000 0.102351 0.000000 0.021401
# 5 0.007302 0.011762 -0.000719 0.000000 0.073633 0.000000
# 6 0.000000 0.000000 0.000000 0.021401 0.000000 0.033711
#
#
# Mechanical properties :
#
#
# Convention : Reuss Voigt Hill
#
# Bulk Modulus (GPa) = 33.85036 55.03510 44.44273
# Shear Modulus (GPa) = 16.20626 23.68836 19.94731
#
# Velocity S-wave (km/s) = 3.09469 3.74147 3.43334
# Velocity P-wave (km/s) = 5.72480 7.15456 6.47924
#
# Compressibility (1/GPa) = 0.02954178
#
# Stress axis : x y z
#
# Youngs Moduli (GPa) = 84.31822 29.12843 76.50739
#
# Poissons Ratio (x) = 0.23858 0.22213
# Poissons Ratio (y) = 0.69062 0.28810
# Poissons Ratio (z) = 0.24481 0.10969
#
# Static dielectric constant tensor:
#      x y z
#    x 3.757730 0.000000 0.008570 
#    y 0.000000 2.847820 0.000000 
#    z 0.008570 0.000000 3.030940 
# 
# 
# High freq. dielectric constant tensor:
#      x y z
#    x 1.675690 0.000000 0.001800 
#    y 0.000000 1.599870 0.000000 
#    z 0.001800 0.000000 1.638170 
# 
# From -- ./inp_files/243114.got.cif
#   From: 2010.06.25/outbox.cif.g09.slc.cpg/sg15_122_cif.got.tgz:243114.got - 2010.06.28 07:06:18.
