data_PCOD8129914
_publ_section_title
;
Structure prediction by ZEFSAII (Michael W. Deem and Ramdas Pophale) SiO2 
 PCOD8129914
Probable space group: C 2/C
;
_chemical_formula_sum "Si O2"
_cell_formula_units_Z 48
_cell_length_a 20.976264
_cell_length_b 12.278317
_cell_length_c 11.722904
_cell_angle_alpha 90.000000
_cell_angle_beta 53.606202
_cell_angle_gamma 90.000000
_cell_volume 2430.386960
_symmetry_space_group_name_H-M "C 2/C"
_symmetry_group_IT_number 15
_symmetry_cell_setting 'monoclinic'
loop_
_space_group_symop_operation_xyz
x,y,z
-x,y,1/2-z
-x,-y,-z
x,-y,1/2+z
1/2+x,1/2+y,z
1/2-x,1/2+y,1/2-z
1/2-x,1/2-y,-z
1/2+x,1/2-y,1/2+z
loop_
_atom_site_type_symbol
_atom_site_label
_atom_site_fract_x
_atom_site_fract_y
_atom_site_fract_z
Si Si1 0.819872 0.010277 0.112566
Si Si2 0.173796 0.792816 0.750925
Si Si3 0.201629 0.648661 0.092989
Si Si4 0.586603 0.670176 0.112142
Si Si5 0.174135 0.422181 0.381653
Si Si6 0.145005 0.337798 0.886309
O O1 0.768239 0.938580 0.256899
O O2 0.863431 0.108723 0.134007
O O3 0.758965 0.056350 0.083422
O O4 0.885637 0.938259 0.981717
O O5 0.146241 0.799288 0.650157
O O6 0.144627 0.677590 0.833969
O O7 0.268558 0.807220 0.654847
O O8 0.141449 0.690979 0.255216
O O9 0.250000 0.750000 0.000000
O O10 0.156039 0.601435 0.033113
O O11 0.500000 0.646630 0.250000
O O12 0.581779 0.769516 0.026348
O O13 0.126028 0.533339 0.411040
#
# Coordination Sequence:
#
# PCOD8129914 Si02
#       6
#     8   8   8   8   8   8
#     4  10  20  34  58  92 115 149 191 239 302 344
#     4  10  20  37  62  86 113 148 196 249 290 340
#     4  10  16  32  57  92 117 135 184 251 293 336
#     4  12  25  40  56  82 126 163 193 234 289 363
#     4  10  18  33  60  92 112 140 191 253 296 328
#     4  10  22  33  61  90 113 151 191 245 295 344
#
# _framework density 19.749942000000001
#
# number of rings (size 3 to 8) (size 9 to 14) (size 15 to 20)
#    0.000    2.000    5.000    2.500    4.667    0.667 
#    0.000    0.833    0.000    0.000    0.000    0.000 
#    0.000    0.000    0.000    0.000    0.000    0.000 
#
# Total GULP energy -297477.530607 kJ/mol
# GULP energy per Si atom -12394.897109 kJ/mol
# Density = 1.970499 g / cm^3
# Si number density = 19.749942 Si / 1000 Ang^3
#
#
#
# Elastic Constant Matrix: (Units=GPa)
#
#
# Indices 1 2 3 4 5 6 
#
# 1 18.8519 7.7120 24.3949 0.0000 9.8618 0.0000
# 2 7.7120 140.9474 55.4646 0.0000 10.1802 0.0000
# 3 24.3949 55.4646 130.3883 0.0000 16.2832 0.0000
# 4 0.0000 0.0000 0.0000 39.5083 0.0000 9.8458
# 5 9.8618 10.1802 16.2832 0.0000 33.5008 0.0000
# 6 0.0000 0.0000 0.0000 9.8458 0.0000 15.2345
#
#
#
# Elastic Compliance Matrix: (Units=1/GPa)
#
#
# Indices 1 2 3 4 5 6 
#
# 1 0.078650 0.002265 -0.013522 0.000000 -0.017268 0.000000
# 2 0.002265 0.008611 -0.003914 0.000000 -0.001381 0.000000
# 3 -0.013522 -0.003914 0.011944 0.000000 -0.000635 0.000000
# 4 0.000000 0.000000 0.000000 0.030170 0.000000 -0.019499
# 5 -0.017268 -0.001381 -0.000635 0.000000 0.035662 0.000000
# 6 0.000000 0.000000 0.000000 -0.019499 0.000000 0.078242
#
#
# Mechanical properties :
#
#
# Convention : Reuss Voigt Hill
#
# Bulk Modulus (GPa) = 14.52178 51.70339 33.11259
# Shear Modulus (GPa) = 16.85911 31.15645 24.00778
#
# Velocity S-wave (km/s) = 2.92486 3.97614 3.49031
# Velocity P-wave (km/s) = 4.33304 6.87862 5.74851
#
# Compressibility (1/GPa) = 0.06886207
#
# Stress axis : x y z
#
# Youngs Moduli (GPa) = 12.71458 116.13105 83.72651
#
# Poissons Ratio (x) = -0.26303 1.13214
# Poissons Ratio (y) = -0.02880 0.32773
# Poissons Ratio (z) = 0.17193 0.45456
#
# Static dielectric constant tensor:
#      x y z
#    x 2.915210 0.000000 0.202110 
#    y 0.000000 3.967300 0.000000 
#    z 0.202110 0.000000 3.430230 
# 
# 
# High freq. dielectric constant tensor:
#      x y z
#    x 1.706560 0.000000 0.040960 
#    y 0.000000 1.793090 0.000000 
#    z 0.040960 0.000000 1.774370 
# 
# From -- ./inp_files/110867.got.cif
#   From: 2010.06.25/outbox.cif.g09.slc.cpg/sg15_56_cif.got.tgz:110867.got - 2010.06.28 07:06:18.
