data_PCOD8129559
_publ_section_title
;
Structure prediction by ZEFSAII (Michael W. Deem and Ramdas Pophale) SiO2 
 PCOD8129559
Probable space group: C 2/C
;
_chemical_formula_sum "Si O2"
_cell_formula_units_Z 28
_cell_length_a 15.000000
_cell_length_b 21.000000
_cell_length_c 18.000000
_cell_angle_alpha 90.000000
_cell_angle_beta 30.000000
_cell_angle_gamma 90.000000
_cell_volume 2835.000000
_symmetry_space_group_name_H-M "C 2/C"
_symmetry_group_IT_number 15
_symmetry_cell_setting 'monoclinic'
loop_
_space_group_symop_operation_xyz
x,y,z
-x,y,1/2-z
-x,-y,-z
x,-y,1/2+z
1/2+x,1/2+y,z
1/2-x,1/2+y,1/2-z
1/2-x,1/2-y,-z
1/2+x,1/2-y,1/2+z
loop_
_atom_site_type_symbol
_atom_site_label
_atom_site_fract_x
_atom_site_fract_y
_atom_site_fract_z
Si Si1 0.504324 0.184513 0.398499
Si Si2 0.044761 0.413359 0.986241
Si Si3 0.000000 0.735093 0.750000
Si Si4 0.609591 0.289423 0.917116
Si Si5 0.000000 0.623857 0.250000
Si Si6 0.627057 0.207803 0.512291
Si Si7 0.217558 0.988648 0.258558
Si Si8 0.361514 0.427099 0.542565
O O1 0.480400 0.114814 0.453420
O O2 0.375265 0.237950 0.526637
O O3 0.706722 0.210209 0.261196
O O4 0.462502 0.172807 0.343281
O O5 0.199643 0.466635 0.865948
O O6 0.138530 0.355680 0.958259
O O7 0.872562 0.436001 0.157355
O O8 0.169583 0.779685 0.614627
O O9 0.000321 0.692951 0.675122
O O10 0.453434 0.267668 0.974546
O O11 0.567528 0.359445 0.978640
O O12 0.821713 0.581013 0.371237
O O13 0.025180 0.957173 0.376044
O O14 0.189679 0.026745 0.353844
#
# Coordination Sequence:
#
# PCOD8129559 Si02
#       8
#     8   8   4   8   4   8   8   8
#     4  10  21  35  62  89 116 153 192 240 309 339
#     4  10  20  39  64  84 115 155 205 246 272 363
#     4  10  22  36  55  92 121 148 180 254 312 340
#     4  10  20  36  62  88 108 159 199 238 290 370
#     4  10  20  42  57  88 131 144 184 266 296 340
#     4  10  21  37  60  85 121 149 193 246 301 345
#     4  10  21  39  62  87 110 161 214 229 281 351
#     4  10  22  38  63  88 116 157 200 245 288 351
#
# _framework density 9.8765429999999999
#
# number of rings (size 3 to 8) (size 9 to 14) (size 15 to 20)
#    0.000    2.000    2.857    1.714    6.000    2.286 
#    0.000    2.857    0.000    0.000    0.000    0.000 
#    0.000    0.000    0.000    0.000    0.000    0.000 
#
# Total GULP energy -346917.782908 kJ/mol
# GULP energy per Si atom -12389.920818 kJ/mol
# Density = 0.985406 g / cm^3
# Si number density = 9.876543 Si / 1000 Ang^3
#
#
#
# Elastic Constant Matrix: (Units=GPa)
#
#
# Indices 1 2 3 4 5 6 
#
# 1 77.9116 30.4751 34.6786 0.0100 -4.4577 -0.0008
# 2 30.4751 93.2615 52.6203 -0.0291 -8.2268 -0.0066
# 3 34.6786 52.6203 132.4457 0.0608 -20.0241 0.0041
# 4 0.0100 -0.0291 0.0608 36.3959 -0.0188 4.2714
# 5 -4.4577 -8.2268 -20.0241 -0.0188 29.9186 -0.0032
# 6 -0.0008 -0.0066 0.0041 4.2714 -0.0032 5.9910
#
#
#
# Elastic Compliance Matrix: (Units=1/GPa)
#
#
# Indices 1 2 3 4 5 6 
#
# 1 0.015396 -0.003555 -0.002692 -0.000003 -0.000485 0.000002
# 2 -0.003555 0.014642 -0.004848 0.000020 0.000252 0.000005
# 3 -0.002692 -0.004848 0.011036 -0.000019 0.005652 0.000003
# 4 -0.000003 0.000020 -0.000019 0.029985 0.000009 -0.021378
# 5 -0.000485 0.000252 0.005652 0.000009 0.037204 0.000010
# 6 0.000002 0.000005 0.000003 -0.021378 0.000010 0.182158
#
#
# Mechanical properties :
#
#
# Convention : Reuss Voigt Hill
#
# Bulk Modulus (GPa) = 52.95764 59.90741 56.43252
# Shear Modulus (GPa) = 15.67866 26.85078 21.26472
#
# Velocity S-wave (km/s) = 2.82038 3.69090 3.28461
# Velocity P-wave (km/s) = 6.12161 6.96833 6.55865
#
# Compressibility (1/GPa) = 0.01888302
#
# Stress axis : x y z
#
# Youngs Moduli (GPa) = 64.95162 68.29707 90.61294
#
# Poissons Ratio (x) = 0.24278 0.24396
# Poissons Ratio (y) = 0.23089 0.43933
# Poissons Ratio (z) = 0.17487 0.33113
#
# Static dielectric constant tensor:
#      x y z
#    x 3.524380 0.000030 0.206210 
#    y 0.000030 3.737800 0.000180 
#    z 0.206210 0.000180 4.092030 
# 
# 
# High freq. dielectric constant tensor:
#      x y z
#    x 1.735090 0.000000 0.004730 
#    y 0.000000 1.765170 0.000010 
#    z 0.004730 0.000010 1.792810 
# 
# From -- ./inp_files/206941.got.cif
#   From: 2010.06.25/outbox.ucp.g09.slc.cvg/sg15_104_cif.got.tgz:206941.got - 2010.06.28 14:40:10.
