data_PCOD8129553
_publ_section_title
;
Structure prediction by ZEFSAII (Michael W. Deem and Ramdas Pophale) SiO2 
 PCOD8129553
Probable space group: C 2/C
;
_chemical_formula_sum "Si O2"
_cell_formula_units_Z 30
_cell_length_a 15.000000
_cell_length_b 27.000000
_cell_length_c 15.000000
_cell_angle_alpha 90.000000
_cell_angle_beta 30.000000
_cell_angle_gamma 90.000000
_cell_volume 3037.500000
_symmetry_space_group_name_H-M "C 2/C"
_symmetry_group_IT_number 15
_symmetry_cell_setting 'monoclinic'
loop_
_space_group_symop_operation_xyz
x,y,z
-x,y,1/2-z
-x,-y,-z
x,-y,1/2+z
1/2+x,1/2+y,z
1/2-x,1/2+y,1/2-z
1/2-x,1/2-y,-z
1/2+x,1/2-y,1/2+z
loop_
_atom_site_type_symbol
_atom_site_label
_atom_site_fract_x
_atom_site_fract_y
_atom_site_fract_z
Si Si1 0.944509 0.048905 0.429109
Si Si2 0.044080 0.443070 0.481121
Si Si3 0.609926 0.903037 0.244361
Si Si4 0.764523 0.809276 0.821752
Si Si5 0.296763 0.602690 0.170555
Si Si6 0.420911 0.794127 0.223450
Si Si7 0.047627 0.937136 0.306847
Si Si8 0.500000 0.628789 0.250000
O O1 0.761529 0.055651 0.642620
O O2 0.882558 0.088773 0.406658
O O3 0.121749 0.067680 0.322908
O O4 0.972727 0.993059 0.375745
O O5 0.996635 0.410293 0.433308
O O6 0.242477 0.434918 0.351058
O O7 0.000000 0.500000 0.500000
O O8 0.900573 0.419956 0.676482
O O9 0.500000 0.917155 0.250000
O O10 0.687473 0.845993 0.167997
O O11 0.789234 0.839241 0.707504
O O12 0.811546 0.750769 0.774274
O O13 0.879285 0.835393 0.797714
O O14 0.563647 0.810797 0.027575
O O15 0.430070 0.598440 0.971737
O O16 0.500000 0.776125 0.250000
O O17 0.000000 0.917351 0.250000
#
# Coordination Sequence:
#
# PCOD8129553 Si02
#       8
#     8   8   8   8   8   8   8   4
#     4  11  21  38  59  88 129 168 218 255 311 379
#     4  12  24  43  62  91 134 171 216 270 319 386
#     4  11  24  37  61  93 136 183 210 253 313 384
#     4  11  23  36  58  89 130 176 208 257 308 382
#     4  11  24  43  61  89 127 171 214 265 327 383
#     4  11  22  36  57  94 133 171 216 250 308 390
#     4  12  26  44  66  93 121 168 228 279 326 372
#     4  10  20  32  54  82 128 172 204 252 294 370
#
# _framework density 9.8765429999999999
#
# number of rings (size 3 to 8) (size 9 to 14) (size 15 to 20)
#    0.000    0.800    5.333    3.200    7.467    0.533 
#    0.000    0.000    0.000    0.000    0.000    3.733 
#    0.000    0.000    0.000    0.000    0.000    0.000 
#
# Total GULP energy -371642.607666 kJ/mol
# GULP energy per Si atom -12388.086922 kJ/mol
# Density = 0.985406 g / cm^3
# Si number density = 9.876543 Si / 1000 Ang^3
#
#
#
# Elastic Constant Matrix: (Units=GPa)
#
#
# Indices 1 2 3 4 5 6 
#
# 1 91.7547 39.0829 44.6748 -0.0048 -3.0964 -0.0064
# 2 39.0829 109.1943 31.2655 0.0212 1.3730 -0.0053
# 3 44.6748 31.2655 104.5773 -0.0643 -13.7378 0.0042
# 4 -0.0048 0.0212 -0.0643 31.9714 0.0134 -4.7444
# 5 -3.0964 1.3730 -13.7378 0.0134 31.4545 -0.0040
# 6 -0.0064 -0.0053 0.0042 -4.7444 -0.0040 26.0375
#
#
#
# Elastic Compliance Matrix: (Units=1/GPa)
#
#
# Indices 1 2 3 4 5 6 
#
# 1 0.015157 -0.003867 -0.005411 -0.000005 -0.000702 0.000003
# 2 -0.003867 0.011104 -0.001890 -0.000011 -0.001691 -0.000001
# 3 -0.005411 -0.001890 0.013133 0.000025 0.005286 0.000002
# 4 -0.000005 -0.000011 0.000025 0.032147 -0.000002 0.005858
# 5 -0.000702 -0.001691 0.005286 -0.000002 0.034105 0.000003
# 6 0.000003 -0.000001 0.000002 0.005858 0.000003 0.039473
#
#
# Mechanical properties :
#
#
# Convention : Reuss Voigt Hill
#
# Bulk Modulus (GPa) = 58.62183 59.50810 59.06497
# Shear Modulus (GPa) = 28.87799 30.59289 29.73544
#
# Velocity S-wave (km/s) = 3.82769 3.93970 3.88410
# Velocity P-wave (km/s) = 7.01974 7.13347 7.07683
#
# Compressibility (1/GPa) = 0.01705849
#
# Stress axis : x y z
#
# Youngs Moduli (GPa) = 65.97822 90.05419 76.14185
#
# Poissons Ratio (x) = 0.34821 0.41201
# Poissons Ratio (y) = 0.25511 0.14392
# Poissons Ratio (z) = 0.35701 0.17022
#
# Static dielectric constant tensor:
#      x y z
#    x 3.296180 -0.000050 0.500380 
#    y -0.000050 3.903750 0.000210 
#    z 0.500380 0.000210 2.690480 
# 
# 
# High freq. dielectric constant tensor:
#      x y z
#    x 1.732800 0.000000 -0.008830 
#    y 0.000000 1.773810 0.000010 
#    z -0.008830 0.000010 1.794280 
# 
# From -- ./inp_files/157312.got.cif
#   From: 2010.06.25/outbox.ucp.g09.slc.cvg/sg15_79_cif.got.tgz:157312.got - 2010.06.28 14:40:10.
