data_PCOD8129450
_publ_section_title
;
Structure prediction by ZEFSAII (Michael W. Deem and Ramdas Pophale) SiO2 
 PCOD8129450
Probable space group: P 21/C
;
_chemical_formula_sum "Si O2"
_cell_formula_units_Z 16
_cell_length_a 9.218288
_cell_length_b 4.822827
_cell_length_c 21.384692
_cell_angle_alpha 90.000000
_cell_angle_beta 139.934132
_cell_angle_gamma 90.000000
_cell_volume 611.951165
_symmetry_space_group_name_H-M "P 21/C"
_symmetry_group_IT_number 14
_symmetry_cell_setting 'monoclinic'
loop_
_space_group_symop_operation_xyz
x,y,z
-x,1/2+y,1/2-z
-x,-y,-z
x,1/2-y,1/2+z
loop_
_atom_site_type_symbol
_atom_site_label
_atom_site_fract_x
_atom_site_fract_y
_atom_site_fract_z
Si Si1 0.435594 0.573787 0.568001
Si Si2 0.367539 0.841918 0.184910
Si Si3 0.258545 0.570385 0.846578
Si Si4 0.039157 0.183736 0.864107
O O1 0.342883 0.531084 0.607566
O O2 0.513695 0.888860 0.584607
O O3 0.241977 0.507992 0.454740
O O4 0.657648 0.387701 0.627357
O O5 0.529708 0.575988 0.235877
O O6 0.127367 0.747703 0.133393
O O7 0.131249 0.477914 0.868189
O O8 0.088060 0.512974 0.732677
#
# Coordination Sequence:
#
# PCOD8129450 Si02
#       4
#     4   4   4   4
#     4  12  26  50  75 113 148 202 250 316 367 466
#     4  12  25  49  76 108 154 197 256 311 371 449
#     4  12  27  47  74 114 154 189 257 309 377 451
#     4  12  27  48  79 109 155 201 247 309 396 426
#
# _framework density 26.145879000000001
#
# number of rings (size 3 to 8) (size 9 to 14) (size 15 to 20)
#    0.000    0.000    5.000    3.750    0.000    8.000 
#    0.000    5.000    0.000    0.000    0.000    0.000 
#    0.000    0.000    0.000    0.000    0.000    0.000 
#
# Total GULP energy -198531.391253 kJ/mol
# GULP energy per Si atom -12408.211953 kJ/mol
# Density = 2.608637 g / cm^3
# Si number density = 26.145879 Si / 1000 Ang^3
#
#
#
# Elastic Constant Matrix: (Units=GPa)
#
#
# Indices 1 2 3 4 5 6 
#
# 1 194.6559 19.4070 42.6139 0.0000 -13.1219 0.0000
# 2 19.4070 74.7329 6.8441 0.0000 -3.8079 0.0000
# 3 42.6139 6.8441 130.3280 0.0000 8.6059 0.0000
# 4 0.0000 0.0000 0.0000 31.2481 0.0000 1.4365
# 5 -13.1219 -3.8079 8.6059 0.0000 31.3281 0.0000
# 6 0.0000 0.0000 0.0000 1.4365 0.0000 28.0640
#
#
#
# Elastic Compliance Matrix: (Units=1/GPa)
#
#
# Indices 1 2 3 4 5 6 
#
# 1 0.005902 -0.001197 -0.002058 0.000000 0.002892 0.000000
# 2 -0.001197 0.013796 -0.000418 0.000000 0.001290 0.000000
# 3 -0.002058 -0.000418 0.008584 0.000000 -0.003271 0.000000
# 4 0.000000 0.000000 0.000000 0.032077 0.000000 -0.001642
# 5 0.002892 0.001290 -0.003271 0.000000 0.034187 0.000000
# 6 0.000000 0.000000 0.000000 -0.001642 0.000000 0.035717
#
#
# Mechanical properties :
#
#
# Convention : Reuss Voigt Hill
#
# Bulk Modulus (GPa) = 47.76592 59.71630 53.74111
# Shear Modulus (GPa) = 34.58106 40.18480 37.38293
#
# Velocity S-wave (km/s) = 3.64073 3.92464 3.78535
# Velocity P-wave (km/s) = 5.99849 6.58987 6.30112
#
# Compressibility (1/GPa) = 0.02093543
#
# Stress axis : x y z
#
# Youngs Moduli (GPa) = 169.43214 72.48556 116.49862
#
# Poissons Ratio (x) = 0.08675 0.23975
# Poissons Ratio (y) = 0.20279 0.04874
# Poissons Ratio (z) = 0.34868 0.03032
#
# Static dielectric constant tensor:
#      x y z
#    x 4.782810 0.000000 -0.036310 
#    y 0.000000 4.372380 0.000000 
#    z -0.036310 0.000000 4.796550 
# 
# 
# High freq. dielectric constant tensor:
#      x y z
#    x 2.064870 0.000000 -0.002070 
#    y 0.000000 2.043080 0.000000 
#    z -0.002070 0.000000 2.054030 
# 
# From -- ./inp_files/47779.got.cif
#   From: 2010.03.12/outbox.cif.g09.slc.cpg/sg14_24_cif.got.tgz:47779.got - 2010.03.31 13:35:05.
