data_PCOD8129057
_publ_section_title
;
Structure prediction by ZEFSAII (Michael W. Deem and Ramdas Pophale) SiO2 
 PCOD8129057
Probable space group: P 21/C
;
_chemical_formula_sum "Si O2"
_cell_formula_units_Z 20
_cell_length_a 5.054371
_cell_length_b 9.735214
_cell_length_c 17.731986
_cell_angle_alpha 90.000000
_cell_angle_beta 102.489185
_cell_angle_gamma 90.000000
_cell_volume 851.862848
_symmetry_space_group_name_H-M "P 21/C"
_symmetry_group_IT_number 14
_symmetry_cell_setting 'monoclinic'
loop_
_space_group_symop_operation_xyz
x,y,z
-x,1/2+y,1/2-z
-x,-y,-z
x,1/2-y,1/2+z
loop_
_atom_site_type_symbol
_atom_site_label
_atom_site_fract_x
_atom_site_fract_y
_atom_site_fract_z
Si Si1 0.652789 0.229171 0.884937
Si Si2 0.879187 0.944439 0.143915
Si Si3 0.359656 0.268933 0.155149
Si Si4 0.792216 0.215410 0.062599
Si Si5 0.608036 0.457321 0.764897
O O1 0.345253 0.176479 0.872299
O O2 0.682768 0.373865 0.844349
O O3 0.823790 0.117528 0.848542
O O4 0.779622 0.253987 0.974584
O O5 0.821793 0.050765 0.072441
O O6 0.864549 0.024013 0.223687
O O7 0.521917 0.265696 0.087115
O O8 0.481421 0.390144 0.214897
O O9 0.381019 0.125453 0.202807
O O10 0.046548 0.293391 0.116132
#
# Coordination Sequence:
#
# PCOD8129057 Si02
#       5
#     4   4   4   4   4
#     4  12  25  44  72 103 138 184 228 283 344 405
#     4  11  24  42  71 100 142 179 235 275 339 411
#     4  11  26  45  70 100 143 178 232 281 343 409
#     4  11  25  44  71 102 141 180 228 284 343 408
#     4  11  26  45  71 103 137 185 230 282 344 404
#
# _framework density 23.477959999999999
#
# number of rings (size 3 to 8) (size 9 to 14) (size 15 to 20)
#    0.000    0.800    2.000    4.800    5.600    6.400 
#    0.000    0.000    0.000    0.000    0.000    0.000 
#    0.000    0.000    0.000    0.000    0.000    0.000 
#
# Total GULP energy -248054.818746 kJ/mol
# GULP energy per Si atom -12402.740937 kJ/mol
# Density = 2.342452 g / cm^3
# Si number density = 23.477960 Si / 1000 Ang^3
#
#
#
# Elastic Constant Matrix: (Units=GPa)
#
#
# Indices 1 2 3 4 5 6 
#
# 1 74.0194 11.3972 23.0125 0.0000 -5.2838 0.0000
# 2 11.3972 95.1021 39.6302 0.0000 -1.0465 0.0000
# 3 23.0125 39.6302 132.8468 0.0000 2.3908 0.0000
# 4 0.0000 0.0000 0.0000 37.9426 0.0000 -6.3468
# 5 -5.2838 -1.0465 2.3908 0.0000 27.2890 0.0000
# 6 0.0000 0.0000 0.0000 -6.3468 0.0000 23.2541
#
#
#
# Elastic Compliance Matrix: (Units=1/GPa)
#
#
# Indices 1 2 3 4 5 6 
#
# 1 0.014570 -0.000730 -0.002360 0.000000 0.003000 0.000000
# 2 -0.000730 0.012061 -0.003483 0.000000 0.000626 0.000000
# 3 -0.002360 -0.003483 0.009000 0.000000 -0.001379 0.000000
# 4 0.000000 0.000000 0.000000 0.027616 0.000000 0.007537
# 5 0.003000 0.000626 -0.001379 0.000000 0.037371 0.000000
# 6 0.000000 0.000000 0.000000 0.007537 0.000000 0.045060
#
#
# Mechanical properties :
#
#
# Convention : Reuss Voigt Hill
#
# Bulk Modulus (GPa) = 44.47253 50.00535 47.23894
# Shear Modulus (GPa) = 30.06275 32.89237 31.47756
#
# Velocity S-wave (km/s) = 3.58224 3.74704 3.66557
# Velocity P-wave (km/s) = 6.00777 6.32973 6.17085
#
# Compressibility (1/GPa) = 0.02248579
#
# Stress axis : x y z
#
# Youngs Moduli (GPa) = 68.63293 82.91428 111.10977
#
# Poissons Ratio (x) = 0.06049 0.26225
# Poissons Ratio (y) = 0.05007 0.38697
# Poissons Ratio (z) = 0.16199 0.28877
#
# Static dielectric constant tensor:
#      x y z
#    x 3.983230 0.000000 -0.254190 
#    y 0.000000 4.180490 0.000000 
#    z -0.254190 0.000000 4.264470 
# 
# 
# High freq. dielectric constant tensor:
#      x y z
#    x 1.926440 0.000000 -0.010990 
#    y 0.000000 1.921920 0.000000 
#    z -0.010990 0.000000 1.939520 
# 
# From -- ./inp_files/52682.got.cif
#   From: 2010.03.12/outbox.cif.g09.slc.cpg/sg14_27_cif.got.tgz:52682.got - 2010.03.31 13:35:05.
