data_PCOD8129313
_publ_section_title
;
Structure prediction by ZEFSAII (Michael W. Deem and Ramdas Pophale) SiO2 
 PCOD8129313
Probable space group: P 21/C
;
_chemical_formula_sum "Si O2"
_cell_formula_units_Z 28
_cell_length_a 8.136982
_cell_length_b 20.796583
_cell_length_c 9.316619
_cell_angle_alpha 90.000000
_cell_angle_beta 50.292606
_cell_angle_gamma 90.000000
_cell_volume 1212.883448
_symmetry_space_group_name_H-M "P 21/C"
_symmetry_group_IT_number 14
_symmetry_cell_setting 'monoclinic'
loop_
_space_group_symop_operation_xyz
x,y,z
-x,1/2+y,1/2-z
-x,-y,-z
x,1/2-y,1/2+z
loop_
_atom_site_type_symbol
_atom_site_label
_atom_site_fract_x
_atom_site_fract_y
_atom_site_fract_z
Si Si1 0.926372 0.072826 0.876766
Si Si2 0.499997 0.368548 0.500000
Si Si3 0.726789 0.669091 0.872626
Si Si4 0.926376 0.927174 0.876764
Si Si5 0.765725 0.280457 0.143456
Si Si6 0.726788 0.169091 0.372628
Si Si7 0.234272 0.280459 0.856547
O O1 0.678225 0.089249 0.984773
O O2 0.082648 0.119719 0.699461
O O3 0.965545 0.000000 0.803950
O O4 0.999993 0.081022 0.000005
O O5 0.321772 0.410751 0.515222
O O6 0.612997 0.326768 0.316078
O O7 0.386992 0.326770 0.683927
O O8 0.775250 0.708207 0.699901
O O9 0.500001 0.631083 0.999996
O O10 0.692075 0.722899 0.018123
O O11 0.082648 0.880281 0.699458
O O12 0.775247 0.208205 0.199903
O O13 0.692080 0.277099 0.018120
O O14 0.999998 0.310773 0.000006
#
# Coordination Sequence:
#
# PCOD8129313 Si02
#       7
#     4   4   4   4   4   4   4
#     4  11  26  48  74 104 145 197 244 295 357 430
#     4  12  25  48  74 106 149 186 244 300 362 430
#     4  12  25  43  71 109 149 186 238 300 362 439
#     4  11  26  48  74 104 145 197 244 295 357 430
#     4  12  25  42  70 112 145 186 233 299 377 420
#     4  12  25  43  71 109 149 186 238 300 362 439
#     4  12  25  42  70 112 145 186 233 299 377 420
#
# _framework density 23.085484000000001
#
# number of rings (size 3 to 8) (size 9 to 14) (size 15 to 20)
#    0.000    0.286    4.286    4.714    4.000    0.571 
#    0.000    4.286    0.000    0.000    0.000    0.000 
#    0.000    0.000    0.000    0.000    0.000    0.000 
#
# Total GULP energy -347000.566771 kJ/mol
# GULP energy per Si atom -12392.877385 kJ/mol
# Density = 2.303294 g / cm^3
# Si number density = 23.085484 Si / 1000 Ang^3
#
#
#
# Elastic Constant Matrix: (Units=GPa)
#
#
# Indices 1 2 3 4 5 6 
#
# 1 172.7819 52.4318 56.9285 0.0000 -38.3250 0.0000
# 2 52.4318 140.5893 55.9899 0.0000 -23.9149 0.0000
# 3 56.9285 55.9899 127.1603 0.0000 -27.3248 0.0000
# 4 0.0000 0.0000 0.0000 19.5956 0.0000 -8.6263
# 5 -38.3250 -23.9149 -27.3248 0.0000 34.5423 0.0000
# 6 0.0000 0.0000 0.0000 -8.6263 0.0000 37.4785
#
#
#
# Elastic Compliance Matrix: (Units=1/GPa)
#
#
# Indices 1 2 3 4 5 6 
#
# 1 0.008259 -0.001231 -0.001650 0.000000 0.007006 0.000000
# 2 -0.001231 0.009192 -0.002918 0.000000 0.002689 0.000000
# 3 -0.001650 -0.002918 0.010916 0.000000 0.004784 0.000000
# 4 0.000000 0.000000 0.000000 0.056786 0.000000 0.013070
# 5 0.007006 0.002689 0.004784 0.000000 0.042369 0.000000
# 6 0.000000 0.000000 0.000000 0.013070 0.000000 0.029690
#
#
# Mechanical properties :
#
#
# Convention : Reuss Voigt Hill
#
# Bulk Modulus (GPa) = 59.63862 85.69243 72.66553
# Shear Modulus (GPa) = 28.66991 36.66870 32.66931
#
# Velocity S-wave (km/s) = 3.52789 3.98978 3.76592
# Velocity P-wave (km/s) = 6.51802 7.64360 7.10314
#
# Compressibility (1/GPa) = 0.01676766
#
# Stress axis : x y z
#
# Youngs Moduli (GPa) = 121.08280 108.79375 91.61230
#
# Poissons Ratio (x) = 0.13396 0.15114
# Poissons Ratio (y) = 0.14909 0.26733
# Poissons Ratio (z) = 0.19977 0.31747
#
# Static dielectric constant tensor:
#      x y z
#    x 4.728830 0.000000 -0.126550 
#    y 0.000000 3.853220 0.000000 
#    z -0.126550 0.000000 4.326230 
# 
# 
# High freq. dielectric constant tensor:
#      x y z
#    x 1.946690 0.000000 -0.012490 
#    y 0.000000 1.878890 0.000000 
#    z -0.012490 0.000000 1.921940 
# 
# From -- ./inp_files/10363.got.cif
#   From: 2010.03.12/outbox.cif.g09.slc.cpg/sg14_6_cif.got.tgz:10363.got - 2010.03.31 13:35:05.
