data_PCOD8129717
_publ_section_title
;
Structure prediction by ZEFSAII (Michael W. Deem and Ramdas Pophale) SiO2 
 PCOD8129717
Probable space group: C 2/C
;
_chemical_formula_sum "Si O2"
_cell_formula_units_Z 32
_cell_length_a 10.828164
_cell_length_b 34.828273
_cell_length_c 5.382601
_cell_angle_alpha 90.000000
_cell_angle_beta 52.798596
_cell_angle_gamma 90.000000
_cell_volume 1616.862049
_symmetry_space_group_name_H-M "C 2/C"
_symmetry_group_IT_number 15
_symmetry_cell_setting 'monoclinic'
loop_
_space_group_symop_operation_xyz
x,y,z
-x,y,1/2-z
-x,-y,-z
x,-y,1/2+z
1/2+x,1/2+y,z
1/2-x,1/2+y,1/2-z
1/2-x,1/2-y,-z
1/2+x,1/2-y,1/2+z
loop_
_atom_site_type_symbol
_atom_site_label
_atom_site_fract_x
_atom_site_fract_y
_atom_site_fract_z
Si Si1 0.828060 0.098203 0.461740
Si Si2 0.500000 0.524627 0.250000
Si Si3 0.680065 0.368717 0.028219
Si Si4 0.500000 0.245790 0.750000
Si Si5 0.713687 0.717102 0.353280
O O1 0.846074 0.051735 0.440244
O O2 0.741722 0.113254 0.817195
O O3 0.000000 0.117662 0.250000
O O4 0.741931 0.112633 0.314856
O O5 0.500000 0.500000 0.500000
O O6 0.500000 0.380727 0.250000
O O7 0.705383 0.323286 0.001539
O O8 0.449412 0.274033 0.585757
O O9 0.643575 0.217729 0.514707
O O10 0.750000 0.750000 0.500000
#
# Coordination Sequence:
#
# PCOD8129717 Si02
#       5
#     8   4   8   4   8
#     4   8  18  28  42  72  97 133 185 199 267 329
#     4  10  16  27  46  68 106 144 172 216 256 334
#     4  10  18  31  50  68 102 138 180 228 261 331
#     4  10  24  37  52  78 102 132 202 236 298 336
#     4  11  23  37  55  75 104 144 192 247 288 330
#
# _framework density 19.791422000000001
#
# number of rings (size 3 to 8) (size 9 to 14) (size 15 to 20)
#    0.750    1.500    0.000    3.750   12.250    0.000 
#    0.000    0.000    0.000    0.000    0.000    0.000 
#    0.000    0.000    0.000   22.500    0.000    0.250 
#
# Total GULP energy -198266.291443 kJ/mol
# GULP energy per Si atom -12391.643215 kJ/mol
# Density = 1.974638 g / cm^3
# Si number density = 19.791422 Si / 1000 Ang^3
#
#
#
# Elastic Constant Matrix: (Units=GPa)
#
#
# Indices 1 2 3 4 5 6 
#
# 1 80.7392 44.9083 46.2766 0.0000 37.6941 0.0000
# 2 44.9083 146.4744 50.2695 0.0000 42.7984 0.0000
# 3 46.2766 50.2695 81.4114 0.0000 50.3963 0.0000
# 4 0.0000 0.0000 0.0000 38.7135 0.0000 13.9963
# 5 37.6941 42.7984 50.3963 0.0000 54.8139 0.0000
# 6 0.0000 0.0000 0.0000 13.9963 0.0000 25.3529
#
#
#
# Elastic Compliance Matrix: (Units=1/GPa)
#
#
# Indices 1 2 3 4 5 6 
#
# 1 0.020126 -0.002177 -0.005990 0.000000 -0.006634 0.000000
# 2 -0.002177 0.009355 -0.002191 0.000000 -0.003793 0.000000
# 3 -0.005990 -0.002191 0.031176 0.000000 -0.022833 0.000000
# 4 0.000000 0.000000 0.000000 0.032272 0.000000 -0.017816
# 5 -0.006634 -0.003793 -0.022833 0.000000 0.046759 0.000000
# 6 0.000000 0.000000 0.000000 -0.017816 0.000000 0.049279
#
#
# Mechanical properties :
#
#
# Convention : Reuss Voigt Hill
#
# Bulk Modulus (GPa) = 25.03688 65.72595 45.38142
# Shear Modulus (GPa) = 22.42193 34.92079 28.67136
#
# Velocity S-wave (km/s) = 3.36953 4.20508 3.81028
# Velocity P-wave (km/s) = 5.27410 7.54045 6.50671
#
# Compressibility (1/GPa) = 0.03994108
#
# Stress axis : x y z
#
# Youngs Moduli (GPa) = 49.68580 106.89843 32.07641
#
# Poissons Ratio (x) = 0.23268 0.19213
# Poissons Ratio (y) = 0.10815 0.07029
# Poissons Ratio (z) = 0.29761 0.23424
#
# Static dielectric constant tensor:
#      x y z
#    x 3.492570 0.000000 0.456280 
#    y 0.000000 3.385630 0.000000 
#    z 0.456280 0.000000 4.001880 
# 
# 
# High freq. dielectric constant tensor:
#      x y z
#    x 1.732600 0.000000 0.052040 
#    y 0.000000 1.756520 0.000000 
#    z 0.052040 0.000000 1.768960 
# 
# From -- ./inp_files/5409.got.cif
#   From: 2010.06.25/outbox.cif.g09.slc.cpg/sg15_3_cif.got.tgz:5409.got - 2010.06.28 07:06:18.
