data_PCOD8129247
_publ_section_title
;
Structure prediction by ZEFSAII (Michael W. Deem and Ramdas Pophale) SiO2 
 PCOD8129247
Probable space group: P 21/C
;
_chemical_formula_sum "Si O2"
_cell_formula_units_Z 20
_cell_length_a 11.499599
_cell_length_b 7.634682
_cell_length_c 11.027441
_cell_angle_alpha 90.000000
_cell_angle_beta 118.312163
_cell_angle_gamma 90.000000
_cell_volume 852.347964
_symmetry_space_group_name_H-M "P 21/C"
_symmetry_group_IT_number 14
_symmetry_cell_setting 'monoclinic'
loop_
_space_group_symop_operation_xyz
x,y,z
-x,1/2+y,1/2-z
-x,-y,-z
x,1/2-y,1/2+z
loop_
_atom_site_type_symbol
_atom_site_label
_atom_site_fract_x
_atom_site_fract_y
_atom_site_fract_z
Si Si1 0.126721 0.672225 0.397258
Si Si2 0.273462 0.489429 0.899230
Si Si3 0.140815 0.332859 0.244422
Si Si4 0.373128 0.021549 0.708919
Si Si5 0.648539 0.366340 0.301053
O O1 0.183295 0.837756 0.352748
O O2 0.103545 0.512133 0.293919
O O3 0.221828 0.609884 0.552347
O O4 0.987443 0.743791 0.382655
O O5 0.192667 0.308427 0.867582
O O6 0.350244 0.495807 0.808888
O O7 0.370279 0.490841 0.061548
O O8 0.252587 0.362188 0.198029
O O9 0.516469 0.098334 0.816116
O O10 0.358780 0.828586 0.758143
#
# Coordination Sequence:
#
# PCOD8129247 Si02
#       5
#     4   4   4   4   4
#     4  11  26  46  74 104 141 191 243 293 355 419
#     4  11  25  46  70 107 145 187 236 297 348 426
#     4  12  25  47  75 102 145 190 240 297 356 415
#     4  11  26  45  73 106 146 189 239 291 357 427
#     4  11  25  47  71 107 148 187 237 294 355 426
#
# _framework density 23.464596
#
# number of rings (size 3 to 8) (size 9 to 14) (size 15 to 20)
#    0.000    0.800    4.000    1.800    5.600    8.000 
#    0.000    0.000    0.000    0.000    0.000    0.000 
#    0.000    0.000    0.000    0.000    0.000    0.000 
#
# Total GULP energy -247985.125942 kJ/mol
# GULP energy per Si atom -12399.256297 kJ/mol
# Density = 2.341119 g / cm^3
# Si number density = 23.464596 Si / 1000 Ang^3
#
#
#
# Elastic Constant Matrix: (Units=GPa)
#
#
# Indices 1 2 3 4 5 6 
#
# 1 116.0145 31.3261 44.6768 0.0000 19.3965 0.0000
# 2 31.3261 126.6113 41.0601 0.0000 7.7546 0.0000
# 3 44.6768 41.0601 93.1564 0.0000 15.6395 0.0000
# 4 0.0000 0.0000 0.0000 27.0338 0.0000 1.7342
# 5 19.3965 7.7546 15.6395 0.0000 39.3447 0.0000
# 6 0.0000 0.0000 0.0000 1.7342 0.0000 34.9740
#
#
#
# Elastic Compliance Matrix: (Units=1/GPa)
#
#
# Indices 1 2 3 4 5 6 
#
# 1 0.011168 -0.001169 -0.004238 0.000000 -0.003591 0.000000
# 2 -0.001169 0.009339 -0.003583 0.000000 0.000160 0.000000
# 3 -0.004238 -0.003583 0.014869 0.000000 -0.003115 0.000000
# 4 0.000000 0.000000 0.000000 0.037109 0.000000 -0.001840
# 5 -0.003591 0.000160 -0.003115 0.000000 0.028393 0.000000
# 6 0.000000 0.000000 0.000000 -0.001840 0.000000 0.028684
#
#
# Mechanical properties :
#
#
# Convention : Reuss Voigt Hill
#
# Bulk Modulus (GPa) = 57.48006 63.32316 60.40161
# Shear Modulus (GPa) = 32.60725 34.85178 33.72951
#
# Velocity S-wave (km/s) = 3.73183 3.85813 3.79550
# Velocity P-wave (km/s) = 6.56646 6.84778 6.70860
#
# Compressibility (1/GPa) = 0.01739734
#
# Stress axis : x y z
#
# Youngs Moduli (GPa) = 89.54550 107.07220 67.25312
#
# Poissons Ratio (x) = 0.12515 0.28501
# Poissons Ratio (y) = 0.10466 0.24095
# Poissons Ratio (z) = 0.37948 0.38361
#
# Static dielectric constant tensor:
#      x y z
#    x 4.121550 0.000000 0.279530 
#    y 0.000000 4.419890 0.000000 
#    z 0.279530 0.000000 3.839650 
# 
# 
# High freq. dielectric constant tensor:
#      x y z
#    x 1.928450 0.000000 0.018920 
#    y 0.000000 1.950140 0.000000 
#    z 0.018920 0.000000 1.907820 
# 
# From -- ./inp_files/27733.got.cif
#   From: 2010.03.12/outbox.cif.g09.slc.cpg/sg14_14_cif.got.tgz:27733.got - 2010.03.31 13:35:05.
