data_PCOD8129317
_publ_section_title
;
Structure prediction by ZEFSAII (Michael W. Deem and Ramdas Pophale) SiO2 
 PCOD8129317
Probable space group: P 21/C
;
_chemical_formula_sum "Si O2"
_cell_formula_units_Z 20
_cell_length_a 7.651288
_cell_length_b 11.083110
_cell_length_c 10.099991
_cell_angle_alpha 90.000000
_cell_angle_beta 99.842926
_cell_angle_gamma 90.000000
_cell_volume 843.872611
_symmetry_space_group_name_H-M "P 21/C"
_symmetry_group_IT_number 14
_symmetry_cell_setting 'monoclinic'
loop_
_space_group_symop_operation_xyz
x,y,z
-x,1/2+y,1/2-z
-x,-y,-z
x,1/2-y,1/2+z
loop_
_atom_site_type_symbol
_atom_site_label
_atom_site_fract_x
_atom_site_fract_y
_atom_site_fract_z
Si Si1 0.977312 0.821691 0.268818
Si Si2 0.323456 0.490440 0.155785
Si Si3 0.905707 0.629736 0.468761
Si Si4 0.500138 0.614063 0.407754
Si Si5 0.348800 0.640214 0.900386
O O1 0.852201 0.919505 0.323687
O O2 0.998993 0.701828 0.361921
O O3 0.911378 0.798144 0.110009
O O4 0.178863 0.866812 0.282722
O O5 0.373333 0.594056 0.265702
O O6 0.488416 0.399678 0.170404
O O7 0.295348 0.551325 0.011164
O O8 0.703770 0.629855 0.392961
O O9 0.000000 0.500000 0.500000
O O10 0.500000 0.500000 0.500000
O O11 0.410966 0.730068 0.467037
#
# Coordination Sequence:
#
# PCOD8129317 Si02
#       5
#     4   4   4   4   4
#     4  12  27  49  77 110 154 196 255 317 383 455
#     4  11  26  48  75 107 149 195 253 315 381 459
#     4  12  28  49  78 114 155 202 256 318 381 466
#     4  12  25  45  73 106 152 191 249 307 381 445
#     4  11  27  46  76 107 145 197 251 312 381 455
#
# _framework density 23.700258999999999
#
# number of rings (size 3 to 8) (size 9 to 14) (size 15 to 20)
#    0.000    0.400    4.000    3.000    8.400    1.600 
#    0.000    0.000    0.000    0.000    0.000    0.000 
#    0.000    0.000    0.000    0.000    0.000    0.000 
#
# Total GULP energy -247980.073555 kJ/mol
# GULP energy per Si atom -12399.003678 kJ/mol
# Density = 2.364632 g / cm^3
# Si number density = 23.700259 Si / 1000 Ang^3
#
#
#
# Elastic Constant Matrix: (Units=GPa)
#
#
# Indices 1 2 3 4 5 6 
#
# 1 134.7864 44.7326 8.5001 0.0000 15.4189 0.0000
# 2 44.7326 108.6719 33.4922 0.0000 -0.2247 0.0000
# 3 8.5001 33.4922 78.3388 0.0000 -8.7648 0.0000
# 4 0.0000 0.0000 0.0000 37.7816 0.0000 0.8616
# 5 15.4189 -0.2247 -8.7648 0.0000 32.7375 0.0000
# 6 0.0000 0.0000 0.0000 0.8616 0.0000 42.1285
#
#
#
# Elastic Compliance Matrix: (Units=1/GPa)
#
#
# Indices 1 2 3 4 5 6 
#
# 1 0.009174 -0.003835 0.000163 0.000000 -0.004304 0.000000
# 2 -0.003835 0.012246 -0.004750 0.000000 0.000619 0.000000
# 3 0.000163 -0.004750 0.015222 0.000000 0.003966 0.000000
# 4 0.000000 0.000000 0.000000 0.026480 0.000000 -0.000542
# 5 -0.004304 0.000619 0.003966 0.000000 0.033639 0.000000
# 6 0.000000 0.000000 0.000000 -0.000542 0.000000 0.023748
#
#
# Mechanical properties :
#
#
# Convention : Reuss Voigt Hill
#
# Bulk Modulus (GPa) = 50.51373 55.02742 52.77058
# Shear Modulus (GPa) = 34.73338 38.20099 36.46719
#
# Velocity S-wave (km/s) = 3.83237 4.01913 3.92686
# Velocity P-wave (km/s) = 6.39864 6.69375 6.54786
#
# Compressibility (1/GPa) = 0.01979660
#
# Stress axis : x y z
#
# Youngs Moduli (GPa) = 109.00283 81.65905 65.69446
#
# Poissons Ratio (x) = 0.31320 -0.01070
# Poissons Ratio (y) = 0.41807 0.31206
# Poissons Ratio (z) = -0.01775 0.38789
#
# Static dielectric constant tensor:
#      x y z
#    x 4.212090 0.000000 -0.205100 
#    y 0.000000 4.356590 0.000000 
#    z -0.205100 0.000000 3.973120 
# 
# 
# High freq. dielectric constant tensor:
#      x y z
#    x 1.962660 0.000000 0.006520 
#    y 0.000000 1.942270 0.000000 
#    z 0.006520 0.000000 1.934240 
# 
# From -- ./inp_files/7981.got.cif
#   From: 2010.03.12/outbox.cif.g09.slc.cpg/sg14_4_cif.got.tgz:7981.got - 2010.03.31 13:35:05.
