data_PCOD8129672
_publ_section_title
;
Structure prediction by ZEFSAII (Michael W. Deem and Ramdas Pophale) SiO2 
 PCOD8129672
Probable space group: C 2/C
;
_chemical_formula_sum "Si O2"
_cell_formula_units_Z 64
_cell_length_a 24.555000
_cell_length_b 9.681355
_cell_length_c 14.158814
_cell_angle_alpha 90.000000
_cell_angle_beta 88.382924
_cell_angle_gamma 90.000000
_cell_volume 3364.573095
_symmetry_space_group_name_H-M "C 2/C"
_symmetry_group_IT_number 15
_symmetry_cell_setting 'monoclinic'
loop_
_space_group_symop_operation_xyz
x,y,z
-x,y,1/2-z
-x,-y,-z
x,-y,1/2+z
1/2+x,1/2+y,z
1/2-x,1/2+y,1/2-z
1/2-x,1/2-y,-z
1/2+x,1/2-y,1/2+z
loop_
_atom_site_type_symbol
_atom_site_label
_atom_site_fract_x
_atom_site_fract_y
_atom_site_fract_z
Si Si1 0.383248 0.407983 0.555409
Si Si2 0.986739 0.121968 0.155248
Si Si3 0.391722 0.615530 0.396358
Si Si4 0.944184 0.581280 0.724105
Si Si5 0.364362 0.091419 0.572068
Si Si6 0.815089 0.937724 0.733944
Si Si7 0.356801 0.095210 0.890599
Si Si8 0.222557 0.637507 0.766402
O O1 0.443255 0.452774 0.590195
O O2 0.373548 0.484295 0.457774
O O3 0.380952 0.244510 0.539233
O O4 0.335659 0.459764 0.626842
O O5 0.958660 0.262234 0.195230
O O6 0.000000 0.032847 0.250000
O O7 0.043690 0.143495 0.098541
O O8 0.370121 0.587412 0.291389
O O9 0.360829 0.752028 0.435801
O O10 0.912161 0.520740 0.634304
O O11 0.908513 0.575582 0.820062
O O12 0.000000 0.500277 0.750000
O O13 0.310216 0.093878 0.638231
O O14 0.354491 0.010221 0.476640
O O15 0.775505 0.803775 0.741344
O O16 0.782785 0.072893 0.771015
O O17 0.303515 0.076087 0.828437
#
# Coordination Sequence:
#
# PCOD8129672 Si02
#       8
#     8   8   8   8   8   8   8   8
#     4  10  21  35  55  85 111 141 181 222 275 326
#     4  10  15  34  59  77 108 146 179 215 262 325
#     4  11  20  34  59  84 106 144 185 220 268 326
#     4   9  16  32  57  78 106 148 182 207 263 325
#     4   9  20  36  54  81 114 142 178 224 276 320
#     4  10  21  39  57  79 106 146 186 223 271 329
#     4  10  19  35  57  82 107 145 183 223 264 323
#     4   9  21  38  58  76 107 148 183 226 274 319
#
# _framework density 19.021730000000002
#
# number of rings (size 3 to 8) (size 9 to 14) (size 15 to 20)
#    0.000    2.250    3.750    1.875    0.000    3.500 
#    0.000    6.250    0.000    0.000    0.000    0.000 
#    0.000    0.000    0.000    0.000    0.000    0.000 
#
# Total GULP energy -396528.470910 kJ/mol
# GULP energy per Si atom -12391.514716 kJ/mol
# Density = 1.897844 g / cm^3
# Si number density = 19.021730 Si / 1000 Ang^3
#
#
#
# Elastic Constant Matrix: (Units=GPa)
#
#
# Indices 1 2 3 4 5 6 
#
# 1 69.2783 21.6445 7.8879 0.0000 -1.8444 0.0000
# 2 21.6445 58.5418 41.7559 0.0000 -3.5317 0.0000
# 3 7.8879 41.7559 95.8258 0.0000 -3.8741 0.0000
# 4 0.0000 0.0000 0.0000 33.6514 0.0000 0.4286
# 5 -1.8444 -3.5317 -3.8741 0.0000 17.4868 0.0000
# 6 0.0000 0.0000 0.0000 0.4286 0.0000 21.9262
#
#
#
# Elastic Compliance Matrix: (Units=1/GPa)
#
#
# Indices 1 2 3 4 5 6 
#
# 1 0.016561 -0.007443 0.001907 0.000000 0.000666 0.000000
# 2 -0.007443 0.028251 -0.011603 0.000000 0.002350 0.000000
# 3 0.001907 -0.011603 0.015386 0.000000 0.001266 0.000000
# 4 0.000000 0.000000 0.000000 0.029724 0.000000 -0.000581
# 5 0.000666 0.002350 0.001266 0.000000 0.058012 0.000000
# 6 0.000000 0.000000 0.000000 -0.000581 0.000000 0.045619
#
#
# Mechanical properties :
#
#
# Convention : Reuss Voigt Hill
#
# Bulk Modulus (GPa) = 38.58002 40.69140 39.63571
# Shear Modulus (GPa) = 21.14439 24.77004 22.95722
#
# Velocity S-wave (km/s) = 3.33767 3.61251 3.47781
# Velocity P-wave (km/s) = 5.93123 6.23208 6.08352
#
# Compressibility (1/GPa) = 0.02592015
#
# Stress axis : x y z
#
# Youngs Moduli (GPa) = 60.38463 35.39659 64.99539
#
# Poissons Ratio (x) = 0.26345 -0.12394
# Poissons Ratio (y) = 0.44944 0.75413
# Poissons Ratio (z) = -0.11515 0.41070
#
# Static dielectric constant tensor:
#      x y z
#    x 3.673910 0.000000 0.266080 
#    y 0.000000 3.146570 0.000000 
#    z 0.266080 0.000000 3.512790 
# 
# 
# High freq. dielectric constant tensor:
#      x y z
#    x 1.745850 0.000000 0.006790 
#    y 0.000000 1.699790 0.000000 
#    z 0.006790 0.000000 1.741310 
# 
# From -- ./inp_files/172401.got.cif
#   From: 2010.06.25/outbox.cif.g09.slc.cpg/sg15_87_cif.got.tgz:172401.got - 2010.06.28 07:06:18.
