data_PCOD8129480
_publ_section_title
;
Structure prediction by ZEFSAII (Michael W. Deem and Ramdas Pophale) SiO2 
 PCOD8129480
Probable space group: P 21/C
;
_chemical_formula_sum "Si O2"
_cell_formula_units_Z 28
_cell_length_a 14.100561
_cell_length_b 9.864089
_cell_length_c 11.200729
_cell_angle_alpha 90.000000
_cell_angle_beta 49.397128
_cell_angle_gamma 90.000000
_cell_volume 1182.818183
_symmetry_space_group_name_H-M "P 21/C"
_symmetry_group_IT_number 14
_symmetry_cell_setting 'monoclinic'
loop_
_space_group_symop_operation_xyz
x,y,z
-x,1/2+y,1/2-z
-x,-y,-z
x,1/2-y,1/2+z
loop_
_atom_site_type_symbol
_atom_site_label
_atom_site_fract_x
_atom_site_fract_y
_atom_site_fract_z
Si Si1 0.789755 0.911889 0.186571
Si Si2 0.791854 0.564752 0.323124
Si Si3 0.233665 0.787693 0.832488
Si Si4 0.025303 0.165056 0.507039
Si Si5 0.809731 0.845258 0.426682
Si Si6 0.669987 0.200700 0.993511
Si Si7 0.618756 0.682441 0.276331
O O1 0.900374 0.807137 0.067725
O O2 0.797655 0.939151 0.321655
O O3 0.657019 0.841577 0.261396
O O4 0.804987 0.056501 0.110746
O O5 0.916059 0.555217 0.135361
O O6 0.814281 0.683136 0.399645
O O7 0.765566 0.425051 0.410403
O O8 0.667438 0.598809 0.350021
O O9 0.316790 0.785424 0.641923
O O10 0.297291 0.730302 0.903477
O O11 0.118902 0.688764 0.899572
O O12 0.060187 0.117100 0.612680
O O13 0.687643 0.878595 0.604586
O O14 0.526767 0.158238 0.119969
#
# Coordination Sequence:
#
# PCOD8129480 Si02
#       7
#     4   4   4   4   4   4   4
#     4   9  20  41  70  93 121 180 220 280 330 395
#     4   9  20  41  69  91 120 179 220 275 330 399
#     4  12  28  43  60 103 139 174 217 279 337 401
#     4   9  20  41  67  93 126 170 229 269 332 404
#     4   8  17  38  70  93 117 168 233 268 331 387
#     4  12  27  42  61  99 140 173 220 273 339 398
#     4   9  20  40  67  94 127 171 226 271 328 406
#
# _framework density 23.672277000000001
#
# number of rings (size 3 to 8) (size 9 to 14) (size 15 to 20)
#    0.000    2.857    0.000    2.571    8.000    3.429 
#    5.143    0.000    0.000    0.000    0.000    0.000 
#    0.000    0.000    0.000    0.000    0.000    0.000 
#
# Total GULP energy -346962.487339 kJ/mol
# GULP energy per Si atom -12391.517405 kJ/mol
# Density = 2.361840 g / cm^3
# Si number density = 23.672277 Si / 1000 Ang^3
#
#
#
# Elastic Constant Matrix: (Units=GPa)
#
#
# Indices 1 2 3 4 5 6 
#
# 1 138.5060 -7.5793 70.5015 0.0000 10.2564 0.0000
# 2 -7.5793 49.9705 -6.6151 0.0000 8.1787 0.0000
# 3 70.5015 -6.6151 83.6422 0.0000 15.0976 0.0000
# 4 0.0000 0.0000 0.0000 18.6895 0.0000 2.3818
# 5 10.2564 8.1787 15.0976 0.0000 44.9927 0.0000
# 6 0.0000 0.0000 0.0000 2.3818 0.0000 20.9949
#
#
#
# Elastic Compliance Matrix: (Units=1/GPa)
#
#
# Indices 1 2 3 4 5 6 
#
# 1 0.012676 0.000390 -0.010771 0.000000 0.000654 0.000000
# 2 0.000390 0.021123 0.002184 0.000000 -0.004661 0.000000
# 3 -0.010771 0.002184 0.022179 0.000000 -0.005384 0.000000
# 4 0.000000 0.000000 0.000000 0.054291 0.000000 -0.006159
# 5 0.000654 -0.004661 -0.005384 0.000000 0.024731 0.000000
# 6 0.000000 0.000000 0.000000 -0.006159 0.000000 0.048329
#
#
# Mechanical properties :
#
#
# Convention : Reuss Voigt Hill
#
# Bulk Modulus (GPa) = 25.26453 42.74811 34.00632
# Shear Modulus (GPa) = 23.48308 31.32284 27.40296
#
# Velocity S-wave (km/s) = 3.15303 3.64151 3.40604
# Velocity P-wave (km/s) = 4.89400 5.98150 5.46487
#
# Compressibility (1/GPa) = 0.03958118
#
# Stress axis : x y z
#
# Youngs Moduli (GPa) = 78.89159 47.34207 45.08687
#
# Poissons Ratio (x) = -0.01844 0.48565
# Poissons Ratio (y) = -0.03074 -0.09845
# Poissons Ratio (z) = 0.84978 -0.10337
#
# Static dielectric constant tensor:
#      x y z
#    x 4.329040 0.000000 0.403350 
#    y 0.000000 4.049510 0.000000 
#    z 0.403350 0.000000 4.432900 
# 
# 
# High freq. dielectric constant tensor:
#      x y z
#    x 1.940240 0.000000 0.023440 
#    y 0.000000 1.928020 0.000000 
#    z 0.023440 0.000000 1.940600 
# 
# From -- ./inp_files/32170.got.cif
#   From: 2010.03.12/outbox.cif.g09.slc.cpg/sg14_17_cif.got.tgz:32170.got - 2010.03.31 13:35:05.
