data_PCOD8129680
_publ_section_title
;
Structure prediction by ZEFSAII (Michael W. Deem and Ramdas Pophale) SiO2 
 PCOD8129680
Probable space group: C 2/C
;
_chemical_formula_sum "Si O2"
_cell_formula_units_Z 56
_cell_length_a 13.171675
_cell_length_b 33.497017
_cell_length_c 9.188187
_cell_angle_alpha 90.000000
_cell_angle_beta 134.694798
_cell_angle_gamma 90.000000
_cell_volume 2881.794972
_symmetry_space_group_name_H-M "C 2/C"
_symmetry_group_IT_number 15
_symmetry_cell_setting 'monoclinic'
loop_
_space_group_symop_operation_xyz
x,y,z
-x,y,1/2-z
-x,-y,-z
x,-y,1/2+z
1/2+x,1/2+y,z
1/2-x,1/2+y,1/2-z
1/2-x,1/2-y,-z
1/2+x,1/2-y,1/2+z
loop_
_atom_site_type_symbol
_atom_site_label
_atom_site_fract_x
_atom_site_fract_y
_atom_site_fract_z
Si Si1 0.854150 0.367036 0.930031
Si Si2 0.664995 0.790690 0.755019
Si Si3 0.336472 0.785254 0.406474
Si Si4 0.253500 0.553786 0.772331
Si Si5 0.781683 0.504374 0.019480
Si Si6 0.693105 0.861933 0.291534
Si Si7 0.915169 0.549103 0.412960
O O1 0.780126 0.359237 0.009854
O O2 0.024805 0.366191 0.099219
O O3 0.787840 0.333677 0.757927
O O4 0.818419 0.411341 0.837651
O O5 0.503948 0.781237 0.542816
O O6 0.762927 0.756101 0.785223
O O7 0.687855 0.793751 0.949159
O O8 0.260349 0.821062 0.240832
O O9 0.315151 0.533334 0.684965
O O10 0.304652 0.527260 0.964658
O O11 0.289508 0.600898 0.826880
O O12 0.082617 0.555150 0.591501
O O13 0.875320 0.532637 0.215572
O O14 0.883363 0.481158 0.011021
#
# Coordination Sequence:
#
# PCOD8129680 Si02
#       7
#     8   8   8   8   8   8   8
#     4   9  17  27  39  57  83 114 148 183 220 264
#     4   9  18  32  49  68  89 116 149 184 223 268
#     4   9  18  32  49  68  89 116 149 184 223 268
#     4  10  16  23  32  49  75 109 147 182 213 254
#     4  10  17  22  32  48  74 110 149 182 213 252
#     4   9  17  27  39  57  83 114 148 183 220 264
#     4  10  16  23  32  49  75 109 147 182 213 254
#
# _framework density 19.432331999999999
#
# number of rings (size 3 to 8) (size 9 to 14) (size 15 to 20)
#    0.000    2.571    1.429    3.429    2.000    0.571 
#    0.000    0.000    0.000    0.000    0.000    0.000 
#    0.000    0.000    0.000    7.714    0.000    9.143 
#
# Total GULP energy -346878.553478 kJ/mol
# GULP energy per Si atom -12388.519767 kJ/mol
# Density = 1.938810 g / cm^3
# Si number density = 19.432332 Si / 1000 Ang^3
#
#
#
# Elastic Constant Matrix: (Units=GPa)
#
#
# Indices 1 2 3 4 5 6 
#
# 1 21.1125 31.7122 23.0676 0.0000 -12.3246 0.0000
# 2 31.7122 169.8562 52.6621 0.0000 -18.5021 0.0000
# 3 23.0676 52.6621 70.8520 0.0000 -28.3535 0.0000
# 4 0.0000 0.0000 0.0000 28.9571 0.0000 -9.6027
# 5 -12.3246 -18.5021 -28.3535 0.0000 17.9222 0.0000
# 6 0.0000 0.0000 0.0000 -9.6027 0.0000 21.9445
#
#
#
# Elastic Compliance Matrix: (Units=1/GPa)
#
#
# Indices 1 2 3 4 5 6 
#
# 1 0.097770 -0.011892 -0.002725 0.000000 0.050646 0.000000
# 2 -0.011892 0.009156 -0.006606 0.000000 -0.009176 0.000000
# 3 -0.002725 -0.006606 0.044785 0.000000 0.062158 0.000000
# 4 0.000000 0.000000 0.000000 0.040396 0.000000 0.017677
# 5 0.050646 -0.009176 0.062158 0.000000 0.179487 0.000000
# 6 0.000000 0.000000 0.000000 0.017677 0.000000 0.053305
#
#
# Mechanical properties :
#
#
# Convention : Reuss Voigt Hill
#
# Bulk Modulus (GPa) = 9.15201 52.96718 31.05959
# Shear Modulus (GPa) = 9.92522 24.05668 16.99095
#
# Velocity S-wave (km/s) = 2.26245 3.52230 2.96017
# Velocity P-wave (km/s) = 3.39776 6.62258 5.26324
#
# Compressibility (1/GPa) = 0.10926567
#
# Stress axis : x y z
#
# Youngs Moduli (GPa) = 10.22807 109.21681 22.32873
#
# Poissons Ratio (x) = 1.29882 0.06085
# Poissons Ratio (y) = 0.12163 0.14750
# Poissons Ratio (z) = 0.02787 0.72145
#
# Static dielectric constant tensor:
#      x y z
#    x 3.001670 0.000000 -0.474770 
#    y 0.000000 4.257200 0.000000 
#    z -0.474770 0.000000 3.600220 
# 
# 
# High freq. dielectric constant tensor:
#      x y z
#    x 1.689080 0.000000 -0.044630 
#    y 0.000000 1.779470 0.000000 
#    z -0.044630 0.000000 1.740850 
# 
# From -- ./inp_files/44144.got.cif
#   From: 2010.06.25/outbox.cif.g09.slc.cpg/sg15_23_cif.got.tgz:44144.got - 2010.06.28 07:06:18.
