data_PCOD8129321
_publ_section_title
;
Structure prediction by ZEFSAII (Michael W. Deem and Ramdas Pophale) SiO2 
 PCOD8129321
Probable space group: P 21/C
;
_chemical_formula_sum "Si O2"
_cell_formula_units_Z 16
_cell_length_a 18.306959
_cell_length_b 8.389647
_cell_length_c 8.988201
_cell_angle_alpha 90.000000
_cell_angle_beta 152.681400
_cell_angle_gamma 90.000000
_cell_volume 633.558460
_symmetry_space_group_name_H-M "P 21/C"
_symmetry_group_IT_number 14
_symmetry_cell_setting 'monoclinic'
loop_
_space_group_symop_operation_xyz
x,y,z
-x,1/2+y,1/2-z
-x,-y,-z
x,1/2-y,1/2+z
loop_
_atom_site_type_symbol
_atom_site_label
_atom_site_fract_x
_atom_site_fract_y
_atom_site_fract_z
Si Si1 0.116013 0.408078 0.099727
Si Si2 0.091150 0.884017 0.274882
Si Si3 0.584490 0.777830 0.259427
Si Si4 0.610010 0.368221 0.859480
O O1 0.276319 0.353644 0.475477
O O2 0.162027 0.516732 0.041895
O O3 0.000000 0.500000 0.000000
O O4 0.024087 0.252823 0.871551
O O5 0.233109 0.800958 0.437460
O O6 0.000000 0.000000 0.000000
O O7 0.420564 0.711458 0.036037
O O8 0.633244 0.943112 0.425865
O O9 0.547327 0.819671 0.020705
#
# Coordination Sequence:
#
# PCOD8129321 Si02
#       4
#     4   4   4   4
#     4  12  28  47  78 109 155 203 253 320 383 457
#     4  12  27  49  75 114 153 202 256 315 388 460
#     4  11  26  49  75 109 150 200 256 315 377 455
#     4  11  27  47  76 108 153 196 259 314 378 459
#
# _framework density 25.254180999999999
#
# number of rings (size 3 to 8) (size 9 to 14) (size 15 to 20)
#    0.000    0.500    2.500    4.500   14.000    1.000 
#    0.000    0.000    0.000    0.000    0.000    0.000 
#    0.000    0.000    0.000    0.000    0.000    0.000 
#
# Total GULP energy -198466.473835 kJ/mol
# GULP energy per Si atom -12404.154615 kJ/mol
# Density = 2.519670 g / cm^3
# Si number density = 25.254181 Si / 1000 Ang^3
#
#
#
# Elastic Constant Matrix: (Units=GPa)
#
#
# Indices 1 2 3 4 5 6 
#
# 1 101.8513 32.8126 28.5982 0.0000 19.9844 0.0000
# 2 32.8126 75.6920 31.5858 0.0000 -3.1759 0.0000
# 3 28.5982 31.5858 97.2092 0.0000 12.5363 0.0000
# 4 0.0000 0.0000 0.0000 56.4200 0.0000 7.7962
# 5 19.9844 -3.1759 12.5363 0.0000 40.4866 0.0000
# 6 0.0000 0.0000 0.0000 7.7962 0.0000 48.4646
#
#
#
# Elastic Compliance Matrix: (Units=1/GPa)
#
#
# Indices 1 2 3 4 5 6 
#
# 1 0.013228 -0.005483 -0.001263 0.000000 -0.006568 0.000000
# 2 -0.005483 0.017879 -0.004923 0.000000 0.005633 0.000000
# 3 -0.001263 -0.004923 0.012736 0.000000 -0.003706 0.000000
# 4 0.000000 0.000000 0.000000 0.018127 0.000000 -0.002916
# 5 -0.006568 0.005633 -0.003706 0.000000 0.029531 0.000000
# 6 0.000000 0.000000 0.000000 -0.002916 0.000000 0.021103
#
#
# Mechanical properties :
#
#
# Convention : Reuss Voigt Hill
#
# Bulk Modulus (GPa) = 48.76668 51.19395 49.98032
# Shear Modulus (GPa) = 35.01970 41.19130 38.10550
#
# Velocity S-wave (km/s) = 3.72787 4.04303 3.88864
# Velocity P-wave (km/s) = 6.15480 6.48924 6.32423
#
# Compressibility (1/GPa) = 0.02050581
#
# Stress axis : x y z
#
# Youngs Moduli (GPa) = 75.59693 55.93189 78.51664
#
# Poissons Ratio (x) = 0.30667 0.09916
# Poissons Ratio (y) = 0.41450 0.38652
# Poissons Ratio (z) = 0.09548 0.27534
#
# Static dielectric constant tensor:
#      x y z
#    x 4.601970 0.000000 0.148480 
#    y 0.000000 4.746650 0.000000 
#    z 0.148480 0.000000 4.514110 
# 
# 
# High freq. dielectric constant tensor:
#      x y z
#    x 2.011400 0.000000 0.013870 
#    y 0.000000 2.014750 0.000000 
#    z 0.013870 0.000000 2.003040 
# 
# From -- ./inp_files/7279.got.cif
#   From: 2010.03.12/outbox.cif.g09.slc.cpg/sg14_4_cif.got.tgz:7279.got - 2010.03.31 13:35:05.
