data_PCOD8129875
_publ_section_title
;
Structure prediction by ZEFSAII (Michael W. Deem and Ramdas Pophale) SiO2 
 PCOD8129875
Probable space group: C 2/C
;
_chemical_formula_sum "Si O2"
_cell_formula_units_Z 56
_cell_length_a 12.448370
_cell_length_b 18.750220
_cell_length_c 13.845034
_cell_angle_alpha 90.000000
_cell_angle_beta 75.775626
_cell_angle_gamma 90.000000
_cell_volume 3132.488053
_symmetry_space_group_name_H-M "C 2/C"
_symmetry_group_IT_number 15
_symmetry_cell_setting 'monoclinic'
loop_
_space_group_symop_operation_xyz
x,y,z
-x,y,1/2-z
-x,-y,-z
x,-y,1/2+z
1/2+x,1/2+y,z
1/2-x,1/2+y,1/2-z
1/2-x,1/2-y,-z
1/2+x,1/2-y,1/2+z
loop_
_atom_site_type_symbol
_atom_site_label
_atom_site_fract_x
_atom_site_fract_y
_atom_site_fract_z
Si Si1 0.495057 0.643228 0.980222
Si Si2 0.613667 0.852874 0.173510
Si Si3 0.320714 0.431432 0.188959
Si Si4 0.255432 0.720756 0.269848
Si Si5 0.596514 0.413915 0.807397
Si Si6 0.364732 0.776975 0.515040
Si Si7 0.618398 0.681839 0.678274
O O1 0.584862 0.597143 0.903193
O O2 0.545966 0.714485 0.013835
O O3 0.393596 0.667434 0.933246
O O4 0.452926 0.593816 0.075297
O O5 0.500000 0.874816 0.250000
O O6 0.700754 0.917047 0.168364
O O7 0.659744 0.779046 0.206951
O O8 0.593620 0.842063 0.062238
O O9 0.332665 0.514131 0.209854
O O10 0.330093 0.389630 0.287538
O O11 0.320663 0.649761 0.232755
O O12 0.157022 0.702295 0.368346
O O13 0.199124 0.751553 0.184580
O O14 0.500000 0.417429 0.750000
O O15 0.250000 0.750000 0.500000
O O16 0.500000 0.699897 0.750000
#
# Coordination Sequence:
#
# PCOD8129875 Si02
#       7
#     8   8   8   8   8   8   8
#     4  11  19  35  59  82 110 147 189 225 287 325
#     4  10  19  35  59  81 109 146 192 231 274 335
#     4  10  21  37  55  79 117 151 179 229 287 333
#     4  10  19  34  55  84 114 141 188 236 275 322
#     4  12  24  34  54  89 114 143 188 238 277 329
#     4  10  16  31  56  83 108 141 180 235 276 314
#     4   9  17  36  57  77 109 155 184 216 282 340
#
# _framework density 17.877161999999998
#
# number of rings (size 3 to 8) (size 9 to 14) (size 15 to 20)
#    0.000    1.714    5.714    4.714    0.000    0.571 
#    0.000    0.714    0.000    0.857    0.000    0.000 
#    0.000    0.000    0.000    0.000    0.000    0.000 
#
# Total GULP energy -347134.642591 kJ/mol
# GULP energy per Si atom -12397.665807 kJ/mol
# Density = 1.783647 g / cm^3
# Si number density = 17.877162 Si / 1000 Ang^3
#
#
#
# Elastic Constant Matrix: (Units=GPa)
#
#
# Indices 1 2 3 4 5 6 
#
# 1 69.5050 59.5270 33.1463 0.0000 10.3802 0.0000
# 2 59.5270 123.4033 35.3971 0.0000 4.6252 0.0000
# 3 33.1463 35.3971 83.7247 0.0000 12.8926 0.0000
# 4 0.0000 0.0000 0.0000 16.5439 0.0000 -5.8636
# 5 10.3802 4.6252 12.8926 0.0000 29.6625 0.0000
# 6 0.0000 0.0000 0.0000 -5.8636 0.0000 20.9004
#
#
#
# Elastic Compliance Matrix: (Units=1/GPa)
#
#
# Indices 1 2 3 4 5 6 
#
# 1 0.027672 -0.011657 -0.005161 0.000000 -0.005623 0.000000
# 2 -0.011657 0.014135 -0.001768 0.000000 0.002644 0.000000
# 3 -0.005161 -0.001768 0.015448 0.000000 -0.004633 0.000000
# 4 0.000000 0.000000 0.000000 0.067119 0.000000 0.018830
# 5 -0.005623 0.002644 -0.004633 0.000000 0.037282 0.000000
# 6 0.000000 0.000000 0.000000 0.018830 0.000000 0.053129
#
#
# Mechanical properties :
#
#
# Convention : Reuss Voigt Hill
#
# Bulk Modulus (GPa) = 49.79475 59.19711 54.49593
# Shear Modulus (GPa) = 19.33106 23.32554 21.32830
#
# Velocity S-wave (km/s) = 3.29192 3.61608 3.45780
# Velocity P-wave (km/s) = 6.50871 7.11476 6.81847
#
# Compressibility (1/GPa) = 0.02008244
#
# Stress axis : x y z
#
# Youngs Moduli (GPa) = 36.13715 70.74741 64.73352
#
# Poissons Ratio (x) = 0.82473 0.33409
# Poissons Ratio (y) = 0.42126 0.11444
# Poissons Ratio (z) = 0.18650 0.12507
#
# Static dielectric constant tensor:
#      x y z
#    x 3.380050 0.000000 0.237130 
#    y 0.000000 3.125320 0.000000 
#    z 0.237130 0.000000 3.687800 
# 
# 
# High freq. dielectric constant tensor:
#      x y z
#    x 1.686780 0.000000 0.010510 
#    y 0.000000 1.666860 0.000000 
#    z 0.010510 0.000000 1.693580 
# 
# From -- ./inp_files/124149.got.cif
#   From: 2010.06.25/outbox.cif.g09.slc.cpg/sg15_63_cif.got.tgz:124149.got - 2010.06.28 07:06:18.
