data_PCOD8129658
_publ_section_title
;
Structure prediction by ZEFSAII (Michael W. Deem and Ramdas Pophale) SiO2 
 PCOD8129658
Probable space group: C 2/C
;
_chemical_formula_sum "Si O2"
_cell_formula_units_Z 52
_cell_length_a 31.573670
_cell_length_b 8.403728
_cell_length_c 16.465622
_cell_angle_alpha 90.000000
_cell_angle_beta 140.772986
_cell_angle_gamma 90.000000
_cell_volume 2762.888449
_symmetry_space_group_name_H-M "C 2/C"
_symmetry_group_IT_number 15
_symmetry_cell_setting 'monoclinic'
loop_
_space_group_symop_operation_xyz
x,y,z
-x,y,1/2-z
-x,-y,-z
x,-y,1/2+z
1/2+x,1/2+y,z
1/2-x,1/2+y,1/2-z
1/2-x,1/2-y,-z
1/2+x,1/2-y,1/2+z
loop_
_atom_site_type_symbol
_atom_site_label
_atom_site_fract_x
_atom_site_fract_y
_atom_site_fract_z
Si Si1 0.179038 0.687441 0.422618
Si Si2 0.895211 0.615822 0.699731
Si Si3 0.565873 0.382579 0.173378
Si Si4 0.500000 0.927351 0.750000
Si Si5 0.430370 0.587778 0.168368
Si Si6 0.922751 0.802702 0.899620
Si Si7 0.387198 0.705080 0.519345
O O1 0.250000 0.750000 0.500000
O O2 0.170738 0.495984 0.403393
O O3 0.123599 0.755526 0.278288
O O4 0.170875 0.739366 0.504909
O O5 0.959524 0.528942 0.756473
O O6 0.879574 0.776389 0.624515
O O7 0.910058 0.666237 0.814289
O O8 0.546281 0.461912 0.229139
O O9 0.594154 0.519856 0.156562
O O10 0.501331 0.294938 0.040274
O O11 0.451705 0.813274 0.628673
O O12 0.500000 0.675944 0.250000
O O13 0.398168 0.485132 0.048222
O O14 0.872630 0.772396 0.901666
#
# Coordination Sequence:
#
# PCOD8129658 Si02
#       7
#     8   8   8   4   8   8   8
#     4  10  22  41  54  71 108 158 193 219 259 324
#     4  10  21  30  54  85 115 139 182 235 267 331
#     4   9  19  31  55  79 109 144 168 222 286 339
#     4  10  18  30  48  80 112 148 176 216 286 326
#     4  10  15  30  50  79 111 142 179 213 272 341
#     4  10  18  33  53  89 111 131 175 235 297 324
#     4  10  18  32  55  74 106 150 182 221 278 333
#
# _framework density 18.820882000000001
#
# number of rings (size 3 to 8) (size 9 to 14) (size 15 to 20)
#    0.000    2.154    3.077    1.846    0.000    2.462 
#    0.000   10.000    0.000    0.000    0.000    0.000 
#    0.000    0.000    0.000    0.000    0.000    0.000 
#
# Total GULP energy -322141.725422 kJ/mol
# GULP energy per Si atom -12390.066362 kJ/mol
# Density = 1.877804 g / cm^3
# Si number density = 18.820882 Si / 1000 Ang^3
#
#
#
# Elastic Constant Matrix: (Units=GPa)
#
#
# Indices 1 2 3 4 5 6 
#
# 1 111.4524 49.4912 40.8382 0.0000 -19.3892 0.0000
# 2 49.4912 112.6354 34.4572 0.0000 -5.9282 0.0000
# 3 40.8382 34.4572 49.2692 0.0000 -17.4926 0.0000
# 4 0.0000 0.0000 0.0000 22.8003 0.0000 -2.5040
# 5 -19.3892 -5.9282 -17.4926 0.0000 32.3378 0.0000
# 6 0.0000 0.0000 0.0000 -2.5040 0.0000 16.8035
#
#
#
# Elastic Compliance Matrix: (Units=1/GPa)
#
#
# Indices 1 2 3 4 5 6 
#
# 1 0.014071 -0.003575 -0.007921 0.000000 0.003496 0.000000
# 2 -0.003575 0.012401 -0.007009 0.000000 -0.003662 0.000000
# 3 -0.007921 -0.007009 0.036663 0.000000 0.013798 0.000000
# 4 0.000000 0.000000 0.000000 0.044589 0.000000 0.006644
# 5 0.003496 -0.003662 0.013798 0.000000 0.039812 0.000000
# 6 0.000000 0.000000 0.000000 0.006644 0.000000 0.060502
#
#
# Mechanical properties :
#
#
# Convention : Reuss Voigt Hill
#
# Bulk Modulus (GPa) = 38.28007 58.10335 48.19171
# Shear Modulus (GPa) = 19.70391 24.29301 21.99846
#
# Velocity S-wave (km/s) = 3.23912 3.59660 3.42253
# Velocity P-wave (km/s) = 5.86281 6.94162 6.42490
#
# Compressibility (1/GPa) = 0.02612325
#
# Stress axis : x y z
#
# Youngs Moduli (GPa) = 71.06908 80.64053 27.27532
#
# Poissons Ratio (x) = 0.28832 0.21605
# Poissons Ratio (y) = 0.25410 0.19118
# Poissons Ratio (z) = 0.56295 0.56523
#
# Static dielectric constant tensor:
#      x y z
#    x 3.513800 0.000000 -0.437610 
#    y 0.000000 3.700600 0.000000 
#    z -0.437610 0.000000 3.300090 
# 
# 
# High freq. dielectric constant tensor:
#      x y z
#    x 1.722430 0.000000 -0.035980 
#    y 0.000000 1.744220 0.000000 
#    z -0.035980 0.000000 1.686760 
# 
# From -- ./inp_files/176261.got.cif
#   From: 2010.06.25/outbox.cif.g09.slc.cpg/sg15_89_cif.got.tgz:176261.got - 2010.06.28 07:06:18.
