data_PCOD8129732
_publ_section_title
;
Structure prediction by ZEFSAII (Michael W. Deem and Ramdas Pophale) SiO2 
 PCOD8129732
Probable space group: C 2/C
;
_chemical_formula_sum "Si O2"
_cell_formula_units_Z 48
_cell_length_a 13.468735
_cell_length_b 17.840529
_cell_length_c 11.150992
_cell_angle_alpha 90.000000
_cell_angle_beta 102.093942
_cell_angle_gamma 90.000000
_cell_volume 2619.995040
_symmetry_space_group_name_H-M "C 2/C"
_symmetry_group_IT_number 15
_symmetry_cell_setting 'monoclinic'
loop_
_space_group_symop_operation_xyz
x,y,z
-x,y,1/2-z
-x,-y,-z
x,-y,1/2+z
1/2+x,1/2+y,z
1/2-x,1/2+y,1/2-z
1/2-x,1/2-y,-z
1/2+x,1/2-y,1/2+z
loop_
_atom_site_type_symbol
_atom_site_label
_atom_site_fract_x
_atom_site_fract_y
_atom_site_fract_z
Si Si1 0.311950 0.350472 0.577741
Si Si2 0.374809 0.836364 0.287562
Si Si3 0.000000 0.801942 0.750000
Si Si4 0.500000 0.208095 0.250000
Si Si5 0.317223 0.734707 0.840775
Si Si6 0.631152 0.935684 0.445598
Si Si7 0.557344 0.094108 0.454770
O O1 0.424179 0.360591 0.663645
O O2 0.338000 0.292106 0.480273
O O3 0.237420 0.315103 0.658870
O O4 0.250745 0.422727 0.510348
O O5 0.434244 0.756814 0.314022
O O6 0.254691 0.821969 0.249383
O O7 0.406113 0.882066 0.173577
O O8 0.386320 0.886053 0.407948
O O9 0.577002 0.261661 0.200655
O O10 0.565453 0.158805 0.358901
O O11 0.561325 0.919006 0.544431
O O12 0.612578 0.022410 0.408283
#
# Coordination Sequence:
#
# PCOD8129732 Si02
#       7
#     8   8   4   4   8   8   8
#     4   9  17  34  51  78 101 147 181 220 246 324
#     4  10  19  35  53  79 103 147 179 216 260 324
#     4  10  16  27  58  77 100 130 186 224 252 298
#     4  12  22  33  50  87 110 140 162 236 276 314
#     4   9  19  32  53  73 112 138 179 218 273 305
#     4  10  20  33  52  75 111 142 178 210 259 322
#     4  11  22  31  51  78 114 140 168 214 271 322
#
# _framework density 18.320644000000001
#
# number of rings (size 3 to 8) (size 9 to 14) (size 15 to 20)
#    0.000    2.000    3.333    2.000    4.667    0.667 
#    0.000    0.000    0.000    1.000    0.000    9.333 
#    0.000    0.000    0.000    0.000    0.000    0.000 
#
# Total GULP energy -297359.909666 kJ/mol
# GULP energy per Si atom -12389.996236 kJ/mol
# Density = 1.827895 g / cm^3
# Si number density = 18.320644 Si / 1000 Ang^3
#
#
#
# Elastic Constant Matrix: (Units=GPa)
#
#
# Indices 1 2 3 4 5 6 
#
# 1 112.6341 37.3672 42.1559 0.0000 8.7282 0.0000
# 2 37.3672 55.7517 22.5165 0.0000 2.1504 0.0000
# 3 42.1559 22.5165 72.7571 0.0000 10.5585 0.0000
# 4 0.0000 0.0000 0.0000 17.1458 0.0000 1.6341
# 5 8.7282 2.1504 10.5585 0.0000 37.3700 0.0000
# 6 0.0000 0.0000 0.0000 1.6341 0.0000 25.7001
#
#
#
# Elastic Compliance Matrix: (Units=1/GPa)
#
#
# Indices 1 2 3 4 5 6 
#
# 1 0.013192 -0.006604 -0.005431 0.000000 -0.001167 0.000000
# 2 -0.006604 0.023819 -0.003723 0.000000 0.001224 0.000000
# 3 -0.005431 -0.003723 0.018590 0.000000 -0.003770 0.000000
# 4 0.000000 0.000000 0.000000 0.058679 0.000000 -0.003731
# 5 -0.001167 0.001224 -0.003770 0.000000 0.028027 0.000000
# 6 0.000000 0.000000 0.000000 -0.003731 0.000000 0.039148
#
#
# Mechanical properties :
#
#
# Convention : Reuss Voigt Hill
#
# Bulk Modulus (GPa) = 41.51584 49.46914 45.49249
# Shear Modulus (GPa) = 22.62470 25.31672 23.97071
#
# Velocity S-wave (km/s) = 3.51797 3.72138 3.62110
# Velocity P-wave (km/s) = 6.26190 6.74725 6.50910
#
# Compressibility (1/GPa) = 0.02408719
#
# Stress axis : x y z
#
# Youngs Moduli (GPa) = 75.80327 41.98321 53.79215
#
# Poissons Ratio (x) = 0.27724 0.29212
# Poissons Ratio (y) = 0.50058 0.20026
# Poissons Ratio (z) = 0.41166 0.15629
#
# Static dielectric constant tensor:
#      x y z
#    x 3.387640 0.000000 0.152340 
#    y 0.000000 3.111400 0.000000 
#    z 0.152340 0.000000 3.292970 
# 
# 
# High freq. dielectric constant tensor:
#      x y z
#    x 1.700660 0.000000 0.015100 
#    y 0.000000 1.671910 0.000000 
#    z 0.015100 0.000000 1.708120 
# 
# From -- ./inp_files/87433.got.cif
#   From: 2010.06.25/outbox.cif.g09.slc.cpg/sg15_44_cif.got.tgz:87433.got - 2010.06.28 07:06:18.
