data_PCOD8129466
_publ_section_title
;
Structure prediction by ZEFSAII (Michael W. Deem and Ramdas Pophale) SiO2 
 PCOD8129466
Probable space group: P 21/C
;
_chemical_formula_sum "Si O2"
_cell_formula_units_Z 20
_cell_length_a 5.395519
_cell_length_b 8.495933
_cell_length_c 19.093646
_cell_angle_alpha 90.000000
_cell_angle_beta 74.217387
_cell_angle_gamma 90.000000
_cell_volume 842.255619
_symmetry_space_group_name_H-M "P 21/C"
_symmetry_group_IT_number 14
_symmetry_cell_setting 'monoclinic'
loop_
_space_group_symop_operation_xyz
x,y,z
-x,1/2+y,1/2-z
-x,-y,-z
x,1/2-y,1/2+z
loop_
_atom_site_type_symbol
_atom_site_label
_atom_site_fract_x
_atom_site_fract_y
_atom_site_fract_z
Si Si1 0.537067 0.806247 0.156407
Si Si2 0.889449 0.799305 0.381062
Si Si3 0.063812 0.176954 0.983150
Si Si4 0.468280 0.669906 0.310689
Si Si5 0.708341 0.394081 0.944988
O O1 0.822625 0.801798 0.103123
O O2 0.517423 0.696718 0.225153
O O3 0.368776 0.734897 0.106772
O O4 0.471125 0.987578 0.178082
O O5 0.765680 0.727261 0.462536
O O6 0.686497 0.767700 0.334828
O O7 0.173991 0.723289 0.348646
O O8 0.908493 0.987877 0.389923
O O9 0.823896 0.296216 0.001251
O O10 0.000000 0.000000 0.000000
O O11 0.500000 0.500000 0.000000
#
# Coordination Sequence:
#
# PCOD8129466 Si02
#       5
#     4   4   4   4   4
#     4  12  29  49  81 114 161 211 268 328 405 474
#     4  12  27  50  80 115 160 202 268 323 401 469
#     4  12  26  48  81 114 155 209 268 330 394 471
#     4  12  30  50  80 116 163 214 261 333 402 486
#     4  12  27  47  82 119 154 204 267 333 396 471
#
# _framework density 23.745760000000001
#
# number of rings (size 3 to 8) (size 9 to 14) (size 15 to 20)
#    0.000    0.000    4.000    4.200    8.400    1.600 
#    0.000    0.000    0.000    0.000    0.000    0.000 
#    0.000    0.000    0.000    0.000    0.000    0.000 
#
# Total GULP energy -247798.093726 kJ/mol
# GULP energy per Si atom -12389.904686 kJ/mol
# Density = 2.369171 g / cm^3
# Si number density = 23.745760 Si / 1000 Ang^3
#
#
#
# Elastic Constant Matrix: (Units=GPa)
#
#
# Indices 1 2 3 4 5 6 
#
# 1 94.4341 33.0248 34.7914 0.0000 3.4223 0.0000
# 2 33.0248 146.5632 33.0984 0.0000 -12.4942 0.0000
# 3 34.7914 33.0984 151.3773 0.0000 -5.4785 0.0000
# 4 0.0000 0.0000 0.0000 53.6417 0.0000 9.4666
# 5 3.4223 -12.4942 -5.4785 0.0000 33.1105 0.0000
# 6 0.0000 0.0000 0.0000 9.4666 0.0000 39.0836
#
#
#
# Elastic Compliance Matrix: (Units=1/GPa)
#
#
# Indices 1 2 3 4 5 6 
#
# 1 0.012441 -0.002482 -0.002411 0.000000 -0.002622 0.000000
# 2 -0.002482 0.007878 -0.001041 0.000000 0.003057 0.000000
# 3 -0.002411 -0.001041 0.007427 0.000000 0.001085 0.000000
# 4 0.000000 0.000000 0.000000 0.019475 0.000000 -0.004717
# 5 -0.002622 0.003057 0.001085 0.000000 0.031806 0.000000
# 6 0.000000 0.000000 0.000000 -0.004717 0.000000 0.026729
#
#
# Mechanical properties :
#
#
# Convention : Reuss Voigt Hill
#
# Bulk Modulus (GPa) = 62.98785 66.02264 64.50525
# Shear Modulus (GPa) = 40.67766 44.59785 42.63775
#
# Velocity S-wave (km/s) = 4.14339 4.33845 4.24204
# Velocity P-wave (km/s) = 7.03376 7.27740 7.15662
#
# Compressibility (1/GPa) = 0.01587608
#
# Stress axis : x y z
#
# Youngs Moduli (GPa) = 80.38016 126.93437 134.63984
#
# Poissons Ratio (x) = 0.31507 0.32468
# Poissons Ratio (y) = 0.19952 0.14021
# Poissons Ratio (z) = 0.19383 0.13219
#
# Static dielectric constant tensor:
#      x y z
#    x 5.723430 0.000000 0.899770 
#    y 0.000000 5.091830 0.000000 
#    z 0.899770 0.000000 4.420880 
# 
# 
# High freq. dielectric constant tensor:
#      x y z
#    x 1.933030 0.000000 0.006840 
#    y 0.000000 1.968450 0.000000 
#    z 0.006840 0.000000 1.958880 
# 
# From -- ./inp_files/52637.got.cif
#   From: 2010.03.12/outbox.cif.g09.slc.cpg/sg14_27_cif.got.tgz:52637.got - 2010.03.31 13:35:05.
