data_PCOD8129677
_publ_section_title
;
Structure prediction by ZEFSAII (Michael W. Deem and Ramdas Pophale) SiO2 
 PCOD8129677
Probable space group: C 2/C
;
_chemical_formula_sum "Si O2"
_cell_formula_units_Z 36
_cell_length_a 7.998120
_cell_length_b 11.130520
_cell_length_c 25.031194
_cell_angle_alpha 90.000000
_cell_angle_beta 49.441494
_cell_angle_gamma 90.000000
_cell_volume 1692.977953
_symmetry_space_group_name_H-M "C 2/C"
_symmetry_group_IT_number 15
_symmetry_cell_setting 'monoclinic'
loop_
_space_group_symop_operation_xyz
x,y,z
-x,y,1/2-z
-x,-y,-z
x,-y,1/2+z
1/2+x,1/2+y,z
1/2-x,1/2+y,1/2-z
1/2-x,1/2-y,-z
1/2+x,1/2-y,1/2+z
loop_
_atom_site_type_symbol
_atom_site_label
_atom_site_fract_x
_atom_site_fract_y
_atom_site_fract_z
Si Si1 0.568079 0.053384 0.623392
Si Si2 0.575721 0.321336 0.860760
Si Si3 0.401248 0.907798 0.563047
Si Si4 0.434429 0.682448 0.498202
Si Si5 0.500000 0.055622 0.250000
O O1 0.442387 0.178865 0.641735
O O2 0.822721 0.068399 0.550828
O O3 0.459623 0.948051 0.610708
O O4 0.551543 0.027330 0.689058
O O5 0.363042 0.395305 0.884770
O O6 0.619127 0.353013 0.915677
O O7 0.786768 0.362261 0.783172
O O8 0.513937 0.778243 0.526438
O O9 0.500000 0.000000 0.500000
O O10 0.250000 0.750000 0.500000
#
# Coordination Sequence:
#
# PCOD8129677 Si02
#       5
#     8   8   8   8   4
#     4  10  21  41  61  84 123 154 196 246 291 347
#     4  10  22  39  61  88 122 150 199 248 289 352
#     4  10  15  36  70  88 103 155 200 246 299 327
#     4   8  16  34  63  89 112 142 198 256 279 330
#     4  12  28  38  52  92 128 164 188 228 308 368
#
# _framework density 21.264303999999999
#
# number of rings (size 3 to 8) (size 9 to 14) (size 15 to 20)
#    0.000    2.667    6.667    0.000    0.000    7.111 
#    0.000    1.111    0.000    0.000    0.000    0.000 
#    0.000    0.000    0.000    0.000    0.000    0.000 
#
# Total GULP energy -223042.483053 kJ/mol
# GULP energy per Si atom -12391.249058 kJ/mol
# Density = 2.121591 g / cm^3
# Si number density = 21.264304 Si / 1000 Ang^3
#
#
#
# Elastic Constant Matrix: (Units=GPa)
#
#
# Indices 1 2 3 4 5 6 
#
# 1 63.8144 35.8248 34.6211 -0.0001 12.5195 0.0001
# 2 35.8248 68.1939 31.3804 -0.0001 9.8437 0.0000
# 3 34.6211 31.3804 129.2845 0.0000 7.9578 0.0001
# 4 -0.0001 -0.0001 0.0000 37.8378 0.0001 7.9839
# 5 12.5195 9.8437 7.9578 0.0001 45.4004 -0.0001
# 6 0.0001 0.0000 0.0001 7.9839 -0.0001 30.3500
#
#
#
# Elastic Compliance Matrix: (Units=1/GPa)
#
#
# Indices 1 2 3 4 5 6 
#
# 1 0.024346 -0.010527 -0.003732 0.000000 -0.003777 0.000000
# 2 -0.010527 0.021449 -0.002304 0.000000 -0.001344 0.000000
# 3 -0.003732 -0.002304 0.009300 0.000000 -0.000101 0.000000
# 4 0.000000 0.000000 0.000000 0.027982 0.000000 -0.007361
# 5 -0.003777 -0.001344 -0.000101 0.000000 0.023377 0.000000
# 6 0.000000 0.000000 0.000000 -0.007361 0.000000 0.034885
#
#
# Mechanical properties :
#
#
# Convention : Reuss Voigt Hill
#
# Bulk Modulus (GPa) = 45.52189 51.66062 48.59125
# Shear Modulus (GPa) = 27.50451 33.34874 30.42662
#
# Velocity S-wave (km/s) = 3.60037 3.96447 3.78680
# Velocity P-wave (km/s) = 6.22396 6.73077 6.48232
#
# Compressibility (1/GPa) = 0.02196745
#
# Stress axis : x y z
#
# Youngs Moduli (GPa) = 41.07440 46.62259 107.52936
#
# Poissons Ratio (x) = 0.49082 0.40129
# Poissons Ratio (y) = 0.43241 0.24778
# Poissons Ratio (z) = 0.15329 0.10743
#
# Static dielectric constant tensor:
#      x y z
#    x 3.563160 0.000000 0.066700 
#    y 0.000000 3.965310 0.000000 
#    z 0.066700 0.000000 4.459290 
# 
# 
# High freq. dielectric constant tensor:
#      x y z
#    x 1.804760 0.000000 0.005330 
#    y 0.000000 1.842250 0.000000 
#    z 0.005330 0.000000 1.841270 
# 
# From -- ./inp_files/229537.got.cif
#   From: 2010.06.25/outbox.cif.g09.slc.cpg/sg15_115_cif.got.tgz:229537.got - 2010.06.28 07:06:18.
