data_PCOD8129770
_publ_section_title
;
Structure prediction by ZEFSAII (Michael W. Deem and Ramdas Pophale) SiO2 
 PCOD8129770
Probable space group: C 2/C
;
_chemical_formula_sum "Si O2"
_cell_formula_units_Z 40
_cell_length_a 14.169398
_cell_length_b 34.274334
_cell_length_c 5.137956
_cell_angle_alpha 90.000000
_cell_angle_beta 104.898288
_cell_angle_gamma 90.000000
_cell_volume 2411.350983
_symmetry_space_group_name_H-M "C 2/C"
_symmetry_group_IT_number 15
_symmetry_cell_setting 'monoclinic'
loop_
_space_group_symop_operation_xyz
x,y,z
-x,y,1/2-z
-x,-y,-z
x,-y,1/2+z
1/2+x,1/2+y,z
1/2-x,1/2+y,1/2-z
1/2-x,1/2-y,-z
1/2+x,1/2-y,1/2+z
loop_
_atom_site_type_symbol
_atom_site_label
_atom_site_fract_x
_atom_site_fract_y
_atom_site_fract_z
Si Si1 0.786136 0.795084 0.018564
Si Si2 0.189112 0.326590 0.446503
Si Si3 0.500000 0.724122 0.750000
Si Si4 0.891362 0.482855 0.893727
Si Si5 0.064625 0.604432 0.050003
Si Si6 0.000000 0.723729 0.750000
O O1 0.740641 0.824439 0.200985
O O2 0.901660 0.800857 0.148455
O O3 0.750000 0.750000 0.000000
O O4 0.761109 0.808388 0.710050
O O5 0.155998 0.368498 0.534001
O O6 0.092771 0.302991 0.321786
O O7 0.507077 0.750631 0.506354
O O8 0.835850 0.505337 0.619833
O O9 0.890756 0.436943 0.834387
O O10 0.000000 0.500000 0.000000
O O11 0.000000 0.620955 0.250000
O O12 0.000000 0.598271 0.750000
#
# Coordination Sequence:
#
# PCOD8129770 Si02
#       6
#     8   8   4   8   8   4
#     4  12  23  40  54  75  97 132 177 227 270 316
#     4  12  24  35  51  78 108 132 172 224 264 306
#     4  12  24  36  60  70  92 131 176 223 270 314
#     4  10  16  29  46  69  98 138 187 192 224 300
#     4  12  21  31  49  74 106 144 176 205 251 302
#     4  12  20  34  54  78  94 133 168 215 270 310
#
# _framework density 16.588211000000001
#
# number of rings (size 3 to 8) (size 9 to 14) (size 15 to 20)
#    0.000    0.400    9.000    3.000    1.400    0.000 
#    0.000    0.000    0.000    0.000    0.000    0.000 
#    0.000    0.000    0.000   18.000    0.000    0.000 
#
# Total GULP energy -247808.174824 kJ/mol
# GULP energy per Si atom -12390.408741 kJ/mol
# Density = 1.655046 g / cm^3
# Si number density = 16.588211 Si / 1000 Ang^3
#
#
#
# Elastic Constant Matrix: (Units=GPa)
#
#
# Indices 1 2 3 4 5 6 
#
# 1 86.7066 26.3332 33.6291 0.0000 2.5161 0.0000
# 2 26.3332 77.5174 13.4134 0.0000 -4.7215 0.0000
# 3 33.6291 13.4134 113.5065 0.0000 -12.4153 0.0000
# 4 0.0000 0.0000 0.0000 21.2990 0.0000 -10.5400
# 5 2.5161 -4.7215 -12.4153 0.0000 41.2636 0.0000
# 6 0.0000 0.0000 0.0000 -10.5400 0.0000 21.6303
#
#
#
# Elastic Compliance Matrix: (Units=1/GPa)
#
#
# Indices 1 2 3 4 5 6 
#
# 1 0.014520 -0.004387 -0.004069 0.000000 -0.002612 0.000000
# 2 -0.004387 0.014542 -0.000214 0.000000 0.001867 0.000000
# 3 -0.004069 -0.000214 0.010408 0.000000 0.003355 0.000000
# 4 0.000000 0.000000 0.000000 0.061869 0.000000 0.030147
# 5 -0.002612 0.001867 0.003355 0.000000 0.025617 0.000000
# 6 0.000000 0.000000 0.000000 0.030147 0.000000 0.060922
#
#
# Mechanical properties :
#
#
# Convention : Reuss Voigt Hill
#
# Bulk Modulus (GPa) = 45.19236 47.16465 46.17850
# Shear Modulus (GPa) = 23.51902 30.46222 26.99062
#
# Velocity S-wave (km/s) = 3.76947 4.28995 4.03810
# Velocity P-wave (km/s) = 6.80059 7.28235 7.04559
#
# Compressibility (1/GPa) = 0.02212764
#
# Stress axis : x y z
#
# Youngs Moduli (GPa) = 68.87266 68.76845 96.08074
#
# Poissons Ratio (x) = 0.30171 0.39095
# Poissons Ratio (y) = 0.30217 0.02059
# Poissons Ratio (z) = 0.28024 0.01474
#
# Static dielectric constant tensor:
#      x y z
#    x 3.187550 0.000000 0.134430 
#    y 0.000000 3.087490 0.000000 
#    z 0.134430 0.000000 2.201690 
# 
# 
# High freq. dielectric constant tensor:
#      x y z
#    x 1.604920 0.000000 -0.030380 
#    y 0.000000 1.618380 0.000000 
#    z -0.030380 0.000000 1.667380 
# 
# From -- ./inp_files/8455.got.cif
#   From: 2010.06.25/outbox.cif.g09.slc.cpg/sg15_5_cif.got.tgz:8455.got - 2010.06.28 07:06:18.
