data_PCOD8129001
_publ_section_title
;
Structure prediction by ZEFSAII (Michael W. Deem and Ramdas Pophale) SiO2 
 PCOD8129001
Probable space group: P 21/C
;
_chemical_formula_sum "Si O2"
_cell_formula_units_Z 28
_cell_length_a 8.473779
_cell_length_b 24.298329
_cell_length_c 9.131921
_cell_angle_alpha 90.000000
_cell_angle_beta 45.168919
_cell_angle_gamma 90.000000
_cell_volume 1333.451750
_symmetry_space_group_name_H-M "P 21/C"
_symmetry_group_IT_number 14
_symmetry_cell_setting 'monoclinic'
loop_
_space_group_symop_operation_xyz
x,y,z
-x,1/2+y,1/2-z
-x,-y,-z
x,1/2-y,1/2+z
loop_
_atom_site_type_symbol
_atom_site_label
_atom_site_fract_x
_atom_site_fract_y
_atom_site_fract_z
Si Si1 0.123154 0.389930 0.433534
Si Si2 0.718914 0.092866 0.010410
Si Si3 0.164567 0.950097 0.375794
Si Si4 0.430913 0.307712 0.589942
Si Si5 0.511885 0.197167 0.704467
Si Si6 0.575566 0.509101 0.786869
Si Si7 0.966611 0.145205 0.343222
O O1 0.317686 0.345260 0.288506
O O2 0.208014 0.452225 0.357761
O O3 0.006450 0.387737 0.667562
O O4 0.939977 0.377748 0.428487
O O5 0.775426 0.057219 0.831714
O O6 0.533487 0.138278 0.097431
O O7 0.622033 0.050943 0.192566
O O8 0.042088 0.896241 0.515189
O O9 0.389031 0.958954 0.318314
O O10 0.000000 0.000000 0.500000
O O11 0.459517 0.257046 0.678835
O O12 0.546618 0.298964 0.356622
O O13 0.167473 0.313148 0.740480
O O14 0.738908 0.178786 0.478886
O O15 0.500000 0.500000 0.000000
#
# Coordination Sequence:
#
# PCOD8129001 Si02
#       7
#     4   4   4   4   4   4   4
#     4  11  25  45  67 103 137 184 232 284 346 422
#     4  12  25  43  67 108 139 179 238 283 350 419
#     4  12  22  41  70 100 141 182 226 285 346 412
#     4  11  27  44  70 101 135 180 236 287 347 421
#     4  11  26  47  70  98 136 184 231 288 352 408
#     4  12  24  43  69 103 144 187 230 287 350 420
#     4  11  23  47  68  97 139 178 229 286 344 412
#
# _framework density 20.998135999999999
#
# number of rings (size 3 to 8) (size 9 to 14) (size 15 to 20)
#    0.000    0.571    2.857    5.143    4.000    2.286 
#    0.000    0.000    0.000    0.000    0.000    0.000 
#    0.000    0.000    0.000    0.000    0.000    0.000 
#
# Total GULP energy -347420.322481 kJ/mol
# GULP energy per Si atom -12407.868660 kJ/mol
# Density = 2.095034 g / cm^3
# Si number density = 20.998136 Si / 1000 Ang^3
#
#
#
# Elastic Constant Matrix: (Units=GPa)
#
#
# Indices 1 2 3 4 5 6 
#
# 1 109.6720 35.2996 59.4694 0.0000 10.4941 0.0000
# 2 35.2996 122.7248 57.3628 0.0000 11.9521 0.0000
# 3 59.4694 57.3628 139.3886 0.0000 7.2825 0.0000
# 4 0.0000 0.0000 0.0000 31.1142 0.0000 5.7458
# 5 10.4941 11.9521 7.2825 0.0000 36.4808 0.0000
# 6 0.0000 0.0000 0.0000 5.7458 0.0000 40.4970
#
#
#
# Elastic Compliance Matrix: (Units=1/GPa)
#
#
# Indices 1 2 3 4 5 6 
#
# 1 0.012202 -0.001133 -0.004624 0.000000 -0.002216 0.000000
# 2 -0.001133 0.010425 -0.003684 0.000000 -0.002354 0.000000
# 3 -0.004624 -0.003684 0.010642 0.000000 0.000413 0.000000
# 4 0.000000 0.000000 0.000000 0.033004 0.000000 -0.004683
# 5 -0.002216 -0.002354 0.000413 0.000000 0.028738 0.000000
# 6 0.000000 0.000000 0.000000 -0.004683 0.000000 0.025358
#
#
# Mechanical properties :
#
#
# Convention : Reuss Voigt Hill
#
# Bulk Modulus (GPa) = 69.50510 75.11654 72.31082
# Shear Modulus (GPa) = 34.71102 36.26199 35.48650
#
# Velocity S-wave (km/s) = 4.07019 4.16012 4.11540
# Velocity P-wave (km/s) = 7.43377 7.67634 7.55603
#
# Compressibility (1/GPa) = 0.01438743
#
# Stress axis : x y z
#
# Youngs Moduli (GPa) = 81.95341 95.91977 93.97074
#
# Poissons Ratio (x) = 0.10863 0.43453
# Poissons Ratio (y) = 0.09282 0.34620
# Poissons Ratio (z) = 0.37896 0.35338
#
# Static dielectric constant tensor:
#      x y z
#    x 4.015660 0.000000 -0.046960 
#    y 0.000000 3.728940 0.000000 
#    z -0.046960 0.000000 3.966180 
# 
# 
# High freq. dielectric constant tensor:
#      x y z
#    x 1.835970 0.000000 -0.001650 
#    y 0.000000 1.827710 0.000000 
#    z -0.001650 0.000000 1.837530 
# 
# From -- ./inp_files/11152.got.cif
#   From: 2010.03.12/outbox.cif.g09.slc.cpg/sg14_6_cif.got.tgz:11152.got - 2010.03.31 13:35:05.
