data_PCOD8129186
_publ_section_title
;
Structure prediction by ZEFSAII (Michael W. Deem and Ramdas Pophale) SiO2 
 PCOD8129186
Probable space group: P 21/C
;
_chemical_formula_sum "Si O2"
_cell_formula_units_Z 20
_cell_length_a 10.923636
_cell_length_b 11.381509
_cell_length_c 13.668492
_cell_angle_alpha 90.000000
_cell_angle_beta 34.055522
_cell_angle_gamma 90.000000
_cell_volume 951.639815
_symmetry_space_group_name_H-M "P 21/C"
_symmetry_group_IT_number 14
_symmetry_cell_setting 'monoclinic'
loop_
_space_group_symop_operation_xyz
x,y,z
-x,1/2+y,1/2-z
-x,-y,-z
x,1/2-y,1/2+z
loop_
_atom_site_type_symbol
_atom_site_label
_atom_site_fract_x
_atom_site_fract_y
_atom_site_fract_z
Si Si1 0.688514 0.316517 0.489806
Si Si2 0.006447 0.370736 0.453337
Si Si3 0.662101 0.536135 0.173107
Si Si4 0.518053 0.923027 0.390668
Si Si5 0.117747 0.652228 0.845399
O O1 0.875555 0.353647 0.440607
O O2 0.461356 0.378839 0.669481
O O3 0.670637 0.175086 0.494292
O O4 0.757420 0.361202 0.338428
O O5 0.911930 0.285693 0.599595
O O6 0.000000 0.500000 0.500000
O O7 0.258694 0.348096 0.259417
O O8 0.501250 0.511416 0.188484
O O9 0.729811 0.413808 0.177679
O O10 0.879578 0.597243 0.989828
O O11 0.500000 0.000000 0.500000
#
# Coordination Sequence:
#
# PCOD8129186 Si02
#       5
#     4   4   4   4   4
#     4  12  25  45  71 102 139 188 233 294 359 418
#     4  12  24  45  69 103 141 181 238 293 346 424
#     4  11  24  48  69  99 148 179 234 299 345 426
#     4  12  25  44  72 105 142 188 235 290 359 425
#     4  11  25  45  69 103 138 188 237 289 354 426
#
# _framework density 21.016355000000001
#
# number of rings (size 3 to 8) (size 9 to 14) (size 15 to 20)
#    0.000    0.400    6.000    3.000    0.000    0.000 
#    3.600    0.000    0.000    0.000    0.000    0.000 
#    0.000    0.000    0.000    0.000    0.000    0.000 
#
# Total GULP energy -248077.988447 kJ/mol
# GULP energy per Si atom -12403.899422 kJ/mol
# Density = 2.096852 g / cm^3
# Si number density = 21.016355 Si / 1000 Ang^3
#
#
#
# Elastic Constant Matrix: (Units=GPa)
#
#
# Indices 1 2 3 4 5 6 
#
# 1 108.8137 56.4703 41.6071 0.0000 7.9149 0.0000
# 2 56.4703 143.6241 37.5445 0.0000 15.9731 0.0000
# 3 41.6071 37.5445 117.8310 0.0000 24.8760 0.0000
# 4 0.0000 0.0000 0.0000 38.5499 0.0000 3.9541
# 5 7.9149 15.9731 24.8760 0.0000 35.0061 0.0000
# 6 0.0000 0.0000 0.0000 3.9541 0.0000 36.0466
#
#
#
# Elastic Compliance Matrix: (Units=1/GPa)
#
#
# Indices 1 2 3 4 5 6 
#
# 1 0.012576 -0.004220 -0.003415 0.000000 0.001509 0.000000
# 2 -0.004220 0.009139 -0.000874 0.000000 -0.002595 0.000000
# 3 -0.003415 -0.000874 0.011440 0.000000 -0.006959 0.000000
# 4 0.000000 0.000000 0.000000 0.026236 0.000000 -0.002878
# 5 0.001509 -0.002595 -0.006959 0.000000 0.034354 0.000000
# 6 0.000000 0.000000 0.000000 -0.002878 0.000000 0.028058
#
#
# Mechanical properties :
#
#
# Convention : Reuss Voigt Hill
#
# Bulk Modulus (GPa) = 61.96594 71.27916 66.62255
# Shear Modulus (GPa) = 34.67451 37.56365 36.11908
#
# Velocity S-wave (km/s) = 4.06628 4.23230 4.15012
# Velocity P-wave (km/s) = 7.18295 7.60742 7.39823
#
# Compressibility (1/GPa) = 0.01613790
#
# Stress axis : x y z
#
# Youngs Moduli (GPa) = 79.51775 109.42339 87.41240
#
# Poissons Ratio (x) = 0.46174 0.29847
# Poissons Ratio (y) = 0.33554 0.07641
# Poissons Ratio (z) = 0.27152 0.09564
#
# Static dielectric constant tensor:
#      x y z
#    x 3.775060 0.000000 -0.134610 
#    y 0.000000 3.956680 0.000000 
#    z -0.134610 0.000000 4.025140 
# 
# 
# High freq. dielectric constant tensor:
#      x y z
#    x 1.830710 0.000000 -0.003770 
#    y 0.000000 1.834210 0.000000 
#    z -0.003770 0.000000 1.833630 
# 
# From -- ./inp_files/23728.got.cif
#   From: 2010.03.12/outbox.cif.g09.slc.cpg/sg14_12_cif.got.tgz:23728.got - 2010.03.31 13:35:05.
