data_PCOD8129888
_publ_section_title
;
Structure prediction by ZEFSAII (Michael W. Deem and Ramdas Pophale) SiO2 
 PCOD8129888
Probable space group: C 2/C
;
_chemical_formula_sum "Si O2"
_cell_formula_units_Z 56
_cell_length_a 19.103626
_cell_length_b 14.387805
_cell_length_c 19.379804
_cell_angle_alpha 90.000000
_cell_angle_beta 36.213885
_cell_angle_gamma 90.000000
_cell_volume 3147.031613
_symmetry_space_group_name_H-M "C 2/C"
_symmetry_group_IT_number 15
_symmetry_cell_setting 'monoclinic'
loop_
_space_group_symop_operation_xyz
x,y,z
-x,y,1/2-z
-x,-y,-z
x,-y,1/2+z
1/2+x,1/2+y,z
1/2-x,1/2+y,1/2-z
1/2-x,1/2-y,-z
1/2+x,1/2-y,1/2+z
loop_
_atom_site_type_symbol
_atom_site_label
_atom_site_fract_x
_atom_site_fract_y
_atom_site_fract_z
Si Si1 0.634564 0.423177 0.456787
Si Si2 0.738552 0.058665 0.045368
Si Si3 0.969435 0.162274 0.848251
Si Si4 0.148456 0.740481 0.523651
Si Si5 0.769443 0.936468 0.893535
Si Si6 0.500000 0.840013 0.750000
Si Si7 0.107056 0.975446 0.327112
Si Si8 0.500000 0.322334 0.750000
O O1 0.727012 0.476150 0.431152
O O2 0.655342 0.314670 0.455948
O O3 0.664593 0.447959 0.354097
O O4 0.499319 0.450543 0.581476
O O5 0.613085 0.095946 0.170012
O O6 0.833558 0.141764 0.975693
O O7 0.731104 0.020342 0.973669
O O8 0.986226 0.273820 0.828840
O O9 0.000000 0.113965 0.750000
O O10 0.057928 0.120336 0.834156
O O11 0.250000 0.750000 0.500000
O O12 0.162309 0.639141 0.477400
O O13 0.025006 0.756311 0.663551
O O14 0.889444 0.889721 0.825823
O O15 0.790175 0.978436 0.800951
#
# Coordination Sequence:
#
# PCOD8129888 Si02
#       8
#     8   8   8   8   8   4   8   4
#     4  10  20  35  55  86 111 142 188 238 285 337
#     4  11  19  35  58  84 112 145 188 232 285 333
#     4   9  18  34  59  80 102 148 193 238 260 328
#     4  10  19  31  54  82 111 139 186 234 278 326
#     4  11  18  32  56  82 105 150 183 232 278 329
#     4  10  22  34  54  86 114 138 184 238 282 332
#     4  10  19  35  60  81 108 146 194 238 277 327
#     4  10  16  32  52  76 112 134 192 238 260 328
#
# _framework density 17.794546
#
# number of rings (size 3 to 8) (size 9 to 14) (size 15 to 20)
#    0.429    1.429    5.714    1.286    0.000    0.571 
#    2.571    0.000    3.143    0.857    0.000    0.000 
#    0.000    0.000    0.000    0.000    0.000    0.000 
#
# Total GULP energy -347091.190413 kJ/mol
# GULP energy per Si atom -12396.113943 kJ/mol
# Density = 1.775404 g / cm^3
# Si number density = 17.794546 Si / 1000 Ang^3
#
#
#
# Elastic Constant Matrix: (Units=GPa)
#
#
# Indices 1 2 3 4 5 6 
#
# 1 49.1619 24.0312 30.4178 0.0000 21.4527 0.0000
# 2 24.0312 89.9394 47.8259 0.0000 6.0269 0.0000
# 3 30.4178 47.8259 95.6272 0.0000 7.3474 0.0000
# 4 0.0000 0.0000 0.0000 29.8406 0.0000 2.2654
# 5 21.4527 6.0269 7.3474 0.0000 30.3803 0.0000
# 6 0.0000 0.0000 0.0000 2.2654 0.0000 16.6835
#
#
#
# Elastic Compliance Matrix: (Units=1/GPa)
#
#
# Indices 1 2 3 4 5 6 
#
# 1 0.037851 -0.004203 -0.008099 0.000000 -0.023936 0.000000
# 2 -0.004203 0.015656 -0.006605 0.000000 0.001459 0.000000
# 3 -0.008099 -0.006605 0.016096 0.000000 0.003137 0.000000
# 4 0.000000 0.000000 0.000000 0.033860 0.000000 -0.004598
# 5 -0.023936 0.001459 0.003137 0.000000 0.048770 0.000000
# 6 0.000000 0.000000 0.000000 -0.004598 0.000000 0.060564
#
#
# Mechanical properties :
#
#
# Convention : Reuss Voigt Hill
#
# Bulk Modulus (GPa) = 31.45742 48.80870 40.13306
# Shear Modulus (GPa) = 19.14180 24.21112 21.67646
#
# Velocity S-wave (km/s) = 3.28336 3.69262 3.49399
# Velocity P-wave (km/s) = 5.66484 6.75790 6.23537
#
# Compressibility (1/GPa) = 0.03178900
#
# Stress axis : x y z
#
# Youngs Moduli (GPa) = 26.41920 63.87223 62.12736
#
# Poissons Ratio (x) = 0.26846 0.50316
# Poissons Ratio (y) = 0.11104 0.41037
# Poissons Ratio (z) = 0.21397 0.42190
#
# Static dielectric constant tensor:
#      x y z
#    x 2.969660 0.000000 0.148780 
#    y 0.000000 3.352830 0.000000 
#    z 0.148780 0.000000 3.599900 
# 
# 
# High freq. dielectric constant tensor:
#      x y z
#    x 1.649760 0.000000 0.010580 
#    y 0.000000 1.684700 0.000000 
#    z 0.010580 0.000000 1.688060 
# 
# From -- ./inp_files/211218.got.cif
#   From: 2010.06.25/outbox.cif.g09.slc.cpg/sg15_106_cif.got.tgz:211218.got - 2010.06.28 07:06:18.
