data_PCOD8129327
_publ_section_title
;
Structure prediction by ZEFSAII (Michael W. Deem and Ramdas Pophale) SiO2 
 PCOD8129327
Probable space group: P 21/C
;
_chemical_formula_sum "Si O2"
_cell_formula_units_Z 20
_cell_length_a 7.559171
_cell_length_b 12.092304
_cell_length_c 8.701446
_cell_angle_alpha 90.000000
_cell_angle_beta 113.094067
_cell_angle_gamma 90.000000
_cell_volume 731.639915
_symmetry_space_group_name_H-M "P 21/C"
_symmetry_group_IT_number 14
_symmetry_cell_setting 'monoclinic'
loop_
_space_group_symop_operation_xyz
x,y,z
-x,1/2+y,1/2-z
-x,-y,-z
x,1/2-y,1/2+z
loop_
_atom_site_type_symbol
_atom_site_label
_atom_site_fract_x
_atom_site_fract_y
_atom_site_fract_z
Si Si1 0.443005 0.877417 0.919736
Si Si2 0.825386 0.497371 0.154589
Si Si3 0.752887 0.934531 0.302832
Si Si4 0.240996 0.799706 0.156682
Si Si5 0.812370 0.691984 0.393205
O O1 0.319234 0.817124 0.743588
O O2 0.668761 0.848944 0.977748
O O3 0.406115 0.009544 0.866456
O O4 0.363410 0.837777 0.054344
O O5 0.729415 0.391050 0.200643
O O6 0.829812 0.600973 0.268576
O O7 0.042640 0.472642 0.185914
O O8 0.707131 0.525603 0.960884
O O9 0.729986 0.802839 0.288348
O O10 0.017362 0.783993 0.040560
#
# Coordination Sequence:
#
# PCOD8129327 Si02
#       5
#     4   4   4   4   4
#     4  12  29  48  81 116 153 210 264 320 390 470
#     4  11  26  50  81 111 157 209 258 325 389 456
#     4  11  26  50  79 115 158 206 261 323 387 465
#     4  12  27  53  76 116 160 204 264 325 385 465
#     4  12  29  48  83 112 160 209 257 325 393 459
#
# _framework density 27.335851000000002
#
# number of rings (size 3 to 8) (size 9 to 14) (size 15 to 20)
#    0.000    0.400    2.000    5.400    8.400    1.600 
#    0.000    0.000    0.000    0.000    0.000    0.000 
#    0.000    0.000    0.000    0.000    0.000    0.000 
#
# Total GULP energy -248252.895163 kJ/mol
# GULP energy per Si atom -12412.644758 kJ/mol
# Density = 2.727363 g / cm^3
# Si number density = 27.335851 Si / 1000 Ang^3
#
#
#
# Elastic Constant Matrix: (Units=GPa)
#
#
# Indices 1 2 3 4 5 6 
#
# 1 160.8185 49.5992 59.5643 0.0000 -19.8638 0.0000
# 2 49.5992 180.1153 38.3970 0.0000 -9.2506 0.0000
# 3 59.5643 38.3970 123.4676 0.0000 -6.1426 0.0000
# 4 0.0000 0.0000 0.0000 33.6396 0.0000 -7.3469
# 5 -19.8638 -9.2506 -6.1426 0.0000 55.5488 0.0000
# 6 0.0000 0.0000 0.0000 -7.3469 0.0000 36.4335
#
#
#
# Elastic Compliance Matrix: (Units=1/GPa)
#
#
# Indices 1 2 3 4 5 6 
#
# 1 0.008201 -0.001414 -0.003401 0.000000 0.002321 0.000000
# 2 -0.001414 0.006225 -0.001234 0.000000 0.000395 0.000000
# 3 -0.003401 -0.001234 0.010109 0.000000 -0.000304 0.000000
# 4 0.000000 0.000000 0.000000 0.031096 0.000000 0.006271
# 5 0.002321 0.000395 -0.000304 0.000000 0.018864 0.000000
# 6 0.000000 0.000000 0.000000 0.006271 0.000000 0.028712
#
#
# Mechanical properties :
#
#
# Convention : Reuss Voigt Hill
#
# Bulk Modulus (GPa) = 80.41217 84.39138 82.40178
# Shear Modulus (GPa) = 41.85855 46.24710 44.05282
#
# Velocity S-wave (km/s) = 3.91739 4.11763 4.01875
# Velocity P-wave (km/s) = 7.06693 7.31748 7.19330
#
# Compressibility (1/GPa) = 0.01243593
#
# Stress axis : x y z
#
# Youngs Moduli (GPa) = 121.94157 160.64994 98.92480
#
# Poissons Ratio (x) = 0.22716 0.33644
# Poissons Ratio (y) = 0.17243 0.12208
# Poissons Ratio (z) = 0.41473 0.19825
#
# Static dielectric constant tensor:
#      x y z
#    x 5.205100 0.000000 -0.069160 
#    y 0.000000 5.561950 0.000000 
#    z -0.069160 0.000000 5.483870 
# 
# 
# High freq. dielectric constant tensor:
#      x y z
#    x 2.117620 0.000000 -0.001860 
#    y 0.000000 2.132180 0.000000 
#    z -0.001860 0.000000 2.138820 
# 
# From -- ./inp_files/7708.got.cif
#   From: 2010.03.12/outbox.cif.g09.slc.cpg/sg14_4_cif.got.tgz:7708.got - 2010.03.31 13:35:05.
