data_PCOD8129218
_publ_section_title
;
Structure prediction by ZEFSAII (Michael W. Deem and Ramdas Pophale) SiO2 
 PCOD8129218
Probable space group: P 21/C
;
_chemical_formula_sum "Si O2"
_cell_formula_units_Z 32
_cell_length_a 23.000542
_cell_length_b 7.899041
_cell_length_c 14.189765
_cell_angle_alpha 90.000000
_cell_angle_beta 28.926281
_cell_angle_gamma 90.000000
_cell_volume 1246.950668
_symmetry_space_group_name_H-M "P 21/C"
_symmetry_group_IT_number 14
_symmetry_cell_setting 'monoclinic'
loop_
_space_group_symop_operation_xyz
x,y,z
-x,1/2+y,1/2-z
-x,-y,-z
x,1/2-y,1/2+z
loop_
_atom_site_type_symbol
_atom_site_label
_atom_site_fract_x
_atom_site_fract_y
_atom_site_fract_z
Si Si1 0.142423 0.776444 0.407803
Si Si2 0.776213 0.043262 0.883847
Si Si3 0.268520 0.428471 0.221477
Si Si4 0.120160 0.317244 0.264210
Si Si5 0.596793 0.740291 0.327070
Si Si6 0.574159 0.099021 0.775718
Si Si7 0.507431 0.976132 0.303557
Si Si8 0.167466 0.842546 0.579655
O O1 0.200818 0.925149 0.260812
O O2 0.238775 0.625294 0.280982
O O3 0.107240 0.846506 0.561820
O O4 0.021582 0.710766 0.530540
O O5 0.865455 0.178050 0.809942
O O6 0.811233 0.853519 0.867571
O O7 0.633583 0.071769 0.105750
O O8 0.160851 0.349448 0.313706
O O9 0.282550 0.328963 0.301455
O O10 0.394501 0.401100 0.985933
O O11 0.145572 0.480111 0.163007
O O12 0.530398 0.646702 0.505902
O O13 0.621577 0.596033 0.214649
O O14 0.513918 0.874957 0.392230
O O15 0.527511 0.137636 0.736467
O O16 0.692297 0.202196 0.633697
#
# Coordination Sequence:
#
# PCOD8129218 Si02
#       8
#     4   4   4   4   4   4   4   4
#     4  12  29  52  83 114 160 210 272 337 398 476
#     4  12  28  51  79 116 157 209 262 331 404 477
#     4  12  25  50  79 116 157 211 265 332 402 483
#     4  12  28  53  79 114 157 217 269 334 396 473
#     4  11  26  43  74 114 158 208 261 319 408 487
#     4  11  25  43  72 114 158 202 257 333 396 481
#     4  12  25  46  76 115 159 201 257 317 407 479
#     4  12  27  50  77 115 158 203 272 329 394 472
#
# _framework density 25.662603000000001
#
# number of rings (size 3 to 8) (size 9 to 14) (size 15 to 20)
#    0.000    0.250    2.500    4.875   12.250    0.000 
#    0.000    0.000    0.000    0.000    0.000    0.000 
#    0.000    0.000    0.000    0.000    0.000    0.000 
#
# Total GULP energy -396593.220990 kJ/mol
# GULP energy per Si atom -12393.538156 kJ/mol
# Density = 2.560419 g / cm^3
# Si number density = 25.662603 Si / 1000 Ang^3
#
#
#
# Elastic Constant Matrix: (Units=GPa)
#
#
# Indices 1 2 3 4 5 6 
#
# 1 185.1081 58.7923 25.2012 0.0000 2.8609 0.0000
# 2 58.7923 150.3899 20.8413 0.0000 3.5731 0.0000
# 3 25.2012 20.8413 57.0595 0.0000 -17.3084 0.0000
# 4 0.0000 0.0000 0.0000 30.3312 0.0000 -1.2298
# 5 2.8609 3.5731 -17.3084 0.0000 36.5503 0.0000
# 6 0.0000 0.0000 0.0000 -1.2298 0.0000 40.6981
#
#
#
# Elastic Compliance Matrix: (Units=1/GPa)
#
#
# Indices 1 2 3 4 5 6 
#
# 1 0.006446 -0.002136 -0.002519 0.000000 -0.001488 0.000000
# 2 -0.002136 0.007868 -0.002468 0.000000 -0.001771 0.000000
# 3 -0.002519 -0.002468 0.022972 0.000000 0.011317 0.000000
# 4 0.000000 0.000000 0.000000 0.033010 0.000000 0.000997
# 5 -0.001488 -0.001771 0.011317 0.000000 0.033008 0.000000
# 6 0.000000 0.000000 0.000000 0.000997 0.000000 0.024601
#
#
# Mechanical properties :
#
#
# Convention : Reuss Voigt Hill
#
# Bulk Modulus (GPa) = 43.39764 66.91413 55.15588
# Shear Modulus (GPa) = 33.37079 40.69743 37.03411
#
# Velocity S-wave (km/s) = 3.60997 3.98661 3.80296
# Velocity P-wave (km/s) = 5.85862 6.87910 6.38926
#
# Compressibility (1/GPa) = 0.02304273
#
# Stress axis : x y z
#
# Youngs Moduli (GPa) = 155.12351 127.09108 43.53093
#
# Poissons Ratio (x) = 0.27143 0.10964
# Poissons Ratio (y) = 0.33130 0.10743
# Poissons Ratio (z) = 0.39070 0.31364
#
# Static dielectric constant tensor:
#      x y z
#    x 4.910840 0.000000 0.050100 
#    y 0.000000 4.861300 0.000000 
#    z 0.050100 0.000000 4.366160 
# 
# 
# High freq. dielectric constant tensor:
#      x y z
#    x 2.037380 0.000000 0.004160 
#    y 0.000000 2.038760 0.000000 
#    z 0.004160 0.000000 2.009040 
# 
# From -- ./inp_files/51365.got.cif
#   From: 2010.03.12/outbox.cif.g09.slc.cpg/sg14_26_cif.got.tgz:51365.got - 2010.03.31 13:35:05.
