data_PCOD8129093
_publ_section_title
;
Structure prediction by ZEFSAII (Michael W. Deem and Ramdas Pophale) SiO2 
 PCOD8129093
Probable space group: P 21/C
;
_chemical_formula_sum "Si O2"
_cell_formula_units_Z 20
_cell_length_a 6.965984
_cell_length_b 7.682745
_cell_length_c 14.470789
_cell_angle_alpha 90.000000
_cell_angle_beta 77.913269
_cell_angle_gamma 90.000000
_cell_volume 757.277824
_symmetry_space_group_name_H-M "P 21/C"
_symmetry_group_IT_number 14
_symmetry_cell_setting 'monoclinic'
loop_
_space_group_symop_operation_xyz
x,y,z
-x,1/2+y,1/2-z
-x,-y,-z
x,1/2-y,1/2+z
loop_
_atom_site_type_symbol
_atom_site_label
_atom_site_fract_x
_atom_site_fract_y
_atom_site_fract_z
Si Si1 0.590740 0.216484 0.245274
Si Si2 0.845232 0.821428 0.926124
Si Si3 0.806672 0.916446 0.726289
Si Si4 0.269804 0.853120 0.965034
Si Si5 0.219266 0.556354 0.105028
O O1 0.356283 0.224492 0.290682
O O2 0.700258 0.397760 0.245335
O O3 0.594675 0.149233 0.138827
O O4 0.687738 0.073154 0.302544
O O5 0.900521 0.867607 0.815136
O O6 0.737784 0.634724 0.940262
O O7 0.044395 0.821876 0.962572
O O8 0.697552 0.963329 0.985183
O O9 0.982071 0.919245 0.634565
O O10 0.323382 0.695668 0.028355
#
# Coordination Sequence:
#
# PCOD8129093 Si02
#       5
#     4   4   4   4   4
#     4  12  27  48  76 111 151 200 244 308 373 440
#     4  11  24  43  79 105 141 196 240 306 363 439
#     4  12  25  48  73 108 152 198 244 306 373 435
#     4  11  25  47  76 113 146 194 253 301 371 440
#     4  12  24  52  76 108 150 197 250 302 376 435
#
# _framework density 26.410388000000001
#
# number of rings (size 3 to 8) (size 9 to 14) (size 15 to 20)
#    0.000    0.400    6.000    1.800    0.000    4.000 
#    3.600    2.000    0.000    0.000    0.000    0.000 
#    0.000    0.000    0.000    0.000    0.000    0.000 
#
# Total GULP energy -248123.828644 kJ/mol
# GULP energy per Si atom -12406.191432 kJ/mol
# Density = 2.635028 g / cm^3
# Si number density = 26.410388 Si / 1000 Ang^3
#
#
#
# Elastic Constant Matrix: (Units=GPa)
#
#
# Indices 1 2 3 4 5 6 
#
# 1 67.2838 15.4295 32.3020 0.0000 -6.2565 0.0000
# 2 15.4295 158.9586 75.8608 0.0000 4.9271 0.0000
# 3 32.3020 75.8608 110.6214 0.0000 7.9986 0.0000
# 4 0.0000 0.0000 0.0000 39.4312 0.0000 12.0832
# 5 -6.2565 4.9271 7.9986 0.0000 22.2567 0.0000
# 6 0.0000 0.0000 0.0000 12.0832 0.0000 25.7687
#
#
#
# Elastic Compliance Matrix: (Units=1/GPa)
#
#
# Indices 1 2 3 4 5 6 
#
# 1 0.018520 0.001203 -0.006766 0.000000 0.007371 0.000000
# 2 0.001203 0.009431 -0.006871 0.000000 0.000719 0.000000
# 3 -0.006766 -0.006871 0.016175 0.000000 -0.006194 0.000000
# 4 0.000000 0.000000 0.000000 0.029616 0.000000 -0.013887
# 5 0.007371 0.000719 -0.006194 0.000000 0.049069 0.000000
# 6 0.000000 0.000000 0.000000 -0.013887 0.000000 0.045319
#
#
# Mechanical properties :
#
#
# Convention : Reuss Voigt Hill
#
# Bulk Modulus (GPa) = 51.92459 64.89427 58.40943
# Shear Modulus (GPa) = 25.07311 31.70943 28.39127
#
# Velocity S-wave (km/s) = 3.08452 3.46879 3.28228
# Velocity P-wave (km/s) = 5.69114 6.37716 6.04389
#
# Compressibility (1/GPa) = 0.01925870
#
# Stress axis : x y z
#
# Youngs Moduli (GPa) = 53.99499 106.03571 61.82388
#
# Poissons Ratio (x) = -0.12753 0.41829
# Poissons Ratio (y) = -0.06494 0.42477
# Poissons Ratio (z) = 0.36532 0.72853
#
# Static dielectric constant tensor:
#      x y z
#    x 4.653090 0.000000 0.164390 
#    y 0.000000 4.860930 0.000000 
#    z 0.164390 0.000000 4.757970 
# 
# 
# High freq. dielectric constant tensor:
#      x y z
#    x 2.067550 0.000000 0.012460 
#    y 0.000000 2.063640 0.000000 
#    z 0.012460 0.000000 2.056800 
# 
# From -- ./inp_files/38740.got.cif
#   From: 2010.03.12/outbox.cif.g09.slc.cpg/sg14_20_cif.got.tgz:38740.got - 2010.03.31 13:35:05.
