data_PCOD8129058
_publ_section_title
;
Structure prediction by ZEFSAII (Michael W. Deem and Ramdas Pophale) SiO2 
 PCOD8129058
Probable space group: P 21/C
;
_chemical_formula_sum "Si O2"
_cell_formula_units_Z 24
_cell_length_a 12.482669
_cell_length_b 14.662279
_cell_length_c 9.838084
_cell_angle_alpha 90.000000
_cell_angle_beta 34.768084
_cell_angle_gamma 90.000000
_cell_volume 1026.808309
_symmetry_space_group_name_H-M "P 21/C"
_symmetry_group_IT_number 14
_symmetry_cell_setting 'monoclinic'
loop_
_space_group_symop_operation_xyz
x,y,z
-x,1/2+y,1/2-z
-x,-y,-z
x,1/2-y,1/2+z
loop_
_atom_site_type_symbol
_atom_site_label
_atom_site_fract_x
_atom_site_fract_y
_atom_site_fract_z
Si Si1 0.304735 0.208864 0.210056
Si Si2 0.201087 0.350303 0.112287
Si Si3 0.486492 0.498609 0.853858
Si Si4 0.786862 0.145989 0.960218
Si Si5 0.040499 0.897535 0.494161
Si Si6 0.372584 0.837620 0.303026
O O1 0.266135 0.208210 0.411446
O O2 0.157047 0.150248 0.275701
O O3 0.284302 0.309207 0.165566
O O4 0.507347 0.165626 0.962379
O O5 0.294629 0.449890 0.002541
O O6 0.974599 0.356332 0.358842
O O7 0.668566 0.445817 0.607215
O O8 0.480803 0.602601 0.804033
O O9 0.500000 0.500000 0.000000
O O10 0.853745 0.153474 0.737130
O O11 0.656044 0.233819 0.119806
O O12 0.171963 0.886177 0.488228
O O13 0.000000 0.000000 0.500000
#
# Coordination Sequence:
#
# PCOD8129058 Si02
#       6
#     4   4   4   4   4   4
#     4  11  24  42  76 102 142 187 240 294 360 428
#     4  11  25  47  71 107 143 190 243 296 359 432
#     4  12  29  45  70 109 148 188 245 301 361 432
#     4  11  25  46  73 106 144 188 242 295 360 433
#     4  11  24  46  71 102 139 186 246 294 356 428
#     4  12  25  43  74 104 144 194 235 300 365 423
#
# _framework density 23.373398999999999
#
# number of rings (size 3 to 8) (size 9 to 14) (size 15 to 20)
#    0.000    0.667    3.333    4.000    4.667    2.667 
#    0.000    0.000    0.000    0.000    0.000    0.000 
#    0.000    0.000    0.000    0.000    0.000    0.000 
#
# Total GULP energy -297602.274862 kJ/mol
# GULP energy per Si atom -12400.094786 kJ/mol
# Density = 2.332020 g / cm^3
# Si number density = 23.373399 Si / 1000 Ang^3
#
#
#
# Elastic Constant Matrix: (Units=GPa)
#
#
# Indices 1 2 3 4 5 6 
#
# 1 77.4758 9.3698 12.0479 0.0000 -2.0767 0.0000
# 2 9.3698 67.2415 36.6214 0.0000 -7.2438 0.0000
# 3 12.0479 36.6214 97.3490 0.0000 -11.4832 0.0000
# 4 0.0000 0.0000 0.0000 33.0802 0.0000 -6.5262
# 5 -2.0767 -7.2438 -11.4832 0.0000 39.5307 0.0000
# 6 0.0000 0.0000 0.0000 -6.5262 0.0000 44.4725
#
#
#
# Elastic Compliance Matrix: (Units=1/GPa)
#
#
# Indices 1 2 3 4 5 6 
#
# 1 0.013237 -0.001190 -0.001174 0.000000 0.000136 0.000000
# 2 -0.001190 0.018890 -0.006790 0.000000 0.001426 0.000000
# 3 -0.001174 -0.006790 0.013273 0.000000 0.002550 0.000000
# 4 0.000000 0.000000 0.000000 0.031131 0.000000 0.004568
# 5 0.000136 0.001426 0.002550 0.000000 0.026306 0.000000
# 6 0.000000 0.000000 0.000000 0.004568 0.000000 0.023156
#
#
# Mechanical properties :
#
#
# Convention : Reuss Voigt Hill
#
# Bulk Modulus (GPa) = 36.91455 39.79384 38.35419
# Shear Modulus (GPa) = 32.60877 35.68517 34.14697
#
# Velocity S-wave (km/s) = 3.73919 3.91159 3.82636
# Velocity P-wave (km/s) = 5.87109 6.12070 5.99720
#
# Compressibility (1/GPa) = 0.02708959
#
# Stress axis : x y z
#
# Youngs Moduli (GPa) = 75.54306 52.93942 75.34159
#
# Poissons Ratio (x) = 0.06301 0.08848
# Poissons Ratio (y) = 0.08992 0.51160
# Poissons Ratio (z) = 0.08872 0.35948
#
# Static dielectric constant tensor:
#      x y z
#    x 2.224470 0.000000 -1.625380 
#    y 0.000000 3.087210 0.000000 
#    z -1.625380 0.000000 3.549640 
# 
# 
# High freq. dielectric constant tensor:
#      x y z
#    x 1.928710 0.000000 -0.019460 
#    y 0.000000 1.922820 0.000000 
#    z -0.019460 0.000000 1.933170 
# 
# From -- ./inp_files/32685.got.cif
#   From: 2010.03.12/outbox.cif.g09.slc.cpg/sg14_17_cif.got.tgz:32685.got - 2010.03.31 13:35:05.
