data_PCOD8129910
_publ_section_title
;
Structure prediction by ZEFSAII (Michael W. Deem and Ramdas Pophale) SiO2 
 PCOD8129910
Probable space group: C 2/C
;
_chemical_formula_sum "Si O2"
_cell_formula_units_Z 40
_cell_length_a 18.115502
_cell_length_b 21.669920
_cell_length_c 10.700679
_cell_angle_alpha 90.000000
_cell_angle_beta 151.870037
_cell_angle_gamma 90.000000
_cell_volume 1980.505086
_symmetry_space_group_name_H-M "C 2/C"
_symmetry_group_IT_number 15
_symmetry_cell_setting 'monoclinic'
loop_
_space_group_symop_operation_xyz
x,y,z
-x,y,1/2-z
-x,-y,-z
x,-y,1/2+z
1/2+x,1/2+y,z
1/2-x,1/2+y,1/2-z
1/2-x,1/2-y,-z
1/2+x,1/2-y,1/2+z
loop_
_atom_site_type_symbol
_atom_site_label
_atom_site_fract_x
_atom_site_fract_y
_atom_site_fract_z
Si Si1 0.177936 0.880549 0.128947
Si Si2 0.335212 0.583947 0.630662
Si Si3 0.185965 0.125197 0.160532
Si Si4 0.163769 0.939286 0.866597
Si Si5 0.822147 0.255096 0.971178
O O1 0.259523 0.896661 0.384570
O O2 0.257435 0.918562 0.132308
O O3 0.189700 0.808347 0.121736
O O4 0.997849 0.901388 0.871950
O O5 0.241242 0.602925 0.364340
O O6 0.369521 0.511350 0.683228
O O7 0.499275 0.619617 0.874615
O O8 0.253649 0.082050 0.374531
O O9 0.229050 0.195810 0.249024
O O10 0.000000 0.277082 0.250000
O O11 0.750000 0.250000 0.000000
#
# Coordination Sequence:
#
# PCOD8129910 Si02
#       5
#     8   8   8   8   8
#     4  10  17  30  51  80 112 146 182 233 292 327
#     4  10  19  32  55  91 117 141 191 251 298 339
#     4  10  19  31  52  84 114 147 186 240 294 336
#     4  10  16  32  56  86 112 144 194 248 283 336
#     4  12  22  39  58  82 120 159 205 237 281 361
#
# _framework density 20.196869
#
# number of rings (size 3 to 8) (size 9 to 14) (size 15 to 20)
#    0.000    1.600    4.000    7.200    0.000    0.800 
#    0.000    0.000    0.000    1.200    0.000    0.000 
#    0.000    0.000    0.000    0.000    0.000    0.000 
#
# Total GULP energy -247831.782091 kJ/mol
# GULP energy per Si atom -12391.589105 kJ/mol
# Density = 2.015090 g / cm^3
# Si number density = 20.196869 Si / 1000 Ang^3
#
#
#
# Elastic Constant Matrix: (Units=GPa)
#
#
# Indices 1 2 3 4 5 6 
#
# 1 194.7645 73.7246 46.5676 0.0000 -65.3611 0.0000
# 2 73.7246 195.3570 45.9165 0.0000 -20.6817 0.0000
# 3 46.5676 45.9165 32.3139 0.0000 -13.2901 0.0000
# 4 0.0000 0.0000 0.0000 27.6414 0.0000 -4.7536
# 5 -65.3611 -20.6817 -13.2901 0.0000 37.8452 0.0000
# 6 0.0000 0.0000 0.0000 -4.7536 0.0000 37.8288
#
#
#
# Elastic Compliance Matrix: (Units=1/GPa)
#
#
# Indices 1 2 3 4 5 6 
#
# 1 0.016255 -0.000624 -0.013012 0.000000 0.023163 0.000000
# 2 -0.000624 0.007716 -0.010254 0.000000 -0.000462 0.000000
# 3 -0.013012 -0.010254 0.061622 0.000000 -0.006437 0.000000
# 4 0.000000 0.000000 0.000000 0.036977 0.000000 0.004646
# 5 0.023163 -0.000462 -0.006437 0.000000 0.063915 0.000000
# 6 0.000000 0.000000 0.000000 0.004646 0.000000 0.027019
#
#
# Mechanical properties :
#
#
# Convention : Reuss Voigt Hill
#
# Bulk Modulus (GPa) = 26.44687 83.87254 55.15970
# Shear Modulus (GPa) = 18.25567 37.74488 28.00027
#
# Velocity S-wave (km/s) = 3.00973 4.32771 3.72743
# Velocity P-wave (km/s) = 5.02005 8.16025 6.77461
#
# Compressibility (1/GPa) = 0.03781166
#
# Stress axis : x y z
#
# Youngs Moduli (GPa) = 61.51935 129.60864 16.22795
#
# Poissons Ratio (x) = 0.08085 0.21116
# Poissons Ratio (y) = 0.03838 0.16641
# Poissons Ratio (z) = 0.80050 1.32907
#
# Static dielectric constant tensor:
#      x y z
#    x 5.718940 0.000000 -1.163430 
#    y 0.000000 3.731470 0.000000 
#    z -1.163430 0.000000 3.405720 
# 
# 
# High freq. dielectric constant tensor:
#      x y z
#    x 1.817060 0.000000 -0.045490 
#    y 0.000000 1.797660 0.000000 
#    z -0.045490 0.000000 1.712730 
# 
# From -- ./inp_files/30152.got.cif
#   From: 2010.06.25/outbox.cif.g09.slc.cpg/sg15_16_cif.got.tgz:30152.got - 2010.06.28 07:06:18.
