data_PCOD8129060
_publ_section_title
;
Structure prediction by ZEFSAII (Michael W. Deem and Ramdas Pophale) SiO2 
 PCOD8129060
Probable space group: P 21/C
;
_chemical_formula_sum "Si O2"
_cell_formula_units_Z 32
_cell_length_a 11.597017
_cell_length_b 5.568205
_cell_length_c 20.128580
_cell_angle_alpha 90.000000
_cell_angle_beta 103.258668
_cell_angle_gamma 90.000000
_cell_volume 1265.147785
_symmetry_space_group_name_H-M "P 21/C"
_symmetry_group_IT_number 14
_symmetry_cell_setting 'monoclinic'
loop_
_space_group_symop_operation_xyz
x,y,z
-x,1/2+y,1/2-z
-x,-y,-z
x,1/2-y,1/2+z
loop_
_atom_site_type_symbol
_atom_site_label
_atom_site_fract_x
_atom_site_fract_y
_atom_site_fract_z
Si Si1 0.592176 0.650173 0.336959
Si Si2 0.869207 0.793083 0.725195
Si Si3 0.002060 0.501770 0.646472
Si Si4 0.794905 0.339149 0.118814
Si Si5 0.864886 0.952911 0.501225
Si Si6 0.192645 0.938974 0.068779
Si Si7 0.376390 0.161656 0.805200
Si Si8 0.462877 0.949733 0.419207
O O1 0.688788 0.451698 0.370777
O O2 0.627879 0.723108 0.268283
O O3 0.456706 0.568851 0.311653
O O4 0.576983 0.844988 0.394332
O O5 0.911495 0.805220 0.807313
O O6 0.762381 0.597850 0.701562
O O7 0.982314 0.711199 0.697603
O O8 0.820839 0.054888 0.695683
O O9 0.069586 0.605810 0.592019
O O10 0.876386 0.387251 0.608915
O O11 0.654628 0.276852 0.093109
O O12 0.838340 0.559475 0.076259
O O13 0.790555 0.195412 0.470990
O O14 0.818735 0.699177 0.467502
O O15 0.000000 0.000000 0.500000
O O16 0.424085 0.316318 0.873246
O O17 0.500000 0.000000 0.500000
#
# Coordination Sequence:
#
# PCOD8129060 Si02
#       8
#     4   4   4   4   4   4   4   4
#     4  12  25  47  76 106 149 200 256 330 377 472
#     4  11  24  43  66 106 142 187 247 310 383 448
#     4  12  23  43  70 104 142 192 239 318 373 461
#     4  11  25  44  72 102 147 192 247 309 385 454
#     4  12  26  50  72 111 153 201 248 314 380 468
#     4  12  29  45  79 110 149 199 256 309 389 456
#     4  11  25  46  73 106 144 196 260 315 388 458
#     4  11  26  49  71 106 149 198 256 319 386 462
#
# _framework density 25.293489000000001
#
# number of rings (size 3 to 8) (size 9 to 14) (size 15 to 20)
#    0.000    0.500    5.000    2.625    5.250    0.500 
#    2.250    0.000    0.000    0.000    0.000    0.000 
#    0.000    0.000    0.000    0.000    0.000    0.000 
#
# Total GULP energy -396513.578357 kJ/mol
# GULP energy per Si atom -12391.049324 kJ/mol
# Density = 2.523592 g / cm^3
# Si number density = 25.293489 Si / 1000 Ang^3
#
#
#
# Elastic Constant Matrix: (Units=GPa)
#
#
# Indices 1 2 3 4 5 6 
#
# 1 105.5886 -1.4052 15.3562 0.0000 4.7776 0.0000
# 2 -1.4052 71.0841 14.7318 0.0000 9.7507 0.0000
# 3 15.3562 14.7318 123.9462 0.0000 1.0001 0.0000
# 4 0.0000 0.0000 0.0000 32.1627 0.0000 -0.7378
# 5 4.7776 9.7507 1.0001 0.0000 40.7936 0.0000
# 6 0.0000 0.0000 0.0000 -0.7378 0.0000 39.1590
#
#
#
# Elastic Compliance Matrix: (Units=1/GPa)
#
#
# Indices 1 2 3 4 5 6 
#
# 1 0.009720 0.000628 -0.001269 0.000000 -0.001257 0.000000
# 2 0.000628 0.014953 -0.001826 0.000000 -0.003603 0.000000
# 3 -0.001269 -0.001826 0.008439 0.000000 0.000378 0.000000
# 4 0.000000 0.000000 0.000000 0.031105 0.000000 0.000586
# 5 -0.001257 -0.003603 0.000378 0.000000 0.025513 0.000000
# 6 0.000000 0.000000 0.000000 0.000586 0.000000 0.025548
#
#
# Mechanical properties :
#
#
# Convention : Reuss Voigt Hill
#
# Bulk Modulus (GPa) = 35.48828 39.77604 37.63216
# Shear Modulus (GPa) = 38.57858 40.55215 39.56536
#
# Velocity S-wave (km/s) = 3.90967 4.00842 3.95935
# Velocity P-wave (km/s) = 5.86871 6.09780 5.98435
#
# Compressibility (1/GPa) = 0.02817832
#
# Stress axis : x y z
#
# Youngs Moduli (GPa) = 102.87555 66.87680 118.49495
#
# Poissons Ratio (x) = -0.04197 0.15034
# Poissons Ratio (y) = -0.06456 0.21636
# Poissons Ratio (z) = 0.13052 0.12211
#
# Static dielectric constant tensor:
#      x y z
#    x 5.136790 0.000000 -0.143320 
#    y 0.000000 4.208070 0.000000 
#    z -0.143320 0.000000 4.768510 
# 
# 
# High freq. dielectric constant tensor:
#      x y z
#    x 2.030150 0.000000 0.000250 
#    y 0.000000 1.984980 0.000000 
#    z 0.000250 0.000000 2.022420 
# 
# From -- ./inp_files/72845.got.cif
#   From: 2010.03.12/outbox.cif.g09.slc.cpg/sg14_37_cif.got.tgz:72845.got - 2010.03.31 13:35:05.
