data_PCOD8129612
_publ_section_title
;
Structure prediction by ZEFSAII (Michael W. Deem and Ramdas Pophale) SiO2 
 PCOD8129612
Probable space group: C 2/C
;
_chemical_formula_sum "Si O2"
_cell_formula_units_Z 32
_cell_length_a 14.067434
_cell_length_b 7.285478
_cell_length_c 21.074843
_cell_angle_alpha 90.000000
_cell_angle_beta 141.717316
_cell_angle_gamma 90.000000
_cell_volume 1338.159611
_symmetry_space_group_name_H-M "C 2/C"
_symmetry_group_IT_number 15
_symmetry_cell_setting 'monoclinic'
loop_
_space_group_symop_operation_xyz
x,y,z
-x,y,1/2-z
-x,-y,-z
x,-y,1/2+z
1/2+x,1/2+y,z
1/2-x,1/2+y,1/2-z
1/2-x,1/2-y,-z
1/2+x,1/2-y,1/2+z
loop_
_atom_site_type_symbol
_atom_site_label
_atom_site_fract_x
_atom_site_fract_y
_atom_site_fract_z
Si Si1 0.611652 0.559665 0.977522
Si Si2 0.100263 0.280820 0.560628
Si Si3 0.925612 0.849427 0.776959
Si Si4 0.123750 0.414336 0.442238
O O1 0.547733 0.754213 0.970597
O O2 0.480596 0.486266 0.860856
O O3 0.779514 0.591159 0.031542
O O4 0.637371 0.417780 0.049276
O O5 0.242229 0.351906 0.676792
O O6 0.066874 0.426653 0.486063
O O7 0.000000 0.914232 0.750000
O O8 0.980468 0.640602 0.822837
O O9 0.250000 0.250000 0.500000
#
# Coordination Sequence:
#
# PCOD8129612 Si02
#       4
#     8   8   8   8
#     4   9  16  23  40  68  87 120 150 178 230 266
#     4   9  15  25  39  64  96 112 150 188 214 275
#     4  10  13  24  42  62  90 115 148 187 216 263
#     4   8  14  23  38  63  88 118 145 182 227 258
#
# _framework density 23.913440000000001
#
# number of rings (size 3 to 8) (size 9 to 14) (size 15 to 20)
#    0.000    3.500    7.500    0.000    0.000    0.000 
#    0.000    0.000    0.000    6.000    0.000    3.500 
#    0.000    2.750    0.000    0.000    0.000    0.000 
#
# Total GULP energy -198226.097014 kJ/mol
# GULP energy per Si atom -12389.131063 kJ/mol
# Density = 2.385901 g / cm^3
# Si number density = 23.913440 Si / 1000 Ang^3
#
#
#
# Elastic Constant Matrix: (Units=GPa)
#
#
# Indices 1 2 3 4 5 6 
#
# 1 169.4580 21.1650 14.4717 0.0000 -15.1827 0.0000
# 2 21.1650 56.4532 15.5244 0.0000 -1.7995 0.0000
# 3 14.4717 15.5244 99.7567 0.0000 -16.9555 0.0000
# 4 0.0000 0.0000 0.0000 10.7374 0.0000 -0.2034
# 5 -15.1827 -1.7995 -16.9555 0.0000 26.3593 0.0000
# 6 0.0000 0.0000 0.0000 -0.2034 0.0000 22.1229
#
#
#
# Elastic Compliance Matrix: (Units=1/GPa)
#
#
# Indices 1 2 3 4 5 6 
#
# 1 0.006514 -0.002336 0.000033 0.000000 0.003614 0.000000
# 2 -0.002336 0.019354 -0.003006 0.000000 -0.001958 0.000000
# 3 0.000033 -0.003006 0.011739 0.000000 0.007365 0.000000
# 4 0.000000 0.000000 0.000000 0.093149 0.000000 0.000856
# 5 0.003614 -0.001958 0.007365 0.000000 0.044622 0.000000
# 6 0.000000 0.000000 0.000000 0.000856 0.000000 0.045210
#
#
# Mechanical properties :
#
#
# Convention : Reuss Voigt Hill
#
# Bulk Modulus (GPa) = 37.05228 47.55446 42.30337
# Shear Modulus (GPa) = 20.81581 30.14438 25.48010
#
# Velocity S-wave (km/s) = 2.95357 3.55429 3.26776
# Velocity P-wave (km/s) = 5.21146 6.06409 5.65388
#
# Compressibility (1/GPa) = 0.02698889
#
# Stress axis : x y z
#
# Youngs Moduli (GPa) = 153.51827 51.66958 85.18468
#
# Poissons Ratio (x) = 0.12070 -0.00279
# Poissons Ratio (y) = 0.35861 0.25604
# Poissons Ratio (z) = -0.00503 0.15531
#
# Static dielectric constant tensor:
#      x y z
#    x 5.362360 0.000000 -0.028930 
#    y 0.000000 4.014840 0.000000 
#    z -0.028930 0.000000 4.233870 
# 
# 
# High freq. dielectric constant tensor:
#      x y z
#    x 1.971920 0.000000 -0.010330 
#    y 0.000000 1.919390 0.000000 
#    z -0.010330 0.000000 1.931780 
# 
# From -- ./inp_files/126082.got.cif
#   From: 2010.06.25/outbox.cif.g09.slc.cpg/sg15_64_cif.got.tgz:126082.got - 2010.06.28 07:06:18.
