data_PCOD8129210
_publ_section_title
;
Structure prediction by ZEFSAII (Michael W. Deem and Ramdas Pophale) SiO2 
 PCOD8129210
Probable space group: P 21/C
;
_chemical_formula_sum "Si O2"
_cell_formula_units_Z 16
_cell_length_a 5.096415
_cell_length_b 20.008240
_cell_length_c 7.017988
_cell_angle_alpha 90.000000
_cell_angle_beta 68.076062
_cell_angle_gamma 90.000000
_cell_volume 663.872452
_symmetry_space_group_name_H-M "P 21/C"
_symmetry_group_IT_number 14
_symmetry_cell_setting 'monoclinic'
loop_
_space_group_symop_operation_xyz
x,y,z
-x,1/2+y,1/2-z
-x,-y,-z
x,1/2-y,1/2+z
loop_
_atom_site_type_symbol
_atom_site_label
_atom_site_fract_x
_atom_site_fract_y
_atom_site_fract_z
Si Si1 0.530238 0.870592 0.427975
Si Si2 0.100059 0.654447 0.345048
Si Si3 0.110229 0.695735 0.763441
Si Si4 0.278746 0.457160 0.445244
O O1 0.344560 0.886138 0.665841
O O2 0.366820 0.817712 0.337266
O O3 0.824162 0.838499 0.418089
O O4 0.585972 0.938975 0.296868
O O5 0.195694 0.664549 0.537234
O O6 0.050996 0.725451 0.255777
O O7 0.810030 0.611444 0.421544
O O8 0.500000 0.500000 0.500000
O O9 0.000000 0.500000 0.500000
#
# Coordination Sequence:
#
# PCOD8129210 Si02
#       4
#     4   4   4   4
#     4  11  26  44  71 101 138 182 220 288 345 405
#     4  11  25  44  74 101 142 181 222 293 351 409
#     4  11  25  41  68 109 137 168 229 281 354 417
#     4  11  26  47  67 100 139 184 241 276 325 417
#
# _framework density 24.101016000000001
#
# number of rings (size 3 to 8) (size 9 to 14) (size 15 to 20)
#    0.000    1.000    2.500    3.000    7.000   10.000 
#    0.000    0.000    0.000    0.000    0.000    0.000 
#    0.000    0.000    0.000    0.000    0.000    0.000 
#
# Total GULP energy -198441.725605 kJ/mol
# GULP energy per Si atom -12402.607850 kJ/mol
# Density = 2.404616 g / cm^3
# Si number density = 24.101016 Si / 1000 Ang^3
#
#
#
# Elastic Constant Matrix: (Units=GPa)
#
#
# Indices 1 2 3 4 5 6 
#
# 1 97.9628 25.7237 8.2001 0.0000 -14.3436 0.0000
# 2 25.7237 82.2306 6.9327 0.0000 -3.5724 0.0000
# 3 8.2001 6.9327 156.9501 0.0000 -19.0560 0.0000
# 4 0.0000 0.0000 0.0000 38.5966 0.0000 -9.7668
# 5 -14.3436 -3.5724 -19.0560 0.0000 23.0915 0.0000
# 6 0.0000 0.0000 0.0000 -9.7668 0.0000 31.7220
#
#
#
# Elastic Compliance Matrix: (Units=1/GPa)
#
#
# Indices 1 2 3 4 5 6 
#
# 1 0.012176 -0.003524 0.000413 0.000000 0.007359 0.000000
# 2 -0.003524 0.013280 -0.000465 0.000000 -0.000519 0.000000
# 3 0.000413 -0.000465 0.007105 0.000000 0.006048 0.000000
# 4 0.000000 0.000000 0.000000 0.028098 0.000000 0.008651
# 5 0.007359 -0.000519 0.006048 0.000000 0.052788 0.000000
# 6 0.000000 0.000000 0.000000 0.008651 0.000000 0.034187
#
#
# Mechanical properties :
#
#
# Convention : Reuss Voigt Hill
#
# Bulk Modulus (GPa) = 39.35792 46.53961 42.94876
# Shear Modulus (GPa) = 30.62661 38.43447 34.53054
#
# Velocity S-wave (km/s) = 3.56864 3.99773 3.78926
# Velocity P-wave (km/s) = 5.77461 6.37662 6.08307
#
# Compressibility (1/GPa) = 0.02540785
#
# Stress axis : x y z
#
# Youngs Moduli (GPa) = 82.12685 75.30081 140.75195
#
# Poissons Ratio (x) = 0.26537 -0.05813
# Poissons Ratio (y) = 0.28943 0.06551
# Poissons Ratio (z) = -0.03392 0.03505
#
# Static dielectric constant tensor:
#      x y z
#    x 3.981990 0.000000 -0.261980 
#    y 0.000000 4.586320 0.000000 
#    z -0.261980 0.000000 4.704300 
# 
# 
# High freq. dielectric constant tensor:
#      x y z
#    x 1.948550 0.000000 -0.011890 
#    y 0.000000 1.954540 0.000000 
#    z -0.011890 0.000000 1.973100 
# 
# From -- ./inp_files/5246.got.cif
#   From: 2010.03.12/outbox.cif.g09.slc.cpg/sg14_3_cif.got.tgz:5246.got - 2010.03.31 13:35:05.
