data_PCOD8129743
_publ_section_title
;
Structure prediction by ZEFSAII (Michael W. Deem and Ramdas Pophale) SiO2 
 PCOD8129743
Probable space group: C 2/C
;
_chemical_formula_sum "Si O2"
_cell_formula_units_Z 52
_cell_length_a 23.097608
_cell_length_b 14.462654
_cell_length_c 9.588409
_cell_angle_alpha 90.000000
_cell_angle_beta 72.745699
_cell_angle_gamma 90.000000
_cell_volume 3058.890079
_symmetry_space_group_name_H-M "C 2/C"
_symmetry_group_IT_number 15
_symmetry_cell_setting 'monoclinic'
loop_
_space_group_symop_operation_xyz
x,y,z
-x,y,1/2-z
-x,-y,-z
x,-y,1/2+z
1/2+x,1/2+y,z
1/2-x,1/2+y,1/2-z
1/2-x,1/2-y,-z
1/2+x,1/2-y,1/2+z
loop_
_atom_site_type_symbol
_atom_site_label
_atom_site_fract_x
_atom_site_fract_y
_atom_site_fract_z
Si Si1 0.401562 0.899295 0.176855
Si Si2 0.805176 0.263791 0.285055
Si Si3 0.886490 0.247346 0.487936
Si Si4 0.364951 0.055831 0.012605
Si Si5 0.193511 0.101341 0.875910
Si Si6 0.500000 0.793942 0.250000
Si Si7 0.275306 0.561947 0.338797
O O1 0.359908 0.811550 0.158831
O O2 0.373356 0.943986 0.339028
O O3 0.468871 0.861021 0.157915
O O4 0.404493 0.974002 0.052109
O O5 0.826944 0.258844 0.430494
O O6 0.748138 0.329547 0.306296
O O7 0.788748 0.159431 0.250017
O O8 0.890222 0.347385 0.560234
O O9 0.869783 0.160101 0.597000
O O10 0.949196 0.229249 0.359350
O O11 0.295754 0.040244 0.105214
O O12 0.191028 0.018328 0.769252
O O13 0.196808 0.058819 0.027525
#
# Coordination Sequence:
#
# PCOD8129743 Si02
#       7
#     8   8   8   8   8   4   8
#     4  10  19  29  48  69  97 124 160 189 233 273
#     4   9  16  29  47  66  91 129 153 185 228 282
#     4   9  17  30  49  66  91 126 165 188 225 276
#     4  10  16  28  46  71  94 126 151 191 231 286
#     4  11  18  30  49  70  94 126 155 192 236 279
#     4   8  18  32  48  70  90 126 166 198 214 274
#     4  11  17  29  47  71  98 123 154 191 236 280
#
# _framework density 16.999631000000001
#
# number of rings (size 3 to 8) (size 9 to 14) (size 15 to 20)
#    0.000    2.462    6.154    0.923    0.000    2.462 
#    0.000    2.308    0.000    8.308    0.000    0.000 
#    0.000    0.000    0.000    0.000    0.000    0.000 
#
# Total GULP energy -322136.817086 kJ/mol
# GULP energy per Si atom -12389.877580 kJ/mol
# Density = 1.696094 g / cm^3
# Si number density = 16.999631 Si / 1000 Ang^3
#
#
#
# Elastic Constant Matrix: (Units=GPa)
#
#
# Indices 1 2 3 4 5 6 
#
# 1 53.1277 10.0028 5.0447 0.0000 -13.8958 0.0000
# 2 10.0028 76.0408 20.1727 0.0000 -7.2851 0.0000
# 3 5.0447 20.1727 34.4237 0.0000 -5.9577 0.0000
# 4 0.0000 0.0000 0.0000 35.5835 0.0000 -2.9838
# 5 -13.8958 -7.2851 -5.9577 0.0000 13.7463 0.0000
# 6 0.0000 0.0000 0.0000 -2.9838 0.0000 15.4914
#
#
#
# Elastic Compliance Matrix: (Units=1/GPa)
#
#
# Indices 1 2 3 4 5 6 
#
# 1 0.025712 -0.001288 0.001478 0.000000 0.025949 0.000000
# 2 -0.001288 0.015916 -0.008544 0.000000 0.003429 0.000000
# 3 0.001478 -0.008544 0.036017 0.000000 0.012575 0.000000
# 4 0.000000 0.000000 0.000000 0.028564 0.000000 0.005502
# 5 0.025949 0.003429 0.012575 0.000000 0.106246 0.000000
# 6 0.000000 0.000000 0.000000 0.005502 0.000000 0.065611
#
#
# Mechanical properties :
#
#
# Convention : Reuss Voigt Hill
#
# Bulk Modulus (GPa) = 16.41096 26.00362 21.20729
# Shear Modulus (GPa) = 15.86863 21.52239 18.69551
#
# Velocity S-wave (km/s) = 3.05859 3.56202 3.31986
# Velocity P-wave (km/s) = 4.70616 5.67865 5.21513
#
# Compressibility (1/GPa) = 0.06093487
#
# Stress axis : x y z
#
# Youngs Moduli (GPa) = 38.89232 62.83149 27.76489
#
# Poissons Ratio (x) = 0.08095 -0.04104
# Poissons Ratio (y) = 0.05010 0.23724
# Poissons Ratio (z) = -0.05748 0.53686
#
# Static dielectric constant tensor:
#      x y z
#    x 3.049620 0.000000 -0.200220 
#    y 0.000000 3.502380 0.000000 
#    z -0.200220 0.000000 2.873130 
# 
# 
# High freq. dielectric constant tensor:
#      x y z
#    x 1.636130 0.000000 -0.022950 
#    y 0.000000 1.659330 0.000000 
#    z -0.022950 0.000000 1.617380 
# 
# From -- ./inp_files/117141.got.cif
#   From: 2010.06.25/outbox.cif.g09.slc.cpg/sg15_59_cif.got.tgz:117141.got - 2010.06.28 07:06:18.
