data_PCOD8129243
_publ_section_title
;
Structure prediction by ZEFSAII (Michael W. Deem and Ramdas Pophale) SiO2 
 PCOD8129243
Probable space group: P 21/C
;
_chemical_formula_sum "Si O2"
_cell_formula_units_Z 20
_cell_length_a 8.033906
_cell_length_b 11.427968
_cell_length_c 10.747539
_cell_angle_alpha 90.000000
_cell_angle_beta 117.823010
_cell_angle_gamma 90.000000
_cell_volume 872.670678
_symmetry_space_group_name_H-M "P 21/C"
_symmetry_group_IT_number 14
_symmetry_cell_setting 'monoclinic'
loop_
_space_group_symop_operation_xyz
x,y,z
-x,1/2+y,1/2-z
-x,-y,-z
x,1/2-y,1/2+z
loop_
_atom_site_type_symbol
_atom_site_label
_atom_site_fract_x
_atom_site_fract_y
_atom_site_fract_z
Si Si1 0.651997 0.788728 0.673029
Si Si2 0.672189 0.128749 0.009075
Si Si3 0.215964 0.454179 0.982390
Si Si4 0.538560 0.051984 0.211886
Si Si5 0.987690 0.314374 0.083798
O O1 0.520257 0.701542 0.552474
O O2 0.675690 0.904123 0.597836
O O3 0.549285 0.828839 0.763921
O O4 0.846065 0.722628 0.766616
O O5 0.692452 0.082794 0.158241
O O6 0.848848 0.203512 0.022276
O O7 0.638839 0.021399 0.903059
O O8 0.354193 0.477485 0.146248
O O9 0.063349 0.357030 0.975047
O O10 0.122779 0.573938 0.899368
#
# Coordination Sequence:
#
# PCOD8129243 Si02
#       5
#     4   4   4   4   4
#     4  12  25  43  72 100 136 182 229 282 345 403
#     4  11  26  44  70  99 141 180 222 292 337 404
#     4  11  25  46  69 103 136 181 235 279 334 417
#     4  11  25  47  68 102 139 180 232 278 342 409
#     4  11  26  42  68 102 135 181 223 284 340 398
#
# _framework density 22.918151999999999
#
# number of rings (size 3 to 8) (size 9 to 14) (size 15 to 20)
#    0.000    0.800    4.000    1.800    5.600    2.400 
#    0.000    0.000    0.000    0.000    0.000    0.000 
#    0.000    0.000    0.000    0.000    0.000    0.000 
#
# Total GULP energy -248038.093484 kJ/mol
# GULP energy per Si atom -12401.904674 kJ/mol
# Density = 2.286599 g / cm^3
# Si number density = 22.918152 Si / 1000 Ang^3
#
#
#
# Elastic Constant Matrix: (Units=GPa)
#
#
# Indices 1 2 3 4 5 6 
#
# 1 51.7327 15.3300 34.8584 0.0000 1.3528 0.0000
# 2 15.3300 79.9162 29.7755 0.0000 -8.0100 0.0000
# 3 34.8584 29.7755 98.2157 0.0000 -0.8734 0.0000
# 4 0.0000 0.0000 0.0000 41.0085 0.0000 6.8405
# 5 1.3528 -8.0100 -0.8734 0.0000 35.0654 0.0000
# 6 0.0000 0.0000 0.0000 6.8405 0.0000 60.9608
#
#
#
# Elastic Compliance Matrix: (Units=1/GPa)
#
#
# Indices 1 2 3 4 5 6 
#
# 1 0.025706 -0.001906 -0.008560 0.000000 -0.001640 0.000000
# 2 -0.001906 0.014597 -0.003719 0.000000 0.003315 0.000000
# 3 -0.008560 -0.003719 0.014346 0.000000 -0.000162 0.000000
# 4 0.000000 0.000000 0.000000 0.024850 0.000000 -0.002788
# 5 -0.001640 0.003315 -0.000162 0.000000 0.029335 0.000000
# 6 0.000000 0.000000 0.000000 -0.002788 0.000000 0.016717
#
#
# Mechanical properties :
#
#
# Convention : Reuss Voigt Hill
#
# Bulk Modulus (GPa) = 38.05531 43.31027 40.68279
# Shear Modulus (GPa) = 30.73508 37.40031 34.06770
#
# Velocity S-wave (km/s) = 3.66605 4.04407 3.85969
# Velocity P-wave (km/s) = 5.87884 6.38317 6.13619
#
# Compressibility (1/GPa) = 0.02627754
#
# Stress axis : x y z
#
# Youngs Moduli (GPa) = 38.90167 68.50843 69.70627
#
# Poissons Ratio (x) = 0.13058 0.59670
# Poissons Ratio (y) = 0.07415 0.25925
# Poissons Ratio (z) = 0.33300 0.25480
#
# Static dielectric constant tensor:
#      x y z
#    x 4.109200 0.000000 0.126760 
#    y 0.000000 4.295850 0.000000 
#    z 0.126760 0.000000 4.008710 
# 
# 
# High freq. dielectric constant tensor:
#      x y z
#    x 1.895950 0.000000 0.004930 
#    y 0.000000 1.919860 0.000000 
#    z 0.004930 0.000000 1.902770 
# 
# From -- ./inp_files/24325.got.cif
#   From: 2010.03.12/outbox.cif.g09.slc.cpg/sg14_13_cif.got.tgz:24325.got - 2010.03.31 13:35:05.
