data_PCOD8129122
_publ_section_title
;
Structure prediction by ZEFSAII (Michael W. Deem and Ramdas Pophale) SiO2 
 PCOD8129122
Probable space group: P 21/C
;
_chemical_formula_sum "Si O2"
_cell_formula_units_Z 24
_cell_length_a 9.282141
_cell_length_b 19.482252
_cell_length_c 8.985536
_cell_angle_alpha 90.000000
_cell_angle_beta 133.097624
_cell_angle_gamma 90.000000
_cell_volume 1186.499475
_symmetry_space_group_name_H-M "P 21/C"
_symmetry_group_IT_number 14
_symmetry_cell_setting 'monoclinic'
loop_
_space_group_symop_operation_xyz
x,y,z
-x,1/2+y,1/2-z
-x,-y,-z
x,1/2-y,1/2+z
loop_
_atom_site_type_symbol
_atom_site_label
_atom_site_fract_x
_atom_site_fract_y
_atom_site_fract_z
Si Si1 0.855012 0.431489 0.239095
Si Si2 0.903693 0.679620 0.742469
Si Si3 0.517899 0.656690 0.058872
Si Si4 0.937784 0.306691 0.827904
Si Si5 0.922440 0.913599 0.804823
Si Si6 0.484909 0.783185 0.849325
O O1 0.860047 0.511566 0.203525
O O2 0.001732 0.393631 0.229071
O O3 0.915772 0.417706 0.451844
O O4 0.632715 0.406005 0.059083
O O5 0.672780 0.675526 0.543256
O O6 0.020964 0.737539 0.733713
O O7 0.922832 0.695979 0.929790
O O8 0.734573 0.626626 0.236457
O O9 0.465080 0.707012 0.158470
O O10 0.510847 0.702277 0.903608
O O11 0.709926 0.312408 0.710978
O O12 0.984210 0.374204 0.767255
#
# Coordination Sequence:
#
# PCOD8129122 Si02
#       6
#     4   4   4   4   4   4
#     4  11  24  45  67  91 134 179 219 263 325 391
#     4  12  23  41  67  96 133 166 215 275 322 383
#     4  12  24  42  67  98 130 168 219 270 326 386
#     4  12  24  41  67  97 129 168 216 273 325 381
#     4  11  26  44  67  94 131 179 220 264 326 389
#     4  12  24  39  67 100 127 162 215 274 323 380
#
# _framework density 20.227568000000002
#
# number of rings (size 3 to 8) (size 9 to 14) (size 15 to 20)
#    0.000    0.333    6.667    2.500    2.333    0.667 
#    0.000    0.833    0.000    0.000    0.000    0.000 
#    0.000    0.000    0.000    0.000    0.000    0.000 
#
# Total GULP energy -297783.571952 kJ/mol
# GULP energy per Si atom -12407.648831 kJ/mol
# Density = 2.018153 g / cm^3
# Si number density = 20.227568 Si / 1000 Ang^3
#
#
#
# Elastic Constant Matrix: (Units=GPa)
#
#
# Indices 1 2 3 4 5 6 
#
# 1 101.5815 49.4330 36.9702 0.0000 7.5121 0.0000
# 2 49.4330 118.7080 26.4393 0.0000 -13.5430 0.0000
# 3 36.9702 26.4393 80.0168 0.0000 -2.1544 0.0000
# 4 0.0000 0.0000 0.0000 30.1119 0.0000 -2.2917
# 5 7.5121 -13.5430 -2.1544 0.0000 42.8442 0.0000
# 6 0.0000 0.0000 0.0000 -2.2917 0.0000 33.8371
#
#
#
# Elastic Compliance Matrix: (Units=1/GPa)
#
#
# Indices 1 2 3 4 5 6 
#
# 1 0.014726 -0.005518 -0.005104 0.000000 -0.004583 0.000000
# 2 -0.005518 0.011491 -0.001125 0.000000 0.004543 0.000000
# 3 -0.005104 -0.001125 0.015262 0.000000 0.001307 0.000000
# 4 0.000000 0.000000 0.000000 0.033381 0.000000 0.002261
# 5 -0.004583 0.004543 0.001307 0.000000 0.025646 0.000000
# 6 0.000000 0.000000 0.000000 0.002261 0.000000 0.029706
#
#
# Mechanical properties :
#
#
# Convention : Reuss Voigt Hill
#
# Bulk Modulus (GPa) = 55.60161 58.44348 57.02255
# Shear Modulus (GPa) = 31.30814 33.85625 32.58219
#
# Velocity S-wave (km/s) = 3.93847 4.09561 4.01781
# Velocity P-wave (km/s) = 6.94477 7.16387 7.05517
#
# Compressibility (1/GPa) = 0.01798509
#
# Stress axis : x y z
#
# Youngs Moduli (GPa) = 67.90585 87.02524 65.52043
#
# Poissons Ratio (x) = 0.48025 0.33441
# Poissons Ratio (y) = 0.37474 0.07370
# Poissons Ratio (z) = 0.34659 0.09789
#
# Static dielectric constant tensor:
#      x y z
#    x 3.765320 0.000000 0.074670 
#    y 0.000000 3.663000 0.000000 
#    z 0.074670 0.000000 3.827800 
# 
# 
# High freq. dielectric constant tensor:
#      x y z
#    x 1.797840 0.000000 0.008610 
#    y 0.000000 1.781600 0.000000 
#    z 0.008610 0.000000 1.805900 
# 
# From -- ./inp_files/10113.got.cif
#   From: 2010.03.12/outbox.cif.g09.slc.cpg/sg14_6_cif.got.tgz:10113.got - 2010.03.31 13:35:05.
