data_PCOD8129648
_publ_section_title
;
Structure prediction by ZEFSAII (Michael W. Deem and Ramdas Pophale) SiO2 
 PCOD8129648
Probable space group: C 2/C
;
_chemical_formula_sum "Si O2"
_cell_formula_units_Z 64
_cell_length_a 18.999014
_cell_length_b 11.749421
_cell_length_c 26.908765
_cell_angle_alpha 90.000000
_cell_angle_beta 142.051816
_cell_angle_gamma 90.000000
_cell_volume 3693.857149
_symmetry_space_group_name_H-M "C 2/C"
_symmetry_group_IT_number 15
_symmetry_cell_setting 'monoclinic'
loop_
_space_group_symop_operation_xyz
x,y,z
-x,y,1/2-z
-x,-y,-z
x,-y,1/2+z
1/2+x,1/2+y,z
1/2-x,1/2+y,1/2-z
1/2-x,1/2-y,-z
1/2+x,1/2-y,1/2+z
loop_
_atom_site_type_symbol
_atom_site_label
_atom_site_fract_x
_atom_site_fract_y
_atom_site_fract_z
Si Si1 0.759247 0.010082 0.189709
Si Si2 0.660046 0.449308 0.102643
Si Si3 0.451004 0.905988 0.861470
Si Si4 0.657235 0.674057 0.699159
Si Si5 0.614183 0.279318 0.708366
Si Si6 0.583582 0.097061 0.529615
Si Si7 0.030221 0.832245 0.556995
Si Si8 0.569737 0.066917 0.739389
O O1 0.848508 0.919982 0.261372
O O2 0.710691 0.953276 0.111871
O O3 0.654763 0.034102 0.169348
O O4 0.831024 0.126414 0.223793
O O5 0.611788 0.381397 0.123307
O O6 0.623646 0.580974 0.086261
O O7 0.796233 0.446311 0.173536
O O8 0.597632 0.382211 0.023048
O O9 0.419352 0.779364 0.826661
O O10 0.477687 0.977335 0.827236
O O11 0.563269 0.891285 0.959086
O O12 0.788329 0.710126 0.765937
O O13 0.536878 0.328041 0.620711
O O14 0.543410 0.193297 0.703840
O O15 0.553695 0.211474 0.543505
O O16 0.500000 0.000000 0.500000
O O17 0.500000 0.044603 0.750000
#
# Coordination Sequence:
#
# PCOD8129648 Si02
#       8
#     8   8   8   8   8   8   8   8
#     4  10  17  28  51  81 109 134 164 223 280 323
#     4  10  20  32  54  87 111 139 171 218 278 324
#     4  10  18  31  50  76 106 132 178 216 265 315
#     4  10  15  28  50  82 109 132 166 220 275 321
#     4  10  18  31  51  75 109 142 177 220 266 318
#     4  10  19  27  46  83 115 135 159 215 284 323
#     4  11  18  31  55  89 118 130 165 228 293 321
#     4  11  23  40  55  70 104 153 194 212 246 325
#
# _framework density 17.326062
#
# number of rings (size 3 to 8) (size 9 to 14) (size 15 to 20)
#    0.000    1.750    6.250    1.500    1.750    0.000 
#    0.000    0.625    0.000    1.500    0.000    0.000 
#    0.000    0.000    0.000    0.000    0.000    0.000 
#
# Total GULP energy -396560.460759 kJ/mol
# GULP energy per Si atom -12392.514399 kJ/mol
# Density = 1.728663 g / cm^3
# Si number density = 17.326062 Si / 1000 Ang^3
#
#
#
# Elastic Constant Matrix: (Units=GPa)
#
#
# Indices 1 2 3 4 5 6 
#
# 1 46.3596 29.3973 33.3878 0.0000 -10.3146 0.0000
# 2 29.3973 124.8771 43.0901 0.0000 -5.2844 0.0000
# 3 33.3878 43.0901 118.0675 0.0000 -6.7492 0.0000
# 4 0.0000 0.0000 0.0000 36.0233 0.0000 -3.3614
# 5 -10.3146 -5.2844 -6.7492 0.0000 14.4124 0.0000
# 6 0.0000 0.0000 0.0000 -3.3614 0.0000 11.1970
#
#
#
# Elastic Compliance Matrix: (Units=1/GPa)
#
#
# Indices 1 2 3 4 5 6 
#
# 1 0.033714 -0.004819 -0.006675 0.000000 0.019235 0.000000
# 2 -0.004819 0.009898 -0.002301 0.000000 -0.000897 0.000000
# 3 -0.006675 -0.002301 0.011175 0.000000 -0.000388 0.000000
# 4 0.000000 0.000000 0.000000 0.028560 0.000000 0.008574
# 5 0.019235 -0.000897 -0.000388 0.000000 0.082640 0.000000
# 6 0.000000 0.000000 0.000000 0.008574 0.000000 0.091883
#
#
# Mechanical properties :
#
#
# Convention : Reuss Voigt Hill
#
# Bulk Modulus (GPa) = 36.77026 55.67273 46.22150
# Shear Modulus (GPa) = 16.97640 24.55515 20.76577
#
# Velocity S-wave (km/s) = 3.13360 3.76871 3.46573
# Velocity P-wave (km/s) = 5.86184 7.15120 6.53838
#
# Compressibility (1/GPa) = 0.02719589
#
# Stress axis : x y z
#
# Youngs Moduli (GPa) = 29.66164 101.02672 89.48504
#
# Poissons Ratio (x) = 0.48686 0.59735
# Poissons Ratio (y) = 0.14294 0.20591
# Poissons Ratio (z) = 0.19800 0.23246
#
# Static dielectric constant tensor:
#      x y z
#    x 2.472410 0.000000 -0.052700 
#    y 0.000000 3.471440 0.000000 
#    z -0.052700 0.000000 4.067810 
# 
# 
# High freq. dielectric constant tensor:
#      x y z
#    x 1.572020 0.000000 -0.005000 
#    y 0.000000 1.697000 0.000000 
#    z -0.005000 0.000000 1.694440 
# 
# From -- ./inp_files/279901.got.cif
#   From: 2010.06.25/outbox.cif.g09.slc.cpg/sg15_140_cif.got.tgz:279901.got - 2010.06.28 07:06:18.
