data_PCOD8129812
_publ_section_title
;
Structure prediction by ZEFSAII (Michael W. Deem and Ramdas Pophale) SiO2 
 PCOD8129812
Probable space group: C 2/C
;
_chemical_formula_sum "Si O2"
_cell_formula_units_Z 60
_cell_length_a 12.846915
_cell_length_b 22.026282
_cell_length_c 20.075019
_cell_angle_alpha 90.000000
_cell_angle_beta 150.979631
_cell_angle_gamma 90.000000
_cell_volume 2755.787069
_symmetry_space_group_name_H-M "C 2/C"
_symmetry_group_IT_number 15
_symmetry_cell_setting 'monoclinic'
loop_
_space_group_symop_operation_xyz
x,y,z
-x,y,1/2-z
-x,-y,-z
x,-y,1/2+z
1/2+x,1/2+y,z
1/2-x,1/2+y,1/2-z
1/2-x,1/2-y,-z
1/2+x,1/2-y,1/2+z
loop_
_atom_site_type_symbol
_atom_site_label
_atom_site_fract_x
_atom_site_fract_y
_atom_site_fract_z
Si Si1 0.181083 0.784247 0.719320
Si Si2 0.641755 0.918780 0.528482
Si Si3 0.553632 0.527646 0.101246
Si Si4 0.000000 0.829631 0.750000
Si Si5 0.881718 0.654041 0.788841
Si Si6 0.688294 0.645221 0.545202
Si Si7 0.441938 0.101064 0.364464
Si Si8 0.138311 0.959198 0.389978
O O1 0.117591 0.788416 0.761687
O O2 0.218949 0.712582 0.728977
O O3 0.385614 0.827846 0.819634
O O4 0.992140 0.803703 0.563998
O O5 0.426613 0.899199 0.367737
O O6 0.603576 0.916224 0.585190
O O7 0.832020 0.871898 0.616024
O O8 0.709531 0.986123 0.548147
O O9 0.793259 0.556397 0.236221
O O10 0.522756 0.476471 0.140568
O O11 0.500000 0.500000 0.000000
O O12 0.385244 0.580751 0.026282
O O13 0.717080 0.632162 0.640281
O O14 0.102831 0.670255 0.874864
O O15 0.694509 0.092070 0.490183
O O16 0.000000 0.935229 0.250000
#
# Coordination Sequence:
#
# PCOD8129812 Si02
#       8
#     8   8   8   4   8   8   8   8
#     4  10  20  35  49  82 123 163 204 254 313 381
#     4  11  19  34  55  86 119 162 201 253 309 374
#     4  11  24  40  60  90 136 169 209 256 313 383
#     4  10  16  30  50  72 120 162 196 240 310 382
#     4  11  21  29  57  82 120 164 202 254 318 378
#     4  10  21  34  48  87 122 163 202 246 312 391
#     4  10  24  38  60  87 129 165 212 257 310 384
#     4  12  22  40  64  90 125 173 211 263 316 379
#
# _framework density 21.772366000000002
#
# number of rings (size 3 to 8) (size 9 to 14) (size 15 to 20)
#    0.000    1.333    4.667    2.400    5.600    0.533 
#    0.000    0.000    0.000    0.000    0.000    3.733 
#    0.000    0.133    0.000    0.000    0.000    0.000 
#
# Total GULP energy -371954.592174 kJ/mol
# GULP energy per Si atom -12398.486406 kJ/mol
# Density = 2.172281 g / cm^3
# Si number density = 21.772366 Si / 1000 Ang^3
#
#
#
# Elastic Constant Matrix: (Units=GPa)
#
#
# Indices 1 2 3 4 5 6 
#
# 1 32.3421 6.9283 17.7719 0.0176 -5.6948 0.0026
# 2 6.9283 46.4578 28.4834 0.0279 12.2639 -0.0008
# 3 17.7719 28.4834 137.8388 0.0743 -12.8504 0.0141
# 4 0.0176 0.0279 0.0743 29.4085 0.0219 -5.4551
# 5 -5.6948 12.2639 -12.8504 0.0219 35.2319 0.0055
# 6 0.0026 -0.0008 0.0141 -5.4551 0.0055 21.0468
#
#
#
# Elastic Compliance Matrix: (Units=1/GPa)
#
#
# Indices 1 2 3 4 5 6 
#
# 1 0.034687 -0.005123 -0.002821 -0.000015 0.006361 -0.000008
# 2 -0.005123 0.030141 -0.006856 0.000004 -0.013821 0.000011
# 3 -0.002821 -0.006856 0.009540 -0.000022 0.005410 -0.000014
# 4 -0.000015 0.000004 -0.000022 0.035721 -0.000036 0.009259
# 5 0.006361 -0.013821 0.005410 -0.000036 0.036196 -0.000024
# 6 -0.000008 0.000011 -0.000014 0.009259 -0.000024 0.049913
#
#
# Mechanical properties :
#
#
# Convention : Reuss Voigt Hill
#
# Bulk Modulus (GPa) = 22.33740 35.88955 29.11348
# Shear Modulus (GPa) = 20.77105 28.03444 24.40274
#
# Velocity S-wave (km/s) = 3.09206 3.59223 3.35149
# Velocity P-wave (km/s) = 4.79891 5.80735 5.32704
#
# Compressibility (1/GPa) = 0.04476797
#
# Stress axis : x y z
#
# Youngs Moduli (GPa) = 28.82934 33.17749 104.82458
#
# Poissons Ratio (x) = 0.16996 0.29567
# Poissons Ratio (y) = 0.14769 0.71872
# Poissons Ratio (z) = 0.08132 0.22748
#
# Static dielectric constant tensor:
#      x y z
#    x 3.479360 0.000020 -0.111140 
#    y 0.000020 3.875230 -0.000070 
#    z -0.111140 -0.000070 4.331140 
# 
# 
# High freq. dielectric constant tensor:
#      x y z
#    x 1.802480 0.000000 -0.024340 
#    y 0.000000 1.841160 -0.000010 
#    z -0.024340 -0.000010 1.875080 
# 
# From -- ./inp_files/245463.got.cif
#   From: 2010.06.25/outbox.cif.g09.slc.cpg/sg15_123_cif.got.tgz:245463.got - 2010.06.28 07:06:18.
