data_PCOD8129892
_publ_section_title
;
Structure prediction by ZEFSAII (Michael W. Deem and Ramdas Pophale) SiO2 
 PCOD8129892
Probable space group: C 2/C
;
_chemical_formula_sum "Si O2"
_cell_formula_units_Z 60
_cell_length_a 10.981997
_cell_length_b 16.752152
_cell_length_c 16.362832
_cell_angle_alpha 90.000000
_cell_angle_beta 73.907155
_cell_angle_gamma 90.000000
_cell_volume 2892.341833
_symmetry_space_group_name_H-M "C 2/C"
_symmetry_group_IT_number 15
_symmetry_cell_setting 'monoclinic'
loop_
_space_group_symop_operation_xyz
x,y,z
-x,y,1/2-z
-x,-y,-z
x,-y,1/2+z
1/2+x,1/2+y,z
1/2-x,1/2+y,1/2-z
1/2-x,1/2-y,-z
1/2+x,1/2-y,1/2+z
loop_
_atom_site_type_symbol
_atom_site_label
_atom_site_fract_x
_atom_site_fract_y
_atom_site_fract_z
Si Si1 0.838445 0.123002 0.406704
Si Si2 0.746820 0.753993 0.634808
Si Si3 0.705887 0.126747 0.001524
Si Si4 0.863016 0.732131 0.782796
Si Si5 0.000000 0.305779 0.750000
Si Si6 0.440585 0.531522 0.929946
Si Si7 0.432161 0.147097 0.097279
Si Si8 0.623032 0.670426 0.912942
O O1 0.883072 0.194638 0.341156
O O2 0.689983 0.104393 0.417492
O O3 0.849824 0.146906 0.499303
O O4 0.925904 0.044552 0.371085
O O5 0.766574 0.825243 0.566539
O O6 0.787254 0.672288 0.585640
O O7 0.828569 0.767950 0.700765
O O8 0.598924 0.748710 0.685678
O O9 0.793715 0.050295 0.976416
O O10 0.559237 0.103641 0.042161
O O11 0.754378 0.672227 0.836351
O O12 0.000000 0.688117 0.750000
O O13 0.072250 0.360893 0.803028
O O14 0.526317 0.607525 0.885999
O O15 0.500000 0.500000 0.000000
O O16 0.438642 0.241662 0.074271
#
# Coordination Sequence:
#
# PCOD8129892 Si02
#       8
#     8   8   8   8   4   8   8   8
#     4  10  22  39  62  91 123 167 200 247 315 377
#     4  10  20  34  59  89 120 148 206 256 311 344
#     4  10  22  34  60  88 116 164 201 253 295 375
#     4  11  23  35  62  94 122 157 205 267 305 359
#     4  10  16  32  52  84 118 148 184 260 308 346
#     4  10  22  40  63  86 123 164 207 243 313 379
#     4  10  19  35  61  90 118 151 208 256 302 346
#     4  10  20  39  62  90 123 158 203 261 309 362
#
# _framework density 20.744436
#
# number of rings (size 3 to 8) (size 9 to 14) (size 15 to 20)
#    0.000    1.867    2.667    4.000    7.467    0.533 
#    0.000    1.333    0.000    0.000    6.933    0.000 
#    0.000    0.000    0.000    0.000    0.000    0.000 
#
# Total GULP energy -371706.665783 kJ/mol
# GULP energy per Si atom -12390.222193 kJ/mol
# Density = 2.069722 g / cm^3
# Si number density = 20.744436 Si / 1000 Ang^3
#
#
#
# Elastic Constant Matrix: (Units=GPa)
#
#
# Indices 1 2 3 4 5 6 
#
# 1 126.6112 39.6291 35.1500 0.0000 -4.0042 0.0000
# 2 39.6291 79.5814 18.4248 0.0000 1.5154 0.0000
# 3 35.1500 18.4248 100.0623 0.0000 7.9721 0.0000
# 4 0.0000 0.0000 0.0000 8.7624 0.0000 1.4706
# 5 -4.0042 1.5154 7.9721 0.0000 42.9070 0.0000
# 6 0.0000 0.0000 0.0000 1.4706 0.0000 38.3882
#
#
#
# Elastic Compliance Matrix: (Units=1/GPa)
#
#
# Indices 1 2 3 4 5 6 
#
# 1 0.010128 -0.004409 -0.002876 0.000000 0.001635 0.000000
# 2 -0.004409 0.015044 -0.001164 0.000000 -0.000727 0.000000
# 3 -0.002876 -0.001164 0.011405 0.000000 -0.002346 0.000000
# 4 0.000000 0.000000 0.000000 0.114863 0.000000 -0.004400
# 5 0.001635 -0.000727 -0.002346 0.000000 0.023920 0.000000
# 6 0.000000 0.000000 0.000000 -0.004400 0.000000 0.026218
#
#
# Mechanical properties :
#
#
# Convention : Reuss Voigt Hill
#
# Bulk Modulus (GPa) = 50.81125 54.74029 52.77577
# Shear Modulus (GPa) = 22.21854 32.21492 27.21673
#
# Velocity S-wave (km/s) = 3.27626 3.94501 3.62609
# Velocity P-wave (km/s) = 6.23369 6.86994 6.55953
#
# Compressibility (1/GPa) = 0.01968068
#
# Stress axis : x y z
#
# Youngs Moduli (GPa) = 98.73200 66.46979 87.67782
#
# Poissons Ratio (x) = 0.29305 0.25220
# Poissons Ratio (y) = 0.43529 0.10202
# Poissons Ratio (z) = 0.28399 0.07734
#
# Static dielectric constant tensor:
#      x y z
#    x 4.163560 0.000000 0.039710 
#    y 0.000000 3.684450 0.000000 
#    z 0.039710 0.000000 3.858170 
# 
# 
# High freq. dielectric constant tensor:
#      x y z
#    x 1.836780 0.000000 0.006450 
#    y 0.000000 1.767700 0.000000 
#    z 0.006450 0.000000 1.807770 
# 
# From -- ./inp_files/146038.got.cif
#   From: 2010.06.25/outbox.cif.g09.slc.cpg/sg15_74_cif.got.tgz:146038.got - 2010.06.28 07:06:18.
