data_PCOD8129740
_publ_section_title
;
Structure prediction by ZEFSAII (Michael W. Deem and Ramdas Pophale) SiO2 
 PCOD8129740
Probable space group: C 2/C
;
_chemical_formula_sum "Si O2"
_cell_formula_units_Z 64
_cell_length_a 14.500127
_cell_length_b 32.373458
_cell_length_c 10.392274
_cell_angle_alpha 90.000000
_cell_angle_beta 137.976036
_cell_angle_gamma 90.000000
_cell_volume 3265.758250
_symmetry_space_group_name_H-M "C 2/C"
_symmetry_group_IT_number 15
_symmetry_cell_setting 'monoclinic'
loop_
_space_group_symop_operation_xyz
x,y,z
-x,y,1/2-z
-x,-y,-z
x,-y,1/2+z
1/2+x,1/2+y,z
1/2-x,1/2+y,1/2-z
1/2-x,1/2-y,-z
1/2+x,1/2-y,1/2+z
loop_
_atom_site_type_symbol
_atom_site_label
_atom_site_fract_x
_atom_site_fract_y
_atom_site_fract_z
Si Si1 0.763381 0.843624 0.349167
Si Si2 0.428005 0.432033 0.803115
Si Si3 0.704757 0.569411 0.707350
Si Si4 0.017016 0.689572 0.919900
Si Si5 0.485808 0.718576 0.084053
Si Si6 0.203279 0.848935 0.813158
Si Si7 0.161762 0.015241 0.888820
Si Si8 0.908043 0.484593 0.284761
O O1 0.816399 0.881424 0.317385
O O2 0.605838 0.836861 0.148504
O O3 0.788921 0.852638 0.525283
O O4 0.841882 0.801729 0.393602
O O5 0.500000 0.413338 0.750000
O O6 0.346684 0.394224 0.788055
O O7 0.325904 0.470273 0.667898
O O8 0.556705 0.450612 0.016359
O O9 0.729249 0.551560 0.874366
O O10 0.835428 0.558709 0.750399
O O11 0.012981 0.735734 0.976915
O O12 0.000000 0.693627 0.750000
O O13 0.151090 0.663419 0.096908
O O14 0.500000 0.723946 0.250000
O O15 0.604913 0.687622 0.160638
O O16 0.000000 0.024173 0.750000
O O17 0.271636 0.013913 0.121491
O O18 0.000000 0.479731 0.250000
O O19 0.000000 0.500000 0.500000
#
# Coordination Sequence:
#
# PCOD8129740 Si02
#       8
#     8   8   8   8   8   8   8   8
#     4  10  18  29  45  72 106 145 190 240 301 354
#     4  11  18  33  54  78 103 145 199 245 285 346
#     4  12  22  38  59  84 118 158 204 254 304 360
#     4   9  18  26  40  69 103 147 193 236 292 362
#     4   9  15  27  44  63 100 149 192 234 289 360
#     4  10  16  28  45  68 104 143 194 241 281 354
#     4  11  24  41  63  84 114 157 210 251 302 366
#     4  12  25  42  62  91 124 162 204 255 313 364
#
# _framework density 19.597287000000001
#
# number of rings (size 3 to 8) (size 9 to 14) (size 15 to 20)
#    0.000    1.500    6.250    1.500    0.000    5.500 
#    0.000    0.000    0.000    0.000    0.000    0.000 
#    0.000    1.000    0.000    0.250    0.000    0.500 
#
# Total GULP energy -396422.788518 kJ/mol
# GULP energy per Si atom -12388.212141 kJ/mol
# Density = 1.955268 g / cm^3
# Si number density = 19.597287 Si / 1000 Ang^3
#
#
#
# Elastic Constant Matrix: (Units=GPa)
#
#
# Indices 1 2 3 4 5 6 
#
# 1 61.5528 27.9121 34.3412 0.0000 16.2080 0.0000
# 2 27.9121 97.6795 30.6141 0.0000 5.4132 0.0000
# 3 34.3412 30.6141 102.2496 0.0000 22.3855 0.0000
# 4 0.0000 0.0000 0.0000 6.5564 0.0000 4.9270
# 5 16.2080 5.4132 22.3855 0.0000 29.4856 0.0000
# 6 0.0000 0.0000 0.0000 4.9270 0.0000 17.1592
#
#
#
# Elastic Compliance Matrix: (Units=1/GPa)
#
#
# Indices 1 2 3 4 5 6 
#
# 1 0.023122 -0.004728 -0.004506 0.000000 -0.008421 0.000000
# 2 -0.004728 0.012273 -0.002593 0.000000 0.002315 0.000000
# 3 -0.004506 -0.002593 0.013701 0.000000 -0.007448 0.000000
# 4 0.000000 0.000000 0.000000 0.194490 0.000000 -0.055845
# 5 -0.008421 0.002315 -0.007448 0.000000 0.043773 0.000000
# 6 0.000000 0.000000 0.000000 -0.055845 0.000000 0.074313
#
#
# Mechanical properties :
#
#
# Convention : Reuss Voigt Hill
#
# Bulk Modulus (GPa) = 39.30880 49.69072 44.49976
# Shear Modulus (GPa) = 12.69655 21.88121 17.28888
#
# Velocity S-wave (km/s) = 2.54810 3.34510 2.97342
# Velocity P-wave (km/s) = 5.36273 6.35063 5.87747
#
# Compressibility (1/GPa) = 0.02543960
#
# Stress axis : x y z
#
# Youngs Moduli (GPa) = 43.24934 81.47865 72.98923
#
# Poissons Ratio (x) = 0.38523 0.32892
# Poissons Ratio (y) = 0.20448 0.18929
# Poissons Ratio (z) = 0.19490 0.21131
#
# Static dielectric constant tensor:
#      x y z
#    x 3.204190 0.000000 0.393150 
#    y 0.000000 3.523430 0.000000 
#    z 0.393150 0.000000 3.740110 
# 
# 
# High freq. dielectric constant tensor:
#      x y z
#    x 1.710220 0.000000 0.050080 
#    y 0.000000 1.763930 0.000000 
#    z 0.050080 0.000000 1.752130 
# 
# From -- ./inp_files/101674.got.cif
#   From: 2010.06.25/outbox.cif.g09.slc.cpg/sg15_51_cif.got.tgz:101674.got - 2010.06.28 07:06:18.
