data_PCOD8129775
_publ_section_title
;
Structure prediction by ZEFSAII (Michael W. Deem and Ramdas Pophale) SiO2 
 PCOD8129775
Probable space group: C 2/C
;
_chemical_formula_sum "Si O2"
_cell_formula_units_Z 48
_cell_length_a 20.770992
_cell_length_b 16.215336
_cell_length_c 9.499291
_cell_angle_alpha 90.000000
_cell_angle_beta 130.809546
_cell_angle_gamma 90.000000
_cell_volume 2421.614218
_symmetry_space_group_name_H-M "C 2/C"
_symmetry_group_IT_number 15
_symmetry_cell_setting 'monoclinic'
loop_
_space_group_symop_operation_xyz
x,y,z
-x,y,1/2-z
-x,-y,-z
x,-y,1/2+z
1/2+x,1/2+y,z
1/2-x,1/2+y,1/2-z
1/2-x,1/2-y,-z
1/2+x,1/2-y,1/2+z
loop_
_atom_site_type_symbol
_atom_site_label
_atom_site_fract_x
_atom_site_fract_y
_atom_site_fract_z
Si Si1 0.258242 0.831836 0.598899
Si Si2 0.814164 0.344111 0.976947
Si Si3 0.856594 0.959870 0.497903
Si Si4 0.925320 0.123807 0.543789
Si Si5 0.742513 0.982845 0.075708
Si Si6 0.124951 0.189772 0.310763
O O1 0.250000 0.750000 0.500000
O O2 0.319828 0.820507 0.820160
O O3 0.165363 0.856728 0.518832
O O4 0.298524 0.902796 0.556628
O O5 0.721481 0.324614 0.903590
O O6 0.827638 0.443007 0.015854
O O7 0.883878 0.286563 0.156567
O O8 0.895653 0.868412 0.581969
O O9 0.927739 0.023198 0.538288
O O10 0.825367 0.988722 0.607366
O O11 0.775040 0.957609 0.277555
O O12 0.936705 0.167571 0.408226
O O13 0.000000 0.157579 0.750000
#
# Coordination Sequence:
#
# PCOD8129775 Si02
#       6
#     8   8   8   8   8   8
#     4  10  19  32  50  75 105 133 169 217 254 300
#     4   9  16  29  46  69  98 129 170 212 255 293
#     4  10  16  30  44  67 102 137 170 204 238 302
#     4  10  20  33  47  72 104 138 177 202 248 317
#     4  10  16  29  48  72 104 129 167 211 254 302
#     4   9  17  29  47  67  97 139 169 209 252 295
#
# _framework density 19.821490000000001
#
# number of rings (size 3 to 8) (size 9 to 14) (size 15 to 20)
#    0.000    2.333    6.667    1.000    0.000    2.000 
#    0.000    0.000    0.000    0.000    0.000    1.167 
#    0.000    0.000    0.000    0.000    0.000    0.000 
#
# Total GULP energy -297332.436848 kJ/mol
# GULP energy per Si atom -12388.851535 kJ/mol
# Density = 1.977638 g / cm^3
# Si number density = 19.821490 Si / 1000 Ang^3
#
#
#
# Elastic Constant Matrix: (Units=GPa)
#
#
# Indices 1 2 3 4 5 6 
#
# 1 14.0504 13.4748 16.9202 0.0000 -13.0852 0.0000
# 2 13.4748 170.2900 78.6138 0.0000 -23.5218 0.0000
# 3 16.9202 78.6138 140.1626 0.0000 -22.4561 0.0000
# 4 0.0000 0.0000 0.0000 28.9391 0.0000 -11.5902
# 5 -13.0852 -23.5218 -22.4561 0.0000 21.3523 0.0000
# 6 0.0000 0.0000 0.0000 -11.5902 0.0000 8.1461
#
#
#
# Elastic Compliance Matrix: (Units=1/GPa)
#
#
# Indices 1 2 3 4 5 6 
#
# 1 0.169559 0.003406 -0.006170 0.000000 0.101173 0.000000
# 2 0.003406 0.008439 -0.003993 0.000000 0.007184 0.000000
# 3 -0.006170 -0.003993 0.010594 0.000000 0.002961 0.000000
# 4 0.000000 0.000000 0.000000 0.080330 0.000000 0.114293
# 5 0.101173 0.007184 0.002961 0.000000 0.119863 0.000000
# 6 0.000000 0.000000 0.000000 0.114293 0.000000 0.285373
#
#
# Mechanical properties :
#
#
# Convention : Reuss Voigt Hill
#
# Bulk Modulus (GPa) = 5.71176 60.28006 32.99591
# Shear Modulus (GPa) = 6.70215 26.05377 16.37796
#
# Velocity S-wave (km/s) = 1.84081 3.62943 2.87761
# Velocity P-wave (km/s) = 2.72139 6.93117 5.26532
#
# Compressibility (1/GPa) = 0.17507729
#
# Stress axis : x y z
#
# Youngs Moduli (GPa) = 5.89765 118.50403 94.39740
#
# Poissons Ratio (x) = -0.40365 0.58243
# Poissons Ratio (y) = -0.02009 0.37695
# Poissons Ratio (z) = 0.03639 0.47321
#
# Static dielectric constant tensor:
#      x y z
#    x 2.955070 0.000000 -0.004020 
#    y 0.000000 4.989280 0.000000 
#    z -0.004020 0.000000 1.009830 
# 
# 
# High freq. dielectric constant tensor:
#      x y z
#    x 1.703880 0.000000 -0.049050 
#    y 0.000000 1.782340 0.000000 
#    z -0.049050 0.000000 1.766510 
# 
# From -- ./inp_files/48016.got.cif
#   From: 2010.06.25/outbox.cif.g09.slc.cpg/sg15_25_cif.got.tgz:48016.got - 2010.06.28 07:06:18.
