data_PCOD8129355
_publ_section_title
;
Structure prediction by ZEFSAII (Michael W. Deem and Ramdas Pophale) SiO2 
 PCOD8129355
Probable space group: P 21/C
;
_chemical_formula_sum "Si O2"
_cell_formula_units_Z 20
_cell_length_a 12.334754
_cell_length_b 4.990216
_cell_length_c 13.864461
_cell_angle_alpha 90.000000
_cell_angle_beta 100.114224
_cell_angle_gamma 90.000000
_cell_volume 840.138200
_symmetry_space_group_name_H-M "P 21/C"
_symmetry_group_IT_number 14
_symmetry_cell_setting 'monoclinic'
loop_
_space_group_symop_operation_xyz
x,y,z
-x,1/2+y,1/2-z
-x,-y,-z
x,1/2-y,1/2+z
loop_
_atom_site_type_symbol
_atom_site_label
_atom_site_fract_x
_atom_site_fract_y
_atom_site_fract_z
Si Si1 0.072780 0.962720 0.774491
Si Si2 0.780695 0.081147 0.385455
Si Si3 0.798945 0.890346 0.015031
Si Si4 0.534213 0.002064 0.293149
Si Si5 0.437416 0.245645 0.949295
O O1 0.167022 0.883660 0.712277
O O2 0.117855 0.033686 0.887231
O O3 0.993628 0.711938 0.778097
O O4 0.779388 0.360280 0.441580
O O5 0.655725 0.977272 0.355149
O O6 0.846023 0.854886 0.457370
O O7 0.690432 0.773327 0.047773
O O8 0.526855 0.211578 0.201216
O O9 0.453054 0.220462 0.337186
O O10 0.500000 0.500000 0.000000
O O11 0.500000 0.000000 0.000000
#
# Coordination Sequence:
#
# PCOD8129355 Si02
#       5
#     4   4   4   4   4
#     4  12  29  50  74 107 142 188 256 319 366 422
#     4  12  26  47  74 105 146 192 245 297 367 439
#     4  12  25  47  76 106 147 194 238 299 365 438
#     4  12  24  40  67 103 145 187 233 286 348 434
#     4  12  22  42  67 101 145 181 229 279 348 435
#
# _framework density 23.805607999999999
#
# number of rings (size 3 to 8) (size 9 to 14) (size 15 to 20)
#    0.000    0.000    4.000    6.000    0.000    8.000 
#    0.000    0.000    0.000    0.000    0.000    0.000 
#    0.000    0.000    0.000    0.000    0.000    0.000 
#
# Total GULP energy -247882.241349 kJ/mol
# GULP energy per Si atom -12394.112067 kJ/mol
# Density = 2.375143 g / cm^3
# Si number density = 23.805608 Si / 1000 Ang^3
#
#
#
# Elastic Constant Matrix: (Units=GPa)
#
#
# Indices 1 2 3 4 5 6 
#
# 1 74.9657 25.8031 27.1369 0.0000 1.9829 0.0000
# 2 25.8031 151.6637 17.4343 0.0000 20.3870 0.0000
# 3 27.1369 17.4343 89.0574 0.0000 8.1789 0.0000
# 4 0.0000 0.0000 0.0000 45.8599 0.0000 3.8115
# 5 1.9829 20.3870 8.1789 0.0000 43.2723 0.0000
# 6 0.0000 0.0000 0.0000 3.8115 0.0000 38.5010
#
#
#
# Elastic Compliance Matrix: (Units=1/GPa)
#
#
# Indices 1 2 3 4 5 6 
#
# 1 0.015717 -0.002326 -0.004445 0.000000 0.001216 0.000000
# 2 -0.002326 0.007490 -0.000451 0.000000 -0.003337 0.000000
# 3 -0.004445 -0.000451 0.012857 0.000000 -0.002014 0.000000
# 4 0.000000 0.000000 0.000000 0.021986 0.000000 -0.002177
# 5 0.001216 -0.003337 -0.002014 0.000000 0.025007 0.000000
# 6 0.000000 0.000000 0.000000 -0.002177 0.000000 0.026189
#
#
# Mechanical properties :
#
#
# Convention : Reuss Voigt Hill
#
# Bulk Modulus (GPa) = 46.25810 50.71505 48.48657
# Shear Modulus (GPa) = 38.19799 41.88080 40.03939
#
# Velocity S-wave (km/s) = 4.01007 4.19893 4.10558
# Velocity P-wave (km/s) = 6.39645 6.69762 6.54877
#
# Compressibility (1/GPa) = 0.02161784
#
# Stress axis : x y z
#
# Youngs Moduli (GPa) = 63.62426 133.51628 77.78150
#
# Poissons Ratio (x) = 0.31062 0.34578
# Poissons Ratio (y) = 0.14802 0.03507
# Poissons Ratio (z) = 0.28284 0.06020
#
# Static dielectric constant tensor:
#      x y z
#    x 4.581580 0.000000 -0.750610 
#    y 0.000000 5.095170 0.000000 
#    z -0.750610 0.000000 5.289200 
# 
# 
# High freq. dielectric constant tensor:
#      x y z
#    x 1.928020 0.000000 -0.012210 
#    y 0.000000 1.978610 0.000000 
#    z -0.012210 0.000000 1.970450 
# 
# From -- ./inp_files/42499.got.cif
#   From: 2010.03.12/outbox.cif.g09.slc.cpg/sg14_22_cif.got.tgz:42499.got - 2010.03.31 13:35:05.
