data_PCOD8129071
_publ_section_title
;
Structure prediction by ZEFSAII (Michael W. Deem and Ramdas Pophale) SiO2 
 PCOD8129071
Probable space group: P 21/C
;
_chemical_formula_sum "Si O2"
_cell_formula_units_Z 28
_cell_length_a 7.755563
_cell_length_b 9.778085
_cell_length_c 23.341384
_cell_angle_alpha 90.000000
_cell_angle_beta 42.627763
_cell_angle_gamma 90.000000
_cell_volume 1198.758165
_symmetry_space_group_name_H-M "P 21/C"
_symmetry_group_IT_number 14
_symmetry_cell_setting 'monoclinic'
loop_
_space_group_symop_operation_xyz
x,y,z
-x,1/2+y,1/2-z
-x,-y,-z
x,1/2-y,1/2+z
loop_
_atom_site_type_symbol
_atom_site_label
_atom_site_fract_x
_atom_site_fract_y
_atom_site_fract_z
Si Si1 0.423252 0.164465 0.312389
Si Si2 0.978282 0.624813 0.571459
Si Si3 0.656510 0.351745 0.169185
Si Si4 0.463312 0.748534 0.499750
Si Si5 0.227524 0.346700 0.180944
Si Si6 0.921768 0.838496 0.955728
Si Si7 0.226890 0.650245 0.170427
O O1 0.643167 0.240821 0.223531
O O2 0.509722 0.165176 0.357657
O O3 0.178990 0.258563 0.357232
O O4 0.354741 0.010030 0.308590
O O5 0.277269 0.658113 0.505813
O O6 0.925712 0.470776 0.608601
O O7 0.875291 0.624425 0.532546
O O8 0.445198 0.318167 0.174012
O O9 0.937887 0.309628 0.078272
O O10 0.646726 0.833234 0.412632
O O11 0.649404 0.656726 0.492116
O O12 0.295514 0.835581 0.586416
O O13 0.117924 0.499740 0.209929
O O14 0.988676 0.251363 0.253320
#
# Coordination Sequence:
#
# PCOD8129071 Si02
#       7
#     4   4   4   4   4   4   4
#     4  11  24  44  68  99 138 183 231 288 348 416
#     4  11  24  43  68 100 136 179 227 282 343 411
#     4  11  24  44  68  99 138 183 231 288 348 416
#     4  12  24  46  74 106 138 188 234 288 350 420
#     4  11  26  45  70 103 142 184 236 290 351 418
#     4  11  24  43  68 100 136 179 227 282 343 411
#     4  11  26  45  70 103 142 184 236 290 351 418
#
# _framework density 23.357506000000001
#
# number of rings (size 3 to 8) (size 9 to 14) (size 15 to 20)
#    0.000    0.857    2.857    3.429    0.000   12.000 
#    0.000    0.000    0.000    0.000    0.000    0.000 
#    0.000    0.000    0.000    0.000    0.000    0.000 
#
# Total GULP energy -346952.964589 kJ/mol
# GULP energy per Si atom -12391.177307 kJ/mol
# Density = 2.330434 g / cm^3
# Si number density = 23.357506 Si / 1000 Ang^3
#
#
#
# Elastic Constant Matrix: (Units=GPa)
#
#
# Indices 1 2 3 4 5 6 
#
# 1 114.3202 40.1276 17.0113 0.0000 -7.9316 0.0000
# 2 40.1276 159.4101 45.5436 0.0000 -10.1785 0.0000
# 3 17.0113 45.5436 97.5281 0.0000 0.7285 0.0000
# 4 0.0000 0.0000 0.0000 36.9442 0.0000 -6.4409
# 5 -7.9316 -10.1785 0.7285 0.0000 39.5743 0.0000
# 6 0.0000 0.0000 0.0000 -6.4409 0.0000 21.2369
#
#
#
# Elastic Compliance Matrix: (Units=1/GPa)
#
#
# Indices 1 2 3 4 5 6 
#
# 1 0.009705 -0.002154 -0.000697 0.000000 0.001404 0.000000
# 2 -0.002154 0.007867 -0.003310 0.000000 0.001653 0.000000
# 3 -0.000697 -0.003310 0.011930 0.000000 -0.001211 0.000000
# 4 0.000000 0.000000 0.000000 0.028579 0.000000 0.008668
# 5 0.001404 0.001653 -0.001211 0.000000 0.025998 0.000000
# 6 0.000000 0.000000 0.000000 0.008668 0.000000 0.049717
#
#
# Mechanical properties :
#
#
# Convention : Reuss Voigt Hill
#
# Bulk Modulus (GPa) = 58.21374 64.06926 61.14150
# Shear Modulus (GPa) = 32.92870 37.45616 35.19243
#
# Velocity S-wave (km/s) = 3.75876 4.00885 3.88582
# Velocity P-wave (km/s) = 6.61927 6.99408 6.80926
#
# Compressibility (1/GPa) = 0.01717808
#
# Stress axis : x y z
#
# Youngs Moduli (GPa) = 103.04378 127.11996 83.82298
#
# Poissons Ratio (x) = 0.27382 0.05845
# Poissons Ratio (y) = 0.22196 0.27747
# Poissons Ratio (z) = 0.07185 0.42079
#
# Static dielectric constant tensor:
#      x y z
#    x 4.233970 0.000000 0.090070 
#    y 0.000000 4.460360 0.000000 
#    z 0.090070 0.000000 4.062720 
# 
# 
# High freq. dielectric constant tensor:
#      x y z
#    x 1.936790 0.000000 0.000710 
#    y 0.000000 1.931060 0.000000 
#    z 0.000710 0.000000 1.911800 
# 
# From -- ./inp_files/76458.got.cif
#   From: 2010.03.12/outbox.cif.g09.slc.cpg/sg14_39_cif.got.tgz:76458.got - 2010.03.31 13:35:05.
