data_PCOD8129768
_publ_section_title
;
Structure prediction by ZEFSAII (Michael W. Deem and Ramdas Pophale) SiO2 
 PCOD8129768
Probable space group: C 2/C
;
_chemical_formula_sum "Si O2"
_cell_formula_units_Z 40
_cell_length_a 24.590668
_cell_length_b 14.779952
_cell_length_c 8.622231
_cell_angle_alpha 90.000000
_cell_angle_beta 51.342734
_cell_angle_gamma 90.000000
_cell_volume 2447.126924
_symmetry_space_group_name_H-M "C 2/C"
_symmetry_group_IT_number 15
_symmetry_cell_setting 'monoclinic'
loop_
_space_group_symop_operation_xyz
x,y,z
-x,y,1/2-z
-x,-y,-z
x,-y,1/2+z
1/2+x,1/2+y,z
1/2-x,1/2+y,1/2-z
1/2-x,1/2-y,-z
1/2+x,1/2-y,1/2+z
loop_
_atom_site_type_symbol
_atom_site_label
_atom_site_fract_x
_atom_site_fract_y
_atom_site_fract_z
Si Si1 0.199341 0.122101 0.169781
Si Si2 0.343018 0.814514 0.278714
Si Si3 0.731932 0.461062 0.916416
Si Si4 0.823624 0.422909 0.030492
Si Si5 0.449340 0.954528 0.208862
O O1 0.149822 0.206096 0.211862
O O2 0.187959 0.100233 0.374023
O O3 0.279867 0.148363 0.996409
O O4 0.182233 0.035254 0.091035
O O5 0.412161 0.865444 0.208783
O O6 0.332591 0.830496 0.112015
O O7 0.772294 0.403412 0.976870
O O8 0.791167 0.506963 0.708827
O O9 0.896528 0.466162 0.851721
O O10 0.500000 0.917231 0.250000
O O11 0.500000 0.000000 0.000000
#
# Coordination Sequence:
#
# PCOD8129768 Si02
#       5
#     8   8   8   8   8
#     4   9  18  30  50  67  99 126 162 210 237 295
#     4  10  19  31  44  72  97 131 167 197 240 288
#     4   9  15  29  49  66  93 130 154 198 251 283
#     4  10  16  29  44  67 101 126 161 185 236 298
#     4  12  20  29  48  69  99 141 157 187 238 297
#
# _framework density 16.345699
#
# number of rings (size 3 to 8) (size 9 to 14) (size 15 to 20)
#    0.000    2.000    8.000    0.000    0.000    0.800 
#    0.000    0.000    0.000    0.000    0.000    1.400 
#    0.000    0.000    0.000    0.000    0.000    0.000 
#
# Total GULP energy -247789.764514 kJ/mol
# GULP energy per Si atom -12389.488226 kJ/mol
# Density = 1.630850 g / cm^3
# Si number density = 16.345699 Si / 1000 Ang^3
#
#
#
# Elastic Constant Matrix: (Units=GPa)
#
#
# Indices 1 2 3 4 5 6 
#
# 1 73.7044 48.3821 36.0552 0.0000 19.8583 0.0000
# 2 48.3821 86.6241 31.0962 0.0000 6.2827 0.0000
# 3 36.0552 31.0962 59.9776 0.0000 16.9113 0.0000
# 4 0.0000 0.0000 0.0000 17.5639 0.0000 -0.6770
# 5 19.8583 6.2827 16.9113 0.0000 29.6489 0.0000
# 6 0.0000 0.0000 0.0000 -0.6770 0.0000 26.4960
#
#
#
# Elastic Compliance Matrix: (Units=1/GPa)
#
#
# Indices 1 2 3 4 5 6 
#
# 1 0.028673 -0.012512 -0.007248 0.000000 -0.012419 0.000000
# 2 -0.012512 0.019694 -0.004618 0.000000 0.006841 0.000000
# 3 -0.007248 -0.004618 0.025953 0.000000 -0.008970 0.000000
# 4 0.000000 0.000000 0.000000 0.056991 0.000000 0.001456
# 5 -0.012419 0.006841 -0.008970 0.000000 0.045713 0.000000
# 6 0.000000 0.000000 0.000000 0.001456 0.000000 0.037779
#
#
# Mechanical properties :
#
#
# Convention : Reuss Voigt Hill
#
# Bulk Modulus (GPa) = 39.11658 50.15255 44.63456
# Shear Modulus (GPa) = 18.37696 21.72660 20.05178
#
# Velocity S-wave (km/s) = 3.35665 3.64977 3.50627
# Velocity P-wave (km/s) = 6.24544 6.96492 6.61497
#
# Compressibility (1/GPa) = 0.02556461
#
# Stress axis : x y z
#
# Youngs Moduli (GPa) = 34.87659 50.77678 38.53060
#
# Poissons Ratio (x) = 0.63532 0.27926
# Poissons Ratio (y) = 0.43637 0.17794
# Poissons Ratio (z) = 0.25277 0.23449
#
# Static dielectric constant tensor:
#      x y z
#    x 3.137430 0.000000 0.491200 
#    y 0.000000 3.811510 0.000000 
#    z 0.491200 0.000000 3.239720 
# 
# 
# High freq. dielectric constant tensor:
#      x y z
#    x 1.606560 0.000000 0.036750 
#    y 0.000000 1.609670 0.000000 
#    z 0.036750 0.000000 1.621590 
# 
# From -- ./inp_files/37869.got.cif
#   From: 2010.06.25/outbox.cif.g09.slc.cpg/sg15_19_cif.got.tgz:37869.got - 2010.06.28 07:06:18.
