data_PCOD8129221
_publ_section_title
;
Structure prediction by ZEFSAII (Michael W. Deem and Ramdas Pophale) SiO2 
 PCOD8129221
Probable space group: P 21/C
;
_chemical_formula_sum "Si O2"
_cell_formula_units_Z 20
_cell_length_a 8.888556
_cell_length_b 9.287302
_cell_length_c 22.442919
_cell_angle_alpha 90.000000
_cell_angle_beta 26.052800
_cell_angle_gamma 90.000000
_cell_volume 813.695085
_symmetry_space_group_name_H-M "P 21/C"
_symmetry_group_IT_number 14
_symmetry_cell_setting 'monoclinic'
loop_
_space_group_symop_operation_xyz
x,y,z
-x,1/2+y,1/2-z
-x,-y,-z
x,1/2-y,1/2+z
loop_
_atom_site_type_symbol
_atom_site_label
_atom_site_fract_x
_atom_site_fract_y
_atom_site_fract_z
Si Si1 0.848004 0.026531 0.447289
Si Si2 0.695847 0.332661 0.808844
Si Si3 0.163068 0.520962 0.712198
Si Si4 0.568332 0.794156 0.722931
Si Si5 0.727124 0.194001 0.045354
O O1 0.676759 0.887757 0.538019
O O2 0.617230 0.169547 0.542748
O O3 0.885935 0.008018 0.363000
O O4 0.225960 0.052865 0.342391
O O5 0.690079 0.296189 0.740798
O O6 0.992508 0.451248 0.714204
O O7 0.778779 0.190055 0.817691
O O8 0.528524 0.447858 0.595628
O O9 0.351528 0.761180 0.858714
O O10 0.860917 0.669916 0.608111
#
# Coordination Sequence:
#
# PCOD8129221 Si02
#       5
#     4   4   4   4   4
#     4   9  22  47  70  93 141 183 224 290 345 407
#     4  12  24  42  68 103 137 186 229 286 348 406
#     4  11  25  44  68 103 143 181 233 288 345 418
#     4   9  22  41  79  99 138 177 236 283 352 404
#     4   9  21  47  71 106 132 184 224 295 344 418
#
# _framework density 24.579232999999999
#
# number of rings (size 3 to 8) (size 9 to 14) (size 15 to 20)
#    1.200    0.800    0.000    2.400    2.800    2.400 
#    3.600    2.000    0.000    0.000    0.000    0.000 
#    0.000    0.000    0.000    0.000    0.000    0.000 
#
# Total GULP energy -247957.262254 kJ/mol
# GULP energy per Si atom -12397.863113 kJ/mol
# Density = 2.452329 g / cm^3
# Si number density = 24.579233 Si / 1000 Ang^3
#
#
#
# Elastic Constant Matrix: (Units=GPa)
#
#
# Indices 1 2 3 4 5 6 
#
# 1 69.1206 5.7298 9.5207 0.0000 -11.0091 0.0000
# 2 5.7298 114.2982 9.6678 0.0000 -9.6488 0.0000
# 3 9.5207 9.6678 53.9863 0.0000 2.8536 0.0000
# 4 0.0000 0.0000 0.0000 21.9800 0.0000 -7.6324
# 5 -11.0091 -9.6488 2.8536 0.0000 29.7819 0.0000
# 6 0.0000 0.0000 0.0000 -7.6324 0.0000 30.5282
#
#
#
# Elastic Compliance Matrix: (Units=1/GPa)
#
#
# Indices 1 2 3 4 5 6 
#
# 1 0.015881 -0.000011 -0.003125 0.000000 0.006166 0.000000
# 2 -0.000011 0.009167 -0.001806 0.000000 0.003139 0.000000
# 3 -0.003125 -0.001806 0.019589 0.000000 -0.003617 0.000000
# 4 0.000000 0.000000 0.000000 0.049821 0.000000 0.012456
# 5 0.006166 0.003139 -0.003617 0.000000 0.037220 0.000000
# 6 0.000000 0.000000 0.000000 0.012456 0.000000 0.035871
#
#
# Mechanical properties :
#
#
# Convention : Reuss Voigt Hill
#
# Bulk Modulus (GPa) = 28.77357 31.91574 30.34466
# Shear Modulus (GPa) = 26.45266 30.62379 28.53823
#
# Velocity S-wave (km/s) = 3.28414 3.53359 3.41115
# Velocity P-wave (km/s) = 5.11005 5.44623 5.28081
#
# Compressibility (1/GPa) = 0.03475411
#
# Stress axis : x y z
#
# Youngs Moduli (GPa) = 62.96866 109.08323 51.04962
#
# Poissons Ratio (x) = 0.00123 0.15951
# Poissons Ratio (y) = 0.00071 0.09218
# Poissons Ratio (z) = 0.19675 0.19696
#
# Static dielectric constant tensor:
#      x y z
#    x 4.171430 0.000000 0.055010 
#    y 0.000000 4.151920 0.000000 
#    z 0.055010 0.000000 4.246940 
# 
# 
# High freq. dielectric constant tensor:
#      x y z
#    x 1.969880 0.000000 -0.001820 
#    y 0.000000 1.964540 0.000000 
#    z -0.001820 0.000000 1.974630 
# 
# From -- ./inp_files/72049.got.cif
#   From: 2010.03.12/outbox.cif.g09.slc.cpg/sg14_37_cif.got.tgz:72049.got - 2010.03.31 13:35:05.
