data_PCOD8129301
_publ_section_title
;
Structure prediction by ZEFSAII (Michael W. Deem and Ramdas Pophale) SiO2 
 PCOD8129301
Probable space group: P 21/C
;
_chemical_formula_sum "Si O2"
_cell_formula_units_Z 12
_cell_length_a 8.552807
_cell_length_b 8.216940
_cell_length_c 5.472999
_cell_angle_alpha 90.000000
_cell_angle_beta 69.706507
_cell_angle_gamma 90.000000
_cell_volume 360.756205
_symmetry_space_group_name_H-M "P 21/C"
_symmetry_group_IT_number 14
_symmetry_cell_setting 'monoclinic'
loop_
_space_group_symop_operation_xyz
x,y,z
-x,1/2+y,1/2-z
-x,-y,-z
x,1/2-y,1/2+z
loop_
_atom_site_type_symbol
_atom_site_label
_atom_site_fract_x
_atom_site_fract_y
_atom_site_fract_z
Si Si1 0.948700 0.829156 0.151220
Si Si2 0.402507 0.330182 0.866040
Si Si3 0.253393 0.864171 0.627769
O O1 0.873158 0.770166 0.457874
O O2 0.150276 0.779988 0.040922
O O3 0.901867 0.024353 0.174498
O O4 0.333290 0.231386 0.670052
O O5 0.605104 0.307378 0.749841
O O6 0.354993 0.521500 0.879157
#
# Coordination Sequence:
#
# PCOD8129301 Si02
#       3
#     4   4   4
#     4  12  26  44  70 106 144 182 230 288 352 418
#     4  11  26  47  72 103 140 187 238 289 344 415
#     4  11  26  46  74 105 142 184 234 291 352 416
#
# _framework density 33.263458999999997
#
# number of rings (size 3 to 8) (size 9 to 14) (size 15 to 20)
#    0.000    0.667    0.000    6.000    0.000   10.667 
#    0.000    0.000    0.000    6.000    0.000    0.000 
#    0.000    0.000    0.000    0.000    0.000    0.000 
#
# Total GULP energy -148955.154973 kJ/mol
# GULP energy per Si atom -12412.929581 kJ/mol
# Density = 3.318775 g / cm^3
# Si number density = 33.263459 Si / 1000 Ang^3
#
#
#
# Elastic Constant Matrix: (Units=GPa)
#
#
# Indices 1 2 3 4 5 6 
#
# 1 278.0623 98.4152 125.2723 0.0000 14.6829 0.0000
# 2 98.4152 228.2555 65.9017 0.0000 16.3131 0.0000
# 3 125.2723 65.9017 225.2766 0.0000 -12.1347 0.0000
# 4 0.0000 0.0000 0.0000 54.1351 0.0000 15.9191
# 5 14.6829 16.3131 -12.1347 0.0000 75.9678 0.0000
# 6 0.0000 0.0000 0.0000 15.9191 0.0000 76.9652
#
#
#
# Elastic Compliance Matrix: (Units=1/GPa)
#
#
# Indices 1 2 3 4 5 6 
#
# 1 0.005352 -0.001474 -0.002606 0.000000 -0.001134 0.000000
# 2 -0.001474 0.005314 -0.000788 0.000000 -0.000982 0.000000
# 3 -0.002606 -0.000788 0.006208 0.000000 0.001665 0.000000
# 4 0.000000 0.000000 0.000000 0.019669 0.000000 -0.004068
# 5 -0.001134 -0.000982 0.001665 0.000000 0.013859 0.000000
# 6 0.000000 0.000000 0.000000 -0.004068 0.000000 0.013834
#
#
# Mechanical properties :
#
#
# Convention : Reuss Voigt Hill
#
# Bulk Modulus (GPa) = 140.08153 145.64141 142.86147
# Shear Modulus (GPa) = 65.48590 70.88063 68.18326
#
# Velocity S-wave (km/s) = 4.44182 4.62116 4.53238
# Velocity P-wave (km/s) = 8.27711 8.50604 8.39236
#
# Compressibility (1/GPa) = 0.00713870
#
# Stress axis : x y z
#
# Youngs Moduli (GPa) = 186.84597 188.17223 161.07566
#
# Poissons Ratio (x) = 0.27739 0.41976
# Poissons Ratio (y) = 0.27543 0.12689
# Poissons Ratio (z) = 0.48692 0.14824
#
# Static dielectric constant tensor:
#      x y z
#    x 7.036420 0.000000 -0.793190 
#    y 0.000000 6.095640 0.000000 
#    z -0.793190 0.000000 6.730280 
# 
# 
# High freq. dielectric constant tensor:
#      x y z
#    x 2.493180 0.000000 -0.070690 
#    y 0.000000 2.402290 0.000000 
#    z -0.070690 0.000000 2.479270 
# 
# From -- ./inp_files/780.got.cif
#   From: 2010.03.12/outbox.cif.g09.slc.cpg/sg14_1_cif.got.tgz:780.got - 2010.03.31 13:35:05.
