data_PCOD8129163
_publ_section_title
;
Structure prediction by ZEFSAII (Michael W. Deem and Ramdas Pophale) SiO2 
 PCOD8129163
Probable space group: P 21/C
;
_chemical_formula_sum "Si O2"
_cell_formula_units_Z 28
_cell_length_a 14.574647
_cell_length_b 15.949887
_cell_length_c 9.214590
_cell_angle_alpha 90.000000
_cell_angle_beta 142.246240
_cell_angle_gamma 90.000000
_cell_volume 1311.517414
_symmetry_space_group_name_H-M "P 21/C"
_symmetry_group_IT_number 14
_symmetry_cell_setting 'monoclinic'
loop_
_space_group_symop_operation_xyz
x,y,z
-x,1/2+y,1/2-z
-x,-y,-z
x,1/2-y,1/2+z
loop_
_atom_site_type_symbol
_atom_site_label
_atom_site_fract_x
_atom_site_fract_y
_atom_site_fract_z
Si Si1 0.342322 0.517738 0.875001
Si Si2 0.104096 0.869334 0.959373
Si Si3 0.280610 0.709794 0.263578
Si Si4 0.981225 0.098277 0.459313
Si Si5 0.773353 0.692767 0.548612
Si Si6 0.172390 0.147341 0.209044
Si Si7 0.434187 0.831681 0.672386
O O1 0.228437 0.556954 0.613927
O O2 0.281230 0.431317 0.860581
O O3 0.500000 0.500000 0.000000
O O4 0.351207 0.584507 0.015879
O O5 0.003852 0.877364 0.690487
O O6 0.997734 0.879751 0.967483
O O7 0.175633 0.777206 0.052145
O O8 0.368560 0.750304 0.508241
O O9 0.406187 0.678114 0.308154
O O10 0.180723 0.630888 0.188236
O O11 0.114375 0.140632 0.712743
O O12 0.000000 0.000000 0.500000
O O13 0.825021 0.688198 0.446673
O O14 0.770806 0.788209 0.598235
O O15 0.608399 0.654808 0.357966
#
# Coordination Sequence:
#
# PCOD8129163 Si02
#       7
#     4   4   4   4   4   4   4
#     4  11  25  45  72 102 139 187 235 287 342 424
#     4  11  25  46  72 102 138 184 233 288 348 411
#     4  11  24  46  71  99 136 183 237 279 348 420
#     4  12  27  45  71 104 147 180 231 297 347 417
#     4  12  26  45  70 103 141 179 231 291 351 416
#     4  12  25  44  72 102 138 180 238 285 351 415
#     4  11  25  46  71 100 138 185 231 288 349 415
#
# _framework density 21.349315000000001
#
# number of rings (size 3 to 8) (size 9 to 14) (size 15 to 20)
#    0.000    0.571    4.286    3.000    8.000    0.000 
#    0.000    0.714    0.000    0.000    0.000    0.000 
#    0.000    0.000    0.000    0.000    0.000    0.000 
#
# Total GULP energy -347355.443799 kJ/mol
# GULP energy per Si atom -12405.551564 kJ/mol
# Density = 2.130072 g / cm^3
# Si number density = 21.349315 Si / 1000 Ang^3
#
#
#
# Elastic Constant Matrix: (Units=GPa)
#
#
# Indices 1 2 3 4 5 6 
#
# 1 163.4676 47.0623 57.1506 0.0000 -2.9783 0.0000
# 2 47.0623 108.5590 24.6837 0.0000 -7.2125 0.0000
# 3 57.1506 24.6837 98.1959 0.0000 0.0902 0.0000
# 4 0.0000 0.0000 0.0000 28.6815 0.0000 8.4277
# 5 -2.9783 -7.2125 0.0902 0.0000 34.5674 0.0000
# 6 0.0000 0.0000 0.0000 8.4277 0.0000 32.9274
#
#
#
# Elastic Compliance Matrix: (Units=1/GPa)
#
#
# Indices 1 2 3 4 5 6 
#
# 1 0.008351 -0.002655 -0.004193 0.000000 0.000176 0.000000
# 2 -0.002655 0.010761 -0.001162 0.000000 0.002020 0.000000
# 3 -0.004193 -0.001162 0.012917 0.000000 -0.000637 0.000000
# 4 0.000000 0.000000 0.000000 0.037701 0.000000 -0.009650
# 5 0.000176 0.002020 -0.000637 0.000000 0.029367 0.000000
# 6 0.000000 0.000000 0.000000 -0.009650 0.000000 0.032840
#
#
# Mechanical properties :
#
#
# Convention : Reuss Voigt Hill
#
# Bulk Modulus (GPa) = 62.46457 69.77952 66.12205
# Shear Modulus (GPa) = 32.61738 35.32364 33.97051
#
# Velocity S-wave (km/s) = 3.91294 4.07204 3.99328
# Velocity P-wave (km/s) = 7.05242 7.40704 7.23191
#
# Compressibility (1/GPa) = 0.01600908
#
# Stress axis : x y z
#
# Youngs Moduli (GPa) = 119.74590 92.92879 77.41933
#
# Poissons Ratio (x) = 0.24674 0.32462
# Poissons Ratio (y) = 0.31795 0.08992
# Poissons Ratio (z) = 0.50210 0.10794
#
# Static dielectric constant tensor:
#      x y z
#    x 4.088800 0.000000 0.099370 
#    y 0.000000 4.106850 0.000000 
#    z 0.099370 0.000000 3.996470 
# 
# 
# High freq. dielectric constant tensor:
#      x y z
#    x 1.848270 0.000000 0.005170 
#    y 0.000000 1.844630 0.000000 
#    z 0.005170 0.000000 1.839490 
# 
# From -- ./inp_files/16441.got.cif
#   From: 2010.03.12/outbox.cif.g09.slc.cpg/sg14_9_cif.got.tgz:16441.got - 2010.03.31 13:35:05.
