data_PCOD8129613
_publ_section_title
;
Structure prediction by ZEFSAII (Michael W. Deem and Ramdas Pophale) SiO2 
 PCOD8129613
Probable space group: C 2/C
;
_chemical_formula_sum "Si O2"
_cell_formula_units_Z 56
_cell_length_a 19.242319
_cell_length_b 6.322330
_cell_length_c 21.937916
_cell_angle_alpha 90.000000
_cell_angle_beta 129.350668
_cell_angle_gamma 90.000000
_cell_volume 2063.795218
_symmetry_space_group_name_H-M "C 2/C"
_symmetry_group_IT_number 15
_symmetry_cell_setting 'monoclinic'
loop_
_space_group_symop_operation_xyz
x,y,z
-x,y,1/2-z
-x,-y,-z
x,-y,1/2+z
1/2+x,1/2+y,z
1/2-x,1/2+y,1/2-z
1/2-x,1/2-y,-z
1/2+x,1/2-y,1/2+z
loop_
_atom_site_type_symbol
_atom_site_label
_atom_site_fract_x
_atom_site_fract_y
_atom_site_fract_z
Si Si1 0.990921 0.134347 0.400305
Si Si2 0.497304 0.103249 0.350398
Si Si3 0.552804 0.196893 0.502706
Si Si4 0.590270 0.569142 0.268530
Si Si5 0.366794 0.053385 0.177806
Si Si6 0.261174 0.989494 0.430406
Si Si7 0.692738 0.547390 0.528121
O O1 0.012953 0.367293 0.386193
O O2 0.085562 0.004653 0.467749
O O3 0.941131 0.135619 0.438198
O O4 0.925972 0.034405 0.312655
O O5 0.495040 0.258476 0.408878
O O6 0.405167 0.152448 0.262257
O O7 0.581224 0.141792 0.352530
O O8 0.500000 0.000000 0.500000
O O9 0.654453 0.165193 0.534403
O O10 0.500000 0.483961 0.250000
O O11 0.609771 0.804686 0.302739
O O12 0.675669 0.427255 0.338972
O O13 0.260062 0.096555 0.108040
O O14 0.296564 0.222898 0.435897
O O15 0.230660 0.001599 0.482767
#
# Coordination Sequence:
#
# PCOD8129613 Si02
#       7
#     8   8   8   8   8   8   8
#     4  10  16  24  34  52  80 114 145 182 214 252
#     4   9  13  22  30  47  72 109 136 170 209 253
#     4  10  17  24  33  51  83 119 145 172 223 270
#     4  10  15  23  35  53  76 110 147 180 203 250
#     4   9  14  19  33  49  73 103 141 171 207 244
#     4  10  16  22  35  51  79 113 150 170 214 266
#     4  10  14  21  34  53  74 109 149 172 209 263
#
# _framework density 27.134475999999999
#
# number of rings (size 3 to 8) (size 9 to 14) (size 15 to 20)
#    0.000    2.286    8.571    0.857    0.000    0.000 
#    0.000    0.000    0.000    0.000    0.000    0.000 
#    0.000   20.571    0.000   38.571    1.143    2.429 
#
# Total GULP energy -346918.904289 kJ/mol
# GULP energy per Si atom -12389.960867 kJ/mol
# Density = 2.707272 g / cm^3
# Si number density = 27.134476 Si / 1000 Ang^3
#
#
#
# Elastic Constant Matrix: (Units=GPa)
#
#
# Indices 1 2 3 4 5 6 
#
# 1 127.3880 32.2020 90.0870 0.0001 -0.2346 -0.0001
# 2 32.2020 63.5002 69.4678 0.0005 3.2684 -0.0003
# 3 90.0870 69.4678 275.4640 0.0000 2.3954 0.0000
# 4 0.0001 0.0005 0.0000 56.2296 -0.0001 19.3101
# 5 -0.2346 3.2684 2.3954 -0.0001 57.9006 0.0001
# 6 -0.0001 -0.0003 0.0000 19.3101 0.0001 35.4646
#
#
#
# Elastic Compliance Matrix: (Units=1/GPa)
#
#
# Indices 1 2 3 4 5 6 
#
# 1 0.010425 -0.002166 -0.002865 0.000000 0.000283 0.000000
# 2 -0.002166 0.022256 -0.004895 0.000000 -0.001063 0.000000
# 3 -0.002865 -0.004895 0.005802 0.000000 0.000025 0.000000
# 4 0.000000 0.000000 0.000000 0.021874 0.000000 -0.011910
# 5 0.000283 -0.001063 0.000025 0.000000 0.017331 0.000000
# 6 0.000000 0.000000 0.000000 -0.011910 0.000000 0.034682
#
#
# Mechanical properties :
#
#
# Convention : Reuss Voigt Hill
#
# Bulk Modulus (GPa) = 53.67994 94.42952 74.05473
# Shear Modulus (GPa) = 36.11856 48.22534 42.17195
#
# Velocity S-wave (km/s) = 3.65238 4.22034 3.94659
# Velocity P-wave (km/s) = 6.13289 7.65667 6.93674
#
# Compressibility (1/GPa) = 0.01862893
#
# Stress axis : x y z
#
# Youngs Moduli (GPa) = 95.92778 44.93118 172.36845
#
# Poissons Ratio (x) = 0.09734 0.49389
# Poissons Ratio (y) = 0.20782 0.84374
# Poissons Ratio (z) = 0.27486 0.21994
#
# Static dielectric constant tensor:
#      x y z
#    x 4.860510 0.000000 -0.013860 
#    y 0.000000 5.821420 0.000000 
#    z -0.013860 0.000000 6.079180 
# 
# 
# High freq. dielectric constant tensor:
#      x y z
#    x 2.043330 0.000000 0.012190 
#    y 0.000000 2.171260 0.000000 
#    z 0.012190 0.000000 2.129610 
# 
# From -- ./inp_files/247572.got.cif
#   From: 2010.06.25/outbox.cif.g09.slc.cpg/sg15_124_cif.got.tgz:247572.got - 2010.06.28 07:06:18.
