data_PCOD8129091
_publ_section_title
;
Structure prediction by ZEFSAII (Michael W. Deem and Ramdas Pophale) SiO2 
 PCOD8129091
Probable space group: P 21/C
;
_chemical_formula_sum "Si O2"
_cell_formula_units_Z 32
_cell_length_a 14.539288
_cell_length_b 8.880150
_cell_length_c 11.266137
_cell_angle_alpha 90.000000
_cell_angle_beta 107.557909
_cell_angle_gamma 90.000000
_cell_volume 1386.817549
_symmetry_space_group_name_H-M "P 21/C"
_symmetry_group_IT_number 14
_symmetry_cell_setting 'monoclinic'
loop_
_space_group_symop_operation_xyz
x,y,z
-x,1/2+y,1/2-z
-x,-y,-z
x,1/2-y,1/2+z
loop_
_atom_site_type_symbol
_atom_site_label
_atom_site_fract_x
_atom_site_fract_y
_atom_site_fract_z
Si Si1 0.745494 0.219879 0.468479
Si Si2 0.411628 0.229763 0.137409
Si Si3 0.075267 0.371653 0.503088
Si Si4 0.345407 0.453070 0.928600
Si Si5 0.939470 0.121726 0.405993
Si Si6 0.230503 0.251194 0.727713
Si Si7 0.585274 0.090829 0.782962
Si Si8 0.817025 0.028291 0.153089
O O1 0.845878 0.176383 0.444412
O O2 0.681097 0.315109 0.351597
O O3 0.761554 0.319365 0.594210
O O4 0.688063 0.070903 0.484660
O O5 0.306563 0.245926 0.152192
O O6 0.493208 0.299910 0.255082
O O7 0.430508 0.049637 0.132074
O O8 0.410077 0.319454 0.012100
O O9 0.123892 0.289988 0.636038
O O10 0.160479 0.439101 0.457978
O O11 0.000000 0.500000 0.500000
O O12 0.013258 0.253705 0.405478
O O13 0.250651 0.377482 0.834549
O O14 0.407797 0.529578 0.849160
O O15 0.912358 0.067811 0.264236
O O16 0.000000 0.000000 0.500000
O O17 0.242947 0.083531 0.785961
#
# Coordination Sequence:
#
# PCOD8129091 Si02
#       8
#     4   4   4   4   4   4   4   4
#     4  12  26  47  69 104 140 184 232 295 341 420
#     4  11  24  46  73 104 143 185 232 289 347 417
#     4  12  27  46  68  98 140 182 234 289 347 412
#     4  11  24  43  76  97 143 180 233 281 358 403
#     4  12  28  46  66 103 135 184 236 288 345 419
#     4  11  25  47  68 104 137 184 230 293 342 420
#     4  11  25  47  71 106 143 182 235 288 348 417
#     4  12  26  44  70  96 141 181 234 280 363 405
#
# _framework density 23.074413
#
# number of rings (size 3 to 8) (size 9 to 14) (size 15 to 20)
#    0.000    0.500    2.500    5.625    7.000    2.000 
#    0.000    3.750    0.000    0.000    0.000    0.000 
#    0.000    0.000    0.000    0.000    0.000    0.000 
#
# Total GULP energy -396757.667281 kJ/mol
# GULP energy per Si atom -12398.677103 kJ/mol
# Density = 2.302189 g / cm^3
# Si number density = 23.074413 Si / 1000 Ang^3
#
#
#
# Elastic Constant Matrix: (Units=GPa)
#
#
# Indices 1 2 3 4 5 6 
#
# 1 69.6179 35.3101 26.9490 0.0000 23.2837 0.0000
# 2 35.3101 120.5856 39.9449 0.0000 12.1246 0.0000
# 3 26.9490 39.9449 105.9607 0.0000 11.0207 0.0000
# 4 0.0000 0.0000 0.0000 56.3056 0.0000 10.8161
# 5 23.2837 12.1246 11.0207 0.0000 26.3042 0.0000
# 6 0.0000 0.0000 0.0000 10.8161 0.0000 44.7903
#
#
#
# Elastic Compliance Matrix: (Units=1/GPa)
#
#
# Indices 1 2 3 4 5 6 
#
# 1 0.023414 -0.004242 -0.002513 0.000000 -0.017717 0.000000
# 2 -0.004242 0.010477 -0.002885 0.000000 0.000134 0.000000
# 3 -0.002513 -0.002885 0.011286 0.000000 -0.001175 0.000000
# 4 0.000000 0.000000 0.000000 0.018624 0.000000 -0.004497
# 5 -0.017717 0.000134 -0.001175 0.000000 0.054130 0.000000
# 6 0.000000 0.000000 0.000000 -0.004497 0.000000 0.023412
#
#
# Mechanical properties :
#
#
# Convention : Reuss Voigt Hill
#
# Bulk Modulus (GPa) = 38.61368 55.61911 47.11640
# Shear Modulus (GPa) = 29.54108 38.41071 33.97589
#
# Velocity S-wave (km/s) = 3.58194 4.08443 3.84141
# Velocity P-wave (km/s) = 5.82047 6.81176 6.33553
#
# Compressibility (1/GPa) = 0.02589756
#
# Stress axis : x y z
#
# Youngs Moduli (GPa) = 42.70941 95.44564 88.60377
#
# Poissons Ratio (x) = 0.40491 0.22265
# Poissons Ratio (y) = 0.18119 0.25560
# Poissons Ratio (z) = 0.10733 0.27533
#
# Static dielectric constant tensor:
#      x y z
#    x 3.939900 0.000000 0.151860 
#    y 0.000000 4.395030 0.000000 
#    z 0.151860 0.000000 4.550900 
# 
# 
# High freq. dielectric constant tensor:
#      x y z
#    x 1.897320 0.000000 0.018700 
#    y 0.000000 1.936650 0.000000 
#    z 0.018700 0.000000 1.917040 
# 
# From -- ./inp_files/31868.got.cif
#   From: 2010.03.12/outbox.cif.g09.slc.cpg/sg14_16_cif.got.tgz:31868.got - 2010.03.31 13:35:05.
