data_PCOD8129159
_publ_section_title
;
Structure prediction by ZEFSAII (Michael W. Deem and Ramdas Pophale) SiO2 
 PCOD8129159
Probable space group: P 21/C
;
_chemical_formula_sum "Si O2"
_cell_formula_units_Z 28
_cell_length_a 8.702962
_cell_length_b 14.923976
_cell_length_c 13.962045
_cell_angle_alpha 90.000000
_cell_angle_beta 139.498530
_cell_angle_gamma 90.000000
_cell_volume 1177.763591
_symmetry_space_group_name_H-M "P 21/C"
_symmetry_group_IT_number 14
_symmetry_cell_setting 'monoclinic'
loop_
_space_group_symop_operation_xyz
x,y,z
-x,1/2+y,1/2-z
-x,-y,-z
x,1/2-y,1/2+z
loop_
_atom_site_type_symbol
_atom_site_label
_atom_site_fract_x
_atom_site_fract_y
_atom_site_fract_z
Si Si1 0.125144 0.536563 0.851652
Si Si2 0.610758 0.777442 0.276436
Si Si3 0.680347 0.422739 0.252211
Si Si4 0.601770 0.083476 0.328151
Si Si5 0.042539 0.280876 0.420628
Si Si6 0.347887 0.354943 0.409669
Si Si7 0.190849 0.612993 0.266104
O O1 0.319077 0.563251 0.863192
O O2 0.866103 0.577849 0.710735
O O3 0.058974 0.430538 0.816966
O O4 0.229735 0.566914 0.001927
O O5 0.517045 0.855573 0.301454
O O6 0.461987 0.686901 0.215422
O O7 0.878192 0.762456 0.441039
O O8 0.608003 0.798607 0.164187
O O9 0.632350 0.520123 0.276393
O O10 0.932900 0.378022 0.396214
O O11 0.740522 0.057795 0.297328
O O12 0.274029 0.292080 0.463781
O O13 0.853972 0.218460 0.275748
O O14 0.599039 0.399691 0.556674
#
# Coordination Sequence:
#
# PCOD8129159 Si02
#       7
#     4   4   4   4   4   4   4
#     4  11  26  45  75 105 143 191 241 295 367 427
#     4  12  26  46  72 105 147 187 240 300 363 422
#     4  11  26  47  70 109 145 182 252 293 355 430
#     4  12  25  44  77 106 145 194 240 298 359 430
#     4  11  24  46  71 100 146 189 238 298 356 431
#     4  11  26  44  70 103 146 186 237 299 360 428
#     4  12  24  48  72 107 142 193 241 297 363 429
#
# _framework density 23.773872000000001
#
# number of rings (size 3 to 8) (size 9 to 14) (size 15 to 20)
#    0.000    0.571    2.857    3.857    8.000    0.571 
#    0.000    0.000    0.000    0.000    0.000    0.000 
#    0.000    0.000    0.000    0.000    0.000    0.000 
#
# Total GULP energy -347045.983541 kJ/mol
# GULP energy per Si atom -12394.499412 kJ/mol
# Density = 2.371976 g / cm^3
# Si number density = 23.773872 Si / 1000 Ang^3
#
#
#
# Elastic Constant Matrix: (Units=GPa)
#
#
# Indices 1 2 3 4 5 6 
#
# 1 107.7435 27.4649 24.9498 0.0000 -13.9629 0.0000
# 2 27.4649 79.4471 14.3158 0.0000 -4.5383 0.0000
# 3 24.9498 14.3158 106.4258 0.0000 -18.8391 0.0000
# 4 0.0000 0.0000 0.0000 33.3889 0.0000 7.2908
# 5 -13.9629 -4.5383 -18.8391 0.0000 30.2680 0.0000
# 6 0.0000 0.0000 0.0000 7.2908 0.0000 32.0199
#
#
#
# Elastic Compliance Matrix: (Units=1/GPa)
#
#
# Indices 1 2 3 4 5 6 
#
# 1 0.010937 -0.003307 -0.001476 0.000000 0.003630 0.000000
# 2 -0.003307 0.013925 -0.001122 0.000000 -0.000136 0.000000
# 3 -0.001476 -0.001122 0.010949 0.000000 0.005966 0.000000
# 4 0.000000 0.000000 0.000000 0.031517 0.000000 -0.007176
# 5 0.003630 -0.000136 0.005966 0.000000 0.038406 0.000000
# 6 0.000000 0.000000 0.000000 -0.007176 0.000000 0.032865
#
#
# Mechanical properties :
#
#
# Convention : Reuss Voigt Hill
#
# Bulk Modulus (GPa) = 41.66760 47.45307 44.56033
# Shear Modulus (GPa) = 31.56384 34.26110 32.91247
#
# Velocity S-wave (km/s) = 3.64767 3.80033 3.72478
# Velocity P-wave (km/s) = 5.94183 6.26580 6.10596
#
# Compressibility (1/GPa) = 0.02399946
#
# Stress axis : x y z
#
# Youngs Moduli (GPa) = 91.43474 71.81468 91.33035
#
# Poissons Ratio (x) = 0.23752 0.13484
# Poissons Ratio (y) = 0.30241 0.10245
# Poissons Ratio (z) = 0.13500 0.08056
#
# Static dielectric constant tensor:
#      x y z
#    x 4.531980 0.000000 -0.040200 
#    y 0.000000 4.338630 0.000000 
#    z -0.040200 0.000000 4.106870 
# 
# 
# High freq. dielectric constant tensor:
#      x y z
#    x 1.949840 0.000000 -0.001280 
#    y 0.000000 1.946840 0.000000 
#    z -0.001280 0.000000 1.941950 
# 
# From -- ./inp_files/41406.got.cif
#   From: 2010.03.12/outbox.cif.g09.slc.cpg/sg14_21_cif.got.tgz:41406.got - 2010.03.31 13:35:05.
