data_PCOD8129397
_publ_section_title
;
Structure prediction by ZEFSAII (Michael W. Deem and Ramdas Pophale) SiO2 
 PCOD8129397
Probable space group: P 21/C
;
_chemical_formula_sum "Si O2"
_cell_formula_units_Z 32
_cell_length_a 8.704641
_cell_length_b 14.590186
_cell_length_c 23.721203
_cell_angle_alpha 90.000000
_cell_angle_beta 28.902841
_cell_angle_gamma 90.000000
_cell_volume 1456.090521
_symmetry_space_group_name_H-M "P 21/C"
_symmetry_group_IT_number 14
_symmetry_cell_setting 'monoclinic'
loop_
_space_group_symop_operation_xyz
x,y,z
-x,1/2+y,1/2-z
-x,-y,-z
x,1/2-y,1/2+z
loop_
_atom_site_type_symbol
_atom_site_label
_atom_site_fract_x
_atom_site_fract_y
_atom_site_fract_z
Si Si1 0.247665 0.246870 0.608129
Si Si2 0.762720 0.589478 0.307255
Si Si3 0.233392 0.262029 0.488116
Si Si4 0.931717 0.327989 0.892836
Si Si5 0.141965 0.619516 0.694560
Si Si6 0.255504 0.348587 0.283727
Si Si7 0.053994 0.600474 0.503305
Si Si8 0.939090 0.393689 0.016792
O O1 0.140743 0.341530 0.673092
O O2 0.090795 0.247884 0.596501
O O3 0.625994 0.235723 0.480156
O O4 0.141043 0.155069 0.674873
O O5 0.748506 0.483114 0.327612
O O6 0.412057 0.621733 0.404646
O O7 0.014121 0.598681 0.174833
O O8 0.582293 0.305953 0.382778
O O9 0.010146 0.331054 0.526843
O O10 0.217703 0.165049 0.458746
O O11 0.236392 0.261432 0.791134
O O12 0.916998 0.373324 0.958070
O O13 0.012597 0.613127 0.672685
O O14 0.607781 0.374891 0.153497
O O15 0.186997 0.386552 0.367723
O O16 0.000000 0.500000 0.500000
O O17 0.000000 0.500000 0.000000
#
# Coordination Sequence:
#
# PCOD8129397 Si02
#       8
#     4   4   4   4   4   4   4   4
#     4  12  25  47  73 107 146 197 244 306 369 442
#     4  12  26  46  74 107 147 194 243 306 376 442
#     4  12  26  45  72 110 143 186 252 306 359 447
#     4  12  23  50  76 101 147 198 240 299 378 440
#     4  12  27  46  74 109 144 197 251 307 366 444
#     4  12  25  52  73 101 153 199 242 300 378 443
#     4  12  26  44  74 109 146 191 241 308 375 433
#     4  12  30  49  76 110 152 200 245 306 382 448
#
# _framework density 21.976654
#
# number of rings (size 3 to 8) (size 9 to 14) (size 15 to 20)
#    0.000    0.000    7.500    0.750    7.000    4.500 
#    0.000    0.000    0.000    0.000    0.000    0.000 
#    0.000    0.000    0.000    0.000    0.000    0.000 
#
# Total GULP energy -396765.696896 kJ/mol
# GULP energy per Si atom -12398.928028 kJ/mol
# Density = 2.192663 g / cm^3
# Si number density = 21.976654 Si / 1000 Ang^3
#
#
#
# Elastic Constant Matrix: (Units=GPa)
#
#
# Indices 1 2 3 4 5 6 
#
# 1 130.1709 50.2882 29.8897 0.0000 25.2112 0.0000
# 2 50.2882 143.2399 27.6299 0.0000 5.1828 0.0000
# 3 29.8897 27.6299 83.3542 0.0000 4.7891 0.0000
# 4 0.0000 0.0000 0.0000 24.8437 0.0000 -2.7626
# 5 25.2112 5.1828 4.7891 0.0000 40.8121 0.0000
# 6 0.0000 0.0000 0.0000 -2.7626 0.0000 32.3365
#
#
#
# Elastic Compliance Matrix: (Units=1/GPa)
#
#
# Indices 1 2 3 4 5 6 
#
# 1 0.010541 -0.003018 -0.002444 0.000000 -0.005841 0.000000
# 2 -0.003018 0.008340 -0.001740 0.000000 0.001009 0.000000
# 3 -0.002444 -0.001740 0.013441 0.000000 0.000153 0.000000
# 4 0.000000 0.000000 0.000000 0.040638 0.000000 0.003472
# 5 -0.005841 0.001009 0.000153 0.000000 0.027965 0.000000
# 6 0.000000 0.000000 0.000000 0.003472 0.000000 0.031221
#
#
# Mechanical properties :
#
#
# Convention : Reuss Voigt Hill
#
# Bulk Modulus (GPa) = 55.80963 63.59785 59.70374
# Shear Modulus (GPa) = 32.78212 36.19560 34.48886
#
# Velocity S-wave (km/s) = 3.86642 4.06273 3.96579
# Velocity P-wave (km/s) = 6.73664 7.14208 6.94232
#
# Compressibility (1/GPa) = 0.01791806
#
# Stress axis : x y z
#
# Youngs Moduli (GPa) = 94.87200 119.90475 74.39721
#
# Poissons Ratio (x) = 0.36185 0.18181
# Poissons Ratio (y) = 0.28630 0.12948
# Poissons Ratio (z) = 0.23184 0.20868
#
# Static dielectric constant tensor:
#      x y z
#    x 5.961900 0.000000 -0.230430 
#    y 0.000000 3.988440 0.000000 
#    z -0.230430 0.000000 3.656300 
# 
# 
# High freq. dielectric constant tensor:
#      x y z
#    x 1.878120 0.000000 0.011920 
#    y 0.000000 1.869500 0.000000 
#    z 0.011920 0.000000 1.869270 
# 
# From -- ./inp_files/72451.got.cif
#   From: 2010.03.12/outbox.cif.g09.slc.cpg/sg14_37_cif.got.tgz:72451.got - 2010.03.31 13:35:05.
