data_PCOD8129960
_publ_section_title
;
Structure prediction by ZEFSAII (Michael W. Deem and Ramdas Pophale) SiO2 
 PCOD8129960
Probable space group: C 2/C
;
_chemical_formula_sum "Si O2"
_cell_formula_units_Z 52
_cell_length_a 27.105806
_cell_length_b 18.546791
_cell_length_c 11.766496
_cell_angle_alpha 90.000000
_cell_angle_beta 26.925537
_cell_angle_gamma 90.000000
_cell_volume 2678.647103
_symmetry_space_group_name_H-M "C 2/C"
_symmetry_group_IT_number 15
_symmetry_cell_setting 'monoclinic'
loop_
_space_group_symop_operation_xyz
x,y,z
-x,y,1/2-z
-x,-y,-z
x,-y,1/2+z
1/2+x,1/2+y,z
1/2-x,1/2+y,1/2-z
1/2-x,1/2-y,-z
1/2+x,1/2-y,1/2+z
loop_
_atom_site_type_symbol
_atom_site_label
_atom_site_fract_x
_atom_site_fract_y
_atom_site_fract_z
Si Si1 0.677798 0.672894 0.269357
Si Si2 0.914375 0.288102 0.691251
Si Si3 0.500000 0.235804 0.250000
Si Si4 0.882509 0.768672 0.835832
Si Si5 0.201808 0.141515 0.571627
Si Si6 0.128760 0.952594 0.013082
Si Si7 0.624533 0.608132 0.978290
O O1 0.606022 0.715518 0.509124
O O2 0.619694 0.677536 0.267058
O O3 0.688366 0.590608 0.288493
O O4 0.798196 0.703845 0.006970
O O5 0.975195 0.311241 0.685681
O O6 0.844745 0.218458 0.869294
O O7 0.997962 0.268569 0.416036
O O8 0.833975 0.351143 0.811405
O O9 0.849506 0.817445 0.010888
O O10 0.163846 0.081878 0.560314
O O11 0.152979 0.116974 0.790178
O O12 0.000000 0.947907 0.250000
O O13 0.178395 0.033880 0.913631
O O14 0.500000 0.591826 0.250000
#
# Coordination Sequence:
#
# PCOD8129960 Si02
#       7
#     8   8   4   8   8   8   8
#     4  10  19  34  59  83 116 151 198 233 290 351
#     4  10  20  35  61  87 119 147 196 246 287 352
#     4  10  16  34  56  86 116 150 182 234 304 342
#     4  10  21  36  56  92 112 149 194 252 288 335
#     4  11  22  38  56  88 117 159 193 237 296 350
#     4  11  23  37  58  83 119 163 185 236 298 365
#     4  11  24  34  56  86 124 148 187 248 295 352
#
# _framework density 19.412783999999998
#
# number of rings (size 3 to 8) (size 9 to 14) (size 15 to 20)
#    0.000    1.538    3.846    1.846    4.308    1.231 
#    0.000    0.000    0.000    0.923   16.000    0.000 
#    0.000    0.000    0.000    0.000    0.000    0.000 
#
# Total GULP energy -322171.624267 kJ/mol
# GULP energy per Si atom -12391.216318 kJ/mol
# Density = 1.936860 g / cm^3
# Si number density = 19.412784 Si / 1000 Ang^3
#
#
#
# Elastic Constant Matrix: (Units=GPa)
#
#
# Indices 1 2 3 4 5 6 
#
# 1 99.1489 43.5922 31.4685 0.0000 3.6104 0.0000
# 2 43.5922 67.6650 28.5451 0.0000 2.4387 0.0000
# 3 31.4685 28.5451 85.1326 0.0000 -1.2785 0.0000
# 4 0.0000 0.0000 0.0000 25.9619 0.0000 7.9290
# 5 3.6104 2.4387 -1.2785 0.0000 29.5323 0.0000
# 6 0.0000 0.0000 0.0000 7.9290 0.0000 20.7909
#
#
#
# Elastic Compliance Matrix: (Units=1/GPa)
#
#
# Indices 1 2 3 4 5 6 
#
# 1 0.014594 -0.008240 -0.002650 0.000000 -0.001218 0.000000
# 2 -0.008240 0.021949 -0.004329 0.000000 -0.000993 0.000000
# 3 -0.002650 -0.004329 0.014197 0.000000 0.001296 0.000000
# 4 0.000000 0.000000 0.000000 0.043596 0.000000 -0.016626
# 5 -0.001218 -0.000993 0.001296 0.000000 0.034148 0.000000
# 6 0.000000 0.000000 0.000000 -0.016626 0.000000 0.054439
#
#
# Mechanical properties :
#
#
# Convention : Reuss Voigt Hill
#
# Bulk Modulus (GPa) = 49.25481 51.01754 50.13617
# Shear Modulus (GPa) = 22.71405 25.14641 23.93023
#
# Velocity S-wave (km/s) = 3.42432 3.60301 3.51480
# Velocity P-wave (km/s) = 6.40797 6.60653 6.50801
#
# Compressibility (1/GPa) = 0.02030259
#
# Stress axis : x y z
#
# Youngs Moduli (GPa) = 68.52022 45.55977 70.43870
#
# Poissons Ratio (x) = 0.37543 0.18666
# Poissons Ratio (y) = 0.56463 0.30490
# Poissons Ratio (z) = 0.18157 0.19721
#
# Static dielectric constant tensor:
#      x y z
#    x 3.681130 0.000000 -0.026860 
#    y 0.000000 3.536620 0.000000 
#    z -0.026860 0.000000 3.487220 
# 
# 
# High freq. dielectric constant tensor:
#      x y z
#    x 1.764860 0.000000 0.011810 
#    y 0.000000 1.720170 0.000000 
#    z 0.011810 0.000000 1.751050 
# 
# From -- ./inp_files/123882.got.cif
#   From: 2010.06.25/outbox.cif.g09.slc.cpg/sg15_62_cif.got.tgz:123882.got - 2010.06.28 07:06:18.
