data_PCOD8129158
_publ_section_title
;
Structure prediction by ZEFSAII (Michael W. Deem and Ramdas Pophale) SiO2 
 PCOD8129158
Probable space group: P 21/C
;
_chemical_formula_sum "Si O2"
_cell_formula_units_Z 32
_cell_length_a 7.960244
_cell_length_b 20.684106
_cell_length_c 17.278786
_cell_angle_alpha 90.000000
_cell_angle_beta 150.673397
_cell_angle_gamma 90.000000
_cell_volume 1393.425933
_symmetry_space_group_name_H-M "P 21/C"
_symmetry_group_IT_number 14
_symmetry_cell_setting 'monoclinic'
loop_
_space_group_symop_operation_xyz
x,y,z
-x,1/2+y,1/2-z
-x,-y,-z
x,1/2-y,1/2+z
loop_
_atom_site_type_symbol
_atom_site_label
_atom_site_fract_x
_atom_site_fract_y
_atom_site_fract_z
Si Si1 0.178906 0.142966 0.371334
Si Si2 0.059154 0.165919 0.938452
Si Si3 0.352561 0.782265 0.745183
Si Si4 0.609374 0.289862 0.909711
Si Si5 0.143088 0.593877 0.791577
Si Si6 0.290999 0.342154 0.251283
Si Si7 0.139072 0.536876 0.353387
Si Si8 0.899107 0.070143 0.989027
O O1 0.358600 0.174497 0.368738
O O2 0.460660 0.111144 0.540205
O O3 0.992363 0.193355 0.351899
O O4 0.898278 0.090364 0.228959
O O5 0.705746 0.206864 0.803004
O O6 0.060663 0.128244 0.859498
O O7 0.157426 0.117731 0.048633
O O8 0.366728 0.217023 0.073697
O O9 0.453745 0.815580 0.703694
O O10 0.532293 0.212781 0.888085
O O11 0.014753 0.304305 0.086770
O O12 0.928943 0.614996 0.778813
O O13 0.147397 0.517124 0.777993
O O14 0.532997 0.399077 0.311342
O O15 0.500000 0.500000 0.500000
O O16 0.074449 0.573215 0.408303
O O17 0.000000 0.000000 0.000000
#
# Coordination Sequence:
#
# PCOD8129158 Si02
#       8
#     4   4   4   4   4   4   4   4
#     4  11  27  44  69 108 143 184 237 294 355 419
#     4  12  25  44  70 106 137 184 241 291 364 430
#     4  12  25  42  71 101 142 182 227 298 361 420
#     4  11  25  45  69 108 142 182 235 298 364 430
#     4  11  24  46  70  98 142 186 236 290 347 425
#     4  11  25  43  72  99 140 183 234 294 363 426
#     4  12  24  45  71  96 141 191 236 285 347 422
#     4  12  26  43  72 102 137 187 241 296 350 428
#
# _framework density 22.964981000000002
#
# number of rings (size 3 to 8) (size 9 to 14) (size 15 to 20)
#    0.000    0.500    3.750    4.125    3.500    2.000 
#    0.000    0.000    0.000    6.000    0.000    0.000 
#    0.000    0.000    0.000    0.000    0.000    0.000 
#
# Total GULP energy -396466.359577 kJ/mol
# GULP energy per Si atom -12389.573737 kJ/mol
# Density = 2.291271 g / cm^3
# Si number density = 22.964981 Si / 1000 Ang^3
#
#
#
# Elastic Constant Matrix: (Units=GPa)
#
#
# Indices 1 2 3 4 5 6 
#
# 1 75.8398 13.9669 20.8489 0.0000 -12.3164 0.0000
# 2 13.9669 111.7365 48.5419 0.0000 -3.7850 0.0000
# 3 20.8489 48.5419 98.4518 0.0000 -4.9489 0.0000
# 4 0.0000 0.0000 0.0000 41.9490 0.0000 -4.8053
# 5 -12.3164 -3.7850 -4.9489 0.0000 34.3161 0.0000
# 6 0.0000 0.0000 0.0000 -4.8053 0.0000 34.1143
#
#
#
# Elastic Compliance Matrix: (Units=1/GPa)
#
#
# Indices 1 2 3 4 5 6 
#
# 1 0.014798 -0.000547 -0.002619 0.000000 0.004873 0.000000
# 2 -0.000547 0.011416 -0.005499 0.000000 0.000270 0.000000
# 3 -0.002619 -0.005499 0.013443 0.000000 0.000392 0.000000
# 4 0.000000 0.000000 0.000000 0.024229 0.000000 0.003413
# 5 0.004873 0.000270 0.000392 0.000000 0.030976 0.000000
# 6 0.000000 0.000000 0.000000 0.003413 0.000000 0.029794
#
#
# Mechanical properties :
#
#
# Convention : Reuss Voigt Hill
#
# Bulk Modulus (GPa) = 44.79000 50.30482 47.54741
# Shear Modulus (GPa) = 33.46058 35.58725 34.52392
#
# Velocity S-wave (km/s) = 3.82124 3.94081 3.88148
# Velocity P-wave (km/s) = 6.24621 6.53140 6.39040
#
# Compressibility (1/GPa) = 0.02232641
#
# Stress axis : x y z
#
# Youngs Moduli (GPa) = 67.57760 87.59439 74.38749
#
# Poissons Ratio (x) = 0.04790 0.19483
# Poissons Ratio (y) = 0.03695 0.40909
# Poissons Ratio (z) = 0.17700 0.48172
#
# Static dielectric constant tensor:
#      x y z
#    x 4.159950 0.000000 0.018570 
#    y 0.000000 4.451060 0.000000 
#    z 0.018570 0.000000 4.462720 
# 
# 
# High freq. dielectric constant tensor:
#      x y z
#    x 1.914510 0.000000 0.001200 
#    y 0.000000 1.912950 0.000000 
#    z 0.001200 0.000000 1.909840 
# 
# From -- ./inp_files/56231.got.cif
#   From: 2010.03.12/outbox.cif.g09.slc.cpg/sg14_29_cif.got.tgz:56231.got - 2010.03.31 13:35:05.
