data_PCOD8129416
_publ_section_title
;
Structure prediction by ZEFSAII (Michael W. Deem and Ramdas Pophale) SiO2 
 PCOD8129416
Probable space group: P 21/C
;
_chemical_formula_sum "Si O2"
_cell_formula_units_Z 28
_cell_length_a 15.977482
_cell_length_b 12.725872
_cell_length_c 8.255622
_cell_angle_alpha 90.000000
_cell_angle_beta 135.708906
_cell_angle_gamma 90.000000
_cell_volume 1172.169012
_symmetry_space_group_name_H-M "P 21/C"
_symmetry_group_IT_number 14
_symmetry_cell_setting 'monoclinic'
loop_
_space_group_symop_operation_xyz
x,y,z
-x,1/2+y,1/2-z
-x,-y,-z
x,1/2-y,1/2+z
loop_
_atom_site_type_symbol
_atom_site_label
_atom_site_fract_x
_atom_site_fract_y
_atom_site_fract_z
Si Si1 0.761905 0.876825 0.466656
Si Si2 0.638061 0.705153 0.104966
Si Si3 0.015296 0.878709 0.954493
Si Si4 0.720818 0.067304 0.195139
Si Si5 0.554023 0.556274 0.228035
Si Si6 0.860228 0.204667 0.182195
Si Si7 0.605356 0.195072 0.283030
O O1 0.712412 0.811443 0.242704
O O2 0.686738 0.865755 0.526867
O O3 0.895498 0.843184 0.697413
O O4 0.758601 0.996278 0.401084
O O5 0.641546 0.648468 0.284290
O O6 0.499201 0.719909 0.869272
O O7 0.115449 0.855925 0.954210
O O8 0.043556 0.796833 0.140762
O O9 0.000000 0.000000 0.000000
O O10 0.847348 0.114771 0.303193
O O11 0.629651 0.155067 0.135186
O O12 0.645244 0.014155 0.951497
O O13 0.441047 0.597646 0.173439
O O14 0.500000 0.500000 0.000000
O O15 0.728611 0.255102 0.012743
#
# Coordination Sequence:
#
# PCOD8129416 Si02
#       7
#     4   4   4   4   4   4   4
#     4  12  26  50  75 106 152 207 269 324 398 465
#     4  12  25  46  73 111 155 204 255 330 394 480
#     4  12  30  55  84 111 157 212 271 332 395 466
#     4  12  26  46  77 114 158 202 260 324 395 480
#     4  12  26  39  72 116 158 204 253 316 400 486
#     4  12  28  52  81 117 156 208 267 334 391 472
#     4  12  24  48  73 112 160 201 256 320 402 468
#
# _framework density 23.887339999999998
#
# number of rings (size 3 to 8) (size 9 to 14) (size 15 to 20)
#    0.000    0.000    4.286    4.714    6.000    0.571 
#    2.571    0.000    0.000    0.000    0.000    0.000 
#    0.000    0.000    0.000    0.000    0.000    0.000 
#
# Total GULP energy -347023.594387 kJ/mol
# GULP energy per Si atom -12393.699800 kJ/mol
# Density = 2.383297 g / cm^3
# Si number density = 23.887340 Si / 1000 Ang^3
#
#
#
# Elastic Constant Matrix: (Units=GPa)
#
#
# Indices 1 2 3 4 5 6 
#
# 1 120.1737 54.2115 21.0073 0.0000 -13.4380 0.0000
# 2 54.2115 101.1001 30.4411 0.0000 -0.8297 0.0000
# 3 21.0073 30.4411 119.4930 0.0000 10.1337 0.0000
# 4 0.0000 0.0000 0.0000 35.3336 0.0000 -4.3806
# 5 -13.4380 -0.8297 10.1337 0.0000 35.7966 0.0000
# 6 0.0000 0.0000 0.0000 -4.3806 0.0000 57.4601
#
#
#
# Elastic Compliance Matrix: (Units=1/GPa)
#
#
# Indices 1 2 3 4 5 6 
#
# 1 0.011666 -0.005942 -0.000919 0.000000 0.004502 0.000000
# 2 -0.005942 0.013778 -0.002360 0.000000 -0.001243 0.000000
# 3 -0.000919 -0.002360 0.009391 0.000000 -0.003058 0.000000
# 4 0.000000 0.000000 0.000000 0.028572 0.000000 0.002178
# 5 0.004502 -0.001243 -0.003058 0.000000 0.030462 0.000000
# 6 0.000000 0.000000 0.000000 0.002178 0.000000 0.017569
#
#
# Mechanical properties :
#
#
# Convention : Reuss Voigt Hill
#
# Bulk Modulus (GPa) = 61.00183 61.34296 61.17239
# Shear Modulus (GPa) = 36.94318 41.39186 39.16752
#
# Velocity S-wave (km/s) = 3.93690 4.16720 4.05369
# Velocity P-wave (km/s) = 6.80135 6.99213 6.89740
#
# Compressibility (1/GPa) = 0.01639295
#
# Stress axis : x y z
#
# Youngs Moduli (GPa) = 85.72169 72.58185 106.48737
#
# Poissons Ratio (x) = 0.43126 0.09786
# Poissons Ratio (y) = 0.50933 0.25130
# Poissons Ratio (z) = 0.07878 0.17128
#
# Static dielectric constant tensor:
#      x y z
#    x 4.904970 0.000000 0.014680 
#    y 0.000000 5.324560 0.000000 
#    z 0.014680 0.000000 4.185410 
# 
# 
# High freq. dielectric constant tensor:
#      x y z
#    x 1.961640 0.000000 -0.014800 
#    y 0.000000 1.959570 0.000000 
#    z -0.014800 0.000000 1.946570 
# 
# From -- ./inp_files/16438.got.cif
#   From: 2010.03.12/outbox.cif.g09.slc.cpg/sg14_9_cif.got.tgz:16438.got - 2010.03.31 13:35:05.
