data_PCOD8129312
_publ_section_title
;
Structure prediction by ZEFSAII (Michael W. Deem and Ramdas Pophale) SiO2 
 PCOD8129312
Probable space group: P 21/C
;
_chemical_formula_sum "Si O2"
_cell_formula_units_Z 16
_cell_length_a 9.588341
_cell_length_b 10.186518
_cell_length_c 8.316034
_cell_angle_alpha 90.000000
_cell_angle_beta 126.257450
_cell_angle_gamma 90.000000
_cell_volume 654.965785
_symmetry_space_group_name_H-M "P 21/C"
_symmetry_group_IT_number 14
_symmetry_cell_setting 'monoclinic'
loop_
_space_group_symop_operation_xyz
x,y,z
-x,1/2+y,1/2-z
-x,-y,-z
x,1/2-y,1/2+z
loop_
_atom_site_type_symbol
_atom_site_label
_atom_site_fract_x
_atom_site_fract_y
_atom_site_fract_z
Si Si1 0.955611 0.123438 0.361070
Si Si2 0.915491 0.867045 0.886097
Si Si3 0.441581 0.386943 0.687499
Si Si4 0.415575 0.843775 0.044504
O O1 0.768156 0.111353 0.151483
O O2 0.956521 0.250868 0.473542
O O3 0.098860 0.133330 0.317135
O O4 0.000000 0.000000 0.500000
O O5 0.733042 0.843575 0.845330
O O6 0.000000 0.000000 0.000000
O O7 0.441004 0.346268 0.499131
O O8 0.470072 0.545104 0.715469
O O9 0.591087 0.300770 0.878575
#
# Coordination Sequence:
#
# PCOD8129312 Si02
#       4
#     4   4   4   4
#     4  12  27  49  74 107 150 189 245 302 363 435
#     4  12  25  48  73 110 144 194 243 296 367 428
#     4  11  26  48  72 106 145 191 242 296 359 431
#     4  11  26  50  70 109 146 190 244 295 363 427
#
# _framework density 24.428754999999999
#
# number of rings (size 3 to 8) (size 9 to 14) (size 15 to 20)
#    0.000    0.500    2.500    4.500    7.000    1.000 
#    0.000    0.000    0.000    0.000    0.000    0.000 
#    0.000    0.000    0.000    0.000    0.000    0.000 
#
# Total GULP energy -198405.062637 kJ/mol
# GULP energy per Si atom -12400.316415 kJ/mol
# Density = 2.437315 g / cm^3
# Si number density = 24.428755 Si / 1000 Ang^3
#
#
#
# Elastic Constant Matrix: (Units=GPa)
#
#
# Indices 1 2 3 4 5 6 
#
# 1 137.0713 42.8172 48.2302 0.0000 -15.9390 0.0000
# 2 42.8172 200.9518 94.9787 0.0000 -7.3402 0.0000
# 3 48.2302 94.9787 114.7707 0.0000 -9.3106 0.0000
# 4 0.0000 0.0000 0.0000 66.6956 0.0000 -8.6751
# 5 -15.9390 -7.3402 -9.3106 0.0000 41.6092 0.0000
# 6 0.0000 0.0000 0.0000 -8.6751 0.0000 28.1853
#
#
#
# Elastic Compliance Matrix: (Units=1/GPa)
#
#
# Indices 1 2 3 4 5 6 
#
# 1 0.008835 -0.000217 -0.003322 0.000000 0.002603 0.000000
# 2 -0.000217 0.008179 -0.006688 0.000000 -0.000137 0.000000
# 3 -0.003322 -0.006688 0.015730 0.000000 0.001068 0.000000
# 4 0.000000 0.000000 0.000000 0.015619 0.000000 0.004807
# 5 0.002603 -0.000137 0.001068 0.000000 0.025245 0.000000
# 6 0.000000 0.000000 0.000000 0.004807 0.000000 0.036959
#
#
# Mechanical properties :
#
#
# Convention : Reuss Voigt Hill
#
# Bulk Modulus (GPa) = 81.37002 91.64956 86.50979
# Shear Modulus (GPa) = 37.00499 45.08255 41.04377
#
# Velocity S-wave (km/s) = 3.89628 4.30055 4.10340
# Velocity P-wave (km/s) = 7.32276 7.89039 7.61187
#
# Compressibility (1/GPa) = 0.01228954
#
# Stress axis : x y z
#
# Youngs Moduli (GPa) = 113.18904 122.26873 63.57220
#
# Poissons Ratio (x) = 0.02659 0.21116
# Poissons Ratio (y) = 0.02461 0.42517
# Poissons Ratio (z) = 0.37596 0.81774
#
# Static dielectric constant tensor:
#      x y z
#    x 4.918040 0.000000 -0.361050 
#    y 0.000000 4.553380 0.000000 
#    z -0.361050 0.000000 4.156920 
# 
# 
# High freq. dielectric constant tensor:
#      x y z
#    x 1.991830 0.000000 -0.018310 
#    y 0.000000 1.988130 0.000000 
#    z -0.018310 0.000000 1.947290 
# 
# From -- ./inp_files/7354.got.cif
#   From: 2010.03.12/outbox.cif.g09.slc.cpg/sg14_4_cif.got.tgz:7354.got - 2010.03.31 13:35:05.
