data_PCOD8129561
_publ_section_title
;
Structure prediction by ZEFSAII (Michael W. Deem and Ramdas Pophale) SiO2 
 PCOD8129561
Probable space group: C 2/C
;
_chemical_formula_sum "Si O2"
_cell_formula_units_Z 30
_cell_length_a 18.000000
_cell_length_b 18.000000
_cell_length_c 18.000000
_cell_angle_alpha 90.000000
_cell_angle_beta 150.000000
_cell_angle_gamma 90.000000
_cell_volume 2916.000000
_symmetry_space_group_name_H-M "C 2/C"
_symmetry_group_IT_number 15
_symmetry_cell_setting 'monoclinic'
loop_
_space_group_symop_operation_xyz
x,y,z
-x,y,1/2-z
-x,-y,-z
x,-y,1/2+z
1/2+x,1/2+y,z
1/2-x,1/2+y,1/2-z
1/2-x,1/2-y,-z
1/2+x,1/2-y,1/2+z
loop_
_atom_site_type_symbol
_atom_site_label
_atom_site_fract_x
_atom_site_fract_y
_atom_site_fract_z
Si Si1 0.085729 0.594303 0.125465
Si Si2 0.000000 0.799883 0.750000
Si Si3 0.148486 0.482744 0.525822
Si Si4 0.231471 0.084217 0.509422
Si Si5 0.411472 0.394157 0.934066
Si Si6 0.973682 0.994302 0.855950
Si Si7 0.018446 0.263124 0.497117
Si Si8 0.319765 0.197523 0.700082
O O1 0.096020 0.568629 0.048273
O O2 0.242244 0.579557 0.301563
O O3 0.063298 0.683086 0.103871
O O4 0.957260 0.555137 0.062729
O O5 0.861084 0.848011 0.604097
O O6 0.935690 0.750193 0.759245
O O7 0.140689 0.441563 0.438697
O O8 0.322007 0.504876 0.679663
O O9 0.308635 0.116903 0.650766
O O10 0.117540 0.016764 0.428291
O O11 0.464603 0.420299 0.898686
O O12 0.512947 0.431763 0.083949
O O13 0.432628 0.306543 0.957847
O O14 0.160187 0.236917 0.571699
O O15 0.899015 0.312623 0.347875
#
# Coordination Sequence:
#
# PCOD8129561 Si02
#       8
#     8   4   8   8   8   8   8   8
#     4  10  23  40  58  85 122 157 210 260 308 363
#     4  12  22  38  52  88 132 164 192 246 306 378
#     4  10  22  39  59  83 120 167 208 254 303 368
#     4  12  22  39  61  86 127 169 204 252 312 375
#     4  10  21  38  60  87 121 158 208 266 306 369
#     4  10  20  37  60  84 117 163 211 249 310 372
#     4  12  23  40  62  89 125 163 208 259 318 369
#     4  12  25  36  58  92 125 167 203 246 312 386
#
# _framework density 10.288066000000001
#
# number of rings (size 3 to 8) (size 9 to 14) (size 15 to 20)
#    0.000    1.067    5.333    1.200    3.733    2.133 
#    0.000    0.000    0.000    0.800    0.000    0.000 
#    0.000    0.000    0.000    0.000    0.000    0.000 
#
# Total GULP energy -371941.513497 kJ/mol
# GULP energy per Si atom -12398.050450 kJ/mol
# Density = 1.026465 g / cm^3
# Si number density = 10.288066 Si / 1000 Ang^3
#
#
#
# Elastic Constant Matrix: (Units=GPa)
#
#
# Indices 1 2 3 4 5 6 
#
# 1 83.0627 39.2188 19.3751 -0.0035 28.8798 -0.0029
# 2 39.2188 92.9157 29.8366 -0.0031 10.7424 -0.0039
# 3 19.3751 29.8366 64.4094 -0.0011 7.7457 -0.0025
# 4 -0.0035 -0.0031 -0.0011 17.9338 -0.0009 1.4379
# 5 28.8798 10.7424 7.7457 -0.0009 25.5920 -0.0014
# 6 -0.0029 -0.0039 -0.0025 1.4379 -0.0014 35.8144
#
#
#
# Elastic Compliance Matrix: (Units=1/GPa)
#
#
# Indices 1 2 3 4 5 6 
#
# 1 0.023779 -0.006959 -0.001093 0.000002 -0.023582 0.000000
# 2 -0.006959 0.015021 -0.005242 0.000001 0.003135 0.000001
# 3 -0.001093 -0.005242 0.018545 0.000000 -0.002179 0.000001
# 4 0.000002 0.000001 0.000000 0.055941 -0.000001 -0.002246
# 5 -0.023582 0.003135 -0.002179 -0.000001 0.065030 0.000001
# 6 0.000000 0.000001 0.000001 -0.002246 0.000001 0.028012
#
#
# Mechanical properties :
#
#
# Convention : Reuss Voigt Hill
#
# Bulk Modulus (GPa) = 32.51421 46.36099 39.43760
# Shear Modulus (GPa) = 20.56194 25.99851 23.28023
#
# Velocity S-wave (km/s) = 3.16462 3.55847 3.36731
# Velocity P-wave (km/s) = 5.40271 6.28204 5.85889
#
# Compressibility (1/GPa) = 0.03075578
#
# Stress axis : x y z
#
# Youngs Moduli (GPa) = 42.05348 66.57485 53.92390
#
# Poissons Ratio (x) = 0.46333 0.05896
# Poissons Ratio (y) = 0.29267 0.28265
# Poissons Ratio (z) = 0.04598 0.34896
#
# Static dielectric constant tensor:
#      x y z
#    x 3.537450 0.000000 0.218010 
#    y 0.000000 3.511080 0.000000 
#    z 0.218010 0.000000 4.031850 
# 
# 
# High freq. dielectric constant tensor:
#      x y z
#    x 1.777740 0.000000 0.023980 
#    y 0.000000 1.783400 0.000000 
#    z 0.023980 0.000000 1.814190 
# 
# From -- ./inp_files/211773.got.cif
#   From: 2010.06.25/outbox.ucp.g09.slc.cvg/sg15_106_cif.got.tgz:211773.got - 2010.06.28 14:40:10.
