data_PCOD8129368
_publ_section_title
;
Structure prediction by ZEFSAII (Michael W. Deem and Ramdas Pophale) SiO2 
 PCOD8129368
Probable space group: P 21/C
;
_chemical_formula_sum "Si O2"
_cell_formula_units_Z 32
_cell_length_a 10.506863
_cell_length_b 6.885553
_cell_length_c 19.609731
_cell_angle_alpha 90.000000
_cell_angle_beta 85.597855
_cell_angle_gamma 90.000000
_cell_volume 1414.491743
_symmetry_space_group_name_H-M "P 21/C"
_symmetry_group_IT_number 14
_symmetry_cell_setting 'monoclinic'
loop_
_space_group_symop_operation_xyz
x,y,z
-x,1/2+y,1/2-z
-x,-y,-z
x,1/2-y,1/2+z
loop_
_atom_site_type_symbol
_atom_site_label
_atom_site_fract_x
_atom_site_fract_y
_atom_site_fract_z
Si Si1 0.266579 0.834423 0.599196
Si Si2 0.450023 0.131560 0.648352
Si Si3 0.968124 0.297193 0.676628
Si Si4 0.177846 0.927524 0.212688
Si Si5 0.370275 0.349780 0.783140
Si Si6 0.213319 0.396969 0.384718
Si Si7 0.013842 0.435145 0.922731
Si Si8 0.395378 0.866707 0.969563
O O1 0.280611 0.672339 0.657869
O O2 0.339018 0.776855 0.527982
O O3 0.115343 0.832456 0.594636
O O4 0.321545 0.044680 0.619255
O O5 0.416855 0.288437 0.706563
O O6 0.542214 0.232755 0.590487
O O7 0.518071 0.947503 0.678970
O O8 0.873184 0.458459 0.653698
O O9 0.108258 0.391443 0.678523
O O10 0.925491 0.226522 0.753875
O O11 0.965352 0.121702 0.624419
O O12 0.254640 0.000406 0.275991
O O13 0.324640 0.166885 0.828725
O O14 0.131780 0.213703 0.413984
O O15 0.279928 0.501961 0.445896
O O16 0.000000 0.500000 0.000000
O O17 0.500000 0.000000 0.000000
#
# Coordination Sequence:
#
# PCOD8129368 Si02
#       8
#     4   4   4   4   4   4   4   4
#     4  12  26  46  71 107 144 191 238 297 362 435
#     4  12  26  47  73 104 146 188 248 305 360 434
#     4  12  24  46  68 110 146 189 234 294 365 434
#     4  12  23  42  72 102 147 184 236 295 361 436
#     4  12  24  45  73 106 137 190 236 300 361 423
#     4  12  26  48  74 108 148 187 246 297 367 442
#     4  12  28  45  74 107 147 192 235 296 367 441
#     4  12  28  47  73 102 145 194 245 304 358 432
#
# _framework density 22.622966999999999
#
# number of rings (size 3 to 8) (size 9 to 14) (size 15 to 20)
#    0.000    0.000    2.500    7.875    5.250    1.000 
#    0.000    0.000    0.000    0.000    0.000    0.000 
#    0.000    0.000    0.000    0.000    0.000    0.000 
#
# Total GULP energy -397019.840639 kJ/mol
# GULP energy per Si atom -12406.870020 kJ/mol
# Density = 2.257148 g / cm^3
# Si number density = 22.622967 Si / 1000 Ang^3
#
#
#
# Elastic Constant Matrix: (Units=GPa)
#
#
# Indices 1 2 3 4 5 6 
#
# 1 81.4825 30.1316 30.9733 0.0000 -1.2107 0.0000
# 2 30.1316 107.5865 52.7815 0.0000 -12.3889 0.0000
# 3 30.9733 52.7815 138.4211 0.0000 -20.6962 0.0000
# 4 0.0000 0.0000 0.0000 44.5985 0.0000 5.8543
# 5 -1.2107 -12.3889 -20.6962 0.0000 45.8633 0.0000
# 6 0.0000 0.0000 0.0000 5.8543 0.0000 53.2536
#
#
#
# Elastic Compliance Matrix: (Units=1/GPa)
#
#
# Indices 1 2 3 4 5 6 
#
# 1 0.014232 -0.003056 -0.002237 0.000000 -0.001459 0.000000
# 2 -0.003056 0.012152 -0.003722 0.000000 0.001522 0.000000
# 3 -0.002237 -0.003722 0.009635 0.000000 0.003283 0.000000
# 4 0.000000 0.000000 0.000000 0.022751 0.000000 -0.002501
# 5 -0.001459 0.001522 0.003283 0.000000 0.023658 0.000000
# 6 0.000000 0.000000 0.000000 -0.002501 0.000000 0.019053
#
#
# Mechanical properties :
#
#
# Convention : Reuss Voigt Hill
#
# Bulk Modulus (GPa) = 55.59487 61.69588 58.64538
# Shear Modulus (GPa) = 39.83797 42.98331 41.41064
#
# Velocity S-wave (km/s) = 4.20092 4.36361 4.28304
# Velocity P-wave (km/s) = 6.93961 7.26076 7.10200
#
# Compressibility (1/GPa) = 0.01798727
#
# Stress axis : x y z
#
# Youngs Moduli (GPa) = 70.26661 82.28929 103.78572
#
# Poissons Ratio (x) = 0.25150 0.23220
# Poissons Ratio (y) = 0.21475 0.38632
# Poissons Ratio (z) = 0.15721 0.30631
#
# Static dielectric constant tensor:
#      x y z
#    x 4.382970 0.000000 0.074410 
#    y 0.000000 3.958730 0.000000 
#    z 0.074410 0.000000 4.285470 
# 
# 
# High freq. dielectric constant tensor:
#      x y z
#    x 1.904320 0.000000 0.001450 
#    y 0.000000 1.904870 0.000000 
#    z 0.001450 0.000000 1.906340 
# 
# From -- ./inp_files/66500.got.cif
#   From: 2010.03.12/outbox.cif.g09.slc.cpg/sg14_34_cif.got.tgz:66500.got - 2010.03.31 13:35:05.
