data_PCOD8129566
_publ_section_title
;
Structure prediction by ZEFSAII (Michael W. Deem and Ramdas Pophale) SiO2 
 PCOD8129566
Probable space group: C 2/C
;
_chemical_formula_sum "Si O2"
_cell_formula_units_Z 30
_cell_length_a 21.000000
_cell_length_b 12.000000
_cell_length_c 24.000000
_cell_angle_alpha 90.000000
_cell_angle_beta 150.000000
_cell_angle_gamma 90.000000
_cell_volume 3024.000000
_symmetry_space_group_name_H-M "C 2/C"
_symmetry_group_IT_number 15
_symmetry_cell_setting 'monoclinic'
loop_
_space_group_symop_operation_xyz
x,y,z
-x,y,1/2-z
-x,-y,-z
x,-y,1/2+z
1/2+x,1/2+y,z
1/2-x,1/2+y,1/2-z
1/2-x,1/2-y,-z
1/2+x,1/2-y,1/2+z
loop_
_atom_site_type_symbol
_atom_site_label
_atom_site_fract_x
_atom_site_fract_y
_atom_site_fract_z
Si Si1 0.698352 0.355574 0.927160
Si Si2 0.381405 0.055385 0.067728
Si Si3 0.922455 0.668850 0.938241
Si Si4 0.408733 0.583163 0.392622
Si Si5 0.500000 0.179573 0.250000
Si Si6 0.562358 0.423785 0.719396
Si Si7 0.108270 0.460265 0.659175
Si Si8 0.309595 0.653684 0.657266
O O1 0.648290 0.338571 0.824188
O O2 0.585090 0.409305 0.877387
O O3 0.750000 0.250000 0.000000
O O4 0.821182 0.433890 0.019957
O O5 0.399075 0.100661 0.142942
O O6 0.522992 0.049385 0.149394
O O7 0.285994 0.143307 0.967016
O O8 0.954134 0.793949 0.944101
O O9 0.904772 0.586321 0.872842
O O10 0.783258 0.673011 0.861082
O O11 0.044171 0.626171 0.066439
O O12 0.500000 0.500000 0.500000
O O13 0.425671 0.581028 0.338367
O O14 0.256618 0.564290 0.287063
O O15 0.585542 0.250576 0.271702
O O16 0.607076 0.544249 0.772134
#
# Coordination Sequence:
#
# PCOD8129566 Si02
#       8
#     8   8   8   8   4   8   8   8
#     4  10  23  43  65  93 127 180 225 273 341 404
#     4  10  23  39  62  95 126 165 220 265 327 404
#     4  10  23  42  70  93 132 181 225 282 347 415
#     4  12  27  42  68 106 135 177 233 288 346 424
#     4  12  22  34  64  98 130 162 204 282 326 390
#     4  10  23  44  64  92 133 176 223 278 336 420
#     4  10  23  45  67  96 135 179 225 274 354 415
#     4  10  20  42  65  88 127 175 212 261 342 406
#
# _framework density 9.9206350000000008
#
# number of rings (size 3 to 8) (size 9 to 14) (size 15 to 20)
#    0.000    1.600    1.333    2.800    5.600    5.333 
#    0.000    0.000    0.000    0.000    0.000    0.000 
#    0.000    0.000    0.000    0.000    0.000    0.000 
#
# Total GULP energy -371642.824529 kJ/mol
# GULP energy per Si atom -12388.094151 kJ/mol
# Density = 0.989806 g / cm^3
# Si number density = 9.920635 Si / 1000 Ang^3
#
#
#
# Elastic Constant Matrix: (Units=GPa)
#
#
# Indices 1 2 3 4 5 6 
#
# 1 95.3579 29.8131 53.0793 -0.0002 0.2214 -0.0001
# 2 29.8131 104.8963 56.2613 0.0006 -10.7435 0.0004
# 3 53.0793 56.2613 152.1546 0.0005 6.4135 0.0005
# 4 -0.0002 0.0006 0.0005 37.1146 0.0006 -2.0433
# 5 0.2214 -10.7435 6.4135 0.0006 43.5264 0.0003
# 6 -0.0001 0.0004 0.0005 -2.0433 0.0003 26.5043
#
#
#
# Elastic Compliance Matrix: (Units=1/GPa)
#
#
# Indices 1 2 3 4 5 6 
#
# 1 0.013227 -0.001581 -0.004036 0.000000 0.000137 0.000000
# 2 -0.001581 0.012671 -0.004293 0.000000 0.003768 0.000000
# 3 -0.004036 -0.004293 0.009671 0.000000 -0.002464 0.000000
# 4 0.000000 0.000000 0.000000 0.027058 0.000000 0.002086
# 5 0.000137 0.003768 -0.002464 0.000000 0.024267 0.000000
# 6 0.000000 0.000000 0.000000 0.002086 0.000000 0.037891
#
#
# Mechanical properties :
#
#
# Convention : Reuss Voigt Hill
#
# Bulk Modulus (GPa) = 63.48738 70.07960 66.78349
# Shear Modulus (GPa) = 33.36603 35.64607 34.50605
#
# Velocity S-wave (km/s) = 4.10524 4.24319 4.17478
# Velocity P-wave (km/s) = 7.38497 7.70733 7.54787
#
# Compressibility (1/GPa) = 0.01575116
#
# Stress axis : x y z
#
# Youngs Moduli (GPa) = 75.60280 78.92199 103.40037
#
# Poissons Ratio (x) = 0.12476 0.41727
# Poissons Ratio (y) = 0.11951 0.44385
# Poissons Ratio (z) = 0.30510 0.33878
#
# Static dielectric constant tensor:
#      x y z
#    x 3.859460 0.000000 -0.080210 
#    y 0.000000 3.632540 0.000000 
#    z -0.080210 0.000000 4.204510 
# 
# 
# High freq. dielectric constant tensor:
#      x y z
#    x 1.785550 0.000000 0.008340 
#    y 0.000000 1.772010 0.000000 
#    z 0.008340 0.000000 1.804720 
# 
# From -- ./inp_files/280090.got.cif
#   From: 2010.06.25/outbox.ucp.g09.slc.cvg/sg15_141_cif.got.tgz:280090.got - 2010.06.28 14:40:10.
