data_PCOD8129464
_publ_section_title
;
Structure prediction by ZEFSAII (Michael W. Deem and Ramdas Pophale) SiO2 
 PCOD8129464
Probable space group: P 21/C
;
_chemical_formula_sum "Si O2"
_cell_formula_units_Z 20
_cell_length_a 12.001274
_cell_length_b 15.047695
_cell_length_c 8.693833
_cell_angle_alpha 90.000000
_cell_angle_beta 33.538050
_cell_angle_gamma 90.000000
_cell_volume 867.428234
_symmetry_space_group_name_H-M "P 21/C"
_symmetry_group_IT_number 14
_symmetry_cell_setting 'monoclinic'
loop_
_space_group_symop_operation_xyz
x,y,z
-x,1/2+y,1/2-z
-x,-y,-z
x,1/2-y,1/2+z
loop_
_atom_site_type_symbol
_atom_site_label
_atom_site_fract_x
_atom_site_fract_y
_atom_site_fract_z
Si Si1 0.527664 0.194429 0.709492
Si Si2 0.313227 0.451406 0.290775
Si Si3 0.190441 0.165842 0.653602
Si Si4 0.800426 0.221124 0.668881
Si Si5 0.042478 0.567038 0.813173
O O1 0.382603 0.110311 0.853352
O O2 0.691200 0.173201 0.652182
O O3 0.648687 0.205441 0.410719
O O4 0.399264 0.282159 0.896008
O O5 0.193690 0.393620 0.302793
O O6 0.165001 0.523508 0.533136
O O7 0.500000 0.500000 0.000000
O O8 0.160282 0.105111 0.535205
O O9 0.008565 0.236023 0.874441
O O10 0.831891 0.149306 0.766235
O O11 0.000000 0.500000 0.000000
#
# Coordination Sequence:
#
# PCOD8129464 Si02
#       5
#     4   4   4   4   4
#     4  12  26  47  78 102 139 194 246 287 353 440
#     4  12  27  48  72 107 148 191 232 302 369 418
#     4  12  26  51  74 101 147 194 240 291 358 435
#     4  12  26  48  74 105 141 191 245 287 355 438
#     4  12  28  44  73 110 143 185 237 305 358 413
#
# _framework density 23.056661999999999
#
# number of rings (size 3 to 8) (size 9 to 14) (size 15 to 20)
#    0.000    0.000    4.000    5.400    8.400    0.800 
#    0.000    0.000    0.000    0.000    0.000    0.000 
#    0.000    0.000    0.000    0.000    0.000    0.000 
#
# Total GULP energy -248131.148226 kJ/mol
# GULP energy per Si atom -12406.557411 kJ/mol
# Density = 2.300418 g / cm^3
# Si number density = 23.056662 Si / 1000 Ang^3
#
#
#
# Elastic Constant Matrix: (Units=GPa)
#
#
# Indices 1 2 3 4 5 6 
#
# 1 178.5102 48.5857 17.3500 0.0000 -8.9366 0.0000
# 2 48.5857 89.1719 14.5247 0.0000 -2.3702 0.0000
# 3 17.3500 14.5247 86.5169 0.0000 2.3358 0.0000
# 4 0.0000 0.0000 0.0000 31.0582 0.0000 19.0795
# 5 -8.9366 -2.3702 2.3358 0.0000 33.3281 0.0000
# 6 0.0000 0.0000 0.0000 19.0795 0.0000 51.1551
#
#
#
# Elastic Compliance Matrix: (Units=1/GPa)
#
#
# Indices 1 2 3 4 5 6 
#
# 1 0.006708 -0.003481 -0.000804 0.000000 0.001607 0.000000
# 2 -0.003481 0.013367 -0.001549 0.000000 0.000126 0.000000
# 3 -0.000804 -0.001549 0.012011 0.000000 -0.001168 0.000000
# 4 0.000000 0.000000 0.000000 0.041767 0.000000 -0.015578
# 5 0.001607 0.000126 -0.001168 0.000000 0.030527 0.000000
# 6 0.000000 0.000000 0.000000 -0.015578 0.000000 0.025359
#
#
# Mechanical properties :
#
#
# Convention : Reuss Voigt Hill
#
# Bulk Modulus (GPa) = 48.97949 57.23553 53.10751
# Shear Modulus (GPa) = 33.73505 41.35751 37.54628
#
# Velocity S-wave (km/s) = 3.82925 4.23984 4.03977
# Velocity P-wave (km/s) = 6.39062 6.98900 6.69650
#
# Compressibility (1/GPa) = 0.02041671
#
# Stress axis : x y z
#
# Youngs Moduli (GPa) = 149.07479 74.81253 83.25467
#
# Poissons Ratio (x) = 0.26044 0.06695
# Poissons Ratio (y) = 0.51896 0.12899
# Poissons Ratio (z) = 0.11988 0.11591
#
# Static dielectric constant tensor:
#      x y z
#    x 4.381070 0.000000 -0.027630 
#    y 0.000000 5.896470 0.000000 
#    z -0.027630 0.000000 4.148620 
# 
# 
# High freq. dielectric constant tensor:
#      x y z
#    x 1.935110 0.000000 0.000130 
#    y 0.000000 1.915980 0.000000 
#    z 0.000130 0.000000 1.909730 
# 
# From -- ./inp_files/5489.got.cif
#   From: 2010.03.12/outbox.cif.g09.slc.cpg/sg14_3_cif.got.tgz:5489.got - 2010.03.31 13:35:05.
