data_PCOD8129128
_publ_section_title
;
Structure prediction by ZEFSAII (Michael W. Deem and Ramdas Pophale) SiO2 
 PCOD8129128
Probable space group: P 21/C
;
_chemical_formula_sum "Si O2"
_cell_formula_units_Z 16
_cell_length_a 6.475411
_cell_length_b 15.050882
_cell_length_c 9.554351
_cell_angle_alpha 90.000000
_cell_angle_beta 136.174548
_cell_angle_gamma 90.000000
_cell_volume 644.803684
_symmetry_space_group_name_H-M "P 21/C"
_symmetry_group_IT_number 14
_symmetry_cell_setting 'monoclinic'
loop_
_space_group_symop_operation_xyz
x,y,z
-x,1/2+y,1/2-z
-x,-y,-z
x,1/2-y,1/2+z
loop_
_atom_site_type_symbol
_atom_site_label
_atom_site_fract_x
_atom_site_fract_y
_atom_site_fract_z
Si Si1 0.578672 0.124966 0.135466
Si Si2 0.480168 0.913737 0.587539
Si Si3 0.915057 0.300977 0.294484
Si Si4 0.104410 0.586711 0.466879
O O1 0.596927 0.065397 0.285543
O O2 0.845609 0.197178 0.265191
O O3 0.651831 0.063881 0.034152
O O4 0.265898 0.176397 0.965802
O O5 0.236689 0.844176 0.415971
O O6 0.809922 0.870704 0.749453
O O7 0.500000 0.000000 0.500000
O O8 0.760774 0.343404 0.357388
O O9 0.000000 0.500000 0.500000
#
# Coordination Sequence:
#
# PCOD8129128 Si02
#       4
#     4   4   4   4
#     4  11  26  43  75 101 143 188 232 297 352 419
#     4  11  24  45  69 106 143 186 234 288 354 425
#     4  11  24  46  70 105 140 184 240 288 359 421
#     4  11  24  46  68 105 146 182 236 290 351 425
#
# _framework density 24.813752000000001
#
# number of rings (size 3 to 8) (size 9 to 14) (size 15 to 20)
#    0.000    1.000    2.500    3.000    0.000   13.000 
#    0.000    0.000    0.000    0.000    0.000    0.000 
#    0.000    0.000    0.000    0.000    0.000    0.000 
#
# Total GULP energy -198279.514298 kJ/mol
# GULP energy per Si atom -12392.469644 kJ/mol
# Density = 2.475727 g / cm^3
# Si number density = 24.813752 Si / 1000 Ang^3
#
#
#
# Elastic Constant Matrix: (Units=GPa)
#
#
# Indices 1 2 3 4 5 6 
#
# 1 203.4436 45.1787 56.7407 0.0000 -39.6581 0.0000
# 2 45.1787 60.5227 14.3938 0.0000 -13.9351 0.0000
# 3 56.7407 14.3938 124.2273 0.0000 -10.3736 0.0000
# 4 0.0000 0.0000 0.0000 38.1423 0.0000 -5.1383
# 5 -39.6581 -13.9351 -10.3736 0.0000 45.5962 0.0000
# 6 0.0000 0.0000 0.0000 -5.1383 0.0000 40.2912
#
#
#
# Elastic Compliance Matrix: (Units=1/GPa)
#
#
# Indices 1 2 3 4 5 6 
#
# 1 0.007386 -0.003833 -0.002539 0.000000 0.004675 0.000000
# 2 -0.003833 0.020095 -0.000350 0.000000 0.002728 0.000000
# 3 -0.002539 -0.000350 0.009232 0.000000 -0.000215 0.000000
# 4 0.000000 0.000000 0.000000 0.026676 0.000000 0.003402
# 5 0.004675 0.002728 -0.000215 0.000000 0.026783 0.000000
# 6 0.000000 0.000000 0.000000 0.003402 0.000000 0.025253
#
#
# Mechanical properties :
#
#
# Convention : Reuss Voigt Hill
#
# Bulk Modulus (GPa) = 42.97485 68.98000 55.97743
# Shear Modulus (GPa) = 36.59629 42.93131 39.76380
#
# Velocity S-wave (km/s) = 3.84453 4.16401 4.00745
# Velocity P-wave (km/s) = 6.08800 7.13989 6.63483
#
# Compressibility (1/GPa) = 0.02326942
#
# Stress axis : x y z
#
# Youngs Moduli (GPa) = 135.38971 49.76250 108.31829
#
# Poissons Ratio (x) = 0.19075 0.27503
# Poissons Ratio (y) = 0.51899 0.03788
# Poissons Ratio (z) = 0.34376 0.01740
#
# Static dielectric constant tensor:
#      x y z
#    x 5.136880 0.000000 -0.250520 
#    y 0.000000 4.225810 0.000000 
#    z -0.250520 0.000000 5.077780 
# 
# 
# High freq. dielectric constant tensor:
#      x y z
#    x 2.000410 0.000000 -0.011550 
#    y 0.000000 1.971170 0.000000 
#    z -0.011550 0.000000 2.004030 
# 
# From -- ./inp_files/5087.got.cif
#   From: 2010.03.12/outbox.cif.g09.slc.cpg/sg14_3_cif.got.tgz:5087.got - 2010.03.31 13:35:05.
