data_PCOD8129447
_publ_section_title
;
Structure prediction by ZEFSAII (Michael W. Deem and Ramdas Pophale) SiO2 
 PCOD8129447
Probable space group: P 21/C
;
_chemical_formula_sum "Si O2"
_cell_formula_units_Z 16
_cell_length_a 7.856003
_cell_length_b 18.697223
_cell_length_c 6.934909
_cell_angle_alpha 90.000000
_cell_angle_beta 39.333907
_cell_angle_gamma 90.000000
_cell_volume 645.651665
_symmetry_space_group_name_H-M "P 21/C"
_symmetry_group_IT_number 14
_symmetry_cell_setting 'monoclinic'
loop_
_space_group_symop_operation_xyz
x,y,z
-x,1/2+y,1/2-z
-x,-y,-z
x,1/2-y,1/2+z
loop_
_atom_site_type_symbol
_atom_site_label
_atom_site_fract_x
_atom_site_fract_y
_atom_site_fract_z
Si Si1 0.868386 0.697326 0.956576
Si Si2 0.046221 0.349083 0.696796
Si Si3 0.222356 0.003588 0.138943
Si Si4 0.306954 0.635693 0.328895
O O1 0.987380 0.664221 0.046945
O O2 0.616931 0.650914 0.102202
O O3 0.790694 0.781692 0.040766
O O4 0.116497 0.695810 0.591010
O O5 0.209238 0.422825 0.528040
O O6 0.756686 0.359902 0.844683
O O7 0.203910 0.939831 0.001502
O O8 0.000000 0.000000 0.500000
O O9 0.500000 0.000000 0.000000
#
# Coordination Sequence:
#
# PCOD8129447 Si02
#       4
#     4   4   4   4
#     4  12  28  45  75 109 147 188 250 299 362 443
#     4  12  27  48  78 106 151 195 244 303 373 431
#     4  12  25  48  76 107 148 192 246 304 360 439
#     4  12  27  49  73 111 144 196 240 303 368 432
#
# _framework density 24.781165000000001
#
# number of rings (size 3 to 8) (size 9 to 14) (size 15 to 20)
#    0.000    0.000    7.500    0.750    3.500    6.000 
#    0.000    5.000    0.000    0.000    0.000    0.000 
#    0.000    0.000    0.000    0.000    0.000    0.000 
#
# Total GULP energy -198349.040787 kJ/mol
# GULP energy per Si atom -12396.815049 kJ/mol
# Density = 2.472476 g / cm^3
# Si number density = 24.781165 Si / 1000 Ang^3
#
#
#
# Elastic Constant Matrix: (Units=GPa)
#
#
# Indices 1 2 3 4 5 6 
#
# 1 222.1854 39.4367 39.1808 0.0000 -17.3529 0.0000
# 2 39.4367 160.0749 0.2349 0.0000 -6.3743 0.0000
# 3 39.1808 0.2349 77.0515 0.0000 -25.1485 0.0000
# 4 0.0000 0.0000 0.0000 30.7558 0.0000 6.3409
# 5 -17.3529 -6.3743 -25.1485 0.0000 21.0525 0.0000
# 6 0.0000 0.0000 0.0000 6.3409 0.0000 53.1123
#
#
#
# Elastic Compliance Matrix: (Units=1/GPa)
#
#
# Indices 1 2 3 4 5 6 
#
# 1 0.005212 -0.001231 -0.002239 0.000000 0.001249 0.000000
# 2 -0.001231 0.006661 0.001529 0.000000 0.002828 0.000000
# 3 -0.002239 0.001529 0.022391 0.000000 0.025365 0.000000
# 4 0.000000 0.000000 0.000000 0.033335 0.000000 -0.003980
# 5 0.001249 0.002828 0.025365 0.000000 0.079686 0.000000
# 6 0.000000 0.000000 0.000000 -0.003980 0.000000 0.019303
#
#
# Mechanical properties :
#
#
# Convention : Reuss Voigt Hill
#
# Bulk Modulus (GPa) = 32.91523 68.55739 50.73631
# Shear Modulus (GPa) = 27.68619 46.34807 37.01713
#
# Velocity S-wave (km/s) = 3.34612 4.32938 3.86911
# Velocity P-wave (km/s) = 5.31412 7.26062 6.36225
#
# Compressibility (1/GPa) = 0.03038107
#
# Stress axis : x y z
#
# Youngs Moduli (GPa) = 191.88170 150.13407 44.66128
#
# Poissons Ratio (x) = 0.18480 0.09999
# Poissons Ratio (y) = 0.23619 -0.06828
# Poissons Ratio (z) = 0.42958 -0.22952
#
# Static dielectric constant tensor:
#      x y z
#    x 4.733250 0.000000 0.036020 
#    y 0.000000 5.310720 0.000000 
#    z 0.036020 0.000000 3.869080 
# 
# 
# High freq. dielectric constant tensor:
#      x y z
#    x 2.012760 0.000000 -0.002000 
#    y 0.000000 2.015440 0.000000 
#    z -0.002000 0.000000 1.946040 
# 
# From -- ./inp_files/9304.got.cif
#   From: 2010.03.12/outbox.cif.g09.slc.cpg/sg14_5_cif.got.tgz:9304.got - 2010.03.31 13:35:05.
