data_PCOD8129151
_publ_section_title
;
Structure prediction by ZEFSAII (Michael W. Deem and Ramdas Pophale) SiO2 
 PCOD8129151
Probable space group: P 21/C
;
_chemical_formula_sum "Si O2"
_cell_formula_units_Z 28
_cell_length_a 11.394551
_cell_length_b 7.152001
_cell_length_c 18.160543
_cell_angle_alpha 90.000000
_cell_angle_beta 115.012543
_cell_angle_gamma 90.000000
_cell_volume 1341.173544
_symmetry_space_group_name_H-M "P 21/C"
_symmetry_group_IT_number 14
_symmetry_cell_setting 'monoclinic'
loop_
_space_group_symop_operation_xyz
x,y,z
-x,1/2+y,1/2-z
-x,-y,-z
x,1/2-y,1/2+z
loop_
_atom_site_type_symbol
_atom_site_label
_atom_site_fract_x
_atom_site_fract_y
_atom_site_fract_z
Si Si1 0.608311 0.139403 0.357882
Si Si2 0.556012 0.483147 0.434382
Si Si3 0.163936 0.574935 0.453693
Si Si4 0.830625 0.123091 0.666018
Si Si5 0.101980 0.651191 0.052415
Si Si6 0.582587 0.198980 0.693654
Si Si7 0.024451 0.257385 0.835569
O O1 0.536778 0.274330 0.397379
O O2 0.751577 0.082590 0.423755
O O3 0.627786 0.246584 0.286559
O O4 0.527108 0.954595 0.327593
O O5 0.500000 0.500000 0.500000
O O6 0.709553 0.525149 0.478225
O O7 0.479338 0.624112 0.362460
O O8 0.204012 0.750044 0.413095
O O9 0.078730 0.658074 0.498929
O O10 0.089159 0.427982 0.384530
O O11 0.704794 0.112386 0.683869
O O12 0.953785 0.211260 0.740545
O O13 0.866520 0.914310 0.649251
O O14 0.082610 0.678415 0.134189
O O15 0.000000 0.500000 0.000000
#
# Coordination Sequence:
#
# PCOD8129151 Si02
#       7
#     4   4   4   4   4   4   4
#     4  11  26  46  69 100 139 183 237 280 348 419
#     4  11  25  44  69 100 141 177 224 293 343 408
#     4  11  25  44  67 103 136 176 227 282 347 400
#     4  12  25  43  70 102 137 173 233 279 343 418
#     4  11  24  46  69  99 139 179 230 286 339 414
#     4  12  25  46  70 101 136 184 233 282 345 420
#     4  12  25  45  69  99 134 183 223 284 343 408
#
# _framework density 20.877237999999998
#
# number of rings (size 3 to 8) (size 9 to 14) (size 15 to 20)
#    0.000    0.571    7.143    0.429    4.000    0.571 
#    5.143    0.000    0.000    0.000    0.000    0.000 
#    0.000    0.000    0.000    0.000    0.000    0.000 
#
# Total GULP energy -347262.340622 kJ/mol
# GULP energy per Si atom -12402.226451 kJ/mol
# Density = 2.082972 g / cm^3
# Si number density = 20.877238 Si / 1000 Ang^3
#
#
#
# Elastic Constant Matrix: (Units=GPa)
#
#
# Indices 1 2 3 4 5 6 
#
# 1 98.9959 48.8654 19.5806 0.0000 4.0892 0.0000
# 2 48.8654 92.5796 22.5366 0.0000 14.9011 0.0000
# 3 19.5806 22.5366 85.4763 0.0000 5.2894 0.0000
# 4 0.0000 0.0000 0.0000 25.5305 0.0000 -1.0569
# 5 4.0892 14.9011 5.2894 0.0000 38.2443 0.0000
# 6 0.0000 0.0000 0.0000 -1.0569 0.0000 36.8839
#
#
#
# Elastic Compliance Matrix: (Units=1/GPa)
#
#
# Indices 1 2 3 4 5 6 
#
# 1 0.013883 -0.007241 -0.001366 0.000000 0.001526 0.000000
# 2 -0.007241 0.015997 -0.002241 0.000000 -0.005149 0.000000
# 3 -0.001366 -0.002241 0.012648 0.000000 -0.000730 0.000000
# 4 0.000000 0.000000 0.000000 0.039215 0.000000 0.001124
# 5 0.001526 -0.005149 -0.000730 0.000000 0.028092 0.000000
# 6 0.000000 0.000000 0.000000 0.001124 0.000000 0.027144
#
#
# Mechanical properties :
#
#
# Convention : Reuss Voigt Hill
#
# Bulk Modulus (GPa) = 47.99750 51.00188 49.49969
# Shear Modulus (GPa) = 30.19002 32.53636 31.36319
#
# Velocity S-wave (km/s) = 3.80685 3.95202 3.88011
# Velocity P-wave (km/s) = 6.50869 6.73105 6.62081
#
# Compressibility (1/GPa) = 0.02083442
#
# Stress axis : x y z
#
# Youngs Moduli (GPa) = 72.03289 62.50988 79.06457
#
# Poissons Ratio (x) = 0.45261 0.10796
# Poissons Ratio (y) = 0.52157 0.17715
# Poissons Ratio (z) = 0.09836 0.14006
#
# Static dielectric constant tensor:
#      x y z
#    x 4.205000 0.000000 -0.615410 
#    y 0.000000 3.557660 0.000000 
#    z -0.615410 0.000000 5.461310 
# 
# 
# High freq. dielectric constant tensor:
#      x y z
#    x 1.820670 0.000000 -0.004990 
#    y 0.000000 1.815490 0.000000 
#    z -0.004990 0.000000 1.839650 
# 
# From -- ./inp_files/66558.got.cif
#   From: 2010.03.12/outbox.cif.g09.slc.cpg/sg14_34_cif.got.tgz:66558.got - 2010.03.31 13:35:05.
