data_PCOD8129413
_publ_section_title
;
Structure prediction by ZEFSAII (Michael W. Deem and Ramdas Pophale) SiO2 
 PCOD8129413
Probable space group: P 21/C
;
_chemical_formula_sum "Si O2"
_cell_formula_units_Z 20
_cell_length_a 11.564628
_cell_length_b 11.490737
_cell_length_c 14.493204
_cell_angle_alpha 90.000000
_cell_angle_beta 27.589027
_cell_angle_gamma 90.000000
_cell_volume 891.955949
_symmetry_space_group_name_H-M "P 21/C"
_symmetry_group_IT_number 14
_symmetry_cell_setting 'monoclinic'
loop_
_space_group_symop_operation_xyz
x,y,z
-x,1/2+y,1/2-z
-x,-y,-z
x,1/2-y,1/2+z
loop_
_atom_site_type_symbol
_atom_site_label
_atom_site_fract_x
_atom_site_fract_y
_atom_site_fract_z
Si Si1 0.666027 0.968653 0.106596
Si Si2 0.459316 0.094219 0.606306
Si Si3 0.967818 0.303922 0.382485
Si Si4 0.825271 0.111343 0.621588
Si Si5 0.936398 0.224182 0.213881
O O1 0.529791 0.965596 0.301725
O O2 0.463422 0.930924 0.172728
O O3 0.907969 0.885578 0.932593
O O4 0.748083 0.100819 0.031829
O O5 0.672014 0.190005 0.445240
O O6 0.190677 0.153069 0.788821
O O7 0.500000 0.000000 0.500000
O O8 0.862867 0.186130 0.502138
O O9 0.075609 0.283302 0.202707
O O10 0.889305 0.185991 0.665908
O O11 0.000000 0.000000 0.500000
#
# Coordination Sequence:
#
# PCOD8129413 Si02
#       5
#     4   4   4   4   4
#     4  12  27  50  76 109 149 195 254 308 372 451
#     4  12  24  47  78 106 141 191 254 304 371 441
#     4  12  27  48  77 108 149 197 249 309 377 444
#     4  12  30  48  77 111 156 195 250 314 375 447
#     4  12  27  49  77 109 147 200 243 311 377 445
#
# _framework density 22.422632
#
# number of rings (size 3 to 8) (size 9 to 14) (size 15 to 20)
#    0.000    0.000    6.000    3.000   11.200    0.800 
#    0.000    0.000    0.000    0.000    0.000    0.000 
#    0.000    0.000    0.000    0.000    0.000    0.000 
#
# Total GULP energy -248116.495573 kJ/mol
# GULP energy per Si atom -12405.824779 kJ/mol
# Density = 2.237160 g / cm^3
# Si number density = 22.422632 Si / 1000 Ang^3
#
#
#
# Elastic Constant Matrix: (Units=GPa)
#
#
# Indices 1 2 3 4 5 6 
#
# 1 105.5712 48.3171 27.8804 0.0000 15.8039 0.0000
# 2 48.3171 150.1353 51.3914 0.0000 5.3533 0.0000
# 3 27.8804 51.3914 93.6524 0.0000 1.6658 0.0000
# 4 0.0000 0.0000 0.0000 44.0732 0.0000 3.3061
# 5 15.8039 5.3533 1.6658 0.0000 55.2534 0.0000
# 6 0.0000 0.0000 0.0000 3.3061 0.0000 32.1750
#
#
#
# Elastic Compliance Matrix: (Units=1/GPa)
#
#
# Indices 1 2 3 4 5 6 
#
# 1 0.011804 -0.003086 -0.001767 0.000000 -0.003024 0.000000
# 2 -0.003086 0.009032 -0.004040 0.000000 0.000129 0.000000
# 3 -0.001767 -0.004040 0.013412 0.000000 0.000492 0.000000
# 4 0.000000 0.000000 0.000000 0.022866 0.000000 -0.002350
# 5 -0.003024 0.000129 0.000492 0.000000 0.018936 0.000000
# 6 0.000000 0.000000 0.000000 -0.002350 0.000000 0.031321
#
#
# Mechanical properties :
#
#
# Convention : Reuss Voigt Hill
#
# Bulk Modulus (GPa) = 60.74474 67.17075 63.95774
# Shear Modulus (GPa) = 38.27187 41.08500 39.67844
#
# Velocity S-wave (km/s) = 4.13588 4.28518 4.21119
# Velocity P-wave (km/s) = 7.06802 7.38278 7.22711
#
# Compressibility (1/GPa) = 0.01646233
#
# Stress axis : x y z
#
# Youngs Moduli (GPa) = 84.71683 110.71606 74.56102
#
# Poissons Ratio (x) = 0.34170 0.13173
# Poissons Ratio (y) = 0.26146 0.30122
# Poissons Ratio (z) = 0.14967 0.44728
#
# Static dielectric constant tensor:
#      x y z
#    x 4.468590 0.000000 -0.249880 
#    y 0.000000 3.934880 0.000000 
#    z -0.249880 0.000000 4.404870 
# 
# 
# High freq. dielectric constant tensor:
#      x y z
#    x 1.902580 0.000000 0.000290 
#    y 0.000000 1.891050 0.000000 
#    z 0.000290 0.000000 1.886420 
# 
# From -- ./inp_files/28882.got.cif
#   From: 2010.03.12/outbox.cif.g09.slc.cpg/sg14_15_cif.got.tgz:28882.got - 2010.03.31 13:35:05.
