data_PCOD8129691
_publ_section_title
;
Structure prediction by ZEFSAII (Michael W. Deem and Ramdas Pophale) SiO2 
 PCOD8129691
Probable space group: C 2/C
;
_chemical_formula_sum "Si O2"
_cell_formula_units_Z 64
_cell_length_a 25.991363
_cell_length_b 17.977351
_cell_length_c 9.794089
_cell_angle_alpha 90.000000
_cell_angle_beta 96.843700
_cell_angle_gamma 90.000000
_cell_volume 4543.738570
_symmetry_space_group_name_H-M "C 2/C"
_symmetry_group_IT_number 15
_symmetry_cell_setting 'monoclinic'
loop_
_space_group_symop_operation_xyz
x,y,z
-x,y,1/2-z
-x,-y,-z
x,-y,1/2+z
1/2+x,1/2+y,z
1/2-x,1/2+y,1/2-z
1/2-x,1/2-y,-z
1/2+x,1/2-y,1/2+z
loop_
_atom_site_type_symbol
_atom_site_label
_atom_site_fract_x
_atom_site_fract_y
_atom_site_fract_z
Si Si1 0.661753 0.600642 0.536007
Si Si2 0.916961 0.977205 0.901172
Si Si3 0.248471 0.007168 0.155657
Si Si4 0.051061 0.075203 0.820447
Si Si5 0.806658 0.742421 0.959048
Si Si6 0.270420 0.911883 0.404388
Si Si7 0.658728 0.657673 0.816413
Si Si8 0.829612 0.126027 0.268109
O O1 0.612768 0.547328 0.542030
O O2 0.712640 0.550969 0.565031
O O3 0.663068 0.665494 0.653535
O O4 0.660044 0.640255 0.388937
O O5 0.879590 0.908547 0.855438
O O6 0.946439 0.001991 0.774401
O O7 0.958249 0.948578 0.026032
O O8 0.217434 0.068916 0.230971
O O9 0.283270 0.963202 0.277687
O O10 0.283198 0.045918 0.050125
O O11 0.105473 0.116672 0.831919
O O12 0.000000 0.120713 0.750000
O O13 0.810726 0.657281 0.910307
O O14 0.816843 0.795106 0.832878
O O15 0.750000 0.750000 0.000000
O O16 0.843283 0.764518 0.100423
O O17 0.208554 0.890131 0.386534
#
# Coordination Sequence:
#
# PCOD8129691 Si02
#       8
#     8   8   8   8   8   8   8   8
#     4   9  17  25  42  58  74 111 143 173 206 245
#     4  10  18  28  40  60  82 110 148 184 210 233
#     4  10  16  25  40  59  77 101 137 170 204 243
#     4  11  19  28  41  61  85 111 148 186 207 236
#     4  10  18  29  43  60  78 106 142 176 208 254
#     4  10  18  29  43  61  80 107 143 172 209 251
#     4   9  17  30  41  57  82 109 143 172 210 242
#     4  11  16  27  44  57  80 109 142 173 212 246
#
# _framework density 14.085317999999999
#
# number of rings (size 3 to 8) (size 9 to 14) (size 15 to 20)
#    0.000    2.000    6.250    1.875    0.000    0.000 
#    0.000    6.875    0.000    0.000    0.000    0.000 
#    0.000    0.000    0.000    1.125    0.000    0.000 
#
# Total GULP energy -396455.941228 kJ/mol
# GULP energy per Si atom -12389.248163 kJ/mol
# Density = 1.405326 g / cm^3
# Si number density = 14.085318 Si / 1000 Ang^3
#
#
#
# Elastic Constant Matrix: (Units=GPa)
#
#
# Indices 1 2 3 4 5 6 
#
# 1 28.2158 20.9665 21.9010 0.0000 3.4430 0.0000
# 2 20.9665 70.5554 52.0298 0.0000 3.8978 0.0000
# 3 21.9010 52.0298 131.1277 0.0000 -0.4400 0.0000
# 4 0.0000 0.0000 0.0000 20.9783 0.0000 -3.0048
# 5 3.4430 3.8978 -0.4400 0.0000 16.8097 0.0000
# 6 0.0000 0.0000 0.0000 -3.0048 0.0000 9.7630
#
#
#
# Elastic Compliance Matrix: (Units=1/GPa)
#
#
# Indices 1 2 3 4 5 6 
#
# 1 0.047271 -0.011039 -0.003540 0.000000 -0.007215 0.000000
# 2 -0.011039 0.023018 -0.007300 0.000000 -0.003267 0.000000
# 3 -0.003540 -0.007300 0.011123 0.000000 0.002709 0.000000
# 4 0.000000 0.000000 0.000000 0.049867 0.000000 0.015347
# 5 -0.007215 -0.003267 0.002709 0.000000 0.061796 0.000000
# 6 0.000000 0.000000 0.000000 0.015347 0.000000 0.107151
#
#
# Mechanical properties :
#
#
# Convention : Reuss Voigt Hill
#
# Bulk Modulus (GPa) = 26.55683 46.63263 36.59473
# Shear Modulus (GPa) = 14.02392 18.51031 16.26711
#
# Velocity S-wave (km/s) = 3.15880 3.62906 3.40207
# Velocity P-wave (km/s) = 5.67444 7.12315 6.43966
#
# Compressibility (1/GPa) = 0.03765510
#
# Stress axis : x y z
#
# Youngs Moduli (GPa) = 21.15441 43.44506 89.90285
#
# Poissons Ratio (x) = 0.47957 0.31821
# Poissons Ratio (y) = 0.23352 0.65632
# Poissons Ratio (z) = 0.07488 0.31717
#
# Static dielectric constant tensor:
#      x y z
#    x 2.576810 0.000000 0.073330 
#    y 0.000000 2.915010 0.000000 
#    z 0.073330 0.000000 3.185600 
# 
# 
# High freq. dielectric constant tensor:
#      x y z
#    x 1.488280 0.000000 -0.005620 
#    y 0.000000 1.498980 0.000000 
#    z -0.005620 0.000000 1.564350 
# 
# From -- ./inp_files/62508.got.cif
#   From: 2010.06.25/outbox.cif.g09.slc.cpg/sg15_32_cif.got.tgz:62508.got - 2010.06.28 07:06:18.
