data_PCOD8129217
_publ_section_title
;
Structure prediction by ZEFSAII (Michael W. Deem and Ramdas Pophale) SiO2 
 PCOD8129217
Probable space group: P 21/C
;
_chemical_formula_sum "Si O2"
_cell_formula_units_Z 24
_cell_length_a 11.766461
_cell_length_b 11.272144
_cell_length_c 9.140602
_cell_angle_alpha 90.000000
_cell_angle_beta 117.276320
_cell_angle_gamma 90.000000
_cell_volume 1077.542761
_symmetry_space_group_name_H-M "P 21/C"
_symmetry_group_IT_number 14
_symmetry_cell_setting 'monoclinic'
loop_
_space_group_symop_operation_xyz
x,y,z
-x,1/2+y,1/2-z
-x,-y,-z
x,1/2-y,1/2+z
loop_
_atom_site_type_symbol
_atom_site_label
_atom_site_fract_x
_atom_site_fract_y
_atom_site_fract_z
Si Si1 0.857468 0.574267 0.790590
Si Si2 0.531528 0.638811 0.999014
Si Si3 0.685771 0.752735 0.329480
Si Si4 0.873021 0.142017 0.499450
Si Si5 0.142588 0.468997 0.528832
Si Si6 0.256297 0.669194 0.774500
O O1 0.731736 0.653498 0.734518
O O2 0.851784 0.496393 0.639108
O O3 0.981285 0.661063 0.862191
O O4 0.862060 0.490281 0.933355
O O5 0.641919 0.674241 0.947801
O O6 0.404889 0.705701 0.864527
O O7 0.500000 0.500000 0.000000
O O8 0.569508 0.683406 0.183678
O O9 0.808214 0.667266 0.435354
O O10 0.779174 0.153861 0.578753
O O11 0.834951 0.234621 0.352550
O O12 0.242651 0.545457 0.680269
O O13 0.000000 0.500000 0.500000
#
# Coordination Sequence:
#
# PCOD8129217 Si02
#       6
#     4   4   4   4   4   4
#     4  11  25  44  69 107 144 191 241 310 377 445
#     4  12  26  48  73 105 153 202 250 312 367 449
#     4  12  26  46  74 107 146 195 253 303 375 447
#     4  11  25  43  71 104 145 185 245 308 372 445
#     4  12  24  45  73 106 146 189 242 314 382 444
#     4  12  24  46  71 102 141 193 244 299 372 441
#
# _framework density 22.272898999999999
#
# number of rings (size 3 to 8) (size 9 to 14) (size 15 to 20)
#    0.000    0.333    5.000    4.000    0.000    0.000 
#    0.000    2.500    0.000    0.000    0.000    0.000 
#    0.000    0.000    0.000    0.000    0.000    0.000 
#
# Total GULP energy -297574.489576 kJ/mol
# GULP energy per Si atom -12398.937066 kJ/mol
# Density = 2.222220 g / cm^3
# Si number density = 22.272899 Si / 1000 Ang^3
#
#
#
# Elastic Constant Matrix: (Units=GPa)
#
#
# Indices 1 2 3 4 5 6 
#
# 1 120.1302 44.3801 45.1286 0.0000 -12.4327 0.0000
# 2 44.3801 89.0655 25.4276 0.0000 -8.9418 0.0000
# 3 45.1286 25.4276 114.2016 0.0000 -11.1349 0.0000
# 4 0.0000 0.0000 0.0000 31.1552 0.0000 -1.9510
# 5 -12.4327 -8.9418 -11.1349 0.0000 30.2723 0.0000
# 6 0.0000 0.0000 0.0000 -1.9510 0.0000 41.6714
#
#
#
# Elastic Compliance Matrix: (Units=1/GPa)
#
#
# Indices 1 2 3 4 5 6 
#
# 1 0.011473 -0.004556 -0.003310 0.000000 0.002149 0.000000
# 2 -0.004556 0.014009 -0.001138 0.000000 0.001848 0.000000
# 3 -0.003310 -0.001138 0.010530 0.000000 0.002178 0.000000
# 4 0.000000 0.000000 0.000000 0.032192 0.000000 0.001507
# 5 0.002149 0.001848 0.002178 0.000000 0.035263 0.000000
# 6 0.000000 0.000000 0.000000 0.001507 0.000000 0.024068
#
#
# Mechanical properties :
#
#
# Convention : Reuss Voigt Hill
#
# Bulk Modulus (GPa) = 55.54671 61.47444 58.51058
# Shear Modulus (GPa) = 32.99356 34.51717 33.75536
#
# Velocity S-wave (km/s) = 3.85298 3.94094 3.89721
# Velocity P-wave (km/s) = 6.69233 6.95475 6.82480
#
# Compressibility (1/GPa) = 0.01800287
#
# Stress axis : x y z
#
# Youngs Moduli (GPa) = 87.15846 71.38486 94.96497
#
# Poissons Ratio (x) = 0.32525 0.31432
# Poissons Ratio (y) = 0.39712 0.10811
# Poissons Ratio (z) = 0.28848 0.08127
#
# Static dielectric constant tensor:
#      x y z
#    x 4.140670 0.000000 0.047360 
#    y 0.000000 3.925380 0.000000 
#    z 0.047360 0.000000 4.099760 
# 
# 
# High freq. dielectric constant tensor:
#      x y z
#    x 1.880990 0.000000 0.001020 
#    y 0.000000 1.871010 0.000000 
#    z 0.001020 0.000000 1.894360 
# 
# From -- ./inp_files/12498.got.cif
#   From: 2010.03.12/outbox.cif.g09.slc.cpg/sg14_7_cif.got.tgz:12498.got - 2010.03.31 13:35:05.
