data_PCOD8129402
_publ_section_title
;
Structure prediction by ZEFSAII (Michael W. Deem and Ramdas Pophale) SiO2 
 PCOD8129402
Probable space group: P 21/C
;
_chemical_formula_sum "Si O2"
_cell_formula_units_Z 20
_cell_length_a 19.353290
_cell_length_b 4.673032
_cell_length_c 8.491401
_cell_angle_alpha 90.000000
_cell_angle_beta 92.925267
_cell_angle_gamma 90.000000
_cell_volume 766.949261
_symmetry_space_group_name_H-M "P 21/C"
_symmetry_group_IT_number 14
_symmetry_cell_setting 'monoclinic'
loop_
_space_group_symop_operation_xyz
x,y,z
-x,1/2+y,1/2-z
-x,-y,-z
x,1/2-y,1/2+z
loop_
_atom_site_type_symbol
_atom_site_label
_atom_site_fract_x
_atom_site_fract_y
_atom_site_fract_z
Si Si1 0.270486 0.158094 0.378555
Si Si2 0.526237 0.144377 0.845059
Si Si3 0.922407 0.963944 0.435883
Si Si4 0.680955 0.371555 0.430693
Si Si5 0.866899 0.028685 0.096340
O O1 0.330627 0.387028 0.433718
O O2 0.205568 0.374991 0.378288
O O3 0.277169 0.027126 0.205757
O O4 0.273207 0.896843 0.504493
O O5 0.482890 0.430592 0.804330
O O6 0.606487 0.233886 0.863987
O O7 0.500000 0.000000 0.000000
O O8 0.865595 0.144182 0.533723
O O9 0.916017 0.034131 0.253013
O O10 0.904554 0.633060 0.458232
O O11 0.000000 0.000000 0.500000
#
# Coordination Sequence:
#
# PCOD8129402 Si02
#       5
#     4   4   4   4   4
#     4  12  26  45  69 100 140 188 240 293 358 430
#     4  12  24  43  70 104 141 186 242 302 361 428
#     4  12  25  47  74 106 142 184 232 288 349 418
#     4  12  25  46  70 102 143 191 239 299 363 427
#     4  12  26  45  71 104 141 185 234 288 349 421
#
# _framework density 26.077345999999999
#
# number of rings (size 3 to 8) (size 9 to 14) (size 15 to 20)
#    0.000    0.000    0.000   10.800    0.000    3.200 
#    0.000    2.000    0.000    0.000    0.000    0.000 
#    0.000    0.000    0.000    0.000    0.000    0.000 
#
# Total GULP energy -247945.353650 kJ/mol
# GULP energy per Si atom -12397.267682 kJ/mol
# Density = 2.601799 g / cm^3
# Si number density = 26.077346 Si / 1000 Ang^3
#
#
#
# Elastic Constant Matrix: (Units=GPa)
#
#
# Indices 1 2 3 4 5 6 
#
# 1 97.3393 24.4773 12.8612 0.0000 12.4188 0.0000
# 2 24.4773 124.9856 36.0001 0.0000 19.8769 0.0000
# 3 12.8612 36.0001 93.5437 0.0000 17.0280 0.0000
# 4 0.0000 0.0000 0.0000 53.8142 0.0000 5.6269
# 5 12.4188 19.8769 17.0280 0.0000 34.4564 0.0000
# 6 0.0000 0.0000 0.0000 5.6269 0.0000 30.7856
#
#
#
# Elastic Compliance Matrix: (Units=1/GPa)
#
#
# Indices 1 2 3 4 5 6 
#
# 1 0.011095 -0.001604 -0.000383 0.000000 -0.002884 0.000000
# 2 -0.001604 0.009713 -0.002860 0.000000 -0.003612 0.000000
# 3 -0.000383 -0.002860 0.012657 0.000000 -0.004467 0.000000
# 4 0.000000 0.000000 0.000000 0.018945 0.000000 -0.003463
# 5 -0.002884 -0.003612 -0.004467 0.000000 0.034353 0.000000
# 6 0.000000 0.000000 0.000000 -0.003463 0.000000 0.033116
#
#
# Mechanical properties :
#
#
# Convention : Reuss Voigt Hill
#
# Bulk Modulus (GPa) = 42.06829 51.39396 46.73112
# Shear Modulus (GPa) = 36.36470 39.97991 38.17231
#
# Velocity S-wave (km/s) = 3.73834 3.91977 3.83013
# Velocity P-wave (km/s) = 5.89922 6.34328 6.12527
#
# Compressibility (1/GPa) = 0.02377088
#
# Stress axis : x y z
#
# Youngs Moduli (GPa) = 90.12849 102.95243 79.00958
#
# Poissons Ratio (x) = 0.16512 0.03028
# Poissons Ratio (y) = 0.14455 0.22598
# Poissons Ratio (z) = 0.03454 0.29446
#
# Static dielectric constant tensor:
#      x y z
#    x 4.451160 0.000000 0.353030 
#    y 0.000000 5.299650 0.000000 
#    z 0.353030 0.000000 5.047380 
# 
# 
# High freq. dielectric constant tensor:
#      x y z
#    x 2.032940 0.000000 0.019930 
#    y 0.000000 2.070730 0.000000 
#    z 0.019930 0.000000 2.059920 
# 
# From -- ./inp_files/18286.got.cif
#   From: 2010.03.12/outbox.cif.g09.slc.cpg/sg14_10_cif.got.tgz:18286.got - 2010.03.31 13:35:05.
