data_PCOD8129196
_publ_section_title
;
Structure prediction by ZEFSAII (Michael W. Deem and Ramdas Pophale) SiO2 
 PCOD8129196
Probable space group: P 21/C
;
_chemical_formula_sum "Si O2"
_cell_formula_units_Z 16
_cell_length_a 11.516991
_cell_length_b 10.456552
_cell_length_c 10.168993
_cell_angle_alpha 90.000000
_cell_angle_beta 147.524839
_cell_angle_gamma 90.000000
_cell_volume 657.546280
_symmetry_space_group_name_H-M "P 21/C"
_symmetry_group_IT_number 14
_symmetry_cell_setting 'monoclinic'
loop_
_space_group_symop_operation_xyz
x,y,z
-x,1/2+y,1/2-z
-x,-y,-z
x,1/2-y,1/2+z
loop_
_atom_site_type_symbol
_atom_site_label
_atom_site_fract_x
_atom_site_fract_y
_atom_site_fract_z
Si Si1 0.631172 0.281475 0.844182
Si Si2 0.022261 0.291416 0.569557
Si Si3 0.292079 0.972420 0.385955
Si Si4 0.574003 0.857238 0.108816
O O1 0.506834 0.266698 0.587719
O O2 0.535346 0.180501 0.857596
O O3 0.884951 0.262978 0.059195
O O4 0.614181 0.426412 0.883663
O O5 0.862193 0.356329 0.310581
O O6 0.161542 0.398789 0.774737
O O7 0.168238 0.177770 0.642102
O O8 0.500000 0.000000 0.500000
O O9 0.500000 0.000000 0.000000
#
# Coordination Sequence:
#
# PCOD8129196 Si02
#       4
#     4   4   4   4
#     4  12  27  48  71 114 151 198 257 321 380 469
#     4  11  26  46  77 109 151 203 253 316 402 450
#     4  11  24  48  77 107 150 204 255 318 388 467
#     4  12  31  47  77 112 159 199 262 321 387 471
#
# _framework density 24.332886999999999
#
# number of rings (size 3 to 8) (size 9 to 14) (size 15 to 20)
#    0.000    0.500    5.000    0.000   14.000    1.000 
#    0.000    0.000    0.000    0.000    0.000    0.000 
#    0.000    0.000    0.000    0.000    0.000    0.000 
#
# Total GULP energy -198242.331852 kJ/mol
# GULP energy per Si atom -12390.145741 kJ/mol
# Density = 2.427750 g / cm^3
# Si number density = 24.332887 Si / 1000 Ang^3
#
#
#
# Elastic Constant Matrix: (Units=GPa)
#
#
# Indices 1 2 3 4 5 6 
#
# 1 164.7945 36.5570 43.0817 0.0000 38.7320 0.0000
# 2 36.5570 99.5273 34.6536 0.0000 22.3604 0.0000
# 3 43.0817 34.6536 98.4089 0.0000 29.6427 0.0000
# 4 0.0000 0.0000 0.0000 49.7528 0.0000 8.2859
# 5 38.7320 22.3604 29.6427 0.0000 55.2173 0.0000
# 6 0.0000 0.0000 0.0000 8.2859 0.0000 48.1991
#
#
#
# Elastic Compliance Matrix: (Units=1/GPa)
#
#
# Indices 1 2 3 4 5 6 
#
# 1 0.007751 -0.001357 -0.001721 0.000000 -0.003963 0.000000
# 2 -0.001357 0.012107 -0.002957 0.000000 -0.002363 0.000000
# 3 -0.001721 -0.002957 0.013399 0.000000 -0.004788 0.000000
# 4 0.000000 0.000000 0.000000 0.020692 0.000000 -0.003557
# 5 -0.003963 -0.002363 -0.004788 0.000000 0.024417 0.000000
# 6 0.000000 0.000000 0.000000 -0.003557 0.000000 0.021359
#
#
# Mechanical properties :
#
#
# Convention : Reuss Voigt Hill
#
# Bulk Modulus (GPa) = 47.20464 65.70173 56.45319
# Shear Modulus (GPa) = 42.06725 47.19639 44.63182
#
# Velocity S-wave (km/s) = 4.16242 4.40888 4.28742
# Velocity P-wave (km/s) = 6.52247 7.27856 6.91087
#
# Compressibility (1/GPa) = 0.02118436
#
# Stress axis : x y z
#
# Youngs Moduli (GPa) = 129.02078 82.59994 74.63291
#
# Poissons Ratio (x) = 0.11210 0.12848
# Poissons Ratio (y) = 0.17510 0.22071
# Poissons Ratio (z) = 0.22211 0.24427
#
# Static dielectric constant tensor:
#      x y z
#    x 4.056520 0.000000 0.729300 
#    y 0.000000 4.511970 0.000000 
#    z 0.729300 0.000000 4.172820 
# 
# 
# High freq. dielectric constant tensor:
#      x y z
#    x 1.974970 0.000000 0.008570 
#    y 0.000000 1.974670 0.000000 
#    z 0.008570 0.000000 1.975240 
# 
# From -- ./inp_files/20304.got.cif
#   From: 2010.03.12/outbox.cif.g09.slc.cpg/sg14_11_cif.got.tgz:20304.got - 2010.03.31 13:35:05.
