data_PCOD8129771
_publ_section_title
;
Structure prediction by ZEFSAII (Michael W. Deem and Ramdas Pophale) SiO2 
 PCOD8129771
Probable space group: C 2/C
;
_chemical_formula_sum "Si O2"
_cell_formula_units_Z 56
_cell_length_a 11.828014
_cell_length_b 20.646293
_cell_length_c 12.455167
_cell_angle_alpha 90.000000
_cell_angle_beta 105.025153
_cell_angle_gamma 90.000000
_cell_volume 2937.623395
_symmetry_space_group_name_H-M "C 2/C"
_symmetry_group_IT_number 15
_symmetry_cell_setting 'monoclinic'
loop_
_space_group_symop_operation_xyz
x,y,z
-x,y,1/2-z
-x,-y,-z
x,-y,1/2+z
1/2+x,1/2+y,z
1/2-x,1/2+y,1/2-z
1/2-x,1/2-y,-z
1/2+x,1/2-y,1/2+z
loop_
_atom_site_type_symbol
_atom_site_label
_atom_site_fract_x
_atom_site_fract_y
_atom_site_fract_z
Si Si1 0.045402 0.795629 0.928269
Si Si2 0.987242 0.573380 0.126892
Si Si3 0.164162 0.753371 0.743965
Si Si4 0.726060 0.602087 0.493025
Si Si5 0.363871 0.106607 0.744931
Si Si6 0.672029 0.015428 0.568893
Si Si7 0.617256 0.805364 0.611630
O O1 0.118380 0.758955 0.854314
O O2 0.910196 0.798331 0.856370
O O3 0.094772 0.867961 0.963112
O O4 0.054716 0.754625 0.039041
O O5 0.073720 0.538517 0.066040
O O6 0.016482 0.649786 0.138004
O O7 0.000000 0.544349 0.250000
O O8 0.859716 0.559332 0.043868
O O9 0.150152 0.678272 0.709228
O O10 0.298523 0.777450 0.773259
O O11 0.781065 0.593934 0.623882
O O12 0.717365 0.530922 0.434233
O O13 0.805631 0.653812 0.451728
O O14 0.500000 0.092191 0.750000
O O15 0.311781 0.059334 0.823059
#
# Coordination Sequence:
#
# PCOD8129771 Si02
#       7
#     8   8   8   8   8   8   8
#     4  10  16  29  46  74 103 127 165 211 256 296
#     4  10  19  32  45  69 105 132 163 207 252 307
#     4  10  17  26  48  77 100 130 162 210 256 302
#     4  10  18  29  44  70 107 130 161 209 247 302
#     4  12  17  27  46  71 104 132 163 203 253 304
#     4  10  20  28  45  71 100 140 165 194 252 308
#     4  10  17  30  47  73 103 130 164 208 261 300
#
# _framework density 19.063029
#
# number of rings (size 3 to 8) (size 9 to 14) (size 15 to 20)
#    0.000    1.714    4.286    5.571    0.000    0.000 
#    0.000    0.000    0.000    3.429    0.000   40.000 
#   12.857    0.000    0.000    0.000    0.000    0.000 
#
# Total GULP energy -346988.647530 kJ/mol
# GULP energy per Si atom -12392.451697 kJ/mol
# Density = 1.901964 g / cm^3
# Si number density = 19.063029 Si / 1000 Ang^3
#
#
#
# Elastic Constant Matrix: (Units=GPa)
#
#
# Indices 1 2 3 4 5 6 
#
# 1 33.5800 45.0081 34.3863 0.0000 16.8177 0.0000
# 2 45.0081 125.5155 56.5273 0.0000 15.2026 0.0000
# 3 34.3863 56.5273 113.3039 0.0000 21.5672 0.0000
# 4 0.0000 0.0000 0.0000 22.1804 0.0000 -8.1844
# 5 16.8177 15.2026 21.5672 0.0000 21.4021 0.0000
# 6 0.0000 0.0000 0.0000 -8.1844 0.0000 22.2147
#
#
#
# Elastic Compliance Matrix: (Units=1/GPa)
#
#
# Indices 1 2 3 4 5 6 
#
# 1 0.095850 -0.025130 -0.006945 0.000000 -0.050470 0.000000
# 2 -0.025130 0.016986 -0.002858 0.000000 0.010561 0.000000
# 3 -0.006945 -0.002858 0.013529 0.000000 -0.006146 0.000000
# 4 0.000000 0.000000 0.000000 0.052178 0.000000 0.019224
# 5 -0.050470 0.010561 -0.006146 0.000000 0.085075 0.000000
# 6 0.000000 0.000000 0.000000 0.019224 0.000000 0.052098
#
#
# Mechanical properties :
#
#
# Convention : Reuss Voigt Hill
#
# Bulk Modulus (GPa) = 17.69927 60.47143 39.08535
# Shear Modulus (GPa) = 12.36349 22.25795 17.31072
#
# Velocity S-wave (km/s) = 2.54944 3.42072 3.01670
# Velocity P-wave (km/s) = 4.23922 6.88422 5.71679
#
# Compressibility (1/GPa) = 0.05649951
#
# Stress axis : x y z
#
# Youngs Moduli (GPa) = 10.43294 58.87070 73.91263
#
# Poissons Ratio (x) = 1.47941 0.51335
# Poissons Ratio (y) = 0.26218 0.21126
# Poissons Ratio (z) = 0.07246 0.16827
#
# Static dielectric constant tensor:
#      x y z
#    x 3.136230 0.000000 0.319630 
#    y 0.000000 3.742570 0.000000 
#    z 0.319630 0.000000 3.463560 
# 
# 
# High freq. dielectric constant tensor:
#      x y z
#    x 1.669660 0.000000 0.020790 
#    y 0.000000 1.742920 0.000000 
#    z 0.020790 0.000000 1.743790 
# 
# From -- ./inp_files/99457.got.cif
#   From: 2010.06.25/outbox.cif.g09.slc.cpg/sg15_50_cif.got.tgz:99457.got - 2010.06.28 07:06:18.
