data_PCOD8129105
_publ_section_title
;
Structure prediction by ZEFSAII (Michael W. Deem and Ramdas Pophale) SiO2 
 PCOD8129105
Probable space group: P 21/C
;
_chemical_formula_sum "Si O2"
_cell_formula_units_Z 32
_cell_length_a 11.746858
_cell_length_b 9.269984
_cell_length_c 22.433064
_cell_angle_alpha 90.000000
_cell_angle_beta 35.494029
_cell_angle_gamma 90.000000
_cell_volume 1418.338452
_symmetry_space_group_name_H-M "P 21/C"
_symmetry_group_IT_number 14
_symmetry_cell_setting 'monoclinic'
loop_
_space_group_symop_operation_xyz
x,y,z
-x,1/2+y,1/2-z
-x,-y,-z
x,1/2-y,1/2+z
loop_
_atom_site_type_symbol
_atom_site_label
_atom_site_fract_x
_atom_site_fract_y
_atom_site_fract_z
Si Si1 0.775864 0.759125 0.858643
Si Si2 0.212224 0.339089 0.517248
Si Si3 0.785438 0.386014 0.970889
Si Si4 0.782204 0.189175 0.216876
Si Si5 0.629979 0.603757 0.128070
Si Si6 0.455409 0.622178 0.414730
Si Si7 0.779973 0.975361 0.689484
Si Si8 0.845318 0.065598 0.313990
O O1 0.774510 0.735055 0.930608
O O2 0.567315 0.816225 0.924776
O O3 0.836511 0.605755 0.803765
O O4 0.929477 0.884286 0.775307
O O5 0.283434 0.260575 0.426717
O O6 0.351317 0.472165 0.472708
O O7 0.983026 0.383048 0.607024
O O8 0.732494 0.397921 0.923292
O O9 0.016166 0.399297 0.883125
O O10 0.658092 0.504810 0.058787
O O11 0.717709 0.233306 0.026870
O O12 0.600206 0.121682 0.258127
O O13 0.791226 0.360515 0.205638
O O14 0.747154 0.154355 0.301713
O O15 0.744774 0.534428 0.133978
O O16 0.606432 0.610752 0.295721
#
# Coordination Sequence:
#
# PCOD8129105 Si02
#       8
#     4   4   4   4   4   4   4   4
#     4  11  24  44  71 112 155 193 243 301 376 437
#     4  11  25  46  72 110 143 201 235 309 365 435
#     4  12  26  46  75 109 148 196 249 300 373 439
#     4  11  26  47  75 106 148 187 250 301 373 431
#     4  12  26  47  79 101 144 202 253 291 369 450
#     4  12  28  42  72 111 148 195 249 305 371 430
#     4  12  27  50  72 106 153 196 242 308 366 442
#     4  11  24  44  77 109 150 194 241 313 366 440
#
# _framework density 22.561610000000002
#
# number of rings (size 3 to 8) (size 9 to 14) (size 15 to 20)
#    0.000    0.500    5.000    2.250    7.000    2.000 
#    0.000    1.250    0.000    0.000    0.000    0.000 
#    0.000    0.000    0.000    0.000    0.000    0.000 
#
# Total GULP energy -396906.511788 kJ/mol
# GULP energy per Si atom -12403.328493 kJ/mol
# Density = 2.251026 g / cm^3
# Si number density = 22.561610 Si / 1000 Ang^3
#
#
#
# Elastic Constant Matrix: (Units=GPa)
#
#
# Indices 1 2 3 4 5 6 
#
# 1 101.2018 52.3183 42.4787 0.0000 -5.7528 0.0000
# 2 52.3183 143.7399 54.0291 0.0000 -11.4925 0.0000
# 3 42.4787 54.0291 113.0560 0.0000 -15.5972 0.0000
# 4 0.0000 0.0000 0.0000 44.6310 0.0000 -8.1361
# 5 -5.7528 -11.4925 -15.5972 0.0000 25.4528 0.0000
# 6 0.0000 0.0000 0.0000 -8.1361 0.0000 33.5330
#
#
#
# Elastic Compliance Matrix: (Units=1/GPa)
#
#
# Indices 1 2 3 4 5 6 
#
# 1 0.013074 -0.003573 -0.003299 0.000000 -0.000680 0.000000
# 2 -0.003573 0.009508 -0.002971 0.000000 0.001664 0.000000
# 3 -0.003299 -0.002971 0.012252 0.000000 0.005421 0.000000
# 4 0.000000 0.000000 0.000000 0.023443 0.000000 0.005688
# 5 -0.000680 0.001664 0.005421 0.000000 0.043208 0.000000
# 6 0.000000 0.000000 0.000000 0.005688 0.000000 0.031201
#
#
# Mechanical properties :
#
#
# Convention : Reuss Voigt Hill
#
# Bulk Modulus (GPa) = 66.01580 72.85001 69.43290
# Shear Modulus (GPa) = 31.76161 34.66815 33.21488
#
# Velocity S-wave (km/s) = 3.75610 3.92420 3.84107
# Velocity P-wave (km/s) = 6.93792 7.27268 7.10728
#
# Compressibility (1/GPa) = 0.01514789
#
# Stress axis : x y z
#
# Youngs Moduli (GPa) = 76.48506 105.17915 81.61628
#
# Poissons Ratio (x) = 0.37584 0.26922
# Poissons Ratio (y) = 0.27330 0.24252
# Poissons Ratio (z) = 0.25229 0.31253
#
# Static dielectric constant tensor:
#      x y z
#    x 3.960840 0.000000 -0.094510 
#    y 0.000000 4.029890 0.000000 
#    z -0.094510 0.000000 4.307830 
# 
# 
# High freq. dielectric constant tensor:
#      x y z
#    x 1.883320 0.000000 -0.011290 
#    y 0.000000 1.889550 0.000000 
#    z -0.011290 0.000000 1.900440 
# 
# From -- ./inp_files/73088.got.cif
#   From: 2010.03.12/outbox.cif.g09.slc.cpg/sg14_37_cif.got.tgz:73088.got - 2010.03.31 13:35:05.
