data_PCOD8129674
_publ_section_title
;
Structure prediction by ZEFSAII (Michael W. Deem and Ramdas Pophale) SiO2 
 PCOD8129674
Probable space group: C 2/C
;
_chemical_formula_sum "Si O2"
_cell_formula_units_Z 56
_cell_length_a 11.592662
_cell_length_b 16.245137
_cell_length_c 25.018565
_cell_angle_alpha 90.000000
_cell_angle_beta 138.102914
_cell_angle_gamma 90.000000
_cell_volume 3146.385382
_symmetry_space_group_name_H-M "C 2/C"
_symmetry_group_IT_number 15
_symmetry_cell_setting 'monoclinic'
loop_
_space_group_symop_operation_xyz
x,y,z
-x,y,1/2-z
-x,-y,-z
x,-y,1/2+z
1/2+x,1/2+y,z
1/2-x,1/2+y,1/2-z
1/2-x,1/2-y,-z
1/2+x,1/2-y,1/2+z
loop_
_atom_site_type_symbol
_atom_site_label
_atom_site_fract_x
_atom_site_fract_y
_atom_site_fract_z
Si Si1 0.680478 0.595665 0.784985
Si Si2 0.831446 0.575309 0.325293
Si Si3 0.542932 0.686437 0.176974
Si Si4 0.048171 0.666820 0.327570
Si Si5 0.630823 0.749591 0.096745
Si Si6 0.160392 0.294173 0.584507
Si Si7 0.313350 0.298750 0.305967
O O1 0.500000 0.572994 0.750000
O O2 0.808998 0.518823 0.834878
O O3 0.760040 0.674793 0.841613
O O4 0.657349 0.612896 0.712490
O O5 0.650891 0.608587 0.237339
O O6 0.889432 0.627904 0.396617
O O7 0.994289 0.582912 0.340092
O O8 0.559331 0.690324 0.118498
O O9 0.344413 0.682862 0.123689
O O10 0.615863 0.769968 0.228792
O O11 0.248504 0.693883 0.400618
O O12 0.000000 0.655281 0.250000
O O13 0.931622 0.736898 0.313164
O O14 0.472551 0.785472 0.009157
O O15 0.151707 0.210122 0.618260
#
# Coordination Sequence:
#
# PCOD8129674 Si02
#       7
#     8   8   8   8   8   8   8
#     4  11  19  35  54  81 106 144 178 227 266 329
#     4  10  21  32  56  76 110 135 180 220 280 300
#     4   9  17  34  53  74 102 145 178 217 257 324
#     4  10  15  36  54  78  97 142 185 216 251 335
#     4  11  19  32  60  76 107 142 182 216 272 314
#     4  10  20  32  51  85 107 134 178 234 260 319
#     4   9  17  31  56  75 101 136 189 220 256 302
#
# _framework density 17.798200999999999
#
# number of rings (size 3 to 8) (size 9 to 14) (size 15 to 20)
#    0.000    2.286    5.714    3.000    0.000    2.857 
#    0.000    2.857    0.000    0.857    0.000    0.000 
#    0.000    0.000    0.000    0.000    0.000    0.000 
#
# Total GULP energy -346884.186336 kJ/mol
# GULP energy per Si atom -12388.720941 kJ/mol
# Density = 1.775769 g / cm^3
# Si number density = 17.798201 Si / 1000 Ang^3
#
#
#
# Elastic Constant Matrix: (Units=GPa)
#
#
# Indices 1 2 3 4 5 6 
#
# 1 97.9667 16.7923 15.9870 0.0000 2.2337 0.0000
# 2 16.7923 46.4907 -2.6705 0.0000 -4.6652 0.0000
# 3 15.9870 -2.6705 57.7699 0.0000 -8.8650 0.0000
# 4 0.0000 0.0000 0.0000 13.7410 0.0000 3.9831
# 5 2.2337 -4.6652 -8.8650 0.0000 19.2889 0.0000
# 6 0.0000 0.0000 0.0000 3.9831 0.0000 21.2660
#
#
#
# Elastic Compliance Matrix: (Units=1/GPa)
#
#
# Indices 1 2 3 4 5 6 
#
# 1 0.011848 -0.004973 -0.004200 0.000000 -0.004505 0.000000
# 2 -0.004973 0.024344 0.003758 0.000000 0.008191 0.000000
# 3 -0.004200 0.003758 0.020291 0.000000 0.010721 0.000000
# 4 0.000000 0.000000 0.000000 0.076953 0.000000 -0.014413
# 5 -0.004505 0.008191 0.010721 0.000000 0.059273 0.000000
# 6 0.000000 0.000000 0.000000 -0.014413 0.000000 0.049723
#
#
# Mechanical properties :
#
#
# Convention : Reuss Voigt Hill
#
# Bulk Modulus (GPa) = 21.90378 29.16054 25.53216
# Shear Modulus (GPa) = 18.62345 22.33376 20.47860
#
# Velocity S-wave (km/s) = 3.23827 3.54620 3.39573
# Velocity P-wave (km/s) = 5.12984 5.76081 5.45446
#
# Compressibility (1/GPa) = 0.04565421
#
# Stress axis : x y z
#
# Youngs Moduli (GPa) = 84.40220 41.07848 49.28238
#
# Poissons Ratio (x) = 0.20427 0.20698
# Poissons Ratio (y) = 0.41971 -0.18522
# Poissons Ratio (z) = 0.35449 -0.15439
#
# Static dielectric constant tensor:
#      x y z
#    x 3.834400 0.000000 -0.105180 
#    y 0.000000 3.154050 0.000000 
#    z -0.105180 0.000000 3.157310 
# 
# 
# High freq. dielectric constant tensor:
#      x y z
#    x 1.711290 0.000000 -0.004820 
#    y 0.000000 1.649120 0.000000 
#    z -0.004820 0.000000 1.666690 
# 
# From -- ./inp_files/225714.got.cif
#   From: 2010.06.25/outbox.cif.g09.slc.cpg/sg15_113_cif.got.tgz:225714.got - 2010.06.28 07:06:18.
