data_PCOD8129853
_publ_section_title
;
Structure prediction by ZEFSAII (Michael W. Deem and Ramdas Pophale) SiO2 
 PCOD8129853
Probable space group: C 2/C
;
_chemical_formula_sum "Si O2"
_cell_formula_units_Z 36
_cell_length_a 16.460632
_cell_length_b 10.686051
_cell_length_c 17.573902
_cell_angle_alpha 90.000000
_cell_angle_beta 148.669663
_cell_angle_gamma 90.000000
_cell_volume 1607.353699
_symmetry_space_group_name_H-M "C 2/C"
_symmetry_group_IT_number 15
_symmetry_cell_setting 'monoclinic'
loop_
_space_group_symop_operation_xyz
x,y,z
-x,y,1/2-z
-x,-y,-z
x,-y,1/2+z
1/2+x,1/2+y,z
1/2-x,1/2+y,1/2-z
1/2-x,1/2-y,-z
1/2+x,1/2-y,1/2+z
loop_
_atom_site_type_symbol
_atom_site_label
_atom_site_fract_x
_atom_site_fract_y
_atom_site_fract_z
Si Si1 0.848134 0.422837 0.356217
Si Si2 0.935548 0.034379 0.780197
Si Si3 0.206957 0.984114 0.093176
Si Si4 0.500000 0.916414 0.250000
Si Si5 0.504482 0.726058 0.383213
O O1 0.730982 0.401035 0.334023
O O2 0.748700 0.505338 0.214903
O O3 0.896710 0.288083 0.362328
O O4 0.000000 0.500000 0.500000
O O5 0.909997 0.883571 0.762600
O O6 0.000000 0.078350 0.750000
O O7 0.065433 0.071501 0.949323
O O8 0.358574 0.006540 0.161808
O O9 0.158490 0.836453 0.044363
O O10 0.556349 0.833650 0.366421
#
# Coordination Sequence:
#
# PCOD8129853 Si02
#       5
#     8   8   8   4   8
#     4  11  24  35  57  94 125 159 207 246 300 369
#     4  10  22  38  64  92 125 158 195 257 308 356
#     4   9  21  35  58  83 127 161 189 245 311 354
#     4  10  16  30  60  94 114 148 196 246 304 366
#     4   9  20  34  60  86 127 153 193 242 313 348
#
# _framework density 22.397062999999999
#
# number of rings (size 3 to 8) (size 9 to 14) (size 15 to 20)
#    1.333    0.889    1.111    1.333   12.444    0.000 
#    0.000    0.000    0.000    1.333   11.556    0.000 
#    0.000    0.000    0.000    0.000    0.000    0.000 
#
# Total GULP energy -223024.493453 kJ/mol
# GULP energy per Si atom -12390.249636 kJ/mol
# Density = 2.234609 g / cm^3
# Si number density = 22.397063 Si / 1000 Ang^3
#
#
#
# Elastic Constant Matrix: (Units=GPa)
#
#
# Indices 1 2 3 4 5 6 
#
# 1 162.8819 8.7053 48.4754 -0.0001 29.0961 0.0000
# 2 8.7053 9.1158 -1.0923 -0.0001 2.9403 -0.0001
# 3 48.4754 -1.0923 124.7164 -0.0002 3.0983 -0.0002
# 4 -0.0001 -0.0001 -0.0002 16.8563 -0.0001 1.0154
# 5 29.0961 2.9403 3.0983 -0.0001 48.8393 -0.0001
# 6 0.0000 -0.0001 -0.0002 1.0154 -0.0001 25.7846
#
#
#
# Elastic Compliance Matrix: (Units=1/GPa)
#
#
# Indices 1 2 3 4 5 6 
#
# 1 0.008204 -0.006831 -0.003142 0.000000 -0.004277 0.000000
# 2 -0.006831 0.117726 0.003767 0.000001 -0.003257 0.000000
# 3 -0.003142 0.003767 0.009246 0.000000 0.001059 0.000000
# 4 0.000000 0.000001 0.000000 0.059466 0.000000 -0.002342
# 5 -0.004277 -0.003257 0.001059 0.000000 0.023152 0.000000
# 6 0.000000 0.000000 0.000000 -0.002342 0.000000 0.038875
#
#
# Mechanical properties :
#
#
# Convention : Reuss Voigt Hill
#
# Bulk Modulus (GPa) = 8.14579 45.43234 26.78906
# Shear Modulus (GPa) = 16.12891 34.33775 25.23333
#
# Velocity S-wave (km/s) = 2.68644 3.91978 3.36018
# Velocity P-wave (km/s) = 3.64246 6.38868 5.20013
#
# Compressibility (1/GPa) = 0.12276288
#
# Stress axis : x y z
#
# Youngs Moduli (GPa) = 121.89712 8.49432 108.15238
#
# Poissons Ratio (x) = 0.05803 0.33984
# Poissons Ratio (y) = 0.83271 -0.40743
# Poissons Ratio (z) = 0.38303 -0.03200
#
# Static dielectric constant tensor:
#      x y z
#    x 4.077150 0.000000 0.011670 
#    y 0.000000 3.301210 0.000000 
#    z 0.011670 0.000000 3.976540 
# 
# 
# High freq. dielectric constant tensor:
#      x y z
#    x 1.891940 0.000000 0.008590 
#    y 0.000000 1.808140 0.000000 
#    z 0.008590 0.000000 1.887770 
# 
# From -- ./inp_files/205582.got.cif
#   From: 2010.06.25/outbox.cif.g09.slc.cpg/sg15_103_cif.got.tgz:205582.got - 2010.06.28 07:06:18.
