data_PCOD8129390
_publ_section_title
;
Structure prediction by ZEFSAII (Michael W. Deem and Ramdas Pophale) SiO2 
 PCOD8129390
Probable space group: P 21/C
;
_chemical_formula_sum "Si O2"
_cell_formula_units_Z 24
_cell_length_a 16.415470
_cell_length_b 4.938139
_cell_length_c 16.193129
_cell_angle_alpha 90.000000
_cell_angle_beta 54.747617
_cell_angle_gamma 90.000000
_cell_volume 1071.929238
_symmetry_space_group_name_H-M "P 21/C"
_symmetry_group_IT_number 14
_symmetry_cell_setting 'monoclinic'
loop_
_space_group_symop_operation_xyz
x,y,z
-x,1/2+y,1/2-z
-x,-y,-z
x,1/2-y,1/2+z
loop_
_atom_site_type_symbol
_atom_site_label
_atom_site_fract_x
_atom_site_fract_y
_atom_site_fract_z
Si Si1 0.754521 0.363724 0.958630
Si Si2 0.755035 0.632153 0.569883
Si Si3 0.544527 0.579280 0.756891
Si Si4 0.538058 0.248741 0.527521
Si Si5 0.940357 0.745771 0.568112
Si Si6 0.943988 0.916589 0.253633
O O1 0.839421 0.460904 0.845705
O O2 0.721309 0.619038 0.032397
O O3 0.658248 0.251643 0.966244
O O4 0.797412 0.119287 0.990666
O O5 0.661328 0.525375 0.676842
O O6 0.831543 0.744532 0.592239
O O7 0.492968 0.284862 0.792990
O O8 0.516666 0.753626 0.853052
O O9 0.500000 0.500000 0.500000
O O10 0.500000 0.000000 0.500000
O O11 0.932316 0.725942 0.671676
O O12 0.000000 0.500000 0.500000
O O13 0.000000 0.000000 0.500000
O O14 0.979523 0.672304 0.293479
#
# Coordination Sequence:
#
# PCOD8129390 Si02
#       6
#     4   4   4   4   4   4
#     4  12  25  46  71 102 139 187 229 285 355 408
#     4  12  24  45  73 100 138 185 235 285 341 419
#     4  12  23  46  70 101 138 189 234 278 348 416
#     4  12  26  44  69 103 146 181 232 293 344 414
#     4  12  26  46  71 103 136 180 234 288 342 412
#     4  12  26  47  72 104 143 184 229 289 354 417
#
# _framework density 22.38954
#
# number of rings (size 3 to 8) (size 9 to 14) (size 15 to 20)
#    0.000    0.000    3.333    8.000    2.333    0.000 
#    3.000    0.000    0.000    0.000    0.000    0.000 
#    0.000    0.000    0.000    0.000    0.000    0.000 
#
# Total GULP energy -297623.432232 kJ/mol
# GULP energy per Si atom -12400.976343 kJ/mol
# Density = 2.233858 g / cm^3
# Si number density = 22.389540 Si / 1000 Ang^3
#
#
#
# Elastic Constant Matrix: (Units=GPa)
#
#
# Indices 1 2 3 4 5 6 
#
# 1 138.4991 49.4426 66.5923 0.0000 -7.8049 0.0000
# 2 49.4426 154.3513 39.3550 0.0000 0.3647 0.0000
# 3 66.5923 39.3550 129.8972 0.0000 -10.5423 0.0000
# 4 0.0000 0.0000 0.0000 37.4795 0.0000 3.9943
# 5 -7.8049 0.3647 -10.5423 0.0000 34.7701 0.0000
# 6 0.0000 0.0000 0.0000 3.9943 0.0000 43.6174
#
#
#
# Elastic Compliance Matrix: (Units=1/GPa)
#
#
# Indices 1 2 3 4 5 6 
#
# 1 0.010198 -0.002119 -0.004509 0.000000 0.000944 0.000000
# 2 -0.002119 0.007480 -0.001256 0.000000 -0.000935 0.000000
# 3 -0.004509 -0.001256 0.010570 0.000000 0.002206 0.000000
# 4 0.000000 0.000000 0.000000 0.026944 0.000000 -0.002467
# 5 0.000944 -0.000935 0.002206 0.000000 0.029651 0.000000
# 6 0.000000 0.000000 0.000000 -0.002467 0.000000 0.023153
#
#
# Mechanical properties :
#
#
# Convention : Reuss Voigt Hill
#
# Bulk Modulus (GPa) = 80.13386 81.50305 80.81846
# Shear Modulus (GPa) = 39.08576 40.99723 40.04149
#
# Velocity S-wave (km/s) = 4.18271 4.28376 4.23354
# Velocity P-wave (km/s) = 7.69384 7.80697 7.75061
#
# Compressibility (1/GPa) = 0.01247912
#
# Stress axis : x y z
#
# Youngs Moduli (GPa) = 98.05634 133.69122 94.61068
#
# Poissons Ratio (x) = 0.28332 0.42664
# Poissons Ratio (y) = 0.20780 0.11880
# Poissons Ratio (z) = 0.44218 0.16787
#
# Static dielectric constant tensor:
#      x y z
#    x 4.011440 0.000000 -0.023910 
#    y 0.000000 4.251620 0.000000 
#    z -0.023910 0.000000 3.930400 
# 
# 
# High freq. dielectric constant tensor:
#      x y z
#    x 1.885210 0.000000 -0.006480 
#    y 0.000000 1.909480 0.000000 
#    z -0.006480 0.000000 1.885940 
# 
# From -- ./inp_files/45802.got.cif
#   From: 2010.03.12/outbox.cif.g09.slc.cpg/sg14_23_cif.got.tgz:45802.got - 2010.03.31 13:35:05.
