data_PCOD8129833
_publ_section_title
;
Structure prediction by ZEFSAII (Michael W. Deem and Ramdas Pophale) SiO2 
 PCOD8129833
Probable space group: C 2/C
;
_chemical_formula_sum "Si O2"
_cell_formula_units_Z 44
_cell_length_a 14.002946
_cell_length_b 24.606213
_cell_length_c 8.419989
_cell_angle_alpha 90.000000
_cell_angle_beta 128.291932
_cell_angle_gamma 90.000000
_cell_volume 2277.036148
_symmetry_space_group_name_H-M "C 2/C"
_symmetry_group_IT_number 15
_symmetry_cell_setting 'monoclinic'
loop_
_space_group_symop_operation_xyz
x,y,z
-x,y,1/2-z
-x,-y,-z
x,-y,1/2+z
1/2+x,1/2+y,z
1/2-x,1/2+y,1/2-z
1/2-x,1/2-y,-z
1/2+x,1/2-y,1/2+z
loop_
_atom_site_type_symbol
_atom_site_label
_atom_site_fract_x
_atom_site_fract_y
_atom_site_fract_z
Si Si1 0.500000 0.399711 0.250000
Si Si2 0.639663 0.436031 0.932893
Si Si3 0.866890 0.377327 0.640583
Si Si4 0.308735 0.543952 0.360424
Si Si5 0.181771 0.843982 0.210275
Si Si6 0.875662 0.260810 0.719518
O O1 0.557090 0.436732 0.447749
O O2 0.601944 0.363220 0.277142
O O3 0.500000 0.447679 0.750000
O O4 0.714825 0.442264 0.847387
O O5 0.694762 0.479004 0.115852
O O6 0.658427 0.375684 0.022517
O O7 0.792119 0.426296 0.638879
O O8 0.817447 0.355303 0.417788
O O9 0.875624 0.324599 0.767728
O O10 0.000000 0.401850 0.750000
O O11 0.139912 0.780651 0.145304
O O12 0.750000 0.250000 0.500000
O O13 0.000000 0.247756 0.750000
#
# Coordination Sequence:
#
# PCOD8129833 Si02
#       6
#     4   8   8   8   8   8
#     4  10  16  30  54  80 110 140 176 226 276 338
#     4  12  22  35  55  87 123 149 183 240 300 346
#     4   9  20  38  59  81 111 151 201 237 276 339
#     4  11  21  35  54  83 115 150 187 230 288 344
#     4  10  19  32  56  86 112 145 190 233 290 342
#     4   9  17  32  57  85 111 147 194 239 283 344
#
# _framework density 19.323366
#
# number of rings (size 3 to 8) (size 9 to 14) (size 15 to 20)
#    0.000    1.818    3.636    2.727    0.000    0.000 
#    0.000    5.455    0.000    0.000    0.000    0.000 
#    0.000    0.000    0.000    0.000    0.000    0.000 
#
# Total GULP energy -272581.122790 kJ/mol
# GULP energy per Si atom -12390.051036 kJ/mol
# Density = 1.927939 g / cm^3
# Si number density = 19.323366 Si / 1000 Ang^3
#
#
#
# Elastic Constant Matrix: (Units=GPa)
#
#
# Indices 1 2 3 4 5 6 
#
# 1 62.9798 22.4154 38.5160 0.0000 14.6347 0.0000
# 2 22.4154 114.9477 30.6071 0.0000 -3.2132 0.0000
# 3 38.5160 30.6071 64.6458 0.0000 -3.4360 0.0000
# 4 0.0000 0.0000 0.0000 31.3458 0.0000 -4.9975
# 5 14.6347 -3.2132 -3.4360 0.0000 38.0425 0.0000
# 6 0.0000 0.0000 0.0000 -4.9975 0.0000 22.0974
#
#
#
# Elastic Compliance Matrix: (Units=1/GPa)
#
#
# Indices 1 2 3 4 5 6 
#
# 1 0.030822 -0.001498 -0.018380 0.000000 -0.013644 0.000000
# 2 -0.001498 0.010034 -0.003801 0.000000 0.001080 0.000000
# 3 -0.018380 -0.003801 0.028716 0.000000 0.009343 0.000000
# 4 0.000000 0.000000 0.000000 0.033095 0.000000 0.007485
# 5 -0.013644 0.001080 0.009343 0.000000 0.032470 0.000000
# 6 0.000000 0.000000 0.000000 0.007485 0.000000 0.046947
#
#
# Mechanical properties :
#
#
# Convention : Reuss Voigt Hill
#
# Bulk Modulus (GPa) = 45.01507 47.29448 46.15478
# Shear Modulus (GPa) = 21.11078 28.36611 24.73845
#
# Velocity S-wave (km/s) = 3.30888 3.83557 3.58192
# Velocity P-wave (km/s) = 6.15991 6.64408 6.40657
#
# Compressibility (1/GPa) = 0.02221478
#
# Stress axis : x y z
#
# Youngs Moduli (GPa) = 32.44444 99.66177 34.82423
#
# Poissons Ratio (x) = 0.14928 0.64006
# Poissons Ratio (y) = 0.04860 0.13236
# Poissons Ratio (z) = 0.59632 0.37879
#
# Static dielectric constant tensor:
#      x y z
#    x 3.343500 0.000000 0.205660 
#    y 0.000000 3.875400 0.000000 
#    z 0.205660 0.000000 3.437100 
# 
# 
# High freq. dielectric constant tensor:
#      x y z
#    x 1.730540 0.000000 0.021780 
#    y 0.000000 1.765040 0.000000 
#    z 0.021780 0.000000 1.723030 
# 
# From -- ./inp_files/32728.got.cif
#   From: 2010.06.25/outbox.cif.g09.slc.cpg/sg15_17_cif.got.tgz:32728.got - 2010.06.28 07:06:18.
