data_PCOD8129027
_publ_section_title
;
Structure prediction by ZEFSAII (Michael W. Deem and Ramdas Pophale) SiO2 
 PCOD8129027
Probable space group: P 21/C
;
_chemical_formula_sum "Si O2"
_cell_formula_units_Z 32
_cell_length_a 8.829766
_cell_length_b 13.440626
_cell_length_c 23.304857
_cell_angle_alpha 90.000000
_cell_angle_beta 31.013345
_cell_angle_gamma 90.000000
_cell_volume 1425.025948
_symmetry_space_group_name_H-M "P 21/C"
_symmetry_group_IT_number 14
_symmetry_cell_setting 'monoclinic'
loop_
_space_group_symop_operation_xyz
x,y,z
-x,1/2+y,1/2-z
-x,-y,-z
x,1/2-y,1/2+z
loop_
_atom_site_type_symbol
_atom_site_label
_atom_site_fract_x
_atom_site_fract_y
_atom_site_fract_z
Si Si1 0.377147 0.700656 0.352613
Si Si2 0.789581 0.966469 0.679713
Si Si3 0.420619 0.883034 0.080713
Si Si4 0.369739 0.991360 0.442105
Si Si5 0.612388 0.904935 0.254042
Si Si6 0.166417 0.207619 0.539724
Si Si7 0.085784 0.412418 0.173884
Si Si8 0.732900 0.419066 0.496251
O O1 0.542881 0.618142 0.260946
O O2 0.597838 0.794282 0.285028
O O3 0.319260 0.658231 0.435047
O O4 0.088050 0.738481 0.414232
O O5 0.640325 0.072719 0.710976
O O6 0.053585 0.934073 0.550100
O O7 0.934571 0.990320 0.694134
O O8 0.428420 0.884208 0.009210
O O9 0.084410 0.886815 0.211969
O O10 0.558759 0.780126 0.054352
O O11 0.606561 0.971529 0.050673
O O12 0.288421 0.106149 0.474196
O O13 0.534707 0.983632 0.328567
O O14 0.581197 0.945379 0.421935
O O15 0.921309 0.928989 0.125351
O O16 0.075769 0.183952 0.635150
#
# Coordination Sequence:
#
# PCOD8129027 Si02
#       8
#     4   4   4   4   4   4   4   4
#     4  12  27  44  73 107 146 193 236 299 374 444
#     4  11  24  45  72 102 145 186 234 304 361 434
#     4  11  25  48  71 106 144 194 247 300 361 444
#     4  11  25  49  72 103 145 188 243 306 361 432
#     4  12  26  44  71 105 141 189 238 296 366 440
#     4  11  26  44  76 107 137 194 244 302 368 438
#     4  11  23  50  70 104 145 189 246 305 368 425
#     4  11  27  46  70 106 149 188 242 301 368 434
#
# _framework density 22.455731
#
# number of rings (size 3 to 8) (size 9 to 14) (size 15 to 20)
#    0.000    0.750    5.000    2.625    5.250    4.000 
#    0.000    0.000    0.000    0.000    0.000    0.000 
#    0.000    0.000    0.000    0.000    0.000    0.000 
#
# Total GULP energy -396684.296147 kJ/mol
# GULP energy per Si atom -12396.384255 kJ/mol
# Density = 2.240462 g / cm^3
# Si number density = 22.455731 Si / 1000 Ang^3
#
#
#
# Elastic Constant Matrix: (Units=GPa)
#
#
# Indices 1 2 3 4 5 6 
#
# 1 79.4257 51.6930 38.1980 0.0000 -15.4290 0.0000
# 2 51.6930 126.6451 68.8936 0.0000 -2.3955 0.0000
# 3 38.1980 68.8936 154.2350 0.0000 -4.2198 0.0000
# 4 0.0000 0.0000 0.0000 36.7932 0.0000 -1.4591
# 5 -15.4290 -2.3955 -4.2198 0.0000 39.2676 0.0000
# 6 0.0000 0.0000 0.0000 -1.4591 0.0000 33.1374
#
#
#
# Elastic Compliance Matrix: (Units=1/GPa)
#
#
# Indices 1 2 3 4 5 6 
#
# 1 0.019118 -0.006869 -0.001477 0.000000 0.006934 0.000000
# 2 -0.006869 0.012899 -0.004125 0.000000 -0.002355 0.000000
# 3 -0.001477 -0.004125 0.008695 0.000000 0.000102 0.000000
# 4 0.000000 0.000000 0.000000 0.027226 0.000000 0.001199
# 5 0.006934 -0.002355 0.000102 0.000000 0.028058 0.000000
# 6 0.000000 0.000000 0.000000 0.001199 0.000000 0.030230
#
#
# Mechanical properties :
#
#
# Convention : Reuss Voigt Hill
#
# Bulk Modulus (GPa) = 63.41009 75.31942 69.36475
# Shear Modulus (GPa) = 31.96405 35.27439 33.61922
#
# Velocity S-wave (km/s) = 3.77692 3.96768 3.87348
# Velocity P-wave (km/s) = 6.87890 7.38946 7.13875
#
# Compressibility (1/GPa) = 0.01577036
#
# Stress axis : x y z
#
# Youngs Moduli (GPa) = 52.30615 77.52390 115.01145
#
# Poissons Ratio (x) = 0.53251 0.16986
# Poissons Ratio (y) = 0.35929 0.47443
# Poissons Ratio (z) = 0.07725 0.31979
#
# Static dielectric constant tensor:
#      x y z
#    x 4.123690 0.000000 -0.044870 
#    y 0.000000 4.059380 0.000000 
#    z -0.044870 0.000000 4.225950 
# 
# 
# High freq. dielectric constant tensor:
#      x y z
#    x 1.892400 0.000000 -0.006700 
#    y 0.000000 1.878190 0.000000 
#    z -0.006700 0.000000 1.898920 
# 
# From -- ./inp_files/72444.got.cif
#   From: 2010.03.12/outbox.cif.g09.slc.cpg/sg14_37_cif.got.tgz:72444.got - 2010.03.31 13:35:05.
