data_PCOD8129429
_publ_section_title
;
Structure prediction by ZEFSAII (Michael W. Deem and Ramdas Pophale) SiO2 
 PCOD8129429
Probable space group: P 21/C
;
_chemical_formula_sum "Si O2"
_cell_formula_units_Z 24
_cell_length_a 8.188579
_cell_length_b 17.012563
_cell_length_c 14.315305
_cell_angle_alpha 90.000000
_cell_angle_beta 30.296938
_cell_angle_gamma 90.000000
_cell_volume 1006.060560
_symmetry_space_group_name_H-M "P 21/C"
_symmetry_group_IT_number 14
_symmetry_cell_setting 'monoclinic'
loop_
_space_group_symop_operation_xyz
x,y,z
-x,1/2+y,1/2-z
-x,-y,-z
x,1/2-y,1/2+z
loop_
_atom_site_type_symbol
_atom_site_label
_atom_site_fract_x
_atom_site_fract_y
_atom_site_fract_z
Si Si1 0.076916 0.592968 0.659920
Si Si2 0.430506 0.863525 0.806747
Si Si3 0.503130 0.802402 0.472329
Si Si4 0.143279 0.708595 0.956617
Si Si5 0.178636 0.928542 0.756781
Si Si6 0.503508 0.148559 0.893236
O O1 0.342496 0.594216 0.446565
O O2 0.845342 0.517899 0.765553
O O3 0.267890 0.588616 0.662971
O O4 0.866809 0.673321 0.763486
O O5 0.780709 0.823042 0.643070
O O6 0.414661 0.926944 0.731085
O O7 0.159738 0.798126 0.910900
O O8 0.525380 0.730657 0.534853
O O9 0.308727 0.782040 0.475653
O O10 0.335495 0.878303 0.597970
O O11 0.345926 0.656429 0.784035
O O12 0.833487 0.893811 0.954310
#
# Coordination Sequence:
#
# PCOD8129429 Si02
#       6
#     4   4   4   4   4   4
#     4  12  26  46  71 107 148 187 232 288 355 419
#     4  12  25  45  71 104 143 182 233 294 354 411
#     4  12  25  45  74 105 138 187 239 292 347 416
#     4  12  26  45  74 106 136 180 244 296 345 419
#     4  12  26  46  71 107 148 187 232 288 355 419
#     4  12  25  45  74 105 138 187 239 292 347 416
#
# _framework density 23.855421
#
# number of rings (size 3 to 8) (size 9 to 14) (size 15 to 20)
#    0.000    0.000    3.333    7.500    0.000    0.000 
#    0.000    2.500    0.000    0.000    0.000    0.000 
#    0.000    0.000    0.000    0.000    0.000    0.000 
#
# Total GULP energy -297653.514378 kJ/mol
# GULP energy per Si atom -12402.229766 kJ/mol
# Density = 2.380112 g / cm^3
# Si number density = 23.855421 Si / 1000 Ang^3
#
#
#
# Elastic Constant Matrix: (Units=GPa)
#
#
# Indices 1 2 3 4 5 6 
#
# 1 57.1911 -7.6996 1.3191 0.0000 -8.9279 0.0000
# 2 -7.6996 58.2183 8.6909 0.0000 0.1006 0.0000
# 3 1.3191 8.6909 83.6170 0.0000 2.5396 0.0000
# 4 0.0000 0.0000 0.0000 -954.2257 0.0000 -749.1084
# 5 -8.9279 0.1006 2.5396 0.0000 39.7929 0.0000
# 6 0.0000 0.0000 0.0000 -749.1084 0.0000 -539.7965
#
#
#
# Elastic Compliance Matrix: (Units=1/GPa)
#
#
# Indices 1 2 3 4 5 6 
#
# 1 0.018497 0.002541 -0.000683 0.000000 0.004187 0.000000
# 2 0.002541 0.017797 -0.001909 0.000000 0.000647 0.000000
# 3 -0.000683 -0.001909 0.012197 0.000000 -0.000927 0.000000
# 4 0.000000 0.000000 0.000000 0.011715 0.000000 -0.016258
# 5 0.004187 0.000647 -0.000927 0.000000 0.026127 0.000000
# 6 0.000000 0.000000 0.000000 -0.016258 0.000000 0.020710
#
#
# Mechanical properties :
#
#
# Convention : Reuss Voigt Hill
#
# Bulk Modulus (GPa) = 20.66668 22.62745 21.64707
# Shear Modulus (GPa) = 40.55984 -277.73146 -118.58581
#
# Velocity S-wave (km/s) = 4.12786 -10.80164 -7.05820
# Velocity P-wave (km/s) = 5.60367 12.08559 7.57167
#
# Compressibility (1/GPa) = 0.04838706
#
# Stress axis : x y z
#
# Youngs Moduli (GPa) = 54.06367 56.19011 81.98956
#
# Poissons Ratio (x) = -0.14278 0.05600
# Poissons Ratio (y) = -0.13738 0.15656
# Poissons Ratio (z) = 0.03693 0.10729
#
# Static dielectric constant tensor:
#      x y z
#    x 4.362800 0.000000 0.011130 
#    y 0.000000 4.382900 0.000000 
#    z 0.011130 0.000000 4.474830 
# 
# 
# High freq. dielectric constant tensor:
#      x y z
#    x 1.956770 0.000000 0.005770 
#    y 0.000000 1.936990 0.000000 
#    z 0.005770 0.000000 1.962410 
# 
# From -- ./inp_files/41676.got.cif
#   From: 2010.03.12/outbox.cif.g09.slc.cpg/sg14_21_cif.got.tgz:41676.got - 2010.03.31 13:35:05.
