data_PCOD8129611
_publ_section_title
;
Structure prediction by ZEFSAII (Michael W. Deem and Ramdas Pophale) SiO2 
 PCOD8129611
Probable space group: C 2/C
;
_chemical_formula_sum "Si O2"
_cell_formula_units_Z 60
_cell_length_a 16.507636
_cell_length_b 25.004778
_cell_length_c 8.915773
_cell_angle_alpha 90.000000
_cell_angle_beta 63.462061
_cell_angle_gamma 90.000000
_cell_volume 3292.415031
_symmetry_space_group_name_H-M "C 2/C"
_symmetry_group_IT_number 15
_symmetry_cell_setting 'monoclinic'
loop_
_space_group_symop_operation_xyz
x,y,z
-x,y,1/2-z
-x,-y,-z
x,-y,1/2+z
1/2+x,1/2+y,z
1/2-x,1/2+y,1/2-z
1/2-x,1/2-y,-z
1/2+x,1/2-y,1/2+z
loop_
_atom_site_type_symbol
_atom_site_label
_atom_site_fract_x
_atom_site_fract_y
_atom_site_fract_z
Si Si1 0.608649 0.433465 0.154901
Si Si2 0.955920 0.221272 0.516224
Si Si3 0.228104 0.742483 0.277371
Si Si4 0.000000 0.309752 0.250000
Si Si5 0.194348 0.328233 0.097043
Si Si6 0.591907 0.472641 0.477362
Si Si7 0.872385 0.128670 0.383475
Si Si8 0.630350 0.334090 0.950390
O O1 0.500000 0.432361 0.250000
O O2 0.644917 0.446977 0.291883
O O3 0.647061 0.479909 0.013385
O O4 0.646046 0.376258 0.070980
O O5 0.871899 0.238290 0.695859
O O6 0.996685 0.272648 0.399579
O O7 0.918392 0.180387 0.420793
O O8 0.034449 0.195764 0.553397
O O9 0.211063 0.709462 0.441613
O O10 0.289035 0.793990 0.265846
O O11 0.283805 0.706287 0.112717
O O12 0.910515 0.347437 0.314520
O O13 0.266840 0.376388 0.023978
O O14 0.500000 0.500000 0.500000
O O15 0.575108 0.424933 0.610790
O O16 0.877423 0.134590 0.200745
#
# Coordination Sequence:
#
# PCOD8129611 Si02
#       8
#     8   8   8   4   8   8   8   8
#     4  10  21  32  47  66  89 121 157 189 227 287
#     4  10  15  22  41  66  95 127 160 196 229 260
#     4   8  15  24  36  65  94 121 163 194 224 264
#     4  10  12  22  38  66  98 124 162 194 236 248
#     4   8  14  23  38  64  98 122 157 197 229 265
#     4  10  20  34  45  65  93 122 154 191 228 283
#     4  10  18  28  45  68  96 128 160 191 233 272
#     4  11  17  29  47  68  93 130 161 192 233 265
#
# _framework density 18.223704999999999
#
# number of rings (size 3 to 8) (size 9 to 14) (size 15 to 20)
#    0.000    2.400    2.667    4.000    0.000    3.200 
#    0.000    0.000    0.000    7.200    0.000    0.000 
#    0.000   17.067    0.267    0.000    0.000    1.200 
#
# Total GULP energy -371683.462060 kJ/mol
# GULP energy per Si atom -12389.448735 kJ/mol
# Density = 1.818223 g / cm^3
# Si number density = 18.223705 Si / 1000 Ang^3
#
#
#
# Elastic Constant Matrix: (Units=GPa)
#
#
# Indices 1 2 3 4 5 6 
#
# 1 81.7983 29.0167 31.0419 0.0000 -28.5689 0.0000
# 2 29.0167 68.3685 31.6143 0.0000 -7.1922 0.0000
# 3 31.0419 31.6143 59.9132 0.0000 -12.0215 0.0000
# 4 0.0000 0.0000 0.0000 29.3241 0.0000 -1.6359
# 5 -28.5689 -7.1922 -12.0215 0.0000 22.9435 0.0000
# 6 0.0000 0.0000 0.0000 -1.6359 0.0000 7.8370
#
#
#
# Elastic Compliance Matrix: (Units=1/GPa)
#
#
# Indices 1 2 3 4 5 6 
#
# 1 0.025806 -0.005852 -0.004697 0.000000 0.027838 0.000000
# 2 -0.005852 0.020688 -0.008990 0.000000 -0.005513 0.000000
# 3 -0.004697 -0.008990 0.024729 0.000000 0.004290 0.000000
# 4 0.000000 0.000000 0.000000 0.034503 0.000000 0.007202
# 5 0.027838 -0.005513 0.004290 0.000000 0.078769 0.000000
# 6 0.000000 0.000000 0.000000 0.007202 0.000000 0.129104
#
#
# Mechanical properties :
#
#
# Convention : Reuss Voigt Hill
#
# Bulk Modulus (GPa) = 31.10961 43.71397 37.41179
# Shear Modulus (GPa) = 13.75923 19.91473 16.83698
#
# Velocity S-wave (km/s) = 2.75074 3.30933 3.04288
# Velocity P-wave (km/s) = 5.21505 6.21624 5.73753
#
# Compressibility (1/GPa) = 0.03214441
#
# Stress axis : x y z
#
# Youngs Moduli (GPa) = 38.75003 48.33803 40.43835
#
# Poissons Ratio (x) = 0.28289 0.18993
# Poissons Ratio (y) = 0.22678 0.36355
# Poissons Ratio (z) = 0.18200 0.43457
#
# Static dielectric constant tensor:
#      x y z
#    x 3.506170 0.000000 -0.199680 
#    y 0.000000 3.357000 0.000000 
#    z -0.199680 0.000000 3.500350 
# 
# 
# High freq. dielectric constant tensor:
#      x y z
#    x 1.673680 0.000000 -0.003520 
#    y 0.000000 1.675140 0.000000 
#    z -0.003520 0.000000 1.697890 
# 
# From -- ./inp_files/51214.got.cif
#   From: 2010.06.25/outbox.cif.g09.slc.cpg/sg15_26_cif.got.tgz:51214.got - 2010.06.28 07:06:18.
