data_PCOD8129383
_publ_section_title
;
Structure prediction by ZEFSAII (Michael W. Deem and Ramdas Pophale) SiO2 
 PCOD8129383
Probable space group: P 21/C
;
_chemical_formula_sum "Si O2"
_cell_formula_units_Z 28
_cell_length_a 9.471705
_cell_length_b 18.524220
_cell_length_c 15.339083
_cell_angle_alpha 90.000000
_cell_angle_beta 155.067735
_cell_angle_gamma 90.000000
_cell_volume 1134.522231
_symmetry_space_group_name_H-M "P 21/C"
_symmetry_group_IT_number 14
_symmetry_cell_setting 'monoclinic'
loop_
_space_group_symop_operation_xyz
x,y,z
-x,1/2+y,1/2-z
-x,-y,-z
x,1/2-y,1/2+z
loop_
_atom_site_type_symbol
_atom_site_label
_atom_site_fract_x
_atom_site_fract_y
_atom_site_fract_z
Si Si1 0.742058 0.338674 0.330796
Si Si2 0.051208 0.308710 0.034390
Si Si3 0.636539 0.684685 0.616865
Si Si4 0.659081 0.033810 0.004082
Si Si5 0.676130 0.453658 0.833577
Si Si6 0.256138 0.082936 0.249000
Si Si7 0.273781 0.824195 0.371199
O O1 0.377031 0.338564 0.168527
O O2 0.688414 0.364193 0.200746
O O3 0.892271 0.259391 0.398080
O O4 0.989377 0.387047 0.527764
O O5 0.139949 0.280204 0.181133
O O6 0.762554 0.369352 0.873895
O O7 0.474583 0.615539 0.574177
O O8 0.356152 0.737965 0.419926
O O9 0.888466 0.661969 0.681183
O O10 0.577190 0.979705 0.880758
O O11 0.062759 0.039815 0.218446
O O12 0.500000 0.000000 0.000000
O O13 0.510340 0.467906 0.836027
O O14 0.000000 0.500000 0.000000
O O15 0.470339 0.144310 0.414984
#
# Coordination Sequence:
#
# PCOD8129383 Si02
#       7
#     4   4   4   4   4   4   4
#     4  12  26  43  75 110 139 188 235 300 366 425
#     4  12  23  45  71 104 146 184 237 296 364 423
#     4  12  23  49  68 106 149 183 236 299 359 420
#     4  12  29  46  72 104 144 195 241 290 354 431
#     4  12  25  48  72 101 141 194 238 289 354 432
#     4  12  25  51  74 104 145 187 239 304 360 420
#     4  12  26  43  78 109 142 182 238 304 360 424
#
# _framework density 24.679991999999999
#
# number of rings (size 3 to 8) (size 9 to 14) (size 15 to 20)
#    0.000    0.000    5.714    3.857    6.000    0.000 
#    0.000    1.429    0.000    0.000    0.000    0.000 
#    0.000    0.000    0.000    0.000    0.000    0.000 
#
# Total GULP energy -347077.639608 kJ/mol
# GULP energy per Si atom -12395.629986 kJ/mol
# Density = 2.462382 g / cm^3
# Si number density = 24.679992 Si / 1000 Ang^3
#
#
#
# Elastic Constant Matrix: (Units=GPa)
#
#
# Indices 1 2 3 4 5 6 
#
# 1 191.8138 28.3658 33.0318 0.0000 24.6500 0.0000
# 2 28.3658 47.9222 13.8013 0.0000 5.6926 0.0000
# 3 33.0318 13.8013 58.3614 0.0000 12.1379 0.0000
# 4 0.0000 0.0000 0.0000 23.6534 0.0000 3.4895
# 5 24.6500 5.6926 12.1379 0.0000 54.9868 0.0000
# 6 0.0000 0.0000 0.0000 3.4895 0.0000 37.7628
#
#
#
# Elastic Compliance Matrix: (Units=1/GPa)
#
#
# Indices 1 2 3 4 5 6 
#
# 1 0.006311 -0.002779 -0.002501 0.000000 -0.001989 0.000000
# 2 -0.002779 0.023692 -0.003961 0.000000 -0.000333 0.000000
# 3 -0.002501 -0.003961 0.020091 0.000000 -0.002904 0.000000
# 4 0.000000 0.000000 0.000000 0.042862 0.000000 -0.003961
# 5 -0.001989 -0.000333 -0.002904 0.000000 0.019753 0.000000
# 6 0.000000 0.000000 0.000000 -0.003961 0.000000 0.026847
#
#
# Mechanical properties :
#
#
# Convention : Reuss Voigt Hill
#
# Bulk Modulus (GPa) = 31.63303 49.83280 40.73292
# Shear Modulus (GPa) = 29.66061 38.14050 33.90056
#
# Velocity S-wave (km/s) = 3.47047 3.93542 3.71024
# Velocity P-wave (km/s) = 5.37624 6.39418 5.90718
#
# Compressibility (1/GPa) = 0.03161253
#
# Stress axis : x y z
#
# Youngs Moduli (GPa) = 158.46265 42.20806 49.77448
#
# Poissons Ratio (x) = 0.11729 0.12448
# Poissons Ratio (y) = 0.44034 0.19714
# Poissons Ratio (z) = 0.39630 0.16718
#
# Static dielectric constant tensor:
#      x y z
#    x 5.412700 0.000000 0.653460 
#    y 0.000000 3.804390 0.000000 
#    z 0.653460 0.000000 4.505310 
# 
# 
# High freq. dielectric constant tensor:
#      x y z
#    x 2.005860 0.000000 0.012390 
#    y 0.000000 1.973850 0.000000 
#    z 0.012390 0.000000 1.977450 
# 
# From -- ./inp_files/42116.got.cif
#   From: 2010.03.12/outbox.cif.g09.slc.cpg/sg14_22_cif.got.tgz:42116.got - 2010.03.31 13:35:05.
