data_PCOD8129005
_publ_section_title
;
Structure prediction by ZEFSAII (Michael W. Deem and Ramdas Pophale) SiO2 
 PCOD8129005
Probable space group: P 21/C
;
_chemical_formula_sum "Si O2"
_cell_formula_units_Z 28
_cell_length_a 6.482589
_cell_length_b 26.740652
_cell_length_c 7.743636
_cell_angle_alpha 90.000000
_cell_angle_beta 111.136089
_cell_angle_gamma 90.000000
_cell_volume 1252.044520
_symmetry_space_group_name_H-M "P 21/C"
_symmetry_group_IT_number 14
_symmetry_cell_setting 'monoclinic'
loop_
_space_group_symop_operation_xyz
x,y,z
-x,1/2+y,1/2-z
-x,-y,-z
x,1/2-y,1/2+z
loop_
_atom_site_type_symbol
_atom_site_label
_atom_site_fract_x
_atom_site_fract_y
_atom_site_fract_z
Si Si1 0.819180 0.304583 0.940475
Si Si2 0.442669 0.121800 0.267351
Si Si3 0.028480 0.893648 0.983046
Si Si4 0.278577 0.148994 0.578203
Si Si5 0.788714 0.452334 0.783021
Si Si6 0.713168 0.194217 0.797258
Si Si7 0.082400 0.438346 0.205316
O O1 0.055805 0.323795 0.942247
O O2 0.826859 0.314527 0.146958
O O3 0.622186 0.334476 0.785413
O O4 0.784606 0.246525 0.897815
O O5 0.216068 0.130953 0.096360
O O6 0.392461 0.119325 0.455678
O O7 0.541366 0.069255 0.227598
O O8 0.072873 0.925932 0.826237
O O9 0.046310 0.930107 0.154056
O O10 0.204287 0.848950 0.049029
O O11 0.446873 0.191160 0.700930
O O12 0.241614 0.108703 0.718044
O O13 0.772622 0.511256 0.741891
O O14 0.905601 0.440696 0.999104
#
# Coordination Sequence:
#
# PCOD8129005 Si02
#       7
#     4   4   4   4   4   4   4
#     4  11  25  45  67 104 136 180 233 284 350 418
#     4  11  24  44  69 100 140 184 226 289 345 410
#     4  12  25  46  69 105 142 185 235 292 346 421
#     4  11  23  49  68  99 148 177 228 291 342 420
#     4  11  25  46  71 102 142 187 238 287 347 421
#     4  11  28  41  73  99 135 187 227 286 352 413
#     4  11  23  47  71 102 143 185 234 291 351 410
#
# _framework density 22.363420999999999
#
# number of rings (size 3 to 8) (size 9 to 14) (size 15 to 20)
#    0.000    0.857    4.286    1.286    8.000    2.286 
#    2.571    0.000    0.000    0.000    0.000    0.000 
#    0.000    0.000    0.000    0.000    0.000    0.000 
#
# Total GULP energy -347322.093966 kJ/mol
# GULP energy per Si atom -12404.360499 kJ/mol
# Density = 2.231252 g / cm^3
# Si number density = 22.363421 Si / 1000 Ang^3
#
#
#
# Elastic Constant Matrix: (Units=GPa)
#
#
# Indices 1 2 3 4 5 6 
#
# 1 109.9618 41.3433 37.6340 0.0000 18.7203 0.0000
# 2 41.3433 129.9067 37.1317 0.0000 5.4587 0.0000
# 3 37.6340 37.1317 93.9816 0.0000 5.1365 0.0000
# 4 0.0000 0.0000 0.0000 29.3063 0.0000 -4.0509
# 5 18.7203 5.4587 5.1365 0.0000 30.8572 0.0000
# 6 0.0000 0.0000 0.0000 -4.0509 0.0000 26.5338
#
#
#
# Elastic Compliance Matrix: (Units=1/GPa)
#
#
# Indices 1 2 3 4 5 6 
#
# 1 0.012416 -0.002660 -0.003568 0.000000 -0.006468 0.000000
# 2 -0.002660 0.009277 -0.002622 0.000000 0.000409 0.000000
# 3 -0.003568 -0.002622 0.013080 0.000000 0.000451 0.000000
# 4 0.000000 0.000000 0.000000 0.034858 0.000000 0.005322
# 5 -0.006468 0.000409 0.000451 0.000000 0.036184 0.000000
# 6 0.000000 0.000000 0.000000 0.005322 0.000000 0.038500
#
#
# Mechanical properties :
#
#
# Convention : Reuss Voigt Hill
#
# Bulk Modulus (GPa) = 58.56982 62.89647 60.73314
# Shear Modulus (GPa) = 29.81390 31.85551 30.83470
#
# Velocity S-wave (km/s) = 3.65520 3.77828 3.71725
# Velocity P-wave (km/s) = 6.63783 6.87165 6.75576
#
# Compressibility (1/GPa) = 0.01707364
#
# Stress axis : x y z
#
# Youngs Moduli (GPa) = 80.53907 107.79610 76.45018
#
# Poissons Ratio (x) = 0.28674 0.27274
# Poissons Ratio (y) = 0.21424 0.20048
# Poissons Ratio (z) = 0.28732 0.28268
#
# Static dielectric constant tensor:
#      x y z
#    x 4.132810 0.000000 -0.047840 
#    y 0.000000 4.086210 0.000000 
#    z -0.047840 0.000000 4.020090 
# 
# 
# High freq. dielectric constant tensor:
#      x y z
#    x 1.885040 0.000000 -0.005720 
#    y 0.000000 1.877380 0.000000 
#    z -0.005720 0.000000 1.886720 
# 
# From -- ./inp_files/7015.got.cif
#   From: 2010.03.12/outbox.cif.g09.slc.cpg/sg14_4_cif.got.tgz:7015.got - 2010.03.31 13:35:05.
