data_PCOD8129250
_publ_section_title
;
Structure prediction by ZEFSAII (Michael W. Deem and Ramdas Pophale) SiO2 
 PCOD8129250
Probable space group: P 21/C
;
_chemical_formula_sum "Si O2"
_cell_formula_units_Z 24
_cell_length_a 9.592583
_cell_length_b 11.685717
_cell_length_c 11.198031
_cell_angle_alpha 90.000000
_cell_angle_beta 114.492710
_cell_angle_gamma 90.000000
_cell_volume 1142.301329
_symmetry_space_group_name_H-M "P 21/C"
_symmetry_group_IT_number 14
_symmetry_cell_setting 'monoclinic'
loop_
_space_group_symop_operation_xyz
x,y,z
-x,1/2+y,1/2-z
-x,-y,-z
x,1/2-y,1/2+z
loop_
_atom_site_type_symbol
_atom_site_label
_atom_site_fract_x
_atom_site_fract_y
_atom_site_fract_z
Si Si1 0.393615 0.668550 0.947593
Si Si2 0.077258 0.963078 0.706038
Si Si3 0.072059 0.670400 0.970311
Si Si4 0.079970 0.411209 0.616416
Si Si5 0.592054 0.074369 0.124533
Si Si6 0.586576 0.545779 0.207183
O O1 0.234560 0.672482 0.962454
O O2 0.433694 0.791558 0.908169
O O3 0.381146 0.580588 0.833056
O O4 0.533544 0.630913 0.082892
O O5 0.092937 0.861314 0.615957
O O6 0.234120 0.964794 0.835318
O O7 0.943421 0.939268 0.752460
O O8 0.045575 0.082982 0.631859
O O9 0.990909 0.790855 0.941264
O O10 0.263663 0.409029 0.669146
O O11 0.000000 0.500000 0.500000
O O12 0.548144 0.040841 0.243731
O O13 0.500000 0.000000 0.000000
#
# Coordination Sequence:
#
# PCOD8129250 Si02
#       6
#     4   4   4   4   4   4
#     4  11  25  48  73  97 143 189 221 296 354 400
#     4  11  25  46  71 103 136 186 235 277 350 415
#     4  11  25  46  75  98 140 190 229 287 348 406
#     4  12  27  43  73 106 139 180 235 289 338 415
#     4  12  27  43  74 105 140 180 234 287 347 415
#     4  11  27  46  70 105 141 178 235 286 352 415
#
# _framework density 21.010217000000001
#
# number of rings (size 3 to 8) (size 9 to 14) (size 15 to 20)
#    0.000    0.667    5.000    1.000    9.333    1.333 
#    0.000    0.000    0.000    0.000    0.000    0.000 
#    0.000    0.000    0.000    0.000    0.000    0.000 
#
# Total GULP energy -297739.365353 kJ/mol
# GULP energy per Si atom -12405.806890 kJ/mol
# Density = 2.096240 g / cm^3
# Si number density = 21.010217 Si / 1000 Ang^3
#
#
#
# Elastic Constant Matrix: (Units=GPa)
#
#
# Indices 1 2 3 4 5 6 
#
# 1 68.6860 37.8374 23.2728 0.0000 3.4371 0.0000
# 2 37.8374 155.9255 54.9383 0.0000 7.4666 0.0000
# 3 23.2728 54.9383 99.0763 0.0000 7.3186 0.0000
# 4 0.0000 0.0000 0.0000 21.3536 0.0000 1.4458
# 5 3.4371 7.4666 7.3186 0.0000 53.6332 0.0000
# 6 0.0000 0.0000 0.0000 1.4458 0.0000 32.7533
#
#
#
# Elastic Compliance Matrix: (Units=1/GPa)
#
#
# Indices 1 2 3 4 5 6 
#
# 1 0.017169 -0.003403 -0.002121 0.000000 -0.000337 0.000000
# 2 -0.003403 0.008659 -0.003969 0.000000 -0.000446 0.000000
# 3 -0.002121 -0.003969 0.012871 0.000000 -0.001068 0.000000
# 4 0.000000 0.000000 0.000000 0.046971 0.000000 -0.002073
# 5 -0.000337 -0.000446 -0.001068 0.000000 0.018875 0.000000
# 6 0.000000 0.000000 0.000000 -0.002073 0.000000 0.030623
#
#
# Mechanical properties :
#
#
# Convention : Reuss Voigt Hill
#
# Bulk Modulus (GPa) = 50.72804 61.75388 56.24096
# Shear Modulus (GPa) = 31.10906 35.39063 33.24984
#
# Velocity S-wave (km/s) = 3.85211 4.10866 3.98245
# Velocity P-wave (km/s) = 6.63189 7.20862 6.92626
#
# Compressibility (1/GPa) = 0.01971296
#
# Stress axis : x y z
#
# Youngs Moduli (GPa) = 58.24405 115.48837 77.69221
#
# Poissons Ratio (x) = 0.39298 0.16480
# Poissons Ratio (y) = 0.19819 0.30837
# Poissons Ratio (z) = 0.12355 0.45839
#
# Static dielectric constant tensor:
#      x y z
#    x 4.216740 0.000000 0.185810 
#    y 0.000000 3.933650 0.000000 
#    z 0.185810 0.000000 4.208130 
# 
# 
# High freq. dielectric constant tensor:
#      x y z
#    x 1.834730 0.000000 0.001350 
#    y 0.000000 1.827350 0.000000 
#    z 0.001350 0.000000 1.838200 
# 
# From -- ./inp_files/24073.got.cif
#   From: 2010.03.12/outbox.cif.g09.slc.cpg/sg14_13_cif.got.tgz:24073.got - 2010.03.31 13:35:05.
