data_PCOD8129585
_publ_section_title
;
Structure prediction by ZEFSAII (Michael W. Deem and Ramdas Pophale) SiO2 
 PCOD8129585
Probable space group: C 2/C
;
_chemical_formula_sum "Si O2"
_cell_formula_units_Z 32
_cell_length_a 24.000000
_cell_length_b 21.000000
_cell_length_c 18.000000
_cell_angle_alpha 90.000000
_cell_angle_beta 160.000000
_cell_angle_gamma 90.000000
_cell_volume 3102.806740
_symmetry_space_group_name_H-M "C 2/C"
_symmetry_group_IT_number 15
_symmetry_cell_setting 'monoclinic'
loop_
_space_group_symop_operation_xyz
x,y,z
-x,y,1/2-z
-x,-y,-z
x,-y,1/2+z
1/2+x,1/2+y,z
1/2-x,1/2+y,1/2-z
1/2-x,1/2-y,-z
1/2+x,1/2-y,1/2+z
loop_
_atom_site_type_symbol
_atom_site_label
_atom_site_fract_x
_atom_site_fract_y
_atom_site_fract_z
Si Si1 0.411058 0.055870 0.769666
Si Si2 0.678991 0.959521 0.053568
Si Si3 0.626011 0.835195 0.467814
Si Si4 0.153682 0.934091 0.825897
Si Si5 0.792704 0.906348 0.348874
Si Si6 0.830293 0.336165 0.560555
Si Si7 0.246236 0.263089 0.257119
Si Si8 0.372161 0.228554 0.259714
O O1 0.525522 0.114625 0.891182
O O2 0.240427 0.052476 0.512754
O O3 0.358432 0.067798 0.789681
O O4 0.507858 0.990896 0.867923
O O5 0.767431 0.929862 0.234249
O O6 0.800416 0.012160 0.175577
O O7 0.659546 0.906785 0.963070
O O8 0.500000 0.805642 0.250000
O O9 0.779120 0.867207 0.619468
O O10 0.710221 0.780264 0.619234
O O11 0.959793 0.933372 0.592820
O O12 0.818327 0.830946 0.371462
O O13 0.678688 0.296643 0.338759
O O14 0.820254 0.330388 0.639070
O O15 0.000000 0.301248 0.750000
O O16 0.303923 0.224706 0.256932
O O17 0.060834 0.275144 0.008595
#
# Coordination Sequence:
#
# PCOD8129585 Si02
#       8
#     8   8   8   8   8   8   8   8
#     4  10  22  41  65  89 123 168 215 271 317 391
#     4  11  22  42  68  89 125 174 217 258 329 393
#     4   9  21  40  62  91 122 171 213 260 330 387
#     4  10  22  41  65  88 126 164 217 272 318 383
#     4  12  23  39  62  98 126 164 209 274 329 376
#     4  11  21  40  66  91 127 172 215 256 324 382
#     4  12  23  40  65  95 136 167 215 267 327 396
#     4  11  23  39  63  95 129 172 211 263 314 392
#
# _framework density 10.313243
#
# number of rings (size 3 to 8) (size 9 to 14) (size 15 to 20)
#    0.000    1.250    2.500    4.500    0.000    1.000 
#    0.000    5.625    5.500    0.000    0.000    0.000 
#    0.000    0.000    0.000    0.000    0.000    0.000 
#
# Total GULP energy -396458.700127 kJ/mol
# GULP energy per Si atom -12389.334379 kJ/mol
# Density = 1.028977 g / cm^3
# Si number density = 10.313243 Si / 1000 Ang^3
#
#
#
# Elastic Constant Matrix: (Units=GPa)
#
#
# Indices 1 2 3 4 5 6 
#
# 1 89.5693 18.3283 -0.4198 -0.0005 -12.4765 0.0001
# 2 18.3283 80.0088 22.2497 -0.0001 -25.5061 0.0000
# 3 -0.4198 22.2497 88.6243 -0.0010 -9.2449 0.0002
# 4 -0.0005 -0.0001 -0.0010 46.2658 -0.0003 -12.5922
# 5 -12.4765 -25.5061 -9.2449 -0.0003 37.4465 0.0001
# 6 0.0001 0.0000 0.0002 -12.5922 0.0001 40.5992
#
#
#
# Elastic Compliance Matrix: (Units=1/GPa)
#
#
# Indices 1 2 3 4 5 6 
#
# 1 0.011986 -0.002104 0.000875 0.000000 0.002776 0.000000
# 2 -0.002104 0.017123 -0.003249 0.000000 0.010160 0.000000
# 3 0.000875 -0.003249 0.012218 0.000000 0.001095 0.000000
# 4 0.000000 0.000000 0.000000 0.023607 0.000000 0.007322
# 5 0.002776 0.010160 0.001095 0.000000 0.034820 0.000000
# 6 0.000000 0.000000 0.000000 0.007322 0.000000 0.026902
#
#
# Mechanical properties :
#
#
# Convention : Reuss Voigt Hill
#
# Bulk Modulus (GPa) = 30.89278 37.61320 34.25299
# Shear Modulus (GPa) = 34.15247 39.39859 36.77553
#
# Velocity S-wave (km/s) = 4.07352 4.37521 4.22705
# Velocity P-wave (km/s) = 6.09380 6.61802 6.36132
#
# Compressibility (1/GPa) = 0.03237003
#
# Stress axis : x y z
#
# Youngs Moduli (GPa) = 83.43151 58.40104 81.84911
#
# Poissons Ratio (x) = 0.12287 -0.07158
# Poissons Ratio (y) = 0.17553 0.26592
# Poissons Ratio (z) = -0.07297 0.18974
#
# Static dielectric constant tensor:
#      x y z
#    x 3.920570 0.000000 -0.110420 
#    y 0.000000 3.816330 0.000000 
#    z -0.110420 0.000000 3.812590 
# 
# 
# High freq. dielectric constant tensor:
#      x y z
#    x 1.817330 0.000000 -0.011030 
#    y 0.000000 1.799690 0.000000 
#    z -0.011030 0.000000 1.820850 
# 
# From -- ./inp_files/220277.got.cif
#   From: 2010.06.25/outbox.ucp.g09.slc.cvg/sg15_111_cif.got.tgz:220277.got - 2010.06.28 14:40:10.
