data_PCOD8129382
_publ_section_title
;
Structure prediction by ZEFSAII (Michael W. Deem and Ramdas Pophale) SiO2 
 PCOD8129382
Probable space group: P 21/C
;
_chemical_formula_sum "Si O2"
_cell_formula_units_Z 24
_cell_length_a 8.270599
_cell_length_b 8.668364
_cell_length_c 13.990492
_cell_angle_alpha 90.000000
_cell_angle_beta 75.982176
_cell_angle_gamma 90.000000
_cell_volume 973.144882
_symmetry_space_group_name_H-M "P 21/C"
_symmetry_group_IT_number 14
_symmetry_cell_setting 'monoclinic'
loop_
_space_group_symop_operation_xyz
x,y,z
-x,1/2+y,1/2-z
-x,-y,-z
x,1/2-y,1/2+z
loop_
_atom_site_type_symbol
_atom_site_label
_atom_site_fract_x
_atom_site_fract_y
_atom_site_fract_z
Si Si1 0.132394 0.943885 0.235389
Si Si2 0.649369 0.199273 0.408344
Si Si3 0.551664 0.978047 0.710879
Si Si4 0.885739 0.566696 0.935005
Si Si5 0.007498 0.371279 0.577624
Si Si6 0.369130 0.702672 0.384134
O O1 0.220923 0.793680 0.175728
O O2 0.977013 0.896964 0.321774
O O3 0.258396 0.044490 0.282761
O O4 0.054322 0.055046 0.169818
O O5 0.493942 0.145041 0.365799
O O6 0.593880 0.303539 0.506882
O O7 0.728263 0.042610 0.441624
O O8 0.437102 0.951494 0.821885
O O9 0.531177 0.152472 0.675677
O O10 0.849843 0.744520 0.971873
O O11 0.000000 0.500000 0.000000
O O12 0.827900 0.283874 0.608459
O O13 0.000000 0.500000 0.500000
#
# Coordination Sequence:
#
# PCOD8129382 Si02
#       6
#     4   4   4   4   4   4
#     4  12  25  48  74 108 151 200 254 315 377 450
#     4  12  26  50  77 108 156 205 259 314 379 467
#     4  12  26  50  75 109 161 199 251 319 382 471
#     4  12  23  44  77 110 149 196 254 315 378 443
#     4  12  25  49  77 111 147 196 260 317 377 450
#     4  12  26  53  71 112 151 203 256 310 386 454
#
# _framework density 24.662310000000002
#
# number of rings (size 3 to 8) (size 9 to 14) (size 15 to 20)
#    0.000    0.000    6.667    2.500    2.333    0.667 
#    9.000    0.000    0.000    0.000    0.000    0.000 
#    0.000    0.000    0.000    0.000    0.000    0.000 
#
# Total GULP energy -297467.471440 kJ/mol
# GULP energy per Si atom -12394.477977 kJ/mol
# Density = 2.460618 g / cm^3
# Si number density = 24.662310 Si / 1000 Ang^3
#
#
#
# Elastic Constant Matrix: (Units=GPa)
#
#
# Indices 1 2 3 4 5 6 
#
# 1 74.9600 26.2960 26.7295 0.0000 26.6999 0.0000
# 2 26.2960 121.5763 48.3399 0.0000 5.5586 0.0000
# 3 26.7295 48.3399 123.0641 0.0000 17.9898 0.0000
# 4 0.0000 0.0000 0.0000 46.7247 0.0000 2.2268
# 5 26.6999 5.5586 17.9898 0.0000 49.0225 0.0000
# 6 0.0000 0.0000 0.0000 2.2268 0.0000 47.6949
#
#
#
# Elastic Compliance Matrix: (Units=1/GPa)
#
#
# Indices 1 2 3 4 5 6 
#
# 1 0.018087 -0.002917 -0.001470 0.000000 -0.008981 0.000000
# 2 -0.002917 0.010223 -0.003640 0.000000 0.001765 0.000000
# 3 -0.001470 -0.003640 0.010247 0.000000 -0.002547 0.000000
# 4 0.000000 0.000000 0.000000 0.021450 0.000000 -0.001001
# 5 -0.008981 0.001765 -0.002547 0.000000 0.026025 0.000000
# 6 0.000000 0.000000 0.000000 -0.001001 0.000000 0.021013
#
#
# Mechanical properties :
#
#
# Convention : Reuss Voigt Hill
#
# Bulk Modulus (GPa) = 44.43840 58.03679 51.23760
# Shear Modulus (GPa) = 38.28511 43.23742 40.76126
#
# Velocity S-wave (km/s) = 3.94429 4.19164 4.06984
# Velocity P-wave (km/s) = 6.22905 6.85639 6.55024
#
# Compressibility (1/GPa) = 0.02250306
#
# Stress axis : x y z
#
# Youngs Moduli (GPa) = 55.28939 97.82051 97.58716
#
# Poissons Ratio (x) = 0.28534 0.14343
# Poissons Ratio (y) = 0.16128 0.35522
# Poissons Ratio (z) = 0.08126 0.35607
#
# Static dielectric constant tensor:
#      x y z
#    x 5.030560 0.000000 0.329390 
#    y 0.000000 4.950590 0.000000 
#    z 0.329390 0.000000 4.760080 
# 
# 
# High freq. dielectric constant tensor:
#      x y z
#    x 1.962510 0.000000 0.023760 
#    y 0.000000 1.987990 0.000000 
#    z 0.023760 0.000000 2.004820 
# 
# From -- ./inp_files/38910.got.cif
#   From: 2010.03.12/outbox.cif.g09.slc.cpg/sg14_20_cif.got.tgz:38910.got - 2010.03.31 13:35:05.
