data_PCOD8129856
_publ_section_title
;
Structure prediction by ZEFSAII (Michael W. Deem and Ramdas Pophale) SiO2 
 PCOD8129856
Probable space group: C 2/C
;
_chemical_formula_sum "Si O2"
_cell_formula_units_Z 48
_cell_length_a 19.173642
_cell_length_b 19.438261
_cell_length_c 10.812922
_cell_angle_alpha 90.000000
_cell_angle_beta 43.140383
_cell_angle_gamma 90.000000
_cell_volume 2755.666885
_symmetry_space_group_name_H-M "C 2/C"
_symmetry_group_IT_number 15
_symmetry_cell_setting 'monoclinic'
loop_
_space_group_symop_operation_xyz
x,y,z
-x,y,1/2-z
-x,-y,-z
x,-y,1/2+z
1/2+x,1/2+y,z
1/2-x,1/2+y,1/2-z
1/2-x,1/2-y,-z
1/2+x,1/2-y,1/2+z
loop_
_atom_site_type_symbol
_atom_site_label
_atom_site_fract_x
_atom_site_fract_y
_atom_site_fract_z
Si Si1 0.904328 0.232335 0.309394
Si Si2 0.491692 0.837207 0.008927
Si Si3 0.694550 0.188671 0.140971
Si Si4 0.242008 0.323630 0.855329
Si Si5 0.904000 0.440429 0.461920
Si Si6 0.385952 0.908325 0.947772
O O1 0.952493 0.299151 0.180847
O O2 0.823637 0.256848 0.517635
O O3 0.852629 0.181307 0.276950
O O4 0.000000 0.193347 0.250000
O O5 0.554805 0.907298 0.963012
O O6 0.576223 0.791610 0.825488
O O7 0.392565 0.855535 0.055206
O O8 0.755741 0.174105 0.189106
O O9 0.692927 0.121579 0.051919
O O10 0.750000 0.250000 0.000000
O O11 0.185863 0.392312 0.975736
O O12 0.853855 0.516265 0.539434
O O13 0.000000 0.443647 0.250000
O O14 0.500000 0.912826 0.750000
#
# Coordination Sequence:
#
# PCOD8129856 Si02
#       6
#     8   8   8   8   8   8
#     4  11  18  33  51  74  98 132 171 206 255 288
#     4  10  17  31  49  73 105 134 160 210 248 304
#     4  10  19  33  46  72 105 134 171 202 244 305
#     4  10  20  31  51  71 103 131 169 211 246 299
#     4  10  16  31  47  76 106 134 161 204 256 302
#     4   9  19  28  48  73 104 138 161 195 261 312
#
# _framework density 17.418652000000002
#
# number of rings (size 3 to 8) (size 9 to 14) (size 15 to 20)
#    0.000    2.000    5.000    1.500    0.000    1.333 
#    0.000    0.000    0.000    0.000    0.000    8.167 
#    0.000    0.000    0.000    0.000    0.000    0.000 
#
# Total GULP energy -297371.327084 kJ/mol
# GULP energy per Si atom -12390.471962 kJ/mol
# Density = 1.737901 g / cm^3
# Si number density = 17.418652 Si / 1000 Ang^3
#
#
#
# Elastic Constant Matrix: (Units=GPa)
#
#
# Indices 1 2 3 4 5 6 
#
# 1 160.4725 50.5791 28.2675 0.0000 -0.8303 0.0000
# 2 50.5791 77.9921 27.8154 0.0000 -1.8276 0.0000
# 3 28.2675 27.8154 53.1971 0.0000 5.2422 0.0000
# 4 0.0000 0.0000 0.0000 16.9482 0.0000 1.9273
# 5 -0.8303 -1.8276 5.2422 0.0000 22.1374 0.0000
# 6 0.0000 0.0000 0.0000 1.9273 0.0000 28.5058
#
#
#
# Elastic Compliance Matrix: (Units=1/GPa)
#
#
# Indices 1 2 3 4 5 6 
#
# 1 0.007987 -0.004478 -0.001941 0.000000 0.000389 0.000000
# 2 -0.004478 0.018516 -0.007613 0.000000 0.003163 0.000000
# 3 -0.001941 -0.007613 0.024450 0.000000 -0.006491 0.000000
# 4 0.000000 0.000000 0.000000 0.059460 0.000000 -0.004020
# 5 0.000389 0.003163 -0.006491 0.000000 0.046985 0.000000
# 6 0.000000 0.000000 0.000000 -0.004020 0.000000 0.035352
#
#
# Mechanical properties :
#
#
# Convention : Reuss Voigt Hill
#
# Bulk Modulus (GPa) = 43.69254 56.10956 49.90105
# Shear Modulus (GPa) = 21.88717 25.85162 23.86939
#
# Velocity S-wave (km/s) = 3.54861 3.85663 3.70582
# Velocity P-wave (km/s) = 6.47521 7.21898 6.85719
#
# Compressibility (1/GPa) = 0.02288720
#
# Stress axis : x y z
#
# Youngs Moduli (GPa) = 125.20290 54.00877 40.90017
#
# Poissons Ratio (x) = 0.24187 0.07938
# Poissons Ratio (y) = 0.56071 0.31139
# Poissons Ratio (z) = 0.24300 0.41119
#
# Static dielectric constant tensor:
#      x y z
#    x 3.531500 0.000000 0.157530 
#    y 0.000000 3.265370 0.000000 
#    z 0.157530 0.000000 3.136820 
# 
# 
# High freq. dielectric constant tensor:
#      x y z
#    x 1.678850 0.000000 0.024510 
#    y 0.000000 1.638700 0.000000 
#    z 0.024510 0.000000 1.649360 
# 
# From -- ./inp_files/99176.got.cif
#   From: 2010.06.25/outbox.cif.g09.slc.cpg/sg15_50_cif.got.tgz:99176.got - 2010.06.28 07:06:18.
