data_PCOD8129189
_publ_section_title
;
Structure prediction by ZEFSAII (Michael W. Deem and Ramdas Pophale) SiO2 
 PCOD8129189
Probable space group: P 21/C
;
_chemical_formula_sum "Si O2"
_cell_formula_units_Z 20
_cell_length_a 18.898959
_cell_length_b 6.572506
_cell_length_c 9.541714
_cell_angle_alpha 90.000000
_cell_angle_beta 51.432904
_cell_angle_gamma 90.000000
_cell_volume 926.690287
_symmetry_space_group_name_H-M "P 21/C"
_symmetry_group_IT_number 14
_symmetry_cell_setting 'monoclinic'
loop_
_space_group_symop_operation_xyz
x,y,z
-x,1/2+y,1/2-z
-x,-y,-z
x,1/2-y,1/2+z
loop_
_atom_site_type_symbol
_atom_site_label
_atom_site_fract_x
_atom_site_fract_y
_atom_site_fract_z
Si Si1 0.682689 0.006449 0.726455
Si Si2 0.381660 0.796616 0.923410
Si Si3 0.890241 0.954076 0.505242
Si Si4 0.557572 0.642457 0.826127
Si Si5 0.016711 0.303834 0.387140
O O1 0.784975 0.932932 0.604297
O O2 0.615875 0.814680 0.833896
O O3 0.666276 0.109205 0.595671
O O4 0.664871 0.174305 0.868364
O O5 0.488435 0.753631 0.806642
O O6 0.371880 0.004596 0.847378
O O7 0.945975 0.852644 0.311494
O O8 0.910932 0.839549 0.624730
O O9 0.920871 0.188500 0.484870
O O10 0.500000 0.500000 0.000000
O O11 0.000000 0.500000 0.500000
#
# Coordination Sequence:
#
# PCOD8129189 Si02
#       5
#     4   4   4   4   4
#     4  12  29  42  71 107 138 182 238 291 337 420
#     4  12  25  45  67  99 140 183 229 286 349 403
#     4  11  27  45  73 106 137 185 232 288 351 412
#     4  12  24  45  69  97 140 185 232 282 351 406
#     4  11  24  48  72 100 144 183 226 287 359 417
#
# _framework density 21.582184999999999
#
# number of rings (size 3 to 8) (size 9 to 14) (size 15 to 20)
#    0.000    0.400    6.000    1.800    5.600    1.600 
#    0.000    0.000    0.000    0.000    0.000    0.000 
#    0.000    0.000    0.000    0.000    0.000    0.000 
#
# Total GULP energy -248115.110501 kJ/mol
# GULP energy per Si atom -12405.755525 kJ/mol
# Density = 2.153306 g / cm^3
# Si number density = 21.582185 Si / 1000 Ang^3
#
#
#
# Elastic Constant Matrix: (Units=GPa)
#
#
# Indices 1 2 3 4 5 6 
#
# 1 126.6418 48.7323 28.1795 0.0000 -8.5094 0.0000
# 2 48.7323 118.9090 37.4253 0.0000 1.4875 0.0000
# 3 28.1795 37.4253 65.2954 0.0000 12.7179 0.0000
# 4 0.0000 0.0000 0.0000 44.6939 0.0000 13.4591
# 5 -8.5094 1.4875 12.7179 0.0000 32.3058 0.0000
# 6 0.0000 0.0000 0.0000 13.4591 0.0000 33.2583
#
#
#
# Elastic Compliance Matrix: (Units=1/GPa)
#
#
# Indices 1 2 3 4 5 6 
#
# 1 0.010136 -0.003142 -0.003381 0.000000 0.004146 0.000000
# 2 -0.003142 0.011355 -0.005295 0.000000 0.000734 0.000000
# 3 -0.003381 -0.005295 0.021591 0.000000 -0.009146 0.000000
# 4 0.000000 0.000000 0.000000 0.025480 0.000000 -0.010311
# 5 0.004146 0.000734 -0.009146 0.000000 0.035613 0.000000
# 6 0.000000 0.000000 0.000000 -0.010311 0.000000 0.034241
#
#
# Mechanical properties :
#
#
# Convention : Reuss Voigt Hill
#
# Bulk Modulus (GPa) = 51.42636 59.94671 55.68654
# Shear Modulus (GPa) = 29.66772 35.15219 32.40995
#
# Velocity S-wave (km/s) = 3.71164 4.04017 3.87938
# Velocity P-wave (km/s) = 6.49986 7.04274 6.77674
#
# Compressibility (1/GPa) = 0.01944528
#
# Stress axis : x y z
#
# Youngs Moduli (GPa) = 98.65666 88.06810 46.31596
#
# Poissons Ratio (x) = 0.27669 0.15660
# Poissons Ratio (y) = 0.30996 0.24526
# Poissons Ratio (z) = 0.33357 0.46635
#
# Static dielectric constant tensor:
#      x y z
#    x 3.889450 0.000000 0.251600 
#    y 0.000000 4.115420 0.000000 
#    z 0.251600 0.000000 3.848890 
# 
# 
# High freq. dielectric constant tensor:
#      x y z
#    x 1.844450 0.000000 0.019500 
#    y 0.000000 1.862670 0.000000 
#    z 0.019500 0.000000 1.846660 
# 
# From -- ./inp_files/17278.got.cif
#   From: 2010.03.12/outbox.cif.g09.slc.cpg/sg14_9_cif.got.tgz:17278.got - 2010.03.31 13:35:05.
