data_PCOD8129399
_publ_section_title
;
Structure prediction by ZEFSAII (Michael W. Deem and Ramdas Pophale) SiO2 
 PCOD8129399
Probable space group: P 21/C
;
_chemical_formula_sum "Si O2"
_cell_formula_units_Z 24
_cell_length_a 8.843899
_cell_length_b 10.787541
_cell_length_c 12.498464
_cell_angle_alpha 90.000000
_cell_angle_beta 114.203095
_cell_angle_gamma 90.000000
_cell_volume 1087.587900
_symmetry_space_group_name_H-M "P 21/C"
_symmetry_group_IT_number 14
_symmetry_cell_setting 'monoclinic'
loop_
_space_group_symop_operation_xyz
x,y,z
-x,1/2+y,1/2-z
-x,-y,-z
x,1/2-y,1/2+z
loop_
_atom_site_type_symbol
_atom_site_label
_atom_site_fract_x
_atom_site_fract_y
_atom_site_fract_z
Si Si1 0.757882 0.478692 0.801286
Si Si2 0.745235 0.667811 0.971207
Si Si3 0.461672 0.401223 0.581836
Si Si4 0.903419 0.287023 0.999066
Si Si5 0.897633 0.467333 0.173625
Si Si6 0.171598 0.961755 0.101177
O O1 0.678376 0.593438 0.845995
O O2 0.624630 0.394577 0.702229
O O3 0.902621 0.515508 0.759880
O O4 0.858013 0.406280 0.919020
O O5 0.600655 0.763064 0.971763
O O6 0.905579 0.745021 0.975643
O O7 0.796090 0.577273 0.084151
O O8 0.500000 0.500000 0.500000
O O9 0.316183 0.446438 0.614836
O O10 0.874435 0.331361 0.112560
O O11 0.785168 0.172402 0.937154
O O12 0.830435 0.455688 0.272425
O O13 0.000000 0.000000 0.000000
#
# Coordination Sequence:
#
# PCOD8129399 Si02
#       6
#     4   4   4   4   4   4
#     4   9  21  42  68  93 128 175 218 281 336 387
#     4   9  20  44  67  93 128 178 225 265 336 407
#     4  12  26  40  60  97 142 173 216 283 342 391
#     4   9  20  43  68  93 126 170 225 274 328 403
#     4   9  21  44  74  91 126 180 230 275 329 402
#     4  12  24  40  63 103 129 170 230 269 335 405
#
# _framework density 22.067184000000001
#
# number of rings (size 3 to 8) (size 9 to 14) (size 15 to 20)
#    0.000    2.000    1.667    3.000    2.333    5.333 
#    0.000    1.667    0.000    0.000    0.000    0.000 
#    0.000    0.000    0.000    0.000    0.000    0.000 
#
# Total GULP energy -297369.337369 kJ/mol
# GULP energy per Si atom -12390.389057 kJ/mol
# Density = 2.201696 g / cm^3
# Si number density = 22.067184 Si / 1000 Ang^3
#
#
#
# Elastic Constant Matrix: (Units=GPa)
#
#
# Indices 1 2 3 4 5 6 
#
# 1 84.2544 37.9384 51.8011 0.0000 0.7406 0.0000
# 2 37.9384 108.4970 38.8248 0.0000 0.5511 0.0000
# 3 51.8011 38.8248 117.7142 0.0000 -5.2964 0.0000
# 4 0.0000 0.0000 0.0000 30.0416 0.0000 4.8250
# 5 0.7406 0.5511 -5.2964 0.0000 36.3145 0.0000
# 6 0.0000 0.0000 0.0000 4.8250 0.0000 42.8285
#
#
#
# Elastic Compliance Matrix: (Units=1/GPa)
#
#
# Indices 1 2 3 4 5 6 
#
# 1 0.017627 -0.003811 -0.006557 0.000000 -0.001258 0.000000
# 2 -0.003811 0.011290 -0.002064 0.000000 -0.000395 0.000000
# 3 -0.006557 -0.002064 0.012148 0.000000 0.001937 0.000000
# 4 0.000000 0.000000 0.000000 0.033901 0.000000 -0.003819
# 5 -0.001258 -0.000395 0.001937 0.000000 0.027851 0.000000
# 6 0.000000 0.000000 0.000000 -0.003819 0.000000 0.023779
#
#
# Mechanical properties :
#
#
# Convention : Reuss Voigt Hill
#
# Bulk Modulus (GPa) = 61.72233 63.06603 62.39418
# Shear Modulus (GPa) = 31.87528 33.96369 32.91949
#
# Velocity S-wave (km/s) = 3.80474 3.92740 3.86655
# Velocity P-wave (km/s) = 6.87984 7.01478 6.94764
#
# Compressibility (1/GPa) = 0.01620159
#
# Stress axis : x y z
#
# Youngs Moduli (GPa) = 56.73108 88.57218 82.31497
#
# Poissons Ratio (x) = 0.33756 0.53970
# Poissons Ratio (y) = 0.21621 0.16993
# Poissons Ratio (z) = 0.37196 0.18285
#
# Static dielectric constant tensor:
#      x y z
#    x 4.025750 0.000000 0.261800 
#    y 0.000000 5.024710 0.000000 
#    z 0.261800 0.000000 4.356420 
# 
# 
# High freq. dielectric constant tensor:
#      x y z
#    x 1.853050 0.000000 0.001110 
#    y 0.000000 1.874860 0.000000 
#    z 0.001110 0.000000 1.865850 
# 
# From -- ./inp_files/24275.got.cif
#   From: 2010.03.12/outbox.cif.g09.slc.cpg/sg14_13_cif.got.tgz:24275.got - 2010.03.31 13:35:05.
