data_PCOD8129845
_publ_section_title
;
Structure prediction by ZEFSAII (Michael W. Deem and Ramdas Pophale) SiO2 
 PCOD8129845
Probable space group: C 2/C
;
_chemical_formula_sum "Si O2"
_cell_formula_units_Z 60
_cell_length_a 25.795698
_cell_length_b 17.678473
_cell_length_c 15.471900
_cell_angle_alpha 90.000000
_cell_angle_beta 154.199693
_cell_angle_gamma 90.000000
_cell_volume 3070.862825
_symmetry_space_group_name_H-M "C 2/C"
_symmetry_group_IT_number 15
_symmetry_cell_setting 'monoclinic'
loop_
_space_group_symop_operation_xyz
x,y,z
-x,y,1/2-z
-x,-y,-z
x,-y,1/2+z
1/2+x,1/2+y,z
1/2-x,1/2+y,1/2-z
1/2-x,1/2-y,-z
1/2+x,1/2-y,1/2+z
loop_
_atom_site_type_symbol
_atom_site_label
_atom_site_fract_x
_atom_site_fract_y
_atom_site_fract_z
Si Si1 0.395129 0.153722 0.370564
Si Si2 0.817587 0.477301 0.859170
Si Si3 0.410951 0.307293 0.492280
Si Si4 0.821113 0.192892 0.045232
Si Si5 0.147293 0.432288 0.252445
Si Si6 0.000000 0.460439 0.750000
Si Si7 0.689527 0.082572 0.416463
Si Si8 0.621835 0.545455 0.671973
O O1 0.310397 0.105721 0.306861
O O2 0.398480 0.239629 0.405474
O O3 0.525866 0.115849 0.564624
O O4 0.329267 0.152022 0.177970
O O5 0.810554 0.545263 0.779851
O O6 0.710426 0.483051 0.765903
O O7 0.944476 0.483049 0.096597
O O8 0.546465 0.315236 0.723189
O O9 0.327178 0.289383 0.450422
O O10 0.381303 0.384456 0.398389
O O11 0.750000 0.250000 0.000000
O O12 0.752366 0.114622 0.954585
O O13 0.134880 0.508345 0.288476
O O14 0.103424 0.404963 0.869527
O O15 0.825392 0.073452 0.655374
O O16 0.500000 0.500000 0.500000
#
# Coordination Sequence:
#
# PCOD8129845 Si02
#       8
#     8   8   8   8   8   4   8   8
#     4  11  21  38  62  96 122 151 201 268 320 358
#     4  10  20  36  62  86 122 157 205 262 305 370
#     4  11  25  40  61  92 129 162 211 257 312 384
#     4  11  23  40  61  91 125 170 195 257 324 374
#     4  11  18  39  61  89 122 154 201 253 322 367
#     4  10  16  30  56  94 116 148 202 246 314 348
#     4  10  21  35  63  89 120 160 201 252 305 368
#     4  11  24  43  60  87 124 177 215 244 301 384
#
# _framework density 19.538482999999999
#
# number of rings (size 3 to 8) (size 9 to 14) (size 15 to 20)
#    0.000    1.333    5.333    1.600    0.000    4.800 
#    0.000    0.000    0.000    0.000    0.000    0.000 
#    0.000    0.000    0.000    0.000    0.000    0.000 
#
# Total GULP energy -371784.289887 kJ/mol
# GULP energy per Si atom -12392.809663 kJ/mol
# Density = 1.949401 g / cm^3
# Si number density = 19.538483 Si / 1000 Ang^3
#
#
#
# Elastic Constant Matrix: (Units=GPa)
#
#
# Indices 1 2 3 4 5 6 
#
# 1 87.6823 31.0456 47.5836 0.0000 -6.3333 0.0000
# 2 31.0456 73.9794 29.5371 0.0000 -2.3869 0.0000
# 3 47.5836 29.5371 109.3122 0.0000 -6.8112 0.0000
# 4 0.0000 0.0000 0.0000 31.9304 0.0000 -1.9243
# 5 -6.3333 -2.3869 -6.8112 0.0000 34.0861 0.0000
# 6 0.0000 0.0000 0.0000 -1.9243 0.0000 17.3240
#
#
#
# Elastic Compliance Matrix: (Units=1/GPa)
#
#
# Indices 1 2 3 4 5 6 
#
# 1 0.016221 -0.004457 -0.005760 0.000000 0.001551 0.000000
# 2 -0.004457 0.016379 -0.002497 0.000000 -0.000180 0.000000
# 3 -0.005760 -0.002497 0.012407 0.000000 0.001234 0.000000
# 4 0.000000 0.000000 0.000000 0.031529 0.000000 0.003502
# 5 0.001551 -0.000180 0.001234 0.000000 0.029860 0.000000
# 6 0.000000 0.000000 0.000000 0.003502 0.000000 0.058112
#
#
# Mechanical properties :
#
#
# Convention : Reuss Voigt Hill
#
# Bulk Modulus (GPa) = 51.07571 54.14518 52.61044
# Shear Modulus (GPa) = 25.45025 27.52194 26.48610
#
# Velocity S-wave (km/s) = 3.61303 3.75721 3.68582
# Velocity P-wave (km/s) = 6.60327 6.82601 6.71556
#
# Compressibility (1/GPa) = 0.01957878
#
# Stress axis : x y z
#
# Youngs Moduli (GPa) = 61.64922 61.05454 80.60038
#
# Poissons Ratio (x) = 0.27214 0.46425
# Poissons Ratio (y) = 0.27479 0.20123
# Poissons Ratio (z) = 0.35509 0.15243
#
# Static dielectric constant tensor:
#      x y z
#    x 3.926180 0.000000 -0.158370 
#    y 0.000000 3.316590 0.000000 
#    z -0.158370 0.000000 3.626600 
# 
# 
# High freq. dielectric constant tensor:
#      x y z
#    x 1.772410 0.000000 -0.007090 
#    y 0.000000 1.734170 0.000000 
#    z -0.007090 0.000000 1.766940 
# 
# From -- ./inp_files/174104.got.cif
#   From: 2010.06.25/outbox.cif.g09.slc.cpg/sg15_88_cif.got.tgz:174104.got - 2010.06.28 07:06:18.
