data_PCOD8129575
_publ_section_title
;
Structure prediction by ZEFSAII (Michael W. Deem and Ramdas Pophale) SiO2 
 PCOD8129575
Probable space group: C 2/C
;
_chemical_formula_sum "Si O2"
_cell_formula_units_Z 32
_cell_length_a 9.000000
_cell_length_b 18.000000
_cell_length_c 30.000000
_cell_angle_alpha 90.000000
_cell_angle_beta 40.000000
_cell_angle_gamma 90.000000
_cell_volume 3123.947783
_symmetry_space_group_name_H-M "C 2/C"
_symmetry_group_IT_number 15
_symmetry_cell_setting 'monoclinic'
loop_
_space_group_symop_operation_xyz
x,y,z
-x,y,1/2-z
-x,-y,-z
x,-y,1/2+z
1/2+x,1/2+y,z
1/2-x,1/2+y,1/2-z
1/2-x,1/2-y,-z
1/2+x,1/2-y,1/2+z
loop_
_atom_site_type_symbol
_atom_site_label
_atom_site_fract_x
_atom_site_fract_y
_atom_site_fract_z
Si Si1 0.458593 0.108403 0.921781
Si Si2 0.343089 0.281414 0.064260
Si Si3 0.979147 0.046212 0.188173
Si Si4 0.226583 0.672643 0.089052
Si Si5 0.606046 0.951633 0.847160
Si Si6 0.096870 0.860076 0.577836
Si Si7 0.962660 0.123307 0.811914
Si Si8 0.221195 0.229661 0.816844
O O1 0.318622 0.154633 0.917737
O O2 0.696792 0.150848 0.882589
O O3 0.541119 0.034286 0.877762
O O4 0.286242 0.096655 0.003611
O O5 0.237216 0.204094 0.071213
O O6 0.336634 0.290016 0.118936
O O7 0.611252 0.291603 0.986815
O O8 0.198061 0.081986 0.164533
O O9 0.976043 0.084435 0.140531
O O10 0.730318 0.053471 0.270012
O O11 0.025057 0.959561 0.172556
O O12 0.384036 0.672754 0.097588
O O13 0.142309 0.589817 0.095056
O O14 0.969818 0.709030 0.154171
O O15 0.160910 0.165035 0.795036
O O16 0.000000 0.129100 0.750000
O O17 0.500000 0.250732 0.750000
#
# Coordination Sequence:
#
# PCOD8129575 Si02
#       8
#     8   8   8   8   8   8   8   8
#     4  10  21  42  72  96 134 180 225 275 337 404
#     4  11  24  45  66  99 140 173 225 289 328 398
#     4  10  22  42  65  95 138 174 218 281 335 401
#     4  11  25  43  66  97 136 180 222 277 334 397
#     4  10  22  41  66  94 136 182 218 277 339 395
#     4  11  24  42  69 101 134 181 225 277 337 403
#     4  11  21  44  68  95 131 175 222 279 338 404
#     4  12  27  40  68  99 130 179 225 275 338 400
#
# _framework density 10.243449
#
# number of rings (size 3 to 8) (size 9 to 14) (size 15 to 20)
#    0.000    1.250    2.500    4.875    3.500    7.500 
#    0.000    0.000    0.000    0.000    0.000    0.000 
#    0.000    0.000    0.000    0.000    0.000    0.000 
#
# Total GULP energy -396444.644193 kJ/mol
# GULP energy per Si atom -12388.895131 kJ/mol
# Density = 1.022013 g / cm^3
# Si number density = 10.243449 Si / 1000 Ang^3
#
#
#
# Elastic Constant Matrix: (Units=GPa)
#
#
# Indices 1 2 3 4 5 6 
#
# 1 130.4887 42.7264 71.6979 0.0029 -4.5063 -0.0009
# 2 42.7264 74.6974 54.1931 0.0018 1.8631 -0.0028
# 3 71.6979 54.1931 179.6397 -0.0088 -0.4177 -0.0032
# 4 0.0029 0.0018 -0.0088 40.0961 -0.0033 -6.0166
# 5 -4.5063 1.8631 -0.4177 -0.0033 60.0477 0.0027
# 6 -0.0009 -0.0028 -0.0032 -6.0166 0.0027 39.6810
#
#
#
# Elastic Compliance Matrix: (Units=1/GPa)
#
#
# Indices 1 2 3 4 5 6 
#
# 1 0.010659 -0.003885 -0.003080 -0.000001 0.000899 -0.000001
# 2 -0.003885 0.018573 -0.004055 -0.000001 -0.000896 0.000001
# 3 -0.003080 -0.004055 0.008019 0.000002 -0.000050 0.000001
# 4 -0.000001 -0.000001 0.000002 0.025521 0.000001 0.003870
# 5 0.000899 -0.000896 -0.000050 0.000001 0.016748 -0.000001
# 6 -0.000001 0.000001 0.000001 0.003870 -0.000001 0.025788
#
#
# Mechanical properties :
#
#
# Convention : Reuss Voigt Hill
#
# Bulk Modulus (GPa) = 65.73616 80.22896 72.98256
# Shear Modulus (GPa) = 37.75911 42.37886 40.06898
#
# Velocity S-wave (km/s) = 4.29777 4.55310 4.42728
# Velocity P-wave (km/s) = 7.53554 8.17845 7.86357
#
# Compressibility (1/GPa) = 0.01521233
#
# Stress axis : x y z
#
# Youngs Moduli (GPa) = 93.81803 53.84034 124.70040
#
# Poissons Ratio (x) = 0.20915 0.38411
# Poissons Ratio (y) = 0.36444 0.50564
# Poissons Ratio (z) = 0.28898 0.21831
#
# Static dielectric constant tensor:
#      x y z
#    x 4.182760 -0.000010 -0.301720 
#    y -0.000010 3.710650 0.000020 
#    z -0.301720 0.000020 4.178410 
# 
# 
# High freq. dielectric constant tensor:
#      x y z
#    x 1.823910 0.000000 -0.014550 
#    y 0.000000 1.801620 0.000000 
#    z -0.014550 0.000000 1.832230 
# 
# From -- ./inp_files/308769.got.cif
#   From: 2010.06.25/outbox.ucp.g09.slc.cvg/sg15_155_cif.got.tgz:308769.got - 2010.06.28 14:40:10.
