data_PCOD8129195
_publ_section_title
;
Structure prediction by ZEFSAII (Michael W. Deem and Ramdas Pophale) SiO2 
 PCOD8129195
Probable space group: P 21/C
;
_chemical_formula_sum "Si O2"
_cell_formula_units_Z 24
_cell_length_a 7.398238
_cell_length_b 5.399606
_cell_length_c 22.652771
_cell_angle_alpha 90.000000
_cell_angle_beta 87.448519
_cell_angle_gamma 90.000000
_cell_volume 904.026044
_symmetry_space_group_name_H-M "P 21/C"
_symmetry_group_IT_number 14
_symmetry_cell_setting 'monoclinic'
loop_
_space_group_symop_operation_xyz
x,y,z
-x,1/2+y,1/2-z
-x,-y,-z
x,1/2-y,1/2+z
loop_
_atom_site_type_symbol
_atom_site_label
_atom_site_fract_x
_atom_site_fract_y
_atom_site_fract_z
Si Si1 0.395475 0.083341 0.574312
Si Si2 0.681683 0.114432 0.309336
Si Si3 0.812362 0.424844 0.452447
Si Si4 0.377931 0.034340 0.821133
Si Si5 0.780316 0.211542 0.572972
Si Si6 0.956181 0.699261 0.139629
O O1 0.301386 0.322917 0.546703
O O2 0.604419 0.063239 0.548035
O O3 0.386247 0.110464 0.647023
O O4 0.296522 0.821947 0.565327
O O5 0.576471 0.362054 0.332410
O O6 0.897076 0.147422 0.311718
O O7 0.626807 0.087297 0.242632
O O8 0.872989 0.376438 0.519829
O O9 0.980821 0.433090 0.403018
O O10 0.230836 0.257607 0.823659
O O11 0.318133 0.859583 0.874372
O O12 0.935951 0.033368 0.595410
#
# Coordination Sequence:
#
# PCOD8129195 Si02
#       6
#     4   4   4   4   4   4
#     4  11  24  48  76 112 152 210 259 318 383 464
#     4  11  27  51  75 111 153 199 267 322 396 456
#     4  11  27  46  79 111 162 201 261 319 385 462
#     4  12  28  48  80 107 156 204 261 323 393 473
#     4  12  25  47  73 114 153 206 256 320 390 465
#     4  11  28  46  74 116 149 206 256 325 390 470
#
# _framework density 26.547906000000001
#
# number of rings (size 3 to 8) (size 9 to 14) (size 15 to 20)
#    0.000    0.667    1.667    4.500    9.333    0.667 
#    0.000    0.000    0.000    0.000    0.000    0.000 
#    0.000    0.000    0.000    0.000    0.000    0.000 
#
# Total GULP energy -297599.702485 kJ/mol
# GULP energy per Si atom -12399.987604 kJ/mol
# Density = 2.648748 g / cm^3
# Si number density = 26.547906 Si / 1000 Ang^3
#
#
#
# Elastic Constant Matrix: (Units=GPa)
#
#
# Indices 1 2 3 4 5 6 
#
# 1 101.1622 21.1413 -7.1003 0.0000 5.4354 0.0000
# 2 21.1413 102.6551 7.4424 0.0000 6.6011 0.0000
# 3 -7.1003 7.4424 78.5195 0.0000 -4.5619 0.0000
# 4 0.0000 0.0000 0.0000 41.5655 0.0000 -3.0838
# 5 5.4354 6.6011 -4.5619 0.0000 45.7124 0.0000
# 6 0.0000 0.0000 0.0000 -3.0838 0.0000 38.9420
#
#
#
# Elastic Compliance Matrix: (Units=1/GPa)
#
#
# Indices 1 2 3 4 5 6 
#
# 1 0.010463 -0.002182 0.001105 0.000000 -0.000819 0.000000
# 2 -0.002182 0.010370 -0.001259 0.000000 -0.001364 0.000000
# 3 0.001105 -0.001259 0.013034 0.000000 0.001351 0.000000
# 4 0.000000 0.000000 0.000000 0.024201 0.000000 0.001916
# 5 -0.000819 -0.001364 0.001351 0.000000 0.022305 0.000000
# 6 0.000000 0.000000 0.000000 0.001916 0.000000 0.025831
#
#
# Mechanical properties :
#
#
# Convention : Reuss Voigt Hill
#
# Bulk Modulus (GPa) = 34.25428 36.14485 35.19956
# Shear Modulus (GPa) = 41.45720 42.63421 42.04570
#
# Velocity S-wave (km/s) = 3.95599 4.01176 3.98397
# Velocity P-wave (km/s) = 5.81355 5.92482 5.86945
#
# Compressibility (1/GPa) = 0.02919343
#
# Stress axis : x y z
#
# Youngs Moduli (GPa) = 95.57724 96.43411 76.72528
#
# Poissons Ratio (x) = 0.21044 -0.08481
# Poissons Ratio (y) = 0.20857 0.09663
# Poissons Ratio (z) = -0.10565 0.12145
#
# Static dielectric constant tensor:
#      x y z
#    x 5.298470 0.000000 -0.092970 
#    y 0.000000 4.653180 0.000000 
#    z -0.092970 0.000000 5.027290 
# 
# 
# High freq. dielectric constant tensor:
#      x y z
#    x 2.089720 0.000000 0.003360 
#    y 0.000000 2.061760 0.000000 
#    z 0.003360 0.000000 2.084000 
# 
# From -- ./inp_files/71626.got.cif
#   From: 2010.03.12/outbox.cif.g09.slc.cpg/sg14_36_cif.got.tgz:71626.got - 2010.03.31 13:35:05.
