data_PCOD8129401
_publ_section_title
;
Structure prediction by ZEFSAII (Michael W. Deem and Ramdas Pophale) SiO2 
 PCOD8129401
Probable space group: P 21/C
;
_chemical_formula_sum "Si O2"
_cell_formula_units_Z 20
_cell_length_a 23.973274
_cell_length_b 4.813536
_cell_length_c 8.420408
_cell_angle_alpha 90.000000
_cell_angle_beta 122.731972
_cell_angle_gamma 90.000000
_cell_volume 817.388863
_symmetry_space_group_name_H-M "P 21/C"
_symmetry_group_IT_number 14
_symmetry_cell_setting 'monoclinic'
loop_
_space_group_symop_operation_xyz
x,y,z
-x,1/2+y,1/2-z
-x,-y,-z
x,1/2-y,1/2+z
loop_
_atom_site_type_symbol
_atom_site_label
_atom_site_fract_x
_atom_site_fract_y
_atom_site_fract_z
Si Si1 0.169157 0.875414 0.090229
Si Si2 0.220424 0.397867 0.347821
Si Si3 0.372563 0.085300 0.088668
Si Si4 0.574622 0.428007 0.658665
Si Si5 0.023476 0.642660 0.875340
O O1 0.214481 0.603445 0.187631
O O2 0.192463 0.099416 0.256244
O O3 0.094040 0.786817 0.005286
O O4 0.176011 0.986276 0.922952
O O5 0.296181 0.391000 0.522004
O O6 0.414233 0.888101 0.271525
O O7 0.404713 0.388228 0.157867
O O8 0.377529 0.993964 0.914689
O O9 0.500000 0.500000 0.500000
O O10 0.026564 0.392852 0.750451
O O11 0.000000 0.500000 0.000000
#
# Coordination Sequence:
#
# PCOD8129401 Si02
#       5
#     4   4   4   4   4
#     4  12  26  46  71 101 137 177 227 283 341 413
#     4  12  25  46  70 102 136 181 230 284 344 406
#     4  12  24  43  68  98 137 182 230 286 342 406
#     4  12  24  42  66 100 138 183 231 284 342 406
#     4  12  27  49  74 105 140 181 226 281 345 419
#
# _framework density 24.468160999999998
#
# number of rings (size 3 to 8) (size 9 to 14) (size 15 to 20)
#    0.000    0.000    0.000   10.800    0.000    3.200 
#    0.000    0.000    0.000    0.000    0.000    0.000 
#    0.000    0.000    0.000    0.000    0.000    0.000 
#
# Total GULP energy -248130.210506 kJ/mol
# GULP energy per Si atom -12406.510525 kJ/mol
# Density = 2.441247 g / cm^3
# Si number density = 24.468161 Si / 1000 Ang^3
#
#
#
# Elastic Constant Matrix: (Units=GPa)
#
#
# Indices 1 2 3 4 5 6 
#
# 1 111.1260 34.9979 37.8292 0.0000 17.5333 0.0000
# 2 34.9979 122.3601 42.1514 0.0000 28.3144 0.0000
# 3 37.8292 42.1514 104.3491 0.0000 22.4645 0.0000
# 4 0.0000 0.0000 0.0000 60.3775 0.0000 7.6199
# 5 17.5333 28.3144 22.4645 0.0000 41.8478 0.0000
# 6 0.0000 0.0000 0.0000 7.6199 0.0000 30.2293
#
#
#
# Elastic Compliance Matrix: (Units=1/GPa)
#
#
# Indices 1 2 3 4 5 6 
#
# 1 0.010785 -0.001678 -0.002831 0.000000 -0.001864 0.000000
# 2 -0.001678 0.010751 -0.002623 0.000000 -0.005163 0.000000
# 3 -0.002831 -0.002623 0.012473 0.000000 -0.003735 0.000000
# 4 0.000000 0.000000 0.000000 0.017107 0.000000 -0.004312
# 5 -0.001864 -0.005163 -0.003735 0.000000 0.030175 0.000000
# 6 0.000000 0.000000 0.000000 -0.004312 0.000000 0.034167
#
#
# Mechanical properties :
#
#
# Convention : Reuss Voigt Hill
#
# Bulk Modulus (GPa) = 50.64558 63.08801 56.86680
# Shear Modulus (GPa) = 36.68279 41.34804 39.01541
#
# Velocity S-wave (km/s) = 3.87616 4.11526 3.99750
# Velocity P-wave (km/s) = 6.38563 6.95846 6.67819
#
# Compressibility (1/GPa) = 0.01974506
#
# Stress axis : x y z
#
# Youngs Moduli (GPa) = 92.72113 93.01543 80.17324
#
# Poissons Ratio (x) = 0.15612 0.22694
# Poissons Ratio (y) = 0.15563 0.21028
# Poissons Ratio (z) = 0.26246 0.24396
#
# Static dielectric constant tensor:
#      x y z
#    x 4.391130 0.000000 -0.073660 
#    y 0.000000 4.903350 0.000000 
#    z -0.073660 0.000000 4.622000 
# 
# 
# High freq. dielectric constant tensor:
#      x y z
#    x 1.966140 0.000000 0.002480 
#    y 0.000000 1.997480 0.000000 
#    z 0.002480 0.000000 1.990290 
# 
# From -- ./inp_files/19582.got.cif
#   From: 2010.03.12/outbox.cif.g09.slc.cpg/sg14_10_cif.got.tgz:19582.got - 2010.03.31 13:35:05.
