data_PCOD8129201
_publ_section_title
;
Structure prediction by ZEFSAII (Michael W. Deem and Ramdas Pophale) SiO2 
 PCOD8129201
Probable space group: P 21/C
;
_chemical_formula_sum "Si O2"
_cell_formula_units_Z 32
_cell_length_a 12.419721
_cell_length_b 7.670756
_cell_length_c 14.390833
_cell_angle_alpha 90.000000
_cell_angle_beta 104.965401
_cell_angle_gamma 90.000000
_cell_volume 1324.493728
_symmetry_space_group_name_H-M "P 21/C"
_symmetry_group_IT_number 14
_symmetry_cell_setting 'monoclinic'
loop_
_space_group_symop_operation_xyz
x,y,z
-x,1/2+y,1/2-z
-x,-y,-z
x,1/2-y,1/2+z
loop_
_atom_site_type_symbol
_atom_site_label
_atom_site_fract_x
_atom_site_fract_y
_atom_site_fract_z
Si Si1 0.355295 0.099913 0.309025
Si Si2 0.128763 0.301556 0.690699
Si Si3 0.622043 0.048947 0.992951
Si Si4 0.601150 0.371174 0.850598
Si Si5 0.315679 0.173787 0.504654
Si Si6 0.039807 0.828849 0.213833
Si Si7 0.069817 0.164881 0.484150
Si Si8 0.273746 0.706999 0.301367
O O1 0.261964 0.213932 0.234182
O O2 0.473740 0.130264 0.284955
O O3 0.371737 0.172258 0.416306
O O4 0.325774 0.898021 0.307834
O O5 0.088921 0.480572 0.725023
O O6 0.097810 0.287806 0.576877
O O7 0.062410 0.158823 0.736412
O O8 0.677544 0.875440 0.959703
O O9 0.692415 0.110277 0.097321
O O10 0.500000 0.000000 0.000000
O O11 0.627608 0.196565 0.915006
O O12 0.682426 0.391620 0.780772
O O13 0.615833 0.544706 0.914777
O O14 0.187955 0.106282 0.466744
O O15 0.139388 0.702979 0.270165
O O16 0.001295 0.776167 0.103091
O O17 0.000000 0.000000 0.500000
#
# Coordination Sequence:
#
# PCOD8129201 Si02
#       8
#     4   4   4   4   4   4   4   4
#     4  11  24  49  72 108 150 201 246 318 372 454
#     4  11  26  45  75 103 144 192 247 300 373 446
#     4  12  27  48  76 113 152 211 248 314 390 457
#     4  12  27  51  76 112 159 193 257 316 381 462
#     4  12  26  47  78 108 157 196 254 317 385 458
#     4  11  25  47  70 108 145 190 242 310 365 445
#     4  12  27  47  74 106 146 195 250 309 379 445
#     4  11  28  46  78 109 154 201 254 311 389 454
#
# _framework density 24.160177000000001
#
# number of rings (size 3 to 8) (size 9 to 14) (size 15 to 20)
#    0.000    0.500    3.750    3.000    8.750    4.000 
#    0.000    0.000    0.000    0.000    0.000    0.000 
#    0.000    0.000    0.000    0.000    0.000    0.000 
#
# Total GULP energy -396989.506478 kJ/mol
# GULP energy per Si atom -12405.922077 kJ/mol
# Density = 2.410519 g / cm^3
# Si number density = 24.160177 Si / 1000 Ang^3
#
#
#
# Elastic Constant Matrix: (Units=GPa)
#
#
# Indices 1 2 3 4 5 6 
#
# 1 88.1557 22.8941 14.4411 0.0000 25.5884 0.0000
# 2 22.8941 87.3614 28.7721 0.0000 10.4814 0.0000
# 3 14.4411 28.7721 117.8815 0.0000 23.7134 0.0000
# 4 0.0000 0.0000 0.0000 31.8647 0.0000 4.7314
# 5 25.5884 10.4814 23.7134 0.0000 41.6535 0.0000
# 6 0.0000 0.0000 0.0000 4.7314 0.0000 34.2459
#
#
#
# Elastic Compliance Matrix: (Units=1/GPa)
#
#
# Indices 1 2 3 4 5 6 
#
# 1 0.014487 -0.002994 0.000672 0.000000 -0.008528 0.000000
# 2 -0.002994 0.013159 -0.002879 0.000000 0.000167 0.000000
# 3 0.000672 -0.002879 0.010210 0.000000 -0.005501 0.000000
# 4 0.000000 0.000000 0.000000 0.032040 0.000000 -0.004427
# 5 -0.008528 0.000167 -0.005501 0.000000 0.032336 0.000000
# 6 0.000000 0.000000 0.000000 -0.004427 0.000000 0.029812
#
#
# Mechanical properties :
#
#
# Convention : Reuss Voigt Hill
#
# Bulk Modulus (GPa) = 36.42537 47.29037 41.85787
# Shear Modulus (GPa) = 32.98189 36.70557 34.84373
#
# Velocity S-wave (km/s) = 3.69878 3.90200 3.80175
# Velocity P-wave (km/s) = 5.77500 6.31799 6.05259
#
# Compressibility (1/GPa) = 0.02745339
#
# Stress axis : x y z
#
# Youngs Moduli (GPa) = 69.02910 75.99084 97.94329
#
# Poissons Ratio (x) = 0.22755 -0.06579
# Poissons Ratio (y) = 0.20670 0.28195
# Poissons Ratio (z) = -0.04637 0.21875
#
# Static dielectric constant tensor:
#      x y z
#    x 4.746910 0.000000 0.090960 
#    y 0.000000 4.760970 0.000000 
#    z 0.090960 0.000000 4.422400 
# 
# 
# High freq. dielectric constant tensor:
#      x y z
#    x 1.972220 0.000000 0.006170 
#    y 0.000000 1.966750 0.000000 
#    z 0.006170 0.000000 1.966710 
# 
# From -- ./inp_files/43769.got.cif
#   From: 2010.03.12/outbox.cif.g09.slc.cpg/sg14_22_cif.got.tgz:43769.got - 2010.03.31 13:35:05.
