data_PCOD8129998
_publ_section_title
;
Structure prediction by ZEFSAII (Michael W. Deem and Ramdas Pophale) SiO2 
 PCOD8129998
Probable space group: C 2/C
;
_chemical_formula_sum "Si O2"
_cell_formula_units_Z 44
_cell_length_a 12.599625
_cell_length_b 17.636685
_cell_length_c 14.285310
_cell_angle_alpha 90.000000
_cell_angle_beta 45.093703
_cell_angle_gamma 90.000000
_cell_volume 2248.321147
_symmetry_space_group_name_H-M "C 2/C"
_symmetry_group_IT_number 15
_symmetry_cell_setting 'monoclinic'
loop_
_space_group_symop_operation_xyz
x,y,z
-x,y,1/2-z
-x,-y,-z
x,-y,1/2+z
1/2+x,1/2+y,z
1/2-x,1/2+y,1/2-z
1/2-x,1/2-y,-z
1/2+x,1/2-y,1/2+z
loop_
_atom_site_type_symbol
_atom_site_label
_atom_site_fract_x
_atom_site_fract_y
_atom_site_fract_z
Si Si1 0.000000 0.495101 0.250000
Si Si2 0.497103 0.097604 0.569777
Si Si3 0.310614 0.533016 0.022482
Si Si4 0.479968 0.590698 0.077473
Si Si5 0.746149 0.497679 0.153828
Si Si6 0.429533 0.250709 0.894395
O O1 0.965776 0.440333 0.355839
O O2 0.144632 0.549083 0.166702
O O3 0.627051 0.063725 0.422448
O O4 0.515655 0.187826 0.565824
O O5 0.328258 0.077534 0.642872
O O6 0.412029 0.596127 0.013898
O O7 0.358206 0.449289 0.030047
O O8 0.320471 0.531696 0.903809
O O9 0.385893 0.531389 0.200754
O O10 0.500106 0.671414 0.112249
O O11 0.500000 0.233750 0.750000
O O12 0.250000 0.250000 0.000000
#
# Coordination Sequence:
#
# PCOD8129998 Si02
#       6
#     4   8   8   8   8   8
#     4  10  16  36  54  82 108 144 198 232 280 340
#     4  10  20  34  60  85 114 154 194 240 292 349
#     4  10  21  34  59  81 114 154 197 242 286 345
#     4  11  22  38  56  89 120 154 195 249 297 345
#     4  10  20  38  58  87 115 154 202 243 284 351
#     4  12  24  38  59  89 126 155 192 249 309 359
#
# _framework density 19.570159
#
# number of rings (size 3 to 8) (size 9 to 14) (size 15 to 20)
#    0.000    1.455    2.727    4.909    0.000    0.000 
#    0.000    0.909    0.000    0.000    4.727    0.000 
#    0.000    0.000    0.000    0.000    0.000    0.000 
#
# Total GULP energy -272588.564597 kJ/mol
# GULP energy per Si atom -12390.389300 kJ/mol
# Density = 1.952562 g / cm^3
# Si number density = 19.570159 Si / 1000 Ang^3
#
#
#
# Elastic Constant Matrix: (Units=GPa)
#
#
# Indices 1 2 3 4 5 6 
#
# 1 130.8270 54.1052 31.8277 0.0001 -8.1419 -0.0001
# 2 54.1052 98.2301 22.8916 0.0000 -2.3806 0.0000
# 3 31.8277 22.8916 74.4757 0.0000 -5.0932 0.0000
# 4 0.0001 0.0000 0.0000 17.2624 0.0000 1.0254
# 5 -8.1419 -2.3806 -5.0932 0.0000 22.5556 0.0001
# 6 -0.0001 0.0000 0.0000 1.0254 0.0001 31.5660
#
#
#
# Elastic Compliance Matrix: (Units=1/GPa)
#
#
# Indices 1 2 3 4 5 6 
#
# 1 0.010606 -0.005131 -0.002773 0.000000 0.002661 0.000000
# 2 -0.005131 0.013452 -0.002002 0.000000 -0.000885 0.000000
# 3 -0.002773 -0.002002 0.015383 0.000000 0.002261 0.000000
# 4 0.000000 0.000000 0.000000 0.058041 0.000000 -0.001885
# 5 0.002661 -0.000885 0.002261 0.000000 0.045713 0.000000
# 6 0.000000 0.000000 0.000000 -0.001885 0.000000 0.031741
#
#
# Mechanical properties :
#
#
# Convention : Reuss Voigt Hill
#
# Bulk Modulus (GPa) = 50.95157 57.90910 54.43033
# Shear Modulus (GPa) = 24.83971 27.25734 26.04852
#
# Velocity S-wave (km/s) = 3.56654 3.73607 3.65229
# Velocity P-wave (km/s) = 6.56141 6.94736 6.75714
#
# Compressibility (1/GPa) = 0.01962648
#
# Stress axis : x y z
#
# Youngs Moduli (GPa) = 94.28644 74.34109 65.00871
#
# Poissons Ratio (x) = 0.38144 0.18030
# Poissons Ratio (y) = 0.48378 0.13017
# Poissons Ratio (z) = 0.26150 0.14886
#
# Static dielectric constant tensor:
#      x y z
#    x 3.897650 0.000000 -0.230200 
#    y 0.000000 3.304170 0.000000 
#    z -0.230200 0.000000 4.137570 
# 
# 
# High freq. dielectric constant tensor:
#      x y z
#    x 1.778720 0.000000 -0.008110 
#    y 0.000000 1.716200 0.000000 
#    z -0.008110 0.000000 1.776850 
# 
# From -- ./inp_files/86143.got.cif
#   From: 2010.06.25/outbox.cif.g09.slc.cpg/sg15_44_cif.got.tgz:86143.got - 2010.06.28 07:06:18.
