data_PCOD8129647
_publ_section_title
;
Structure prediction by ZEFSAII (Michael W. Deem and Ramdas Pophale) SiO2 
 PCOD8129647
Probable space group: C 2/C
;
_chemical_formula_sum "Si O2"
_cell_formula_units_Z 44
_cell_length_a 9.756422
_cell_length_b 29.582717
_cell_length_c 8.927257
_cell_angle_alpha 90.000000
_cell_angle_beta 126.480166
_cell_angle_gamma 90.000000
_cell_volume 2071.746438
_symmetry_space_group_name_H-M "C 2/C"
_symmetry_group_IT_number 15
_symmetry_cell_setting 'monoclinic'
loop_
_space_group_symop_operation_xyz
x,y,z
-x,y,1/2-z
-x,-y,-z
x,-y,1/2+z
1/2+x,1/2+y,z
1/2-x,1/2+y,1/2-z
1/2-x,1/2-y,-z
1/2+x,1/2-y,1/2+z
loop_
_atom_site_type_symbol
_atom_site_label
_atom_site_fract_x
_atom_site_fract_y
_atom_site_fract_z
Si Si1 0.000000 0.538513 0.750000
Si Si2 0.000000 0.842684 0.750000
Si Si3 0.500000 0.494944 0.250000
Si Si4 0.634340 0.726413 0.551135
Si Si5 0.729553 0.533562 0.148529
Si Si6 0.848553 0.606816 0.416082
Si Si7 0.055782 0.309334 0.112404
O O1 0.136742 0.507312 0.754226
O O2 0.899237 0.568746 0.567366
O O3 0.993030 0.810788 0.599880
O O4 0.827595 0.871372 0.643173
O O5 0.590770 0.527314 0.189411
O O6 0.636935 0.463696 0.426776
O O7 0.750000 0.750000 0.500000
O O8 0.741447 0.700995 0.751323
O O9 0.524298 0.768744 0.539193
O O10 0.822402 0.581619 0.239534
O O11 0.000800 0.643468 0.500340
O O12 0.000000 0.310766 0.250000
#
# Coordination Sequence:
#
# PCOD8129647 Si02
#       7
#     4   4   4   8   8   8   8
#     4  12  24  41  60  86 123 165 208 253 304 350
#     4  12  19  29  50  80 120 160 188 249 298 373
#     4  10  23  44  64  82 115 155 210 252 320 355
#     4  10  15  28  46  71 117 161 179 229 314 365
#     4  11  24  43  62  87 115 166 205 262 303 363
#     4  12  22  33  53  85 117 156 207 241 299 364
#     4  10  16  29  45  76 113 156 186 236 298 378
#
# _framework density 21.238121
#
# number of rings (size 3 to 8) (size 9 to 14) (size 15 to 20)
#    0.000    1.091    9.091    1.091    2.545    0.000 
#    0.000    0.000    0.000    0.000    0.000    0.000 
#    0.000   17.455    0.000    0.000    0.000    0.000 
#
# Total GULP energy -272639.471838 kJ/mol
# GULP energy per Si atom -12392.703265 kJ/mol
# Density = 2.118978 g / cm^3
# Si number density = 21.238121 Si / 1000 Ang^3
#
#
#
# Elastic Constant Matrix: (Units=GPa)
#
#
# Indices 1 2 3 4 5 6 
#
# 1 41.1665 22.8040 20.8506 0.0000 14.2102 0.0000
# 2 22.8040 159.0687 74.9207 0.0000 21.7591 0.0000
# 3 20.8506 74.9207 136.4106 0.0000 27.7601 0.0000
# 4 0.0000 0.0000 0.0000 39.2207 0.0000 6.5732
# 5 14.2102 21.7591 27.7601 0.0000 29.0607 0.0000
# 6 0.0000 0.0000 0.0000 6.5732 0.0000 8.2728
#
#
#
# Elastic Compliance Matrix: (Units=1/GPa)
#
#
# Indices 1 2 3 4 5 6 
#
# 1 0.030210 -0.002232 -0.000901 0.000000 -0.012240 0.000000
# 2 -0.002232 0.008778 -0.004176 0.000000 -0.001491 0.000000
# 3 -0.000901 -0.004176 0.011217 0.000000 -0.007147 0.000000
# 4 0.000000 0.000000 0.000000 0.029414 0.000000 -0.023371
# 5 -0.012240 -0.001491 -0.007147 0.000000 0.048340 0.000000
# 6 0.000000 0.000000 0.000000 -0.023371 0.000000 0.139447
#
#
# Mechanical properties :
#
#
# Convention : Reuss Voigt Hill
#
# Bulk Modulus (GPa) = 28.10124 63.75517 45.92821
# Shear Modulus (GPa) = 17.01350 29.84888 23.43119
#
# Velocity S-wave (km/s) = 2.83341 3.75299 3.32514
# Velocity P-wave (km/s) = 4.89536 6.99030 6.03443
#
# Compressibility (1/GPa) = 0.03558561
#
# Stress axis : x y z
#
# Youngs Moduli (GPa) = 33.10214 113.92651 89.15286
#
# Poissons Ratio (x) = 0.25432 0.08029
# Poissons Ratio (y) = 0.07389 0.37232
# Poissons Ratio (z) = 0.02981 0.47578
#
# Static dielectric constant tensor:
#      x y z
#    x 3.484310 0.000000 0.716040 
#    y 0.000000 4.141580 0.000000 
#    z 0.716040 0.000000 4.456960 
# 
# 
# High freq. dielectric constant tensor:
#      x y z
#    x 1.776760 0.000000 0.050980 
#    y 0.000000 1.840900 0.000000 
#    z 0.050980 0.000000 1.840500 
# 
# From -- ./inp_files/34515.got.cif
#   From: 2010.06.25/outbox.cif.g09.slc.cpg/sg15_18_cif.got.tgz:34515.got - 2010.06.28 07:06:18.
