data_PCOD8129783
_publ_section_title
;
Structure prediction by ZEFSAII (Michael W. Deem and Ramdas Pophale) SiO2 
 PCOD8129783
Probable space group: C 2/C
;
_chemical_formula_sum "Si O2"
_cell_formula_units_Z 56
_cell_length_a 9.382072
_cell_length_b 15.426259
_cell_length_c 24.820893
_cell_angle_alpha 90.000000
_cell_angle_beta 43.749981
_cell_angle_gamma 90.000000
_cell_volume 2484.145424
_symmetry_space_group_name_H-M "C 2/C"
_symmetry_group_IT_number 15
_symmetry_cell_setting 'monoclinic'
loop_
_space_group_symop_operation_xyz
x,y,z
-x,y,1/2-z
-x,-y,-z
x,-y,1/2+z
1/2+x,1/2+y,z
1/2-x,1/2+y,1/2-z
1/2-x,1/2-y,-z
1/2+x,1/2-y,1/2+z
loop_
_atom_site_type_symbol
_atom_site_label
_atom_site_fract_x
_atom_site_fract_y
_atom_site_fract_z
Si Si1 0.613819 0.571020 0.163506
Si Si2 0.190305 0.563426 0.950558
Si Si3 0.171910 0.811403 0.820953
Si Si4 0.082438 0.663096 0.141792
Si Si5 0.021318 0.704377 0.443317
Si Si6 0.312277 0.806148 0.431129
Si Si7 0.728166 0.497034 0.958825
O O1 0.500000 0.577126 0.250000
O O2 0.660252 0.468896 0.138409
O O3 0.476709 0.607282 0.151382
O O4 0.818518 0.627738 0.114711
O O5 0.302502 0.549683 0.976384
O O6 0.000000 0.500000 0.000000
O O7 0.121517 0.664749 0.968813
O O8 0.238303 0.811344 0.865304
O O9 0.363329 0.815520 0.728131
O O10 0.036247 0.724499 0.848338
O O11 0.116997 0.560568 0.120481
O O12 0.102330 0.718560 0.079851
O O13 0.137171 0.790011 0.432687
O O14 0.250000 0.750000 0.500000
O O15 0.326994 0.907656 0.438860
O O16 0.500000 0.500000 0.000000
#
# Coordination Sequence:
#
# PCOD8129783 Si02
#       7
#     8   8   8   8   8   8   8
#     4  10  16  29  54  88 116 162 204 246 314 379
#     4   9  18  33  56  87 121 158 205 259 303 374
#     4  10  21  37  62  88 127 164 205 256 334 368
#     4  10  20  39  63  91 126 166 205 266 315 380
#     4   9  19  35  58  88 118 161 209 256 315 367
#     4  11  22  39  63  92 125 168 211 264 317 385
#     4  11  22  40  65  94 122 164 220 259 313 376
#
# _framework density 22.542961999999999
#
# number of rings (size 3 to 8) (size 9 to 14) (size 15 to 20)
#    0.000    2.000    1.429    4.286    0.000    0.000 
#    0.000   10.714    0.000   22.286    0.000    0.000 
#    0.000    0.000    0.000    0.000    0.000    0.000 
#
# Total GULP energy -346928.657524 kJ/mol
# GULP energy per Si atom -12390.309197 kJ/mol
# Density = 2.249165 g / cm^3
# Si number density = 22.542962 Si / 1000 Ang^3
#
#
#
# Elastic Constant Matrix: (Units=GPa)
#
#
# Indices 1 2 3 4 5 6 
#
# 1 98.4249 2.5261 -17.7059 -0.0004 6.3511 0.0000
# 2 2.5261 77.2965 23.5689 -0.0001 -7.4328 0.0002
# 3 -17.7059 23.5689 38.4708 0.0000 1.4325 -0.0001
# 4 -0.0004 -0.0001 0.0000 21.4983 0.0007 -1.9937
# 5 6.3511 -7.4328 1.4325 0.0007 31.4701 0.0000
# 6 0.0000 0.0002 -0.0001 -1.9937 0.0000 24.3271
#
#
#
# Elastic Compliance Matrix: (Units=1/GPa)
#
#
# Indices 1 2 3 4 5 6 
#
# 1 0.011780 -0.002957 0.007360 0.000000 -0.003411 0.000000
# 2 -0.002957 0.017228 -0.012110 0.000000 0.005217 0.000000
# 3 0.007360 -0.012110 0.037025 0.000000 -0.006031 0.000000
# 4 0.000000 0.000000 0.000000 0.046872 -0.000001 0.003841
# 5 -0.003411 0.005217 -0.006031 -0.000001 0.033971 0.000000
# 6 0.000000 0.000000 0.000000 0.003841 0.000000 0.041421
#
#
# Mechanical properties :
#
#
# Convention : Reuss Voigt Hill
#
# Bulk Modulus (GPa) = 19.75522 25.66340 22.70931
# Shear Modulus (GPa) = 22.66709 29.17930 25.92320
#
# Velocity S-wave (km/s) = 3.17441 3.60166 3.39476
# Velocity P-wave (km/s) = 4.71362 5.35769 5.04595
#
# Compressibility (1/GPa) = 0.05061954
#
# Stress axis : x y z
#
# Youngs Moduli (GPa) = 84.88875 58.04491 27.00878
#
# Poissons Ratio (x) = 0.17166 -0.19880
# Poissons Ratio (y) = 0.25104 0.32708
# Poissons Ratio (z) = -0.62482 0.70292
#
# Static dielectric constant tensor:
#      x y z
#    x 4.508750 0.000000 -0.056640 
#    y 0.000000 4.068270 0.000000 
#    z -0.056640 0.000000 4.051320 
# 
# 
# High freq. dielectric constant tensor:
#      x y z
#    x 1.919070 0.000000 -0.003350 
#    y 0.000000 1.866630 0.000000 
#    z -0.003350 0.000000 1.873750 
# 
# From -- ./inp_files/265474.got.cif
#   From: 2010.06.25/outbox.cif.g09.slc.cpg/sg15_133_cif.got.tgz:265474.got - 2010.06.28 07:06:18.
