data_PCOD8129302
_publ_section_title
;
Structure prediction by ZEFSAII (Michael W. Deem and Ramdas Pophale) SiO2 
 PCOD8129302
Probable space group: P 21/C
;
_chemical_formula_sum "Si O2"
_cell_formula_units_Z 24
_cell_length_a 14.898615
_cell_length_b 12.669066
_cell_length_c 9.331799
_cell_angle_alpha 90.000000
_cell_angle_beta 141.317181
_cell_angle_gamma 90.000000
_cell_volume 1100.884782
_symmetry_space_group_name_H-M "P 21/C"
_symmetry_group_IT_number 14
_symmetry_cell_setting 'monoclinic'
loop_
_space_group_symop_operation_xyz
x,y,z
-x,1/2+y,1/2-z
-x,-y,-z
x,1/2-y,1/2+z
loop_
_atom_site_type_symbol
_atom_site_label
_atom_site_fract_x
_atom_site_fract_y
_atom_site_fract_z
Si Si1 0.389886 0.457674 0.740556
Si Si2 0.428198 0.260616 0.145694
Si Si3 0.852747 0.369332 0.281979
Si Si4 0.580462 0.081173 0.000991
Si Si5 0.816805 0.603342 0.286940
Si Si6 0.712413 0.241578 0.345645
O O1 0.446777 0.359416 0.718792
O O2 0.361764 0.543717 0.582014
O O3 0.241014 0.421952 0.626080
O O4 0.500000 0.500000 0.000000
O O5 0.458904 0.331034 0.322757
O O6 0.549583 0.277960 0.175615
O O7 0.274779 0.301251 0.896029
O O8 0.809815 0.491148 0.191949
O O9 0.787022 0.338458 0.355084
O O10 0.022870 0.354869 0.501775
O O11 0.795784 0.287150 0.094309
O O12 0.713206 0.135843 0.248456
O O13 0.500000 0.000000 0.000000
#
# Coordination Sequence:
#
# PCOD8129302 Si02
#       6
#     4   4   4   4   4   4
#     4  12  25  43  69 106 142 180 233 300 356 414
#     4  12  24  42  74 102 134 183 239 291 348 423
#     4  11  27  48  69  99 148 190 233 293 369 432
#     4  12  24  39  67 108 137 174 234 295 347 415
#     4  11  26  47  70 102 142 190 238 295 358 428
#     4  12  24  45  71 104 137 187 236 290 365 428
#
# _framework density 21.800647000000001
#
# number of rings (size 3 to 8) (size 9 to 14) (size 15 to 20)
#    0.000    0.333    5.000    4.000    2.333    0.000 
#    0.000    0.833    0.000    0.000    0.000    0.000 
#    0.000    0.000    0.000    0.000    0.000    0.000 
#
# Total GULP energy -297497.952671 kJ/mol
# GULP energy per Si atom -12395.748028 kJ/mol
# Density = 2.175103 g / cm^3
# Si number density = 21.800647 Si / 1000 Ang^3
#
#
#
# Elastic Constant Matrix: (Units=GPa)
#
#
# Indices 1 2 3 4 5 6 
#
# 1 117.2105 21.4487 53.8889 0.0000 10.6906 0.0000
# 2 21.4487 96.0711 41.9603 0.0000 1.1735 0.0000
# 3 53.8889 41.9603 101.9011 0.0000 3.9020 0.0000
# 4 0.0000 0.0000 0.0000 43.6016 0.0000 -7.1282
# 5 10.6906 1.1735 3.9020 0.0000 39.0058 0.0000
# 6 0.0000 0.0000 0.0000 -7.1282 0.0000 44.5737
#
#
#
# Elastic Compliance Matrix: (Units=1/GPa)
#
#
# Indices 1 2 3 4 5 6 
#
# 1 0.011522 0.000094 -0.006034 0.000000 -0.002557 0.000000
# 2 0.000094 0.012693 -0.005281 0.000000 0.000121 0.000000
# 3 -0.006034 -0.005281 0.015168 0.000000 0.000295 0.000000
# 4 0.000000 0.000000 0.000000 0.023551 0.000000 0.003766
# 5 -0.002557 0.000121 0.000295 0.000000 0.026305 0.000000
# 6 0.000000 0.000000 0.000000 0.003766 0.000000 0.023037
#
#
# Mechanical properties :
#
#
# Convention : Reuss Voigt Hill
#
# Bulk Modulus (GPa) = 59.02886 61.08650 60.05768
# Shear Modulus (GPa) = 35.62161 38.62853 37.12507
#
# Velocity S-wave (km/s) = 4.04662 4.21396 4.13114
# Velocity P-wave (km/s) = 6.99779 7.19430 7.09672
#
# Compressibility (1/GPa) = 0.01694087
#
# Stress axis : x y z
#
# Youngs Moduli (GPa) = 86.79138 78.78325 65.92890
#
# Poissons Ratio (x) = -0.00743 0.39782
# Poissons Ratio (y) = -0.00819 0.34818
# Poissons Ratio (z) = 0.52371 0.41607
#
# Static dielectric constant tensor:
#      x y z
#    x 4.166920 0.000000 -0.217110 
#    y 0.000000 3.510850 0.000000 
#    z -0.217110 0.000000 3.808350 
# 
# 
# High freq. dielectric constant tensor:
#      x y z
#    x 1.860820 0.000000 -0.018570 
#    y 0.000000 1.881680 0.000000 
#    z -0.018570 0.000000 1.837750 
# 
# From -- ./inp_files/16342.got.cif
#   From: 2010.03.12/outbox.cif.g09.slc.cpg/sg14_9_cif.got.tgz:16342.got - 2010.03.31 13:35:05.
