data_PCOD8129047
_publ_section_title
;
Structure prediction by ZEFSAII (Michael W. Deem and Ramdas Pophale) SiO2 
 PCOD8129047
Probable space group: P 21/C
;
_chemical_formula_sum "Si O2"
_cell_formula_units_Z 28
_cell_length_a 26.301234
_cell_length_b 8.052178
_cell_length_c 9.096493
_cell_angle_alpha 90.000000
_cell_angle_beta 37.769014
_cell_angle_gamma 90.000000
_cell_volume 1179.927001
_symmetry_space_group_name_H-M "P 21/C"
_symmetry_group_IT_number 14
_symmetry_cell_setting 'monoclinic'
loop_
_space_group_symop_operation_xyz
x,y,z
-x,1/2+y,1/2-z
-x,-y,-z
x,1/2-y,1/2+z
loop_
_atom_site_type_symbol
_atom_site_label
_atom_site_fract_x
_atom_site_fract_y
_atom_site_fract_z
Si Si1 0.541968 0.239183 0.440048
Si Si2 0.945368 0.576285 0.870896
Si Si3 0.120338 0.435342 0.473280
Si Si4 0.314449 0.542817 0.539805
Si Si5 0.176071 0.542163 0.636391
Si Si6 0.170910 0.907641 0.582894
Si Si7 0.452632 0.082538 0.896075
O O1 0.517626 0.091994 0.609507
O O2 0.550872 0.403154 0.519435
O O3 0.471815 0.277287 0.474762
O O4 0.625901 0.186918 0.163463
O O5 0.915900 0.759568 0.895340
O O6 0.905835 0.440769 0.850639
O O7 0.044249 0.566348 0.638747
O O8 0.909349 0.542516 0.115118
O O9 0.187096 0.495035 0.441262
O O10 0.169854 0.442554 0.205427
O O11 0.255556 0.472195 0.545247
O O12 0.365709 0.395546 0.505437
O O13 0.256269 0.615430 0.800084
O O14 0.162467 0.737735 0.692089
#
# Coordination Sequence:
#
# PCOD8129047 Si02
#       7
#     4   4   4   4   4   4   4
#     4  11  24  46  75 105 138 184 239 295 359 432
#     4  11  24  43  69 101 143 183 241 300 351 424
#     4  12  23  44  70 102 140 187 240 294 355 423
#     4  11  24  47  70 101 142 185 237 290 357 435
#     4  11  24  42  67 100 137 186 238 290 361 417
#     4  11  24  44  68 100 136 192 237 292 359 424
#     4  11  24  46  73 105 138 184 238 294 357 429
#
# _framework density 23.730284000000001
#
# number of rings (size 3 to 8) (size 9 to 14) (size 15 to 20)
#    0.000    0.857    1.429    6.429    0.000    0.000 
#   12.857    0.000    0.000    0.000    0.000    0.000 
#    0.000    0.000    0.000    0.000    0.000    0.000 
#
# Total GULP energy -346987.091868 kJ/mol
# GULP energy per Si atom -12392.396138 kJ/mol
# Density = 2.367627 g / cm^3
# Si number density = 23.730284 Si / 1000 Ang^3
#
#
#
# Elastic Constant Matrix: (Units=GPa)
#
#
# Indices 1 2 3 4 5 6 
#
# 1 152.6838 31.6168 70.1949 0.0000 9.9692 0.0000
# 2 31.6168 65.6219 42.6646 0.0000 -4.1464 0.0000
# 3 70.1949 42.6646 135.4188 0.0000 10.5996 0.0000
# 4 0.0000 0.0000 0.0000 28.9326 0.0000 5.6774
# 5 9.9692 -4.1464 10.5996 0.0000 33.3238 0.0000
# 6 0.0000 0.0000 0.0000 5.6774 0.0000 37.1776
#
#
#
# Elastic Compliance Matrix: (Units=1/GPa)
#
#
# Indices 1 2 3 4 5 6 
#
# 1 0.008812 -0.001839 -0.003860 0.000000 -0.001637 0.000000
# 2 -0.001839 0.020203 -0.005796 0.000000 0.004908 0.000000
# 3 -0.003860 -0.005796 0.011463 0.000000 -0.003212 0.000000
# 4 0.000000 0.000000 0.000000 0.035631 0.000000 -0.005441
# 5 -0.001637 0.004908 -0.003212 0.000000 0.032131 0.000000
# 6 0.000000 0.000000 0.000000 -0.005441 0.000000 0.027729
#
#
# Mechanical properties :
#
#
# Convention : Reuss Voigt Hill
#
# Bulk Modulus (GPa) = 57.18375 71.40858 64.29616
# Shear Modulus (GPa) = 30.34194 33.83667 32.08931
#
# Velocity S-wave (km/s) = 3.57965 3.78019 3.68129
# Velocity P-wave (km/s) = 6.42144 7.01500 6.72477
#
# Compressibility (1/GPa) = 0.01748749
#
# Stress axis : x y z
#
# Youngs Moduli (GPa) = 113.48324 49.49666 87.23854
#
# Poissons Ratio (x) = 0.09105 0.33674
# Poissons Ratio (y) = 0.20874 0.50562
# Poissons Ratio (z) = 0.43805 0.28688
#
# Static dielectric constant tensor:
#      x y z
#    x 4.574590 0.000000 0.196710 
#    y 0.000000 4.055330 0.000000 
#    z 0.196710 0.000000 4.310110 
# 
# 
# High freq. dielectric constant tensor:
#      x y z
#    x 1.954900 0.000000 0.023120 
#    y 0.000000 1.922890 0.000000 
#    z 0.023120 0.000000 1.939430 
# 
# From -- ./inp_files/19708.got.cif
#   From: 2010.03.12/outbox.cif.g09.slc.cpg/sg14_10_cif.got.tgz:19708.got - 2010.03.31 13:35:05.
