data_PCOD8129340
_publ_section_title
;
Structure prediction by ZEFSAII (Michael W. Deem and Ramdas Pophale) SiO2 
 PCOD8129340
Probable space group: P 21/C
;
_chemical_formula_sum "Si O2"
_cell_formula_units_Z 20
_cell_length_a 9.599523
_cell_length_b 7.011488
_cell_length_c 25.574979
_cell_angle_alpha 90.000000
_cell_angle_beta 156.895888
_cell_angle_gamma 90.000000
_cell_volume 675.472382
_symmetry_space_group_name_H-M "P 21/C"
_symmetry_group_IT_number 14
_symmetry_cell_setting 'monoclinic'
loop_
_space_group_symop_operation_xyz
x,y,z
-x,1/2+y,1/2-z
-x,-y,-z
x,1/2-y,1/2+z
loop_
_atom_site_type_symbol
_atom_site_label
_atom_site_fract_x
_atom_site_fract_y
_atom_site_fract_z
Si Si1 0.503339 0.067741 0.338249
Si Si2 0.894366 0.701147 0.637509
Si Si3 0.760965 0.181418 0.017832
Si Si4 0.239950 0.527569 0.186738
Si Si5 0.406475 0.172166 0.096172
O O1 0.637704 0.104852 0.326584
O O2 0.739123 0.887567 0.442360
O O3 0.076229 0.011077 0.187844
O O4 0.561141 0.242880 0.396871
O O5 0.499634 0.694601 0.522411
O O6 0.904499 0.838216 0.589091
O O7 0.173125 0.799370 0.774951
O O8 0.801913 0.952601 0.019280
O O9 0.123273 0.303514 0.151221
O O10 0.579262 0.562106 0.342234
#
# Coordination Sequence:
#
# PCOD8129340 Si02
#       5
#     4   4   4   4   4
#     4   9  21  37  56  84 117 151 195 233 291 342
#     4   8  21  38  55  86 117 146 194 233 289 340
#     4  12  18  38  65  79 119 156 187 243 290 340
#     4   9  21  36  59  90 111 152 197 237 286 345
#     4   8  23  34  56  86 117 145 194 229 292 334
#
# _framework density 29.608910000000002
#
# number of rings (size 3 to 8) (size 9 to 14) (size 15 to 20)
#    2.400    0.000    0.000    2.400    5.600    0.800 
#    0.000    4.000    0.000    4.800    0.000    0.000 
#    0.000    0.000    0.000    0.000    0.000    0.000 
#
# Total GULP energy -247776.450502 kJ/mol
# GULP energy per Si atom -12388.822525 kJ/mol
# Density = 2.954152 g / cm^3
# Si number density = 29.608910 Si / 1000 Ang^3
#
#
#
# Elastic Constant Matrix: (Units=GPa)
#
#
# Indices 1 2 3 4 5 6 
#
# 1 165.1676 48.3823 21.6856 0.0000 13.6867 0.0000
# 2 48.3823 174.2987 24.7468 0.0000 4.4000 0.0000
# 3 21.6856 24.7468 93.1315 0.0000 -4.7834 0.0000
# 4 0.0000 0.0000 0.0000 40.5281 0.0000 1.6906
# 5 13.6867 4.4000 -4.7834 0.0000 25.7812 0.0000
# 6 0.0000 0.0000 0.0000 1.6906 0.0000 31.9273
#
#
#
# Elastic Compliance Matrix: (Units=1/GPa)
#
#
# Indices 1 2 3 4 5 6 
#
# 1 0.007030 -0.001661 -0.001386 0.000000 -0.003706 0.000000
# 2 -0.001661 0.006400 -0.001337 0.000000 -0.000459 0.000000
# 3 -0.001386 -0.001337 0.011575 0.000000 0.003112 0.000000
# 4 0.000000 0.000000 0.000000 0.024729 0.000000 -0.001309
# 5 -0.003706 -0.000459 0.003112 0.000000 0.041411 0.000000
# 6 0.000000 0.000000 0.000000 -0.001309 0.000000 0.031391
#
#
# Mechanical properties :
#
#
# Convention : Reuss Voigt Hill
#
# Bulk Modulus (GPa) = 61.58910 69.13636 65.36273
# Shear Modulus (GPa) = 36.57205 42.16618 39.36912
#
# Velocity S-wave (km/s) = 3.51831 3.77782 3.65038
# Velocity P-wave (km/s) = 6.11152 6.51382 6.31587
#
# Compressibility (1/GPa) = 0.01623664
#
# Stress axis : x y z
#
# Youngs Moduli (GPa) = 142.24576 156.25443 86.39028
#
# Poissons Ratio (x) = 0.25956 0.11973
# Poissons Ratio (y) = 0.23629 0.11553
# Poissons Ratio (z) = 0.19714 0.20896
#
# Static dielectric constant tensor:
#      x y z
#    x 4.908690 0.000000 -0.364110 
#    y 0.000000 5.703460 0.000000 
#    z -0.364110 0.000000 5.357800 
# 
# 
# High freq. dielectric constant tensor:
#      x y z
#    x 2.194490 0.000000 -0.038030 
#    y 0.000000 2.235130 0.000000 
#    z -0.038030 0.000000 2.235020 
# 
# From -- ./inp_files/76286.got.cif
#   From: 2010.03.12/outbox.cif.g09.slc.cpg/sg14_39_cif.got.tgz:76286.got - 2010.03.31 13:35:05.
