data_PCOD8129316
_publ_section_title
;
Structure prediction by ZEFSAII (Michael W. Deem and Ramdas Pophale) SiO2 
 PCOD8129316
Probable space group: P 21/C
;
_chemical_formula_sum "Si O2"
_cell_formula_units_Z 16
_cell_length_a 14.505161
_cell_length_b 8.575505
_cell_length_c 8.321637
_cell_angle_alpha 90.000000
_cell_angle_beta 142.500180
_cell_angle_gamma 90.000000
_cell_volume 630.139023
_symmetry_space_group_name_H-M "P 21/C"
_symmetry_group_IT_number 14
_symmetry_cell_setting 'monoclinic'
loop_
_space_group_symop_operation_xyz
x,y,z
-x,1/2+y,1/2-z
-x,-y,-z
x,1/2-y,1/2+z
loop_
_atom_site_type_symbol
_atom_site_label
_atom_site_fract_x
_atom_site_fract_y
_atom_site_fract_z
Si Si1 0.097723 0.034625 0.379851
Si Si2 0.625347 0.425039 0.565778
Si Si3 0.571927 0.633855 0.201551
Si Si4 0.145223 0.176015 0.108378
O O1 0.054946 0.160362 0.460256
O O2 0.218398 0.908572 0.615652
O O3 0.170338 0.129506 0.327885
O O4 0.942953 0.958419 0.108711
O O5 0.500000 0.500000 0.500000
O O6 0.655404 0.547252 0.463807
O O7 0.559776 0.255152 0.422007
O O8 0.693940 0.713723 0.252542
O O9 0.500000 0.500000 0.000000
#
# Coordination Sequence:
#
# PCOD8129316 Si02
#       4
#     4   4   4   4
#     4  11  26  48  75 106 147 191 245 302 367 439
#     4  12  25  46  74 107 149 193 245 301 365 433
#     4  12  27  46  74 109 149 194 245 304 363 438
#     4  11  26  49  73 108 145 191 246 301 367 438
#
# _framework density 25.391221000000002
#
# number of rings (size 3 to 8) (size 9 to 14) (size 15 to 20)
#    0.000    0.500    2.500    4.500    3.500    4.000 
#    0.000    0.000    0.000    0.000    0.000    0.000 
#    0.000    0.000    0.000    0.000    0.000    0.000 
#
# Total GULP energy -198369.248173 kJ/mol
# GULP energy per Si atom -12398.078011 kJ/mol
# Density = 2.533343 g / cm^3
# Si number density = 25.391221 Si / 1000 Ang^3
#
#
#
# Elastic Constant Matrix: (Units=GPa)
#
#
# Indices 1 2 3 4 5 6 
#
# 1 50.4394 4.9160 14.4680 0.0000 -0.9051 0.0000
# 2 4.9160 119.2921 36.0536 0.0000 -5.9592 0.0000
# 3 14.4680 36.0536 144.4952 0.0000 -21.1413 0.0000
# 4 0.0000 0.0000 0.0000 52.8980 0.0000 -8.6857
# 5 -0.9051 -5.9592 -21.1413 0.0000 22.8633 0.0000
# 6 0.0000 0.0000 0.0000 -8.6857 0.0000 36.9757
#
#
#
# Elastic Compliance Matrix: (Units=1/GPa)
#
#
# Indices 1 2 3 4 5 6 
#
# 1 0.020450 -0.000250 -0.002170 0.000000 -0.001262 0.000000
# 2 -0.000250 0.009071 -0.002190 0.000000 0.000329 0.000000
# 3 -0.002170 -0.002190 0.008776 0.000000 0.007458 0.000000
# 4 0.000000 0.000000 0.000000 0.019663 0.000000 0.004619
# 5 -0.001262 0.000329 0.007458 0.000000 0.050670 0.000000
# 6 0.000000 0.000000 0.000000 0.004619 0.000000 0.028130
#
#
# Mechanical properties :
#
#
# Convention : Reuss Voigt Hill
#
# Bulk Modulus (GPa) = 34.39177 47.23355 40.81266
# Shear Modulus (GPa) = 32.11876 39.79999 35.95937
#
# Velocity S-wave (km/s) = 3.56048 3.96342 3.76734
# Velocity P-wave (km/s) = 5.52058 6.29187 5.91881
#
# Compressibility (1/GPa) = 0.02907672
#
# Stress axis : x y z
#
# Youngs Moduli (GPa) = 48.90000 110.23540 113.95256
#
# Poissons Ratio (x) = 0.02756 0.24726
# Poissons Ratio (y) = 0.01222 0.24959
# Poissons Ratio (z) = 0.10611 0.24144
#
# Static dielectric constant tensor:
#      x y z
#    x 25.415140 0.000000 28.565010 
#    y 0.000000 5.267010 0.000000 
#    z 28.565010 0.000000 37.520580 
# 
# 
# High freq. dielectric constant tensor:
#      x y z
#    x 1.991220 0.000000 -0.016170 
#    y 0.000000 2.024300 0.000000 
#    z -0.016170 0.000000 2.038370 
# 
# From -- ./inp_files/7215.got.cif
#   From: 2010.03.12/outbox.cif.g09.slc.cpg/sg14_4_cif.got.tgz:7215.got - 2010.03.31 13:35:05.
