data_PCOD8129087
_publ_section_title
;
Structure prediction by ZEFSAII (Michael W. Deem and Ramdas Pophale) SiO2 
 PCOD8129087
Probable space group: P 21/C
;
_chemical_formula_sum "Si O2"
_cell_formula_units_Z 20
_cell_length_a 10.610911
_cell_length_b 8.417336
_cell_length_c 9.474610
_cell_angle_alpha 90.000000
_cell_angle_beta 83.659909
_cell_angle_gamma 90.000000
_cell_volume 841.054901
_symmetry_space_group_name_H-M "P 21/C"
_symmetry_group_IT_number 14
_symmetry_cell_setting 'monoclinic'
loop_
_space_group_symop_operation_xyz
x,y,z
-x,1/2+y,1/2-z
-x,-y,-z
x,1/2-y,1/2+z
loop_
_atom_site_type_symbol
_atom_site_label
_atom_site_fract_x
_atom_site_fract_y
_atom_site_fract_z
Si Si1 0.926008 0.337750 0.492812
Si Si2 0.214895 0.844456 0.279479
Si Si3 0.539906 0.502725 0.334221
Si Si4 0.679464 0.668884 0.767135
Si Si5 0.168841 0.153678 0.467200
O O1 0.875359 0.327070 0.342414
O O2 0.810191 0.311525 0.619202
O O3 0.000000 0.500000 0.500000
O O4 0.022338 0.193072 0.513702
O O5 0.360335 0.860247 0.211614
O O6 0.177236 0.999696 0.371074
O O7 0.500000 0.500000 0.500000
O O8 0.416948 0.475116 0.251260
O O9 0.599885 0.670766 0.292976
O O10 0.771942 0.693909 0.621849
O O11 0.758630 0.624390 0.895385
#
# Coordination Sequence:
#
# PCOD8129087 Si02
#       5
#     4   4   4   4   4
#     4  12  25  45  72 104 144 187 247 308 364 436
#     4  11  27  44  70 104 142 191 246 297 370 438
#     4  11  25  46  71 107 144 191 245 304 366 439
#     4  11  24  43  76 100 146 188 245 305 372 441
#     4  11  24  46  68 105 141 194 235 302 374 436
#
# _framework density 23.779661999999998
#
# number of rings (size 3 to 8) (size 9 to 14) (size 15 to 20)
#    0.000    0.800    2.000    5.400    2.800    6.400 
#    0.000    0.000    0.000    0.000    0.000    0.000 
#    0.000    0.000    0.000    0.000    0.000    0.000 
#
# Total GULP energy -248053.883854 kJ/mol
# GULP energy per Si atom -12402.694193 kJ/mol
# Density = 2.372554 g / cm^3
# Si number density = 23.779662 Si / 1000 Ang^3
#
#
#
# Elastic Constant Matrix: (Units=GPa)
#
#
# Indices 1 2 3 4 5 6 
#
# 1 122.6586 14.8483 64.7892 0.0000 15.8200 0.0000
# 2 14.8483 40.6284 16.8728 0.0000 0.7229 0.0000
# 3 64.7892 16.8728 159.2643 0.0000 23.6842 0.0000
# 4 0.0000 0.0000 0.0000 39.2837 0.0000 5.2790
# 5 15.8200 0.7229 23.6842 0.0000 64.3125 0.0000
# 6 0.0000 0.0000 0.0000 5.2790 0.0000 38.7247
#
#
#
# Elastic Compliance Matrix: (Units=1/GPa)
#
#
# Indices 1 2 3 4 5 6 
#
# 1 0.010644 -0.002241 -0.003922 0.000000 -0.001149 0.000000
# 2 -0.002241 0.026253 -0.002018 0.000000 0.000999 0.000000
# 3 -0.003922 -0.002018 0.008401 0.000000 -0.002107 0.000000
# 4 0.000000 0.000000 0.000000 0.025931 0.000000 -0.003535
# 5 -0.001149 0.000999 -0.002107 0.000000 0.016596 0.000000
# 6 0.000000 0.000000 0.000000 -0.003535 0.000000 0.026305
#
#
# Mechanical properties :
#
#
# Convention : Reuss Voigt Hill
#
# Bulk Modulus (GPa) = 34.55891 57.28577 45.92234
# Shear Modulus (GPa) = 35.67945 43.53357 39.60651
#
# Velocity S-wave (km/s) = 3.87773 4.28332 4.08556
# Velocity P-wave (km/s) = 5.88333 6.97172 6.45052
#
# Compressibility (1/GPa) = 0.02893610
#
# Stress axis : x y z
#
# Youngs Moduli (GPa) = 93.95358 38.09130 119.02941
#
# Poissons Ratio (x) = 0.08535 0.46679
# Poissons Ratio (y) = 0.21053 0.24024
# Poissons Ratio (z) = 0.36845 0.07688
#
# Static dielectric constant tensor:
#      x y z
#    x 5.087030 0.000000 -0.763800 
#    y 0.000000 4.284830 0.000000 
#    z -0.763800 0.000000 4.899450 
# 
# 
# High freq. dielectric constant tensor:
#      x y z
#    x 1.961420 0.000000 -0.006320 
#    y 0.000000 1.940220 0.000000 
#    z -0.006320 0.000000 1.954450 
# 
# From -- ./inp_files/11844.got.cif
#   From: 2010.03.12/outbox.cif.g09.slc.cpg/sg14_6_cif.got.tgz:11844.got - 2010.03.31 13:35:05.
