data_PCOD8129032
_publ_section_title
;
Structure prediction by ZEFSAII (Michael W. Deem and Ramdas Pophale) SiO2 
 PCOD8129032
Probable space group: P 21/C
;
_chemical_formula_sum "Si O2"
_cell_formula_units_Z 32
_cell_length_a 9.294137
_cell_length_b 13.925989
_cell_length_c 13.435937
_cell_angle_alpha 90.000000
_cell_angle_beta 112.763622
_cell_angle_gamma 90.000000
_cell_volume 1603.560463
_symmetry_space_group_name_H-M "P 21/C"
_symmetry_group_IT_number 14
_symmetry_cell_setting 'monoclinic'
loop_
_space_group_symop_operation_xyz
x,y,z
-x,1/2+y,1/2-z
-x,-y,-z
x,1/2-y,1/2+z
loop_
_atom_site_type_symbol
_atom_site_label
_atom_site_fract_x
_atom_site_fract_y
_atom_site_fract_z
Si Si1 0.252390 0.215463 0.890412
Si Si2 0.692247 0.633937 0.254179
Si Si3 0.376485 0.572932 0.758504
Si Si4 0.237399 0.635844 0.317152
Si Si5 0.091105 0.702794 0.654278
Si Si6 0.985461 0.398843 0.555649
Si Si7 0.439100 0.037207 0.878424
Si Si8 0.532554 0.748867 0.375047
O O1 0.259736 0.312981 0.832289
O O2 0.353434 0.137331 0.861858
O O3 0.076348 0.177472 0.845002
O O4 0.315102 0.237178 0.017182
O O5 0.630116 0.532240 0.195102
O O6 0.557710 0.689610 0.279458
O O7 0.840445 0.623438 0.364702
O O8 0.211338 0.624951 0.728866
O O9 0.410940 0.553903 0.650832
O O10 0.510309 0.638349 0.844287
O O11 0.142440 0.689577 0.202479
O O12 0.129683 0.602358 0.380357
O O13 0.319201 0.539353 0.297522
O O14 0.378413 0.707012 0.389381
O O15 0.077638 0.687971 0.531594
O O16 0.000000 0.500000 0.500000
O O17 0.500000 0.000000 0.000000
#
# Coordination Sequence:
#
# PCOD8129032 Si02
#       8
#     4   4   4   4   4   4   4   4
#     4  12  24  40  67  92 130 173 215 273 330 393
#     4  12  23  41  65  96 129 171 219 274 328 383
#     4  11  24  42  61  96 133 167 213 275 326 389
#     4  11  24  40  64  99 131 167 216 272 331 390
#     4  11  24  40  64  96 134 168 212 273 332 391
#     4  12  23  40  68  99 129 169 224 280 328 388
#     4  12  22  39  67  97 123 167 224 273 325 380
#     4  11  24  42  64  95 129 173 219 263 334 395
#
# _framework density 19.955593
#
# number of rings (size 3 to 8) (size 9 to 14) (size 15 to 20)
#    0.000    0.500    7.500    1.500    0.000    0.500 
#    0.000    0.000    0.000    1.500    0.000    0.000 
#    0.000    0.000    0.000    0.000    0.000    0.000 
#
# Total GULP energy -396680.661914 kJ/mol
# GULP energy per Si atom -12396.270685 kJ/mol
# Density = 1.991017 g / cm^3
# Si number density = 19.955593 Si / 1000 Ang^3
#
#
#
# Elastic Constant Matrix: (Units=GPa)
#
#
# Indices 1 2 3 4 5 6 
#
# 1 115.2893 39.6477 26.7479 0.0000 -4.3132 0.0000
# 2 39.6477 136.3041 46.5878 0.0000 -0.8744 0.0000
# 3 26.7479 46.5878 47.2854 0.0000 -1.1806 0.0000
# 4 0.0000 0.0000 0.0000 37.0202 0.0000 -0.2797
# 5 -4.3132 -0.8744 -1.1806 0.0000 28.3638 0.0000
# 6 0.0000 0.0000 0.0000 -0.2797 0.0000 36.7044
#
#
#
# Elastic Compliance Matrix: (Units=1/GPa)
#
#
# Indices 1 2 3 4 5 6 
#
# 1 0.010233 -0.001509 -0.004268 0.000000 0.001332 0.000000
# 2 -0.001509 0.011284 -0.010272 0.000000 -0.000309 0.000000
# 3 -0.004268 -0.010272 0.033694 0.000000 0.000437 0.000000
# 4 0.000000 0.000000 0.000000 0.027014 0.000000 0.000206
# 5 0.001332 -0.000309 0.000437 0.000000 0.035467 0.000000
# 6 0.000000 0.000000 0.000000 0.000206 0.000000 0.027246
#
#
# Mechanical properties :
#
#
# Convention : Reuss Voigt Hill
#
# Bulk Modulus (GPa) = 43.26674 58.31617 50.79146
# Shear Modulus (GPa) = 27.06478 32.81072 29.93775
#
# Velocity S-wave (km/s) = 3.68673 4.05926 3.87747
# Velocity P-wave (km/s) = 6.31278 7.15936 6.74936
#
# Compressibility (1/GPa) = 0.02311244
#
# Stress axis : x y z
#
# Youngs Moduli (GPa) = 97.72383 88.61785 29.67881
#
# Poissons Ratio (x) = 0.13373 0.12668
# Poissons Ratio (y) = 0.14747 0.30486
# Poissons Ratio (z) = 0.41712 0.91028
#
# Static dielectric constant tensor:
#      x y z
#    x 3.834790 0.000000 0.093200 
#    y 0.000000 3.932040 0.000000 
#    z 0.093200 0.000000 3.546860 
# 
# 
# High freq. dielectric constant tensor:
#      x y z
#    x 1.798010 0.000000 0.005380 
#    y 0.000000 1.785730 0.000000 
#    z 0.005380 0.000000 1.750460 
# 
# From -- ./inp_files/40378.got.cif
#   From: 2010.03.12/outbox.cif.g09.slc.cpg/sg14_21_cif.got.tgz:40378.got - 2010.03.31 13:35:05.
