data_PCOD8129753
_publ_section_title
;
Structure prediction by ZEFSAII (Michael W. Deem and Ramdas Pophale) SiO2 
 PCOD8129753
Probable space group: C 2/C
;
_chemical_formula_sum "Si O2"
_cell_formula_units_Z 36
_cell_length_a 13.810951
_cell_length_b 14.672004
_cell_length_c 16.840392
_cell_angle_alpha 90.000000
_cell_angle_beta 32.192132
_cell_angle_gamma 90.000000
_cell_volume 1818.012583
_symmetry_space_group_name_H-M "C 2/C"
_symmetry_group_IT_number 15
_symmetry_cell_setting 'monoclinic'
loop_
_space_group_symop_operation_xyz
x,y,z
-x,y,1/2-z
-x,-y,-z
x,-y,1/2+z
1/2+x,1/2+y,z
1/2-x,1/2+y,1/2-z
1/2-x,1/2-y,-z
1/2+x,1/2-y,1/2+z
loop_
_atom_site_type_symbol
_atom_site_label
_atom_site_fract_x
_atom_site_fract_y
_atom_site_fract_z
Si Si1 0.077065 0.645467 0.421402
Si Si2 0.451685 0.429568 0.392329
Si Si3 0.330459 0.318792 0.608581
Si Si4 0.208181 0.493623 0.432610
Si Si5 0.500000 0.733655 0.750000
O O1 0.263838 0.662373 0.243964
O O2 0.126405 0.592804 0.468936
O O3 0.980597 0.739827 0.509625
O O4 0.948423 0.582377 0.456228
O O5 0.418146 0.411622 0.509395
O O6 0.306562 0.497330 0.450324
O O7 0.653569 0.465590 0.234608
O O8 0.422841 0.329670 0.373662
O O9 0.159171 0.295749 0.672813
#
# Coordination Sequence:
#
# PCOD8129753 Si02
#       5
#     8   8   8   8   4
#     4  11  20  32  51  80 111 135 169 222 264 304
#     4  10  18  34  53  73 104 144 171 207 260 321
#     4  12  19  30  54  82 106 135 177 215 257 311
#     4   9  20  35  49  73 112 143 165 213 272 307
#     4  10  16  28  48  78 104 130 160 218 244 312
#
# _framework density 19.801843000000002
#
# number of rings (size 3 to 8) (size 9 to 14) (size 15 to 20)
#    0.000    1.778    6.667    2.000    0.000    0.889 
#    0.000    0.000    0.000    5.333    0.000    0.000 
#    0.000    0.000    0.000    0.000    0.000    0.000 
#
# Total GULP energy -223121.567468 kJ/mol
# GULP energy per Si atom -12395.642637 kJ/mol
# Density = 1.975677 g / cm^3
# Si number density = 19.801843 Si / 1000 Ang^3
#
#
#
# Elastic Constant Matrix: (Units=GPa)
#
#
# Indices 1 2 3 4 5 6 
#
# 1 33.9978 38.0883 24.1708 -0.0028 -6.4562 0.0007
# 2 38.0883 66.5038 36.3324 0.0049 -1.7490 -0.0028
# 3 24.1708 36.3324 90.3866 -0.0012 11.3899 0.0004
# 4 -0.0028 0.0049 -0.0012 7.2552 -0.0014 -4.2385
# 5 -6.4562 -1.7490 11.3899 -0.0014 14.9798 -0.0007
# 6 0.0007 -0.0028 0.0004 -4.2385 -0.0007 37.6428
#
#
#
# Elastic Compliance Matrix: (Units=1/GPa)
#
#
# Indices 1 2 3 4 5 6 
#
# 1 0.109117 -0.053358 -0.014236 0.000090 0.051623 0.000005
# 2 -0.053358 0.046524 -0.002454 -0.000057 -0.015699 -0.000002
# 3 -0.014236 -0.002454 0.018432 -0.000006 -0.020437 -0.000001
# 4 0.000090 -0.000057 -0.000006 0.147537 0.000051 0.016612
# 5 0.051623 -0.015699 -0.020437 0.000051 0.102712 0.000006
# 6 0.000005 -0.000002 -0.000001 0.016612 0.000006 0.028436
#
#
# Mechanical properties :
#
#
# Convention : Reuss Voigt Hill
#
# Bulk Modulus (GPa) = 29.43285 43.11904 36.27594
# Shear Modulus (GPa) = 8.27566 18.12867 13.20216
#
# Velocity S-wave (km/s) = 2.04654 3.02901 2.58488
# Velocity P-wave (km/s) = 4.52552 5.83573 5.22188
#
# Compressibility (1/GPa) = 0.03397564
#
# Stress axis : x y z
#
# Youngs Moduli (GPa) = 9.16450 21.49419 54.25221
#
# Poissons Ratio (x) = 1.14690 0.77236
# Poissons Ratio (y) = 0.48900 0.13313
# Poissons Ratio (z) = 0.13047 0.05275
#
# Static dielectric constant tensor:
#      x y z
#    x 3.339980 0.000000 -0.036760 
#    y 0.000000 3.399100 0.000010 
#    z -0.036760 0.000010 3.833070 
# 
# 
# High freq. dielectric constant tensor:
#      x y z
#    x 1.733830 0.000000 -0.013000 
#    y 0.000000 1.748630 0.000000 
#    z -0.013000 0.000000 1.781160 
# 
# From -- ./inp_files/37501.got.cif
#   From: 2010.06.25/outbox.cif.g09.slc.cpg/sg15_19_cif.got.tgz:37501.got - 2010.06.28 07:06:18.
