data_PCOD8129543
_publ_section_title
;
Structure prediction by ZEFSAII (Michael W. Deem and Ramdas Pophale) SiO2 
 PCOD8129543
Probable space group: C 2/C
;
_chemical_formula_sum "Si O2"
_cell_formula_units_Z 30
_cell_length_a 12.000000
_cell_length_b 18.000000
_cell_length_c 27.000000
_cell_angle_alpha 90.000000
_cell_angle_beta 30.000000
_cell_angle_gamma 90.000000
_cell_volume 2916.000000
_symmetry_space_group_name_H-M "C 2/C"
_symmetry_group_IT_number 15
_symmetry_cell_setting 'monoclinic'
loop_
_space_group_symop_operation_xyz
x,y,z
-x,y,1/2-z
-x,-y,-z
x,-y,1/2+z
1/2+x,1/2+y,z
1/2-x,1/2+y,1/2-z
1/2-x,1/2-y,-z
1/2+x,1/2-y,1/2+z
loop_
_atom_site_type_symbol
_atom_site_label
_atom_site_fract_x
_atom_site_fract_y
_atom_site_fract_z
Si Si1 0.253683 0.620775 0.322298
Si Si2 0.052844 0.111048 0.085022
Si Si3 0.416327 0.829486 0.515564
Si Si4 0.268074 0.826815 0.410750
Si Si5 0.245860 0.500670 0.743978
Si Si6 0.807920 0.863347 0.289477
Si Si7 0.500000 0.070640 0.750000
Si Si8 0.308841 0.265344 0.720696
O O1 0.500000 0.604471 0.250000
O O2 0.071980 0.626560 0.436449
O O3 0.171492 0.558736 0.314706
O O4 0.246685 0.701181 0.297962
O O5 0.187339 0.144121 0.079461
O O6 0.846851 0.169156 0.165630
O O7 0.173930 0.112364 0.985926
O O8 0.971897 0.028091 0.130010
O O9 0.405909 0.740735 0.530444
O O10 0.605404 0.851942 0.405052
O O11 0.309714 0.873077 0.344274
O O12 0.488768 0.793392 0.350816
O O13 0.269859 0.578066 0.761351
O O14 0.072939 0.515671 0.766116
O O15 0.876474 0.786947 0.234501
O O16 0.000000 0.894422 0.250000
#
# Coordination Sequence:
#
# PCOD8129543 Si02
#       8
#     8   8   8   8   8   8   4   8
#     4  11  20  38  68 101 125 163 221 268 315 386
#     4  10  19  37  66  94 124 159 225 262 313 387
#     4  11  20  38  73  98 116 168 224 277 315 374
#     4  11  18  37  69  97 116 160 229 269 304 380
#     4  11  25  41  58  94 134 173 206 263 328 390
#     4  12  25  42  61  96 138 171 207 270 341 376
#     4  12  24  40  64  92 138 168 208 270 326 386
#     4  10  18  37  64  96 124 156 212 270 311 371
#
# _framework density 10.288066000000001
#
# number of rings (size 3 to 8) (size 9 to 14) (size 15 to 20)
#    0.000    1.067    8.000    2.000    0.000    1.067 
#    7.200    0.667    0.000    0.000    0.000    0.000 
#    0.000    0.000    0.000    0.000    0.000    0.000 
#
# Total GULP energy -371647.265666 kJ/mol
# GULP energy per Si atom -12388.242189 kJ/mol
# Density = 1.026465 g / cm^3
# Si number density = 10.288066 Si / 1000 Ang^3
#
#
#
# Elastic Constant Matrix: (Units=GPa)
#
#
# Indices 1 2 3 4 5 6 
#
# 1 113.9628 54.8607 35.7665 -0.1534 26.9945 -0.0064
# 2 54.8607 113.2219 65.1381 0.2492 22.3364 -0.0505
# 3 35.7665 65.1381 63.9572 -0.3550 27.9675 0.1037
# 4 -0.1534 0.2492 -0.3550 41.2210 0.2121 15.8402
# 5 26.9945 22.3364 27.9675 0.2121 28.4673 -0.0619
# 6 -0.0064 -0.0505 0.1037 15.8402 -0.0619 40.4930
#
#
#
# Elastic Compliance Matrix: (Units=1/GPa)
#
#
# Indices 1 2 3 4 5 6 
#
# 1 0.013439 -0.006862 0.004723 0.000245 -0.012002 -0.000133
# 2 -0.006862 0.025959 -0.029008 -0.000655 0.014643 0.000384
# 3 0.004723 -0.029008 0.060583 0.001206 -0.041247 -0.000725
# 4 0.000245 -0.000655 0.001206 0.028579 -0.001140 -0.011185
# 5 -0.012002 0.014643 -0.041247 -0.001140 0.075552 0.000683
# 6 -0.000133 0.000384 -0.000725 -0.011185 0.000683 0.029074
#
#
# Mechanical properties :
#
#
# Convention : Reuss Voigt Hill
#
# Bulk Modulus (GPa) = 26.53503 66.96362 46.74933
# Shear Modulus (GPa) = 16.23153 31.06137 23.64645
#
# Velocity S-wave (km/s) = 2.81170 3.88955 3.39369
# Velocity P-wave (km/s) = 4.84406 7.26543 6.17460
#
# Compressibility (1/GPa) = 0.03768604
#
# Stress axis : x y z
#
# Youngs Moduli (GPa) = 74.41081 38.52298 16.50629
#
# Poissons Ratio (x) = 0.26433 -0.07795
# Poissons Ratio (y) = 0.51058 0.47882
# Poissons Ratio (z) = -0.35141 1.11748
#
# Static dielectric constant tensor:
#      x y z
#    x 3.508520 -0.000520 0.488370 
#    y -0.000520 3.911630 0.000470 
#    z 0.488370 0.000470 3.437490 
# 
# 
# High freq. dielectric constant tensor:
#      x y z
#    x 1.791310 0.000000 0.045960 
#    y 0.000000 1.808720 0.000000 
#    z 0.045960 0.000000 1.778190 
# 
# From -- ./inp_files/293519.got.cif
#   From: 2010.06.25/outbox.ucp.g09.slc.cvg/sg15_147_cif.got.tgz:293519.got - 2010.06.28 14:40:10.
