data_PCOD8129545
_publ_section_title
;
Structure prediction by ZEFSAII (Michael W. Deem and Ramdas Pophale) SiO2 
 PCOD8129545
Probable space group: C 2/C
;
_chemical_formula_sum "Si O2"
_cell_formula_units_Z 32
_cell_length_a 21.000000
_cell_length_b 15.000000
_cell_length_c 30.000000
_cell_angle_alpha 90.000000
_cell_angle_beta 20.000000
_cell_angle_gamma 90.000000
_cell_volume 3232.090354
_symmetry_space_group_name_H-M "C 2/C"
_symmetry_group_IT_number 15
_symmetry_cell_setting 'monoclinic'
loop_
_space_group_symop_operation_xyz
x,y,z
-x,y,1/2-z
-x,-y,-z
x,-y,1/2+z
1/2+x,1/2+y,z
1/2-x,1/2+y,1/2-z
1/2-x,1/2-y,-z
1/2+x,1/2-y,1/2+z
loop_
_atom_site_type_symbol
_atom_site_label
_atom_site_fract_x
_atom_site_fract_y
_atom_site_fract_z
Si Si1 0.606944 0.351896 0.634085
Si Si2 0.098423 0.605960 0.266676
Si Si3 0.508423 0.233801 0.871132
Si Si4 0.451711 0.282854 0.380374
Si Si5 0.328557 0.511342 0.046336
Si Si6 0.198015 0.034595 0.536752
Si Si7 0.467061 0.349305 0.558449
Si Si8 0.414055 0.330609 0.112683
O O1 0.500000 0.328369 0.750000
O O2 0.494718 0.302621 0.668282
O O3 0.822252 0.324098 0.493191
O O4 0.611965 0.458604 0.624639
O O5 0.151112 0.560051 0.185267
O O6 0.271253 0.595748 0.187356
O O7 0.084821 0.713685 0.266979
O O8 0.906307 0.567224 0.414026
O O9 0.523545 0.283050 0.907461
O O10 0.691588 0.171752 0.750804
O O11 0.250000 0.250000 0.500000
O O12 0.455835 0.385652 0.361425
O O13 0.507600 0.275284 0.396304
O O14 0.278369 0.494384 0.028136
O O15 0.361897 0.418055 0.048898
O O16 0.519113 0.567743 0.925131
O O17 0.492168 0.295825 0.495192
#
# Coordination Sequence:
#
# PCOD8129545 Si02
#       8
#     8   8   8   8   8   8   8   8
#     4  11  25  44  61  89 122 164 213 251 310 377
#     4  10  19  35  60  93 122 159 206 248 312 365
#     4  11  23  42  66  86 123 167 202 262 310 372
#     4   9  19  37  60  88 127 162 202 251 309 363
#     4  10  21  36  60  94 126 154 209 263 305 365
#     4  10  21  39  62  86 124 167 199 259 308 369
#     4  11  21  37  61  96 123 160 207 265 310 363
#     4  10  20  36  62  90 122 159 206 254 311 366
#
# _framework density 9.9007129999999997
#
# number of rings (size 3 to 8) (size 9 to 14) (size 15 to 20)
#    0.000    1.750    2.500    2.625    3.500    1.000 
#    0.000    8.750    0.000    3.750    0.000    0.000 
#    0.000    0.000    0.000    0.000    0.000    0.000 
#
# Total GULP energy -396437.497039 kJ/mol
# GULP energy per Si atom -12388.671782 kJ/mol
# Density = 0.987818 g / cm^3
# Si number density = 9.900713 Si / 1000 Ang^3
#
#
#
# Elastic Constant Matrix: (Units=GPa)
#
#
# Indices 1 2 3 4 5 6 
#
# 1 86.6394 9.0411 19.4332 -0.0071 -5.3352 0.0061
# 2 9.0411 63.1352 23.8830 -0.0097 8.8801 -0.0051
# 3 19.4332 23.8830 78.9490 -0.0111 -7.5603 -0.0595
# 4 -0.0071 -0.0097 -0.0111 32.3225 -0.0078 -1.6162
# 5 -5.3352 8.8801 -7.5603 -0.0078 30.7963 0.0083
# 6 0.0061 -0.0051 -0.0595 -1.6162 0.0083 22.6963
#
#
#
# Elastic Compliance Matrix: (Units=1/GPa)
#
#
# Indices 1 2 3 4 5 6 
#
# 1 0.012335 -0.001061 -0.002541 0.000001 0.001819 -0.000011
# 2 -0.001061 0.019410 -0.006313 0.000001 -0.007330 -0.000009
# 3 -0.002541 -0.006313 0.015703 0.000006 0.005235 0.000039
# 4 0.000001 0.000001 0.000006 0.031049 0.000009 0.002211
# 5 0.001819 -0.007330 0.005235 0.000009 0.036185 -0.000001
# 6 -0.000011 -0.000009 0.000039 0.002211 -0.000001 0.044218
#
#
# Mechanical properties :
#
#
# Convention : Reuss Voigt Hill
#
# Bulk Modulus (GPa) = 36.20775 37.04869 36.62822
# Shear Modulus (GPa) = 26.60503 28.92079 27.76291
#
# Velocity S-wave (km/s) = 3.66948 3.82585 3.74848
# Velocity P-wave (km/s) = 6.02317 6.18602 6.10514
#
# Compressibility (1/GPa) = 0.02761840
#
# Stress axis : x y z
#
# Youngs Moduli (GPa) = 81.07161 51.52007 63.68279
#
# Poissons Ratio (x) = 0.05466 0.16182
# Poissons Ratio (y) = 0.08602 0.40200
# Poissons Ratio (z) = 0.20601 0.32522
#
# Static dielectric constant tensor:
#      x y z
#    x 3.879570 -0.000180 -0.303660 
#    y -0.000180 3.854820 0.000630 
#    z -0.303660 0.000630 3.739650 
# 
# 
# High freq. dielectric constant tensor:
#      x y z
#    x 1.784060 0.000000 -0.022760 
#    y 0.000000 1.761810 0.000030 
#    z -0.022760 0.000030 1.762130 
# 
# From -- ./inp_files/317998.got.cif
#   From: 2010.06.25/outbox.ucp.g09.slc.cvg/sg15_159_cif.got.tgz:317998.got - 2010.06.28 14:40:10.
