data_PCOD8129638
_publ_section_title
;
Structure prediction by ZEFSAII (Michael W. Deem and Ramdas Pophale) SiO2 
 PCOD8129638
Probable space group: C 2/C
;
_chemical_formula_sum "Si O2"
_cell_formula_units_Z 52
_cell_length_a 17.736935
_cell_length_b 14.154710
_cell_length_c 12.560389
_cell_angle_alpha 90.000000
_cell_angle_beta 100.928379
_cell_angle_gamma 90.000000
_cell_volume 3096.238379
_symmetry_space_group_name_H-M "C 2/C"
_symmetry_group_IT_number 15
_symmetry_cell_setting 'monoclinic'
loop_
_space_group_symop_operation_xyz
x,y,z
-x,y,1/2-z
-x,-y,-z
x,-y,1/2+z
1/2+x,1/2+y,z
1/2-x,1/2+y,1/2-z
1/2-x,1/2-y,-z
1/2+x,1/2-y,1/2+z
loop_
_atom_site_type_symbol
_atom_site_label
_atom_site_fract_x
_atom_site_fract_y
_atom_site_fract_z
Si Si1 0.281509 0.161118 0.445945
Si Si2 0.026905 0.843613 0.642974
Si Si3 0.320798 0.405435 0.759630
Si Si4 0.000000 0.817446 0.250000
Si Si5 0.575620 0.486438 0.378460
Si Si6 0.920091 0.230282 0.933085
Si Si7 0.314447 0.451667 0.429684
O O1 0.250000 0.250000 0.500000
O O2 0.245160 0.153798 0.317456
O O3 0.372964 0.175170 0.453622
O O4 0.258579 0.070826 0.512826
O O5 0.120180 0.837201 0.659114
O O6 0.000000 0.801510 0.750000
O O7 0.003589 0.955261 0.625394
O O8 0.986983 0.785388 0.537389
O O9 0.374140 0.450066 0.684829
O O10 0.283176 0.489119 0.820525
O O11 0.956134 0.753592 0.325274
O O12 0.940609 0.882616 0.169018
O O13 0.624531 0.477211 0.499145
O O14 0.860478 0.143019 0.910133
#
# Coordination Sequence:
#
# PCOD8129638 Si02
#       7
#     8   8   8   4   8   8   8
#     4   9  19  31  43  67 103 127 151 189 235 286
#     4   9  15  26  42  66  97 125 155 180 220 275
#     4  10  15  26  45  69  94 124 155 185 225 276
#     4  12  16  24  42  66 102 126 146 182 232 290
#     4   9  15  22  38  69  95 116 150 181 218 274
#     4  10  19  28  42  68 101 129 150 187 237 285
#     4   9  16  27  44  64  93 126 157 190 218 278
#
# _framework density 16.794573
#
# number of rings (size 3 to 8) (size 9 to 14) (size 15 to 20)
#    0.000    2.462    3.846    3.692    0.000    2.462 
#    0.000    0.000    0.000    3.692    4.000    1.077 
#    0.000    0.154    0.000    0.000    0.000    0.000 
#
# Total GULP energy -322108.443824 kJ/mol
# GULP energy per Si atom -12388.786301 kJ/mol
# Density = 1.675635 g / cm^3
# Si number density = 16.794573 Si / 1000 Ang^3
#
#
#
# Elastic Constant Matrix: (Units=GPa)
#
#
# Indices 1 2 3 4 5 6 
#
# 1 60.3339 20.6803 39.9708 0.0000 -1.6854 0.0000
# 2 20.6803 25.1503 28.4987 0.0000 5.9715 0.0000
# 3 39.9708 28.4987 99.3843 0.0000 0.9463 0.0000
# 4 0.0000 0.0000 0.0000 24.0765 0.0000 -2.7742
# 5 -1.6854 5.9715 0.9463 0.0000 23.9109 0.0000
# 6 0.0000 0.0000 0.0000 -2.7742 0.0000 18.3030
#
#
#
# Elastic Compliance Matrix: (Units=1/GPa)
#
#
# Indices 1 2 3 4 5 6 
#
# 1 0.026287 -0.016345 -0.005944 0.000000 0.006170 0.000000
# 2 -0.016345 0.074188 -0.014518 0.000000 -0.019105 0.000000
# 3 -0.005944 -0.014518 0.016591 0.000000 0.002550 0.000000
# 4 0.000000 0.000000 0.000000 0.042273 0.000000 0.006407
# 5 0.006170 -0.019105 0.002550 0.000000 0.046927 0.000000
# 6 0.000000 0.000000 0.000000 0.006407 0.000000 0.055607
#
#
# Mechanical properties :
#
#
# Convention : Reuss Voigt Hill
#
# Bulk Modulus (GPa) = 23.01349 40.35201 31.68275
# Shear Modulus (GPa) = 14.28688 19.63931 16.96309
#
# Velocity S-wave (km/s) = 2.91981 3.42334 3.18155
# Velocity P-wave (km/s) = 5.00997 6.30116 5.69229
#
# Compressibility (1/GPa) = 0.04345278
#
# Stress axis : x y z
#
# Youngs Moduli (GPa) = 38.04148 13.47925 60.27198
#
# Poissons Ratio (x) = 0.22031 0.35827
# Poissons Ratio (y) = 0.62177 0.87504
# Poissons Ratio (z) = 0.22612 0.19569
#
# Static dielectric constant tensor:
#      x y z
#    x 3.331190 0.000000 0.064070 
#    y 0.000000 2.730250 0.000000 
#    z 0.064070 0.000000 3.516850 
# 
# 
# High freq. dielectric constant tensor:
#      x y z
#    x 1.621190 0.000000 -0.000780 
#    y 0.000000 1.575030 0.000000 
#    z -0.000780 0.000000 1.667680 
# 
# From -- ./inp_files/104911.got.cif
#   From: 2010.06.25/outbox.cif.g09.slc.cpg/sg15_53_cif.got.tgz:104911.got - 2010.06.28 07:06:18.
