data_PCOD8129529
_publ_section_title
;
Structure prediction by ZEFSAII (Michael W. Deem and Ramdas Pophale) SiO2 
 PCOD8129529
Probable space group: P 21/C
;
_chemical_formula_sum "Si O2"
_cell_formula_units_Z 32
_cell_length_a 12.000000
_cell_length_b 18.000000
_cell_length_c 15.000000
_cell_angle_alpha 90.000000
_cell_angle_beta 30.000000
_cell_angle_gamma 90.000000
_cell_volume 1620.000000
_symmetry_space_group_name_H-M "P 21/C"
_symmetry_group_IT_number 14
_symmetry_cell_setting 'monoclinic'
loop_
_space_group_symop_operation_xyz
x,y,z
-x,1/2+y,1/2-z
-x,-y,-z
x,1/2-y,1/2+z
loop_
_atom_site_type_symbol
_atom_site_label
_atom_site_fract_x
_atom_site_fract_y
_atom_site_fract_z
Si Si1 0.457925 0.723911 0.726060
Si Si2 0.666403 0.941139 0.342764
Si Si3 0.060119 0.972698 0.558362
Si Si4 0.118444 0.959462 0.134505
Si Si5 0.996618 0.197309 0.397961
Si Si6 0.426906 0.059576 0.798040
Si Si7 0.701859 0.206385 0.995462
Si Si8 0.579655 0.726241 0.948728
O O1 0.566896 0.645488 0.677343
O O2 0.581741 0.756812 0.553431
O O3 0.188847 0.712098 0.895366
O O4 0.476861 0.780271 0.798492
O O5 0.683855 0.947438 0.223244
O O6 0.575222 0.861254 0.436238
O O7 0.907141 0.956430 0.216587
O O8 0.500000 0.000000 0.500000
O O9 0.965972 0.890199 0.639459
O O10 0.326768 0.975241 0.381518
O O11 0.000000 0.000000 0.500000
O O12 0.947846 0.020228 0.716937
O O13 0.233404 0.879346 0.055192
O O14 0.289685 0.017305 0.970422
O O15 0.908077 0.237818 0.369600
O O16 0.231705 0.237296 0.245979
O O17 0.633131 0.233341 0.945121
#
# Coordination Sequence:
#
# PCOD8129529 Si02
#       8
#     4   4   4   4   4   4   4   4
#     4   9  22  44  64  93 129 173 219 265 333 394
#     4  12  24  45  69  99 137 177 227 277 341 406
#     4  11  25  44  70 100 138 180 227 279 340 403
#     4  12  26  43  70 105 132 177 232 279 335 413
#     4   9  22  46  60  96 133 168 224 267 327 404
#     4  11  24  47  68  97 139 177 221 282 343 398
#     4  10  24  43  63 100 133 164 230 270 326 407
#     4  12  22  45  69  91 136 176 215 283 336 391
#
# _framework density 19.753086
#
# number of rings (size 3 to 8) (size 9 to 14) (size 15 to 20)
#    0.750    0.500    3.750    1.125    7.000    0.500 
#    4.500    0.000    0.000    0.000    0.000    0.000 
#    0.000    0.000    0.000    0.000    0.000    0.000 
#
# Total GULP energy -396430.840269 kJ/mol
# GULP energy per Si atom -12388.463758 kJ/mol
# Density = 1.970813 g / cm^3
# Si number density = 19.753086 Si / 1000 Ang^3
#
#
#
# Elastic Constant Matrix: (Units=GPa)
#
#
# Indices 1 2 3 4 5 6 
#
# 1 465.0686-1087.6538 75.3115 0.0000 -268.4235 0.0000
# 2 -1087.6538 3847.9826 -35.2792 0.0000 965.1551 0.0000
# 3 75.3115 -35.2792 117.3539 0.0000 -6.4248 0.0000
# 4 0.0000 0.0000 0.0000 26.9882 0.0000 -7.8827
# 5 -268.4235 965.1551 -6.4248 0.0000 288.2013 0.0000
# 6 0.0000 0.0000 0.0000 -7.8827 0.0000 25.9306
#
#
#
# Elastic Compliance Matrix: (Units=1/GPa)
#
#
# Indices 1 2 3 4 5 6 
#
# 1 0.008267 0.002431 -0.004605 0.000000 -0.000544 0.000000
# 2 0.002431 0.002343 -0.001163 0.000000 -0.005608 0.000000
# 3 -0.004605 -0.001163 0.011119 0.000000 -0.000147 0.000000
# 4 0.000000 0.000000 0.000000 0.040664 0.000000 0.012361
# 5 -0.000544 -0.005608 -0.000147 0.000000 0.021742 0.000000
# 6 0.000000 0.000000 0.000000 0.012361 0.000000 0.042322
#
#
# Mechanical properties :
#
#
# Convention : Reuss Voigt Hill
#
# Bulk Modulus (GPa) = 66.41699 259.46245 162.93972
# Shear Modulus (GPa) = 36.19305 433.42580 234.80942
#
# Velocity S-wave (km/s) = 4.28515 14.82896 10.91468
# Velocity P-wave (km/s) = 7.62758 20.61154 15.54052
#
# Compressibility (1/GPa) = 0.01505639
#
# Stress axis : x y z
#
# Youngs Moduli (GPa) = 120.95796 426.79741 89.93957
#
# Poissons Ratio (x) = -1.03753 0.41413
# Poissons Ratio (y) = -0.29404 0.10458
# Poissons Ratio (z) = 0.55695 0.49625
#
# Static dielectric constant tensor:
#      x y z
#    x 4.766720 0.000000 -1.046690 
#    y 0.000000 3.684530 0.000000 
#    z -1.046690 0.000000 4.702880 
# 
# 
# High freq. dielectric constant tensor:
#      x y z
#    x 1.775580 0.000000 0.008360 
#    y 0.000000 1.789860 0.000000 
#    z 0.008360 0.000000 1.780830 
# 
# From -- ./inp_files/45446.got.cif
#   From: 2010.03.12/outbox.ucp.g09.slc.cvg/sg14_23_cif.got.tgz:45446.got - 2010.05.04 20:10:03.
