data_PCOD8129269
_publ_section_title
;
Structure prediction by ZEFSAII (Michael W. Deem and Ramdas Pophale) SiO2 
 PCOD8129269
Probable space group: P 21/C
;
_chemical_formula_sum "Si O2"
_cell_formula_units_Z 32
_cell_length_a 10.298612
_cell_length_b 14.628044
_cell_length_c 15.633328
_cell_angle_alpha 90.000000
_cell_angle_beta 35.994469
_cell_angle_gamma 90.000000
_cell_volume 1384.131556
_symmetry_space_group_name_H-M "P 21/C"
_symmetry_group_IT_number 14
_symmetry_cell_setting 'monoclinic'
loop_
_space_group_symop_operation_xyz
x,y,z
-x,1/2+y,1/2-z
-x,-y,-z
x,1/2-y,1/2+z
loop_
_atom_site_type_symbol
_atom_site_label
_atom_site_fract_x
_atom_site_fract_y
_atom_site_fract_z
Si Si1 0.173927 0.021491 0.659526
Si Si2 0.883024 0.942786 0.684394
Si Si3 0.225646 0.891226 0.374293
Si Si4 0.485914 0.161813 0.029596
Si Si5 0.670337 0.898740 0.069881
Si Si6 0.101752 0.699297 0.395883
Si Si7 0.552112 0.357417 0.922364
Si Si8 0.855084 0.092692 0.954121
O O1 0.321013 0.091629 0.525519
O O2 0.100174 0.065864 0.789258
O O3 0.299644 0.925912 0.601705
O O4 0.942534 0.000505 0.736578
O O5 0.709748 0.863133 0.799574
O O6 0.112705 0.899539 0.527133
O O7 0.782668 0.011477 0.668780
O O8 0.488346 0.868269 0.238167
O O9 0.097474 0.809321 0.394158
O O10 0.444393 0.108570 0.962455
O O11 0.494182 0.269504 0.009714
O O12 0.717352 0.135270 0.949270
O O13 0.883626 0.833638 0.962112
O O14 0.739100 0.002237 0.052831
O O15 0.325354 0.666549 0.230580
O O16 0.111432 0.664653 0.487821
#
# Coordination Sequence:
#
# PCOD8129269 Si02
#       8
#     4   4   4   4   4   4   4   4
#     4  11  26  45  72 101 149 197 240 307 365 434
#     4  11  25  47  73 104 144 192 246 297 368 432
#     4  11  27  45  71 108 144 191 239 303 362 436
#     4  12  25  47  79 107 140 193 251 303 355 448
#     4  12  24  48  76 103 147 191 240 299 368 433
#     4  12  28  46  73 110 146 190 240 300 368 438
#     4  11  27  45  68 109 147 191 244 305 368 433
#     4  12  26  46  76 108 144 192 245 297 370 437
#
# _framework density 23.11919
#
# number of rings (size 3 to 8) (size 9 to 14) (size 15 to 20)
#    0.000    0.500    5.000    1.500    7.000    2.000 
#    0.000    0.000    0.000    0.000    0.000    0.000 
#    0.000    0.000    0.000    0.000    0.000    0.000 
#
# Total GULP energy -396813.026624 kJ/mol
# GULP energy per Si atom -12400.407082 kJ/mol
# Density = 2.306657 g / cm^3
# Si number density = 23.119190 Si / 1000 Ang^3
#
#
#
# Elastic Constant Matrix: (Units=GPa)
#
#
# Indices 1 2 3 4 5 6 
#
# 1 78.1364 17.8800 23.0187 0.0000 -4.7643 0.0000
# 2 17.8800 113.4849 63.0295 0.0000 1.3942 0.0000
# 3 23.0187 63.0295 151.2366 0.0000 5.6612 0.0000
# 4 0.0000 0.0000 0.0000 41.2777 0.0000 6.0597
# 5 -4.7643 1.3942 5.6612 0.0000 28.9646 0.0000
# 6 0.0000 0.0000 0.0000 6.0597 0.0000 18.9359
#
#
#
# Elastic Compliance Matrix: (Units=1/GPa)
#
#
# Indices 1 2 3 4 5 6 
#
# 1 0.013740 -0.001276 -0.001658 0.000000 0.002646 0.000000
# 2 -0.001276 0.011588 -0.004641 0.000000 0.000139 0.000000
# 3 -0.001658 -0.004641 0.008865 0.000000 -0.001782 0.000000
# 4 0.000000 0.000000 0.000000 0.025420 0.000000 -0.008135
# 5 0.002646 0.000139 -0.001782 0.000000 0.035302 0.000000
# 6 0.000000 0.000000 0.000000 -0.008135 0.000000 0.055413
#
#
# Mechanical properties :
#
#
# Convention : Reuss Voigt Hill
#
# Bulk Modulus (GPa) = 52.51173 61.19045 56.85109
# Shear Modulus (GPa) = 29.09903 33.76430 31.43166
#
# Velocity S-wave (km/s) = 3.55160 3.82572 3.69121
# Velocity P-wave (km/s) = 6.29136 6.78526 6.54297
#
# Compressibility (1/GPa) = 0.01904336
#
# Stress axis : x y z
#
# Youngs Moduli (GPa) = 72.77994 86.29248 112.79928
#
# Poissons Ratio (x) = 0.11013 0.18707
# Poissons Ratio (y) = 0.09288 0.52346
# Poissons Ratio (z) = 0.12070 0.40045
#
# Static dielectric constant tensor:
#      x y z
#    x 3.792000 0.000000 -0.082530 
#    y 0.000000 4.260100 0.000000 
#    z -0.082530 0.000000 4.581660 
# 
# 
# High freq. dielectric constant tensor:
#      x y z
#    x 1.886810 0.000000 -0.004750 
#    y 0.000000 1.922650 0.000000 
#    z -0.004750 0.000000 1.937270 
# 
# From -- ./inp_files/57919.got.cif
#   From: 2010.03.12/outbox.cif.g09.slc.cpg/sg14_29_cif.got.tgz:57919.got - 2010.03.31 13:35:05.
