data_PCOD8129669
_publ_section_title
;
Structure prediction by ZEFSAII (Michael W. Deem and Ramdas Pophale) SiO2 
 PCOD8129669
Probable space group: C 2/C
;
_chemical_formula_sum "Si O2"
_cell_formula_units_Z 64
_cell_length_a 9.122656
_cell_length_b 23.419496
_cell_length_c 23.033546
_cell_angle_alpha 90.000000
_cell_angle_beta 138.722203
_cell_angle_gamma 90.000000
_cell_volume 3246.482281
_symmetry_space_group_name_H-M "C 2/C"
_symmetry_group_IT_number 15
_symmetry_cell_setting 'monoclinic'
loop_
_space_group_symop_operation_xyz
x,y,z
-x,y,1/2-z
-x,-y,-z
x,-y,1/2+z
1/2+x,1/2+y,z
1/2-x,1/2+y,1/2-z
1/2-x,1/2-y,-z
1/2+x,1/2-y,1/2+z
loop_
_atom_site_type_symbol
_atom_site_label
_atom_site_fract_x
_atom_site_fract_y
_atom_site_fract_z
Si Si1 0.239613 0.167634 0.658607
Si Si2 0.751102 0.971969 0.670723
Si Si3 0.719264 0.953119 0.353665
Si Si4 0.995573 0.578731 0.595662
Si Si5 0.321909 0.378939 0.596771
Si Si6 0.715610 0.684101 0.776115
Si Si7 0.768044 0.561264 0.206171
Si Si8 0.847780 0.249238 0.092822
O O1 0.500000 0.163413 0.750000
O O2 0.140225 0.104529 0.616643
O O3 0.121872 0.188876 0.682210
O O4 0.208717 0.208012 0.593344
O O5 0.740161 0.915765 0.627337
O O6 0.662204 0.959921 0.708886
O O7 0.000000 0.993994 0.750000
O O8 0.621635 0.025345 0.603316
O O9 0.500000 0.954481 0.250000
O O10 0.664872 0.951048 0.405348
O O11 0.838795 0.011220 0.367320
O O12 0.851223 0.612994 0.506618
O O13 0.168416 0.622768 0.676937
O O14 0.573317 0.392481 0.651861
O O15 0.323665 0.312757 0.615046
O O16 0.500000 0.695190 0.750000
O O17 0.894545 0.734178 0.837512
O O18 0.000000 0.586677 0.250000
O O19 0.750000 0.250000 0.000000
#
# Coordination Sequence:
#
# PCOD8129669 Si02
#       8
#     8   8   8   8   8   8   8   8
#     4   9  17  34  62  90 110 158 209 245 298 366
#     4  10  21  37  58  88 124 165 202 241 302 372
#     4  10  15  32  61  87 115 156 202 242 299 354
#     4  12  19  38  62  91 130 151 205 259 306 362
#     4  11  25  37  61  91 122 169 199 242 316 373
#     4  11  22  36  65  97 114 152 208 266 303 349
#     4  10  20  38  60  83 124 160 202 248 295 371
#     4  11  21  43  64  82 123 167 205 248 303 370
#
# _framework density 19.713646000000001
#
# number of rings (size 3 to 8) (size 9 to 14) (size 15 to 20)
#    0.000    1.500    7.500    0.750    0.000    6.500 
#    0.000    0.625    2.750    0.000    0.000    0.000 
#    0.000    0.000    0.000    0.000    0.000    0.000 
#
# Total GULP energy -396526.337702 kJ/mol
# GULP energy per Si atom -12391.448053 kJ/mol
# Density = 1.966878 g / cm^3
# Si number density = 19.713646 Si / 1000 Ang^3
#
#
#
# Elastic Constant Matrix: (Units=GPa)
#
#
# Indices 1 2 3 4 5 6 
#
# 1 100.5083 16.5894 26.1446 0.0001 -19.6319 -0.0001
# 2 16.5894 110.0423 17.8145 0.0000 -6.7645 0.0000
# 3 26.1446 17.8145 57.4718 0.0001 -11.9743 0.0001
# 4 0.0001 0.0000 0.0001 26.8881 0.0001 -3.3166
# 5 -19.6319 -6.7645 -11.9743 0.0001 24.9325 0.0001
# 6 -0.0001 0.0000 0.0001 -3.3166 0.0001 26.3670
#
#
#
# Elastic Compliance Matrix: (Units=1/GPa)
#
#
# Indices 1 2 3 4 5 6 
#
# 1 0.012621 -0.000795 -0.003855 0.000000 0.007870 0.000000
# 2 -0.000795 0.009656 -0.002462 0.000000 0.000811 0.000000
# 3 -0.003855 -0.002462 0.021274 0.000000 0.006514 0.000000
# 4 0.000000 0.000000 0.000000 0.037777 0.000000 0.004752
# 5 0.007870 0.000811 0.006514 0.000000 0.049654 0.000000
# 6 0.000000 0.000000 0.000000 0.004752 0.000000 0.038524
#
#
# Mechanical properties :
#
#
# Convention : Reuss Voigt Hill
#
# Bulk Modulus (GPa) = 34.09959 43.23549 38.66754
# Shear Modulus (GPa) = 25.83908 29.46912 27.65410
#
# Velocity S-wave (km/s) = 3.62431 3.87054 3.74945
# Velocity P-wave (km/s) = 5.90332 6.47720 6.19691
#
# Compressibility (1/GPa) = 0.02932587
#
# Stress axis : x y z
#
# Youngs Moduli (GPa) = 79.23480 103.56544 47.00574
#
# Poissons Ratio (x) = 0.08231 0.18121
# Poissons Ratio (y) = 0.06297 0.11575
# Poissons Ratio (z) = 0.30546 0.25502
#
# Static dielectric constant tensor:
#      x y z
#    x 3.708820 0.000000 -0.337330 
#    y 0.000000 3.942120 0.000000 
#    z -0.337330 0.000000 3.475790 
# 
# 
# High freq. dielectric constant tensor:
#      x y z
#    x 1.758830 0.000000 -0.026510 
#    y 0.000000 1.770740 0.000000 
#    z -0.026510 0.000000 1.748310 
# 
# From -- ./inp_files/234473.got.cif
#   From: 2010.06.25/outbox.cif.g09.slc.cpg/sg15_118_cif.got.tgz:234473.got - 2010.06.28 07:06:18.
