data_PCOD8129805
_publ_section_title
;
Structure prediction by ZEFSAII (Michael W. Deem and Ramdas Pophale) SiO2 
 PCOD8129805
Probable space group: C 2/C
;
_chemical_formula_sum "Si O2"
_cell_formula_units_Z 64
_cell_length_a 24.340836
_cell_length_b 25.238424
_cell_length_c 5.276518
_cell_angle_alpha 90.000000
_cell_angle_beta 84.253734
_cell_angle_gamma 90.000000
_cell_volume 3225.205078
_symmetry_space_group_name_H-M "C 2/C"
_symmetry_group_IT_number 15
_symmetry_cell_setting 'monoclinic'
loop_
_space_group_symop_operation_xyz
x,y,z
-x,y,1/2-z
-x,-y,-z
x,-y,1/2+z
1/2+x,1/2+y,z
1/2-x,1/2+y,1/2-z
1/2-x,1/2-y,-z
1/2+x,1/2-y,1/2+z
loop_
_atom_site_type_symbol
_atom_site_label
_atom_site_fract_x
_atom_site_fract_y
_atom_site_fract_z
Si Si1 0.069438 0.468285 0.362638
Si Si2 0.934666 0.691618 0.073135
Si Si3 0.301574 0.054978 0.714094
Si Si4 0.255213 0.938595 0.735813
Si Si5 0.064818 0.809127 0.250903
Si Si6 0.366454 0.465140 0.715111
Si Si7 0.444375 0.149035 0.563186
Si Si8 0.565454 0.364575 0.746551
O O1 0.050869 0.504772 0.607572
O O2 0.134479 0.458108 0.343273
O O3 0.039497 0.411701 0.392675
O O4 0.919140 0.750210 0.168888
O O5 0.911880 0.653642 0.310597
O O6 0.908443 0.673772 0.814162
O O7 0.000426 0.683970 0.999135
O O8 0.279695 0.088149 0.481233
O O9 0.267305 0.001005 0.757986
O O10 0.287364 0.086853 0.979413
O O11 0.189738 0.930757 0.742629
O O12 0.089546 0.845938 0.463641
O O13 0.000000 0.815513 0.250000
O O14 0.088618 0.826854 0.964980
O O15 0.370198 0.494022 0.444182
O O16 0.417207 0.424718 0.708533
O O17 0.500000 0.361560 0.750000
#
# Coordination Sequence:
#
# PCOD8129805 Si02
#       8
#     8   8   8   8   8   8   8   8
#     4  12  21  33  48  73 115 146 164 215 246 300
#     4  10  19  37  54  72  98 134 169 230 265 297
#     4  10  16  30  49  70  93 139 177 206 249 280
#     4  10  16  30  49  72  89 139 182 204 238 287
#     4  10  18  35  59  71  96 131 167 231 268 287
#     4  12  21  33  52  72 113 148 169 208 236 298
#     4  10  21  32  52  80  98 133 183 209 251 316
#     4  10  23  34  49  82 103 136 179 201 257 317
#
# _framework density 19.843698
#
# number of rings (size 3 to 8) (size 9 to 14) (size 15 to 20)
#    0.000    1.500    6.250    2.250    3.500    0.500 
#    0.000    7.500    0.000    0.000    0.000    0.000 
#    0.000   20.000    0.000    0.000    0.000    0.000 
#
# Total GULP energy -396484.481021 kJ/mol
# GULP energy per Si atom -12390.140032 kJ/mol
# Density = 1.979853 g / cm^3
# Si number density = 19.843698 Si / 1000 Ang^3
#
#
#
# Elastic Constant Matrix: (Units=GPa)
#
#
# Indices 1 2 3 4 5 6 
#
# 1 15.2476 5.1345 10.4868 0.0000 4.5817 0.0000
# 2 5.1345 60.7793 27.2517 0.0000 2.4133 0.0000
# 3 10.4868 27.2517 194.5149 0.0000 13.3003 0.0000
# 4 0.0000 0.0000 0.0000 28.0271 0.0000 1.4672
# 5 4.5817 2.4133 13.3003 0.0000 20.5242 0.0000
# 6 0.0000 0.0000 0.0000 1.4672 0.0000 3.0013
#
#
#
# Elastic Compliance Matrix: (Units=1/GPa)
#
#
# Indices 1 2 3 4 5 6 
#
# 1 0.073000 -0.004560 -0.002322 0.000000 -0.014255 0.000000
# 2 -0.004560 0.017845 -0.002282 0.000000 0.000398 0.000000
# 3 -0.002322 -0.002282 0.005789 0.000000 -0.002964 0.000000
# 4 0.000000 0.000000 0.000000 0.036617 0.000000 -0.017901
# 5 -0.014255 0.000398 -0.002964 0.000000 0.053779 0.000000
# 6 0.000000 0.000000 0.000000 -0.017901 0.000000 0.341942
#
#
# Mechanical properties :
#
#
# Convention : Reuss Voigt Hill
#
# Bulk Modulus (GPa) = 12.77020 39.58753 26.17886
# Shear Modulus (GPa) = 8.71990 25.48843 17.10416
#
# Velocity S-wave (km/s) = 2.09853 3.58782 2.93907
# Velocity P-wave (km/s) = 3.51015 6.09560 4.97380
#
# Compressibility (1/GPa) = 0.07830731
#
# Stress axis : x y z
#
# Youngs Moduli (GPa) = 13.69860 56.03700 172.75528
#
# Poissons Ratio (x) = 0.25551 0.40115
# Poissons Ratio (y) = 0.06246 0.39415
# Poissons Ratio (z) = 0.03181 0.12785
#
# Static dielectric constant tensor:
#      x y z
#    x 3.250990 0.000000 0.345350 
#    y 0.000000 3.337930 0.000000 
#    z 0.345350 0.000000 5.915570 
# 
# 
# High freq. dielectric constant tensor:
#      x y z
#    x 1.720360 0.000000 0.009990 
#    y 0.000000 1.728290 0.000000 
#    z 0.009990 0.000000 1.824100 
# 
# From -- ./inp_files/16158.got.cif
#   From: 2010.06.25/outbox.cif.g09.slc.cpg/sg15_9_cif.got.tgz:16158.got - 2010.06.28 07:06:18.
