data_PCOD8129065
_publ_section_title
;
Structure prediction by ZEFSAII (Michael W. Deem and Ramdas Pophale) SiO2 
 PCOD8129065
Probable space group: P 21/C
;
_chemical_formula_sum "Si O2"
_cell_formula_units_Z 20
_cell_length_a 14.558676
_cell_length_b 11.720597
_cell_length_c 11.463761
_cell_angle_alpha 90.000000
_cell_angle_beta 149.475058
_cell_angle_gamma 90.000000
_cell_volume 993.546980
_symmetry_space_group_name_H-M "P 21/C"
_symmetry_group_IT_number 14
_symmetry_cell_setting 'monoclinic'
loop_
_space_group_symop_operation_xyz
x,y,z
-x,1/2+y,1/2-z
-x,-y,-z
x,1/2-y,1/2+z
loop_
_atom_site_type_symbol
_atom_site_label
_atom_site_fract_x
_atom_site_fract_y
_atom_site_fract_z
Si Si1 0.610180 0.805519 0.948608
Si Si2 0.341570 0.072725 0.382111
Si Si3 0.889820 0.805520 0.051390
Si Si4 0.158428 0.072727 0.617888
Si Si5 0.249999 0.572414 0.000001
O O1 0.425133 0.847521 0.688890
O O2 0.571372 0.691143 0.979012
O O3 0.749997 0.775771 0.999994
O O4 0.689301 0.904024 0.118449
O O5 0.500000 0.000000 0.500000
O O6 0.245219 0.005536 0.380608
O O7 0.189298 0.095974 0.118448
O O8 0.074864 0.847522 0.311109
O O9 0.928631 0.691144 0.020990
O O10 0.254782 0.005537 0.619395
O O11 0.000000 0.000000 0.500000
#
# Coordination Sequence:
#
# PCOD8129065 Si02
#       5
#     4   4   4   4   4
#     4  11  24  43  66  97 130 167 218 261 316 388
#     4  11  24  44  67  95 132 169 212 267 319 377
#     4  11  24  43  66  97 130 167 218 261 316 388
#     4  11  24  44  67  95 132 169 212 267 319 377
#     4  12  24  42  70  96 128 174 208 264 326 374
#
# _framework density 20.129899000000002
#
# number of rings (size 3 to 8) (size 9 to 14) (size 15 to 20)
#    0.000    0.800    6.000    1.200    0.000    4.800 
#    0.000    0.000    0.000    0.000    0.000    0.000 
#    0.000    0.000    0.000    0.000    0.000    0.000 
#
# Total GULP energy -248157.051442 kJ/mol
# GULP energy per Si atom -12407.852572 kJ/mol
# Density = 2.008408 g / cm^3
# Si number density = 20.129899 Si / 1000 Ang^3
#
#
#
# Elastic Constant Matrix: (Units=GPa)
#
#
# Indices 1 2 3 4 5 6 
#
# 1 124.4826 42.0805 35.7181 0.0000 3.7218 0.0000
# 2 42.0805 100.6184 56.9893 0.0000 10.7678 0.0000
# 3 35.7181 56.9893 128.3575 0.0000 6.4252 0.0000
# 4 0.0000 0.0000 0.0000 27.6665 0.0000 -6.5472
# 5 3.7218 10.7678 6.4252 0.0000 33.1667 0.0000
# 6 0.0000 0.0000 0.0000 -6.5472 0.0000 47.9843
#
#
#
# Elastic Compliance Matrix: (Units=1/GPa)
#
#
# Indices 1 2 3 4 5 6 
#
# 1 0.009488 -0.003329 -0.001174 0.000000 0.000244 0.000000
# 2 -0.003329 0.014790 -0.005472 0.000000 -0.003368 0.000000
# 3 -0.001174 -0.005472 0.010554 0.000000 -0.000136 0.000000
# 4 0.000000 0.000000 0.000000 0.037351 0.000000 0.005096
# 5 0.000244 -0.003368 -0.000136 0.000000 0.031243 0.000000
# 6 0.000000 0.000000 0.000000 0.005096 0.000000 0.021536
#
#
# Mechanical properties :
#
#
# Convention : Reuss Voigt Hill
#
# Bulk Modulus (GPa) = 67.19559 69.22604 68.21081
# Shear Modulus (GPa) = 33.36147 36.34156 34.85151
#
# Velocity S-wave (km/s) = 4.07542 4.25355 4.16544
# Velocity P-wave (km/s) = 7.45647 7.65428 7.55602
#
# Compressibility (1/GPa) = 0.01488193
#
# Stress axis : x y z
#
# Youngs Moduli (GPa) = 105.39272 67.61114 94.75253
#
# Poissons Ratio (x) = 0.22508 0.11128
# Poissons Ratio (y) = 0.35086 0.51847
# Poissons Ratio (z) = 0.12378 0.36996
#
# Static dielectric constant tensor:
#      x y z
#    x 3.843590 0.000000 -0.254450 
#    y 0.000000 3.714150 0.000000 
#    z -0.254450 0.000000 3.595150 
# 
# 
# High freq. dielectric constant tensor:
#      x y z
#    x 1.802780 0.000000 -0.010500 
#    y 0.000000 1.794230 0.000000 
#    z -0.010500 0.000000 1.784990 
# 
# From -- ./inp_files/28420.got.cif
#   From: 2010.03.12/outbox.cif.g09.slc.cpg/sg14_15_cif.got.tgz:28420.got - 2010.03.31 13:35:05.
