data_PCOD8129131
_publ_section_title
;
Structure prediction by ZEFSAII (Michael W. Deem and Ramdas Pophale) SiO2 
 PCOD8129131
Probable space group: P 21/C
;
_chemical_formula_sum "Si O2"
_cell_formula_units_Z 20
_cell_length_a 7.142508
_cell_length_b 7.034095
_cell_length_c 23.955943
_cell_angle_alpha 90.000000
_cell_angle_beta 126.694790
_cell_angle_gamma 90.000000
_cell_volume 965.060474
_symmetry_space_group_name_H-M "P 21/C"
_symmetry_group_IT_number 14
_symmetry_cell_setting 'monoclinic'
loop_
_space_group_symop_operation_xyz
x,y,z
-x,1/2+y,1/2-z
-x,-y,-z
x,1/2-y,1/2+z
loop_
_atom_site_type_symbol
_atom_site_label
_atom_site_fract_x
_atom_site_fract_y
_atom_site_fract_z
Si Si1 0.285254 0.770249 0.252795
Si Si2 0.479541 0.311764 0.423383
Si Si3 0.680251 0.495688 0.352408
Si Si4 0.175464 0.639402 0.416094
Si Si5 0.861166 0.491341 0.169197
O O1 0.511120 0.677989 0.322025
O O2 0.364749 0.870550 0.210308
O O3 0.176842 0.930741 0.273553
O O4 0.097971 0.608289 0.206453
O O5 0.632751 0.366115 0.397434
O O6 0.282423 0.469677 0.398595
O O7 0.643648 0.286056 0.505971
O O8 0.359386 0.110331 0.391315
O O9 0.944943 0.564882 0.405508
O O10 0.106441 0.806963 0.362609
#
# Coordination Sequence:
#
# PCOD8129131 Si02
#       5
#     4   4   4   4   4
#     4  12  24  40  70  96 140 168 222 270 330 398
#     4  11  24  45  69  97 135 173 221 274 327 389
#     4  12  23  44  64 104 127 176 218 276 326 388
#     4  11  24  45  69  97 135 173 221 274 327 389
#     4  12  23  46  66 102 129 184 212 272 334 390
#
# _framework density 20.72409
#
# number of rings (size 3 to 8) (size 9 to 14) (size 15 to 20)
#    0.000    0.400    4.000    6.000    0.000    0.000 
#    0.000    2.000    0.000    0.000    0.000    0.000 
#    0.000    0.000    0.000    0.000    0.000    0.000 
#
# Total GULP energy -248199.897557 kJ/mol
# GULP energy per Si atom -12409.994878 kJ/mol
# Density = 2.067692 g / cm^3
# Si number density = 20.724090 Si / 1000 Ang^3
#
#
#
# Elastic Constant Matrix: (Units=GPa)
#
#
# Indices 1 2 3 4 5 6 
#
# 1 95.6085 10.9314 15.1770 0.0000 3.2227 0.0000
# 2 10.9314 58.9967 19.6119 0.0000 0.8624 0.0000
# 3 15.1770 19.6119 62.2524 0.0000 2.7344 0.0000
# 4 0.0000 0.0000 0.0000 43.6224 0.0000 6.1351
# 5 3.2227 0.8624 2.7344 0.0000 40.9384 0.0000
# 6 0.0000 0.0000 0.0000 6.1351 0.0000 31.7212
#
#
#
# Elastic Compliance Matrix: (Units=1/GPa)
#
#
# Indices 1 2 3 4 5 6 
#
# 1 0.010985 -0.001279 -0.002245 0.000000 -0.000688 0.000000
# 2 -0.001279 0.019082 -0.005703 0.000000 0.000080 0.000000
# 3 -0.002245 -0.005703 0.018449 0.000000 -0.000935 0.000000
# 4 0.000000 0.000000 0.000000 0.023565 0.000000 -0.004558
# 5 -0.000688 0.000080 -0.000935 0.000000 0.024542 0.000000
# 6 0.000000 0.000000 0.000000 -0.004558 0.000000 0.032406
#
#
# Mechanical properties :
#
#
# Convention : Reuss Voigt Hill
#
# Bulk Modulus (GPa) = 33.26542 34.25535 33.76038
# Shear Modulus (GPa) = 31.74531 34.66554 33.20542
#
# Velocity S-wave (km/s) = 3.91808 4.09432 4.00717
# Velocity P-wave (km/s) = 6.04606 6.23830 6.14293
#
# Compressibility (1/GPa) = 0.03006125
#
# Stress axis : x y z
#
# Youngs Moduli (GPa) = 91.03222 52.40603 54.20417
#
# Poissons Ratio (x) = 0.06703 0.12169
# Poissons Ratio (y) = 0.11644 0.30913
# Poissons Ratio (z) = 0.20437 0.29888
#
# Static dielectric constant tensor:
#      x y z
#    x 3.866210 0.000000 0.004360 
#    y 0.000000 3.782010 0.000000 
#    z 0.004360 0.000000 3.703420 
# 
# 
# High freq. dielectric constant tensor:
#      x y z
#    x 1.825650 0.000000 0.000860 
#    y 0.000000 1.818890 0.000000 
#    z 0.000860 0.000000 1.820370 
# 
# From -- ./inp_files/76117.got.cif
#   From: 2010.03.12/outbox.cif.g09.slc.cpg/sg14_39_cif.got.tgz:76117.got - 2010.03.31 13:35:05.
