data_PCOD8129600
_publ_section_title
;
Structure prediction by ZEFSAII (Michael W. Deem and Ramdas Pophale) SiO2 
 PCOD8129600
Probable space group: C 2/C
;
_chemical_formula_sum "Si O2"
_cell_formula_units_Z 32
_cell_length_a 24.000000
_cell_length_b 18.000000
_cell_length_c 21.000000
_cell_angle_alpha 90.000000
_cell_angle_beta 160.000000
_cell_angle_gamma 90.000000
_cell_volume 3102.806740
_symmetry_space_group_name_H-M "C 2/C"
_symmetry_group_IT_number 15
_symmetry_cell_setting 'monoclinic'
loop_
_space_group_symop_operation_xyz
x,y,z
-x,y,1/2-z
-x,-y,-z
x,-y,1/2+z
1/2+x,1/2+y,z
1/2-x,1/2+y,1/2-z
1/2-x,1/2-y,-z
1/2+x,1/2-y,1/2+z
loop_
_atom_site_type_symbol
_atom_site_label
_atom_site_fract_x
_atom_site_fract_y
_atom_site_fract_z
Si Si1 0.470794 0.825409 0.901045
Si Si2 0.563631 0.472179 0.197585
Si Si3 0.753755 0.463388 0.081780
Si Si4 0.305189 0.832257 0.038856
Si Si5 0.535404 0.071642 0.580705
Si Si6 0.442441 0.927837 0.622100
Si Si7 0.391790 0.336461 0.944585
Si Si8 0.287772 0.610081 0.198008
O O1 0.548106 0.867852 0.923903
O O2 0.276296 0.837435 0.696033
O O3 0.552224 0.857140 0.052923
O O4 0.510716 0.738910 0.937523
O O5 0.751755 0.457144 0.425978
O O6 0.582596 0.544064 0.173322
O O7 0.420807 0.491444 0.097697
O O8 0.503949 0.403263 0.090857
O O9 0.731112 0.395835 0.006683
O O10 0.796839 0.433216 0.199182
O O11 0.916387 0.510005 0.237324
O O12 0.500000 0.837518 0.250000
O O13 0.250000 0.750000 0.000000
O O14 0.234796 0.843681 0.891761
O O15 0.387256 0.077326 0.471234
O O16 0.500000 0.000000 0.500000
O O17 0.500000 0.889419 0.750000
O O18 0.357778 0.341630 0.832155
#
# Coordination Sequence:
#
# PCOD8129600 Si02
#       8
#     8   8   8   8   8   8   8   8
#     4  11  24  45  67 104 148 183 238 307 367 420
#     4  12  24  45  76 107 137 185 248 293 356 440
#     4  12  24  45  72 104 144 194 241 296 351 427
#     4  12  28  47  68 104 155 194 242 292 360 433
#     4  11  20  41  70  99 138 188 240 300 359 413
#     4  12  25  47  76 103 143 186 234 299 361 427
#     4  11  25  44  72 104 143 183 242 303 367 427
#     4  11  24  43  70 101 141 192 241 294 361 430
#
# _framework density 10.313243
#
# number of rings (size 3 to 8) (size 9 to 14) (size 15 to 20)
#    0.000    0.500    5.000    3.000    3.500    3.500 
#    0.000    2.500    0.000    0.000    0.000    0.000 
#    0.000    0.000    0.000    0.000    0.000    0.000 
#
# Total GULP energy -396605.780423 kJ/mol
# GULP energy per Si atom -12393.930638 kJ/mol
# Density = 1.028977 g / cm^3
# Si number density = 10.313243 Si / 1000 Ang^3
#
#
#
# Elastic Constant Matrix: (Units=GPa)
#
#
# Indices 1 2 3 4 5 6 
#
# 1 133.1951 53.9061 62.2443 -0.0019 -0.4398 0.0036
# 2 53.9061 139.8307 46.1393 -0.0246 2.1154 -0.0129
# 3 62.2443 46.1393 141.5514 -0.0288 8.8612 -0.0031
# 4 -0.0019 -0.0246 -0.0288 42.2961 -0.0097 3.9640
# 5 -0.4398 2.1154 8.8612 -0.0097 44.2048 0.0005
# 6 0.0036 -0.0129 -0.0031 3.9640 0.0005 42.9773
#
#
#
# Elastic Compliance Matrix: (Units=1/GPa)
#
#
# Indices 1 2 3 4 5 6 
#
# 1 0.010376 -0.002789 -0.003715 -0.000003 0.000981 -0.000002
# 2 -0.002789 0.008764 -0.001623 0.000004 -0.000122 0.000002
# 3 -0.003715 -0.001623 0.009342 0.000005 -0.001832 0.000000
# 4 -0.000003 0.000004 0.000005 0.023849 0.000004 -0.002200
# 5 0.000981 -0.000122 -0.001832 0.000004 0.023005 -0.000001
# 6 -0.000002 0.000002 0.000000 -0.002200 -0.000001 0.023471
#
#
# Mechanical properties :
#
#
# Convention : Reuss Voigt Hill
#
# Bulk Modulus (GPa) = 81.77674 82.12849 81.95261
# Shear Modulus (GPa) = 41.96904 42.71481 42.34193
#
# Velocity S-wave (km/s) = 4.51568 4.55562 4.53569
# Velocity P-wave (km/s) = 8.18052 8.22040 8.20049
#
# Compressibility (1/GPa) = 0.01222842
#
# Stress axis : x y z
#
# Youngs Moduli (GPa) = 96.37787 114.10373 107.04704
#
# Poissons Ratio (x) = 0.31824 0.39767
# Poissons Ratio (y) = 0.26880 0.17369
# Poissons Ratio (z) = 0.35803 0.18514
#
# Static dielectric constant tensor:
#      x y z
#    x 4.230820 -0.000080 0.087740 
#    y -0.000080 3.837340 -0.000120 
#    z 0.087740 -0.000120 4.265950 
# 
# 
# High freq. dielectric constant tensor:
#      x y z
#    x 1.836300 -0.000010 0.006360 
#    y -0.000010 1.813210 -0.000010 
#    z 0.006360 -0.000010 1.838450 
# 
# From -- ./inp_files/256014.got.cif
#   From: 2010.06.25/outbox.ucp.g09.slc.cvg/sg15_129_cif.got.tgz:256014.got - 2010.06.28 14:40:10.
