data_PCOD8129024
_publ_section_title
;
Structure prediction by ZEFSAII (Michael W. Deem and Ramdas Pophale) SiO2 
 PCOD8129024
Probable space group: P 21/C
;
_chemical_formula_sum "Si O2"
_cell_formula_units_Z 32
_cell_length_a 8.694930
_cell_length_b 21.653518
_cell_length_c 13.969880
_cell_angle_alpha 90.000000
_cell_angle_beta 32.853572
_cell_angle_gamma 90.000000
_cell_volume 1426.862413
_symmetry_space_group_name_H-M "P 21/C"
_symmetry_group_IT_number 14
_symmetry_cell_setting 'monoclinic'
loop_
_space_group_symop_operation_xyz
x,y,z
-x,1/2+y,1/2-z
-x,-y,-z
x,1/2-y,1/2+z
loop_
_atom_site_type_symbol
_atom_site_label
_atom_site_fract_x
_atom_site_fract_y
_atom_site_fract_z
Si Si1 0.827623 0.318973 0.130677
Si Si2 0.590539 0.237146 0.428780
Si Si3 0.826035 0.131890 0.019709
Si Si4 0.331807 0.512203 0.180263
Si Si5 0.945154 0.747178 0.172741
Si Si6 0.629610 0.913032 0.184944
Si Si7 0.691213 0.495160 0.493424
Si Si8 0.399499 0.364193 0.891257
O O1 0.681178 0.282641 0.295022
O O2 0.585214 0.355801 0.201253
O O3 0.995799 0.276716 0.965891
O O4 0.062124 0.366079 0.050057
O O5 0.860442 0.215221 0.348299
O O6 0.447908 0.176620 0.459720
O O7 0.371696 0.266209 0.621711
O O8 0.979791 0.179722 0.867760
O O9 0.704227 0.075328 0.021097
O O10 0.046094 0.111282 0.988839
O O11 0.563012 0.164136 0.213082
O O12 0.376912 0.449053 0.212778
O O13 0.470003 0.567926 0.166751
O O14 0.006921 0.522776 0.318707
O O15 0.500000 0.500000 0.000000
O O16 0.541146 0.959913 0.147770
O O17 0.500000 0.500000 0.500000
#
# Coordination Sequence:
#
# PCOD8129024 Si02
#       8
#     4   4   4   4   4   4   4   4
#     4  12  29  46  73 108 144 195 242 302 361 434
#     4  12  28  46  71 106 143 189 241 303 362 428
#     4  11  23  48  75  98 146 195 236 301 367 425
#     4  11  26  46  72 104 143 192 237 295 363 429
#     4  12  27  47  73 105 145 190 248 297 365 431
#     4  11  25  48  72 103 146 187 240 295 363 426
#     4  11  25  45  73 109 142 189 243 297 360 432
#     4  12  25  49  71 101 150 188 240 302 362 429
#
# _framework density 22.426829999999999
#
# number of rings (size 3 to 8) (size 9 to 14) (size 15 to 20)
#    0.000    0.500    5.000    2.250   12.250    1.500 
#    0.000    0.000    0.000    0.000    0.000    0.000 
#    0.000    0.000    0.000    0.000    0.000    0.000 
#
# Total GULP energy -396707.844924 kJ/mol
# GULP energy per Si atom -12397.120154 kJ/mol
# Density = 2.237579 g / cm^3
# Si number density = 22.426830 Si / 1000 Ang^3
#
#
#
# Elastic Constant Matrix: (Units=GPa)
#
#
# Indices 1 2 3 4 5 6 
#
# 1 105.5776 13.8030 24.9630 0.0000 1.3444 0.0000
# 2 13.8030 68.6660 27.6525 0.0000 2.3583 0.0000
# 3 24.9630 27.6525 130.4365 0.0000 22.4499 0.0000
# 4 0.0000 0.0000 0.0000 31.4138 0.0000 -2.7688
# 5 1.3444 2.3583 22.4499 0.0000 34.2495 0.0000
# 6 0.0000 0.0000 0.0000 -2.7688 0.0000 27.8234
#
#
#
# Elastic Compliance Matrix: (Units=1/GPa)
#
#
# Indices 1 2 3 4 5 6 
#
# 1 0.010058 -0.001330 -0.001793 0.000000 0.000872 0.000000
# 2 -0.001330 0.016147 -0.003366 0.000000 0.001147 0.000000
# 3 -0.001793 -0.003366 0.009774 0.000000 -0.006105 0.000000
# 4 0.000000 0.000000 0.000000 0.032115 0.000000 0.003196
# 5 0.000872 0.001147 -0.006105 0.000000 0.033086 0.000000
# 6 0.000000 0.000000 0.000000 0.003196 0.000000 0.036259
#
#
# Mechanical properties :
#
#
# Convention : Reuss Voigt Hill
#
# Bulk Modulus (GPa) = 43.47574 48.61300 46.04437
# Shear Modulus (GPa) = 31.62887 34.58147 33.10517
#
# Velocity S-wave (km/s) = 3.75949 3.93105 3.84623
# Velocity P-wave (km/s) = 6.18649 6.50596 6.34824
#
# Compressibility (1/GPa) = 0.02300133
#
# Stress axis : x y z
#
# Youngs Moduli (GPa) = 99.41911 61.93223 102.31226
#
# Poissons Ratio (x) = 0.08235 0.18347
# Poissons Ratio (y) = 0.13220 0.34438
# Poissons Ratio (z) = 0.17828 0.20846
#
# Static dielectric constant tensor:
#      x y z
#    x 4.001270 0.000000 -0.050550 
#    y 0.000000 3.646060 0.000000 
#    z -0.050550 0.000000 4.206800 
# 
# 
# High freq. dielectric constant tensor:
#      x y z
#    x 1.891890 0.000000 0.000350 
#    y 0.000000 1.875870 0.000000 
#    z 0.000350 0.000000 1.897490 
# 
# From -- ./inp_files/42183.got.cif
#   From: 2010.03.12/outbox.cif.g09.slc.cpg/sg14_22_cif.got.tgz:42183.got - 2010.03.31 13:35:05.
