data_PCOD8129797
_publ_section_title
;
Structure prediction by ZEFSAII (Michael W. Deem and Ramdas Pophale) SiO2 
 PCOD8129797
Probable space group: C 2/C
;
_chemical_formula_sum "Si O2"
_cell_formula_units_Z 64
_cell_length_a 27.519017
_cell_length_b 21.752100
_cell_length_c 12.955954
_cell_angle_alpha 90.000000
_cell_angle_beta 150.122863
_cell_angle_gamma 90.000000
_cell_volume 3863.282544
_symmetry_space_group_name_H-M "C 2/C"
_symmetry_group_IT_number 15
_symmetry_cell_setting 'monoclinic'
loop_
_space_group_symop_operation_xyz
x,y,z
-x,y,1/2-z
-x,-y,-z
x,-y,1/2+z
1/2+x,1/2+y,z
1/2-x,1/2+y,1/2-z
1/2-x,1/2-y,-z
1/2+x,1/2-y,1/2+z
loop_
_atom_site_type_symbol
_atom_site_label
_atom_site_fract_x
_atom_site_fract_y
_atom_site_fract_z
Si Si1 0.599409 0.103509 0.637800
Si Si2 0.611577 0.861928 0.831614
Si Si3 0.109735 0.234857 0.952301
Si Si4 0.886327 0.526596 0.022834
Si Si5 0.723008 0.198675 0.369999
Si Si6 0.387263 0.773679 0.027128
Si Si7 0.899489 0.402373 0.123667
Si Si8 0.225412 0.719899 0.846869
O O1 0.501053 0.131387 0.408042
O O2 0.632926 0.044591 0.631682
O O3 0.581451 0.082322 0.721412
O O4 0.687362 0.151569 0.795737
O O5 0.617936 0.801455 0.913536
O O6 0.650676 0.919400 0.969875
O O7 0.681573 0.858951 0.859384
O O8 0.000000 0.208929 0.750000
O O9 0.180332 0.186278 0.021792
O O10 0.144372 0.240953 0.134540
O O11 0.838449 0.460015 0.962352
O O12 0.000000 0.515248 0.250000
O O13 0.750000 0.250000 0.500000
O O14 0.634258 0.221840 0.134294
O O15 0.500000 0.758337 0.250000
O O16 0.347945 0.836435 0.011520
O O17 0.324502 0.718224 0.961007
O O18 0.000000 0.391790 0.250000
O O19 0.250000 0.750000 0.000000
#
# Coordination Sequence:
#
# PCOD8129797 Si02
#       8
#     8   8   8   8   8   8   8   8
#     4  11  19  32  50  69  99 138 167 200 245 294
#     4  10  16  30  48  67  98 135 164 197 246 285
#     4  10  17  31  47  67  97 133 168 201 244 296
#     4   9  19  30  48  69  94 135 172 196 230 301
#     4   9  20  28  45  70  95 132 164 203 242 297
#     4  10  20  33  47  70 106 136 161 206 251 288
#     4  10  20  31  45  71 100 131 168 201 241 290
#     4  11  20  30  49  72  95 137 171 199 244 305
#
# _framework density 16.566223000000001
#
# number of rings (size 3 to 8) (size 9 to 14) (size 15 to 20)
#    0.000    2.000    3.750    1.875    0.000    5.500 
#    0.000    0.000    0.000    0.000    0.000    0.000 
#    0.000   14.000    0.000    0.000    0.000    0.000 
#
# Total GULP energy -396532.412477 kJ/mol
# GULP energy per Si atom -12391.637890 kJ/mol
# Density = 1.652852 g / cm^3
# Si number density = 16.566223 Si / 1000 Ang^3
#
#
#
# Elastic Constant Matrix: (Units=GPa)
#
#
# Indices 1 2 3 4 5 6 
#
# 1 92.2441 20.8731 38.0638 0.0000 -10.5427 0.0000
# 2 20.8731 50.5417 12.9284 0.0000 1.1178 0.0000
# 3 38.0638 12.9284 92.3607 0.0000 -8.7345 0.0000
# 4 0.0000 0.0000 0.0000 13.3730 0.0000 -7.4743
# 5 -10.5427 1.1178 -8.7345 0.0000 37.7235 0.0000
# 6 0.0000 0.0000 0.0000 -7.4743 0.0000 8.5108
#
#
#
# Elastic Compliance Matrix: (Units=1/GPa)
#
#
# Indices 1 2 3 4 5 6 
#
# 1 0.014288 -0.004701 -0.004948 0.000000 0.002987 0.000000
# 2 -0.004701 0.022130 -0.001377 0.000000 -0.002288 0.000000
# 3 -0.004948 -0.001377 0.013221 0.000000 0.001719 0.000000
# 4 0.000000 0.000000 0.000000 0.146865 0.000000 0.128978
# 5 0.002987 -0.002288 0.001719 0.000000 0.027809 0.000000
# 6 0.000000 0.000000 0.000000 0.128978 0.000000 0.230767
#
#
# Mechanical properties :
#
#
# Convention : Reuss Voigt Hill
#
# Bulk Modulus (GPa) = 36.24763 42.09747 39.17255
# Shear Modulus (GPa) = 10.28116 22.80688 16.54402
#
# Velocity S-wave (km/s) = 2.49391 3.71443 3.16359
# Velocity P-wave (km/s) = 5.49734 6.62290 6.08619
#
# Compressibility (1/GPa) = 0.02758801
#
# Stress axis : x y z
#
# Youngs Moduli (GPa) = 69.99103 45.18781 75.63452
#
# Poissons Ratio (x) = 0.21243 0.37422
# Poissons Ratio (y) = 0.32903 0.10413
# Poissons Ratio (z) = 0.34630 0.06221
#
# Static dielectric constant tensor:
#      x y z
#    x 3.506500 0.000000 -0.126940 
#    y 0.000000 3.315840 0.000000 
#    z -0.126940 0.000000 3.098880 
# 
# 
# High freq. dielectric constant tensor:
#      x y z
#    x 1.649220 0.000000 -0.027730 
#    y 0.000000 1.608300 0.000000 
#    z -0.027730 0.000000 1.620790 
# 
# From -- ./inp_files/124289.got.cif
#   From: 2010.06.25/outbox.cif.g09.slc.cpg/sg15_63_cif.got.tgz:124289.got - 2010.06.28 07:06:18.
