data_PCOD8129685
_publ_section_title
;
Structure prediction by ZEFSAII (Michael W. Deem and Ramdas Pophale) SiO2 
 PCOD8129685
Probable space group: C 2/C
;
_chemical_formula_sum "Si O2"
_cell_formula_units_Z 52
_cell_length_a 20.184583
_cell_length_b 12.655395
_cell_length_c 18.120558
_cell_angle_alpha 90.000000
_cell_angle_beta 38.478691
_cell_angle_gamma 90.000000
_cell_volume 2880.139248
_symmetry_space_group_name_H-M "C 2/C"
_symmetry_group_IT_number 15
_symmetry_cell_setting 'monoclinic'
loop_
_space_group_symop_operation_xyz
x,y,z
-x,y,1/2-z
-x,-y,-z
x,-y,1/2+z
1/2+x,1/2+y,z
1/2-x,1/2+y,1/2-z
1/2-x,1/2-y,-z
1/2+x,1/2-y,1/2+z
loop_
_atom_site_type_symbol
_atom_site_label
_atom_site_fract_x
_atom_site_fract_y
_atom_site_fract_z
Si Si1 0.324931 0.274283 0.658635
Si Si2 0.839669 0.633397 0.415885
Si Si3 0.455620 0.887067 0.130088
Si Si4 0.500000 0.952370 0.250000
Si Si5 0.686004 0.683571 0.664422
Si Si6 0.979861 0.769402 0.401583
Si Si7 0.120658 0.399609 0.863312
O O1 0.392734 0.220299 0.664744
O O2 0.261288 0.180645 0.671014
O O3 0.407458 0.325900 0.527016
O O4 0.243539 0.360996 0.762041
O O5 0.733656 0.610321 0.557617
O O6 0.811762 0.691955 0.363781
O O7 0.911252 0.718422 0.396771
O O8 0.896118 0.523550 0.352850
O O9 0.479380 0.880477 0.196570
O O10 0.380904 0.985645 0.173086
O O11 0.569235 0.900502 0.989841
O O12 0.565448 0.648473 0.791094
O O13 0.048999 0.676252 0.376586
#
# Coordination Sequence:
#
# PCOD8129685 Si02
#       7
#     8   8   8   4   8   8   8
#     4   9  18  30  48  72 102 129 166 206 245 297
#     4  10  16  24  42  70 106 127 149 203 253 302
#     4  10  20  31  54  75  99 132 169 206 254 286
#     4  12  18  30  46  76 102 124 168 218 236 288
#     4   9  16  24  41  69 100 135 151 187 260 312
#     4   9  14  27  45  70 100 127 157 197 250 308
#     4   9  17  33  50  75 103 131 165 209 244 300
#
# _framework density 18.054682
#
# number of rings (size 3 to 8) (size 9 to 14) (size 15 to 20)
#    0.000    2.462    3.077    0.923    2.154    0.000 
#    0.000    0.769    0.000    8.308    0.000    0.000 
#    0.000    0.000    0.000    0.000    0.000    0.154 
#
# Total GULP energy -322180.292265 kJ/mol
# GULP energy per Si atom -12391.549703 kJ/mol
# Density = 1.801359 g / cm^3
# Si number density = 18.054682 Si / 1000 Ang^3
#
#
#
# Elastic Constant Matrix: (Units=GPa)
#
#
# Indices 1 2 3 4 5 6 
#
# 1 79.4889 11.6769 39.1641 0.0000 14.6337 0.0000
# 2 11.6769 21.1615 27.8629 0.0000 0.3011 0.0000
# 3 39.1641 27.8629 147.8890 0.0000 -9.8888 0.0000
# 4 0.0000 0.0000 0.0000 24.9065 0.0000 -6.0875
# 5 14.6337 0.3011 -9.8888 0.0000 31.4108 0.0000
# 6 0.0000 0.0000 0.0000 -6.0875 0.0000 14.4693
#
#
#
# Elastic Compliance Matrix: (Units=1/GPa)
#
#
# Indices 1 2 3 4 5 6 
#
# 1 0.016997 -0.003326 -0.004497 0.000000 -0.009302 0.000000
# 2 -0.003326 0.064104 -0.011374 0.000000 -0.002646 0.000000
# 3 -0.004497 -0.011374 0.010463 0.000000 0.005498 0.000000
# 4 0.000000 0.000000 0.000000 0.044752 0.000000 0.018828
# 5 -0.009302 -0.002646 0.005498 0.000000 0.037926 0.000000
# 6 0.000000 0.000000 0.000000 0.018828 0.000000 0.077033
#
#
# Mechanical properties :
#
#
# Convention : Reuss Voigt Hill
#
# Bulk Modulus (GPa) = 18.80701 45.10523 31.95612
# Shear Modulus (GPa) = 16.26594 25.47971 20.87283
#
# Velocity S-wave (km/s) = 3.00480 3.76074 3.40382
# Velocity P-wave (km/s) = 4.74107 6.62528 5.76073
#
# Compressibility (1/GPa) = 0.05317167
#
# Stress axis : x y z
#
# Youngs Moduli (GPa) = 58.83433 15.59969 95.57456
#
# Poissons Ratio (x) = 0.05188 0.42975
# Poissons Ratio (y) = 0.19568 1.08702
# Poissons Ratio (z) = 0.26455 0.17742
#
# Static dielectric constant tensor:
#      x y z
#    x 3.311770 0.000000 -0.108110 
#    y 0.000000 2.716230 0.000000 
#    z -0.108110 0.000000 4.091040 
# 
# 
# High freq. dielectric constant tensor:
#      x y z
#    x 1.693140 0.000000 -0.000050 
#    y 0.000000 1.615760 0.000000 
#    z -0.000050 0.000000 1.725460 
# 
# From -- ./inp_files/172764.got.cif
#   From: 2010.06.25/outbox.cif.g09.slc.cpg/sg15_87_cif.got.tgz:172764.got - 2010.06.28 07:06:18.
