data_PCOD8129532
_publ_section_title
;
Structure prediction by ZEFSAII (Michael W. Deem and Ramdas Pophale) SiO2 
 PCOD8129532
Probable space group: P 21/C
;
_chemical_formula_sum "Si O2"
_cell_formula_units_Z 32
_cell_length_a 24.000000
_cell_length_b 15.000000
_cell_length_c 27.000000
_cell_angle_alpha 90.000000
_cell_angle_beta 10.000000
_cell_angle_gamma 90.000000
_cell_volume 1687.860287
_symmetry_space_group_name_H-M "P 21/C"
_symmetry_group_IT_number 14
_symmetry_cell_setting 'monoclinic'
loop_
_space_group_symop_operation_xyz
x,y,z
-x,1/2+y,1/2-z
-x,-y,-z
x,1/2-y,1/2+z
loop_
_atom_site_type_symbol
_atom_site_label
_atom_site_fract_x
_atom_site_fract_y
_atom_site_fract_z
Si Si1 0.512013 0.421291 0.739102
Si Si2 0.131727 0.192302 0.495412
Si Si3 0.751471 0.893045 0.420843
Si Si4 0.353980 0.807101 0.513770
Si Si5 0.236295 0.905553 0.431906
Si Si6 0.117806 0.987817 0.339656
Si Si7 0.608026 0.508743 0.846003
Si Si8 0.120834 0.310179 0.665678
O O1 0.365189 0.337727 0.836665
O O2 0.353588 0.507464 0.856068
O O3 0.891852 0.432713 0.397930
O O4 0.424980 0.420736 0.873623
O O5 0.840047 0.248842 0.775406
O O6 0.990059 0.108583 0.588203
O O7 0.334991 0.253271 0.278941
O O8 0.803079 0.787719 0.380027
O O9 0.542672 0.927503 0.555764
O O10 0.477393 0.898718 0.433737
O O11 0.124425 0.822129 0.666343
O O12 0.015609 0.857063 0.665714
O O13 0.536457 0.847190 0.151623
O O14 0.035733 0.932691 0.558611
O O15 0.000000 0.000000 0.500000
O O16 0.500000 0.000000 0.000000
O O17 0.000000 0.500000 0.500000
O O18 0.500000 0.500000 0.000000
#
# Coordination Sequence:
#
# PCOD8129532 Si02
#       8
#     4   4   4   4   4   4   4   4
#     4  11  20  41  68 101 132 164 210 280 364 386
#     4  11  22  41  69 101 130 170 221 288 331 404
#     4  12  24  44  69  97 138 170 224 291 329 400
#     4  12  23  44  73  98 134 173 238 280 328 406
#     4  11  24  39  65 100 137 166 209 276 338 411
#     4  11  24  45  64  95 138 178 223 257 335 414
#     4  12  28  50  66  97 139 197 234 267 333 412
#     4  12  23  42  68 109 128 164 223 289 356 375
#
# _framework density 18.958915000000001
#
# number of rings (size 3 to 8) (size 9 to 14) (size 15 to 20)
#    0.000    0.500    2.500    6.750    0.000    4.000 
#   13.500    0.000    0.000    0.000    0.000    0.000 
#    0.000    0.000    0.000    0.000    0.000    0.000 
#
# Total GULP energy -396434.426577 kJ/mol
# GULP energy per Si atom -12388.575831 kJ/mol
# Density = 1.891576 g / cm^3
# Si number density = 18.958915 Si / 1000 Ang^3
#
#
#
# Elastic Constant Matrix: (Units=GPa)
#
#
# Indices 1 2 3 4 5 6 
#
# 1 181.9188 54.9469 56.0527 0.0000 6.9289 0.0000
# 2 54.9469 105.7069 31.9878 0.0000 -8.1281 0.0000
# 3 56.0527 31.9878 148.2545 0.0000 8.9689 0.0000
# 4 0.0000 0.0000 0.0000 47.2026 0.0000 0.1873
# 5 6.9289 -8.1281 8.9689 0.0000 57.3529 0.0000
# 6 0.0000 0.0000 0.0000 0.1873 0.0000 51.0266
#
#
#
# Elastic Compliance Matrix: (Units=1/GPa)
#
#
# Indices 1 2 3 4 5 6 
#
# 1 0.007091 -0.003178 -0.001935 0.000000 -0.001005 0.000000
# 2 -0.003178 0.011731 -0.001467 0.000000 0.002276 0.000000
# 3 -0.001935 -0.001467 0.007866 0.000000 -0.001204 0.000000
# 4 0.000000 0.000000 0.000000 0.021186 0.000000 -0.000078
# 5 -0.001005 0.002276 -0.001204 0.000000 0.018068 0.000000
# 6 0.000000 0.000000 0.000000 -0.000078 0.000000 0.019598
#
#
# Mechanical properties :
#
#
# Convention : Reuss Voigt Hill
#
# Bulk Modulus (GPa) = 73.91705 80.20613 77.06159
# Shear Modulus (GPa) = 48.44544 50.64261 49.54403
#
# Velocity S-wave (km/s) = 5.06047 5.17395 5.11752
# Velocity P-wave (km/s) = 8.55670 8.83686 8.69791
#
# Compressibility (1/GPa) = 0.01352868
#
# Stress axis : x y z
#
# Youngs Moduli (GPa) = 141.02103 85.24431 127.12850
#
# Poissons Ratio (x) = 0.27089 0.24595
# Poissons Ratio (y) = 0.44814 0.18654
# Poissons Ratio (z) = 0.27282 0.12508
#
# Static dielectric constant tensor:
#      x y z
#    x 4.347090 0.000000 0.031420 
#    y 0.000000 4.039640 0.000000 
#    z 0.031420 0.000000 3.946850 
# 
# 
# High freq. dielectric constant tensor:
#      x y z
#    x 1.782280 0.000000 0.013660 
#    y 0.000000 1.769090 0.000000 
#    z 0.013660 0.000000 1.783310 
# 
# From -- ./inp_files/78180.got.cif
#   From: 2010.03.12/outbox.ucp.g09.slc.cvg/sg14_40_cif.got.tgz:78180.got - 2010.05.04 20:10:03.
