data_PCOD8129100
_publ_section_title
;
Structure prediction by ZEFSAII (Michael W. Deem and Ramdas Pophale) SiO2 
 PCOD8129100
Probable space group: P 21/C
;
_chemical_formula_sum "Si O2"
_cell_formula_units_Z 24
_cell_length_a 10.980841
_cell_length_b 11.760082
_cell_length_c 17.690171
_cell_angle_alpha 90.000000
_cell_angle_beta 149.473111
_cell_angle_gamma 90.000000
_cell_volume 1160.359821
_symmetry_space_group_name_H-M "P 21/C"
_symmetry_group_IT_number 14
_symmetry_cell_setting 'monoclinic'
loop_
_space_group_symop_operation_xyz
x,y,z
-x,1/2+y,1/2-z
-x,-y,-z
x,1/2-y,1/2+z
loop_
_atom_site_type_symbol
_atom_site_label
_atom_site_fract_x
_atom_site_fract_y
_atom_site_fract_z
Si Si1 0.940577 0.323571 0.876418
Si Si2 0.355013 0.081155 0.276765
Si Si3 0.878877 0.042113 0.603438
Si Si4 0.788604 0.670798 0.827121
Si Si5 0.519040 0.545665 0.325931
Si Si6 0.997604 0.913123 0.161438
O O1 0.693408 0.362806 0.782498
O O2 0.034348 0.413808 0.865233
O O3 0.893525 0.204988 0.809980
O O4 0.141086 0.308766 0.048239
O O5 0.592205 0.046853 0.449219
O O6 0.307668 0.214602 0.261728
O O7 0.368269 0.046730 0.196675
O O8 0.132374 0.016981 0.194327
O O9 0.977507 0.125705 0.591457
O O10 0.978064 0.083240 0.736018
O O11 0.575427 0.580212 0.707132
O O12 0.716667 0.577784 0.493339
#
# Coordination Sequence:
#
# PCOD8129100 Si02
#       6
#     4   4   4   4   4   4
#     4  11  24  46  72  96 137 184 219 282 338 390
#     4  12  25  42  72 100 135 177 230 275 325 409
#     4  11  26  48  67 100 141 177 222 277 350 393
#     4  11  24  44  75  96 133 187 225 276 330 398
#     4  11  24  44  69 100 134 178 230 272 332 404
#     4  12  29  40  71 108 136 172 226 284 337 398
#
# _framework density 20.683240000000001
#
# number of rings (size 3 to 8) (size 9 to 14) (size 15 to 20)
#    0.000    0.667    5.000    2.000    9.333    4.000 
#    0.000    0.000    0.000    0.000    0.000    0.000 
#    0.000    0.000    0.000    0.000    0.000    0.000 
#
# Total GULP energy -297823.140230 kJ/mol
# GULP energy per Si atom -12409.297510 kJ/mol
# Density = 2.063616 g / cm^3
# Si number density = 20.683240 Si / 1000 Ang^3
#
#
#
# Elastic Constant Matrix: (Units=GPa)
#
#
# Indices 1 2 3 4 5 6 
#
# 1 64.0359 32.8334 18.9666 0.0000 -10.5619 0.0000
# 2 32.8334 130.0441 8.1624 0.0000 -1.3184 0.0000
# 3 18.9666 8.1624 106.8184 0.0000 -12.2837 0.0000
# 4 0.0000 0.0000 0.0000 22.1808 0.0000 -2.0017
# 5 -10.5619 -1.3184 -12.2837 0.0000 43.1130 0.0000
# 6 0.0000 0.0000 0.0000 -2.0017 0.0000 27.1168
#
#
#
# Elastic Compliance Matrix: (Units=1/GPa)
#
#
# Indices 1 2 3 4 5 6 
#
# 1 0.019451 -0.004706 -0.002650 0.000000 0.003866 0.000000
# 2 -0.004706 0.008865 0.000059 0.000000 -0.000865 0.000000
# 3 -0.002650 0.000059 0.010084 0.000000 0.002226 0.000000
# 4 0.000000 0.000000 0.000000 0.045386 0.000000 0.003350
# 5 0.003866 -0.000865 0.002226 0.000000 0.024750 0.000000
# 6 0.000000 0.000000 0.000000 0.003350 0.000000 0.037125
#
#
# Mechanical properties :
#
#
# Convention : Reuss Voigt Hill
#
# Bulk Modulus (GPa) = 42.00399 46.75813 44.38106
# Shear Modulus (GPa) = 29.72826 34.54453 32.13639
#
# Velocity S-wave (km/s) = 3.79530 4.09121 3.94603
# Velocity P-wave (km/s) = 6.28952 6.70620 6.50120
#
# Compressibility (1/GPa) = 0.02380726
#
# Stress axis : x y z
#
# Youngs Moduli (GPa) = 51.41009 112.79928 99.17082
#
# Poissons Ratio (x) = 0.53078 0.26276
# Poissons Ratio (y) = 0.24191 -0.00581
# Poissons Ratio (z) = 0.13622 -0.00661
#
# Static dielectric constant tensor:
#      x y z
#    x 3.698320 0.000000 0.066620 
#    y 0.000000 3.855160 0.000000 
#    z 0.066620 0.000000 3.832460 
# 
# 
# High freq. dielectric constant tensor:
#      x y z
#    x 1.810440 0.000000 0.004790 
#    y 0.000000 1.820800 0.000000 
#    z 0.004790 0.000000 1.814970 
# 
# From -- ./inp_files/24088.got.cif
#   From: 2010.03.12/outbox.cif.g09.slc.cpg/sg14_13_cif.got.tgz:24088.got - 2010.03.31 13:35:05.
