data_PCOD8129172
_publ_section_title
;
Structure prediction by ZEFSAII (Michael W. Deem and Ramdas Pophale) SiO2 
 PCOD8129172
Probable space group: P 21/C
;
_chemical_formula_sum "Si O2"
_cell_formula_units_Z 28
_cell_length_a 20.905698
_cell_length_b 11.983033
_cell_length_c 26.099480
_cell_angle_alpha 90.000000
_cell_angle_beta 11.306613
_cell_angle_gamma 90.000000
_cell_volume 1281.890070
_symmetry_space_group_name_H-M "P 21/C"
_symmetry_group_IT_number 14
_symmetry_cell_setting 'monoclinic'
loop_
_space_group_symop_operation_xyz
x,y,z
-x,1/2+y,1/2-z
-x,-y,-z
x,1/2-y,1/2+z
loop_
_atom_site_type_symbol
_atom_site_label
_atom_site_fract_x
_atom_site_fract_y
_atom_site_fract_z
Si Si1 0.931593 0.196738 0.774887
Si Si2 0.821868 0.093936 0.605891
Si Si3 0.314828 0.461485 0.045137
Si Si4 0.276072 0.403337 0.456268
Si Si5 0.728030 0.230469 0.261037
Si Si6 0.441977 0.347271 0.213602
Si Si7 0.522489 0.880339 0.955192
O O1 0.686340 0.123233 0.932874
O O2 0.173712 0.109565 0.609607
O O3 0.149463 0.280430 0.569949
O O4 0.741880 0.262370 0.969190
O O5 0.644739 0.186109 0.780031
O O6 0.539059 0.048156 0.790548
O O7 0.000000 0.000000 0.500000
O O8 0.101761 0.149000 0.351341
O O9 0.028103 0.511553 0.305988
O O10 0.551034 0.387847 0.894695
O O11 0.534137 0.557238 0.847861
O O12 0.449543 0.398165 0.264732
O O13 0.603746 0.280899 0.411151
O O14 0.113487 0.219329 0.961235
O O15 0.500000 0.000000 0.000000
#
# Coordination Sequence:
#
# PCOD8129172 Si02
#       7
#     4   4   4   4   4   4   4
#     4  11  24  47  67 104 143 177 232 299 341 416
#     4  12  25  44  71 104 140 180 232 287 357 414
#     4  11  27  43  71  99 141 179 240 286 343 421
#     4  11  26  45  70 102 136 189 232 286 355 418
#     4  12  25  46  68 102 142 184 224 292 347 414
#     4  11  26  46  70  98 142 186 234 284 353 417
#     4  12  26  41  74 104 136 181 234 286 351 420
#
# _framework density 21.842746000000002
#
# number of rings (size 3 to 8) (size 9 to 14) (size 15 to 20)
#    0.000    0.571    5.714    1.286    4.000    2.857 
#    0.000    0.000    0.000    0.000    0.000    0.000 
#    0.000    0.000    0.000    0.000    0.000    0.000 
#
# Total GULP energy -347347.980501 kJ/mol
# GULP energy per Si atom -12405.285018 kJ/mol
# Density = 2.179303 g / cm^3
# Si number density = 21.842746 Si / 1000 Ang^3
#
#
#
# Elastic Constant Matrix: (Units=GPa)
#
#
# Indices 1 2 3 4 5 6 
#
# 1 91.9498 15.9958 25.2628 0.0000 11.3316 0.0000
# 2 15.9958 74.6111 11.8061 0.0000 10.7509 0.0000
# 3 25.2628 11.8061 93.7384 0.0000 15.7588 0.0000
# 4 0.0000 0.0000 0.0000 39.6777 0.0000 -4.6797
# 5 11.3316 10.7509 15.7588 0.0000 36.5173 0.0000
# 6 0.0000 0.0000 0.0000 -4.6797 0.0000 37.4389
#
#
#
# Elastic Compliance Matrix: (Units=1/GPa)
#
#
# Indices 1 2 3 4 5 6 
#
# 1 0.012201 -0.001891 -0.002703 0.000000 -0.002063 0.000000
# 2 -0.001891 0.014406 -0.000744 0.000000 -0.003333 0.000000
# 3 -0.002703 -0.000744 0.012197 0.000000 -0.004206 0.000000
# 4 0.000000 0.000000 0.000000 0.025580 0.000000 0.003197
# 5 -0.002063 -0.003333 -0.004206 0.000000 0.030821 0.000000
# 6 0.000000 0.000000 0.000000 0.003197 0.000000 0.027110
#
#
# Mechanical properties :
#
#
# Convention : Reuss Voigt Hill
#
# Bulk Modulus (GPa) = 35.55214 40.71430 38.13322
# Shear Modulus (GPa) = 35.12000 36.54242 35.83121
#
# Velocity S-wave (km/s) = 4.01416 4.09464 4.05460
# Velocity P-wave (km/s) = 6.14787 6.40586 6.27819
#
# Compressibility (1/GPa) = 0.02812770
#
# Stress axis : x y z
#
# Youngs Moduli (GPa) = 81.95786 69.41405 81.98498
#
# Poissons Ratio (x) = 0.13125 0.22164
# Poissons Ratio (y) = 0.15497 0.06104
# Poissons Ratio (z) = 0.22156 0.05168
#
# Static dielectric constant tensor:
#      x y z
#    x 3.942850 0.000000 0.112700 
#    y 0.000000 3.942730 0.000000 
#    z 0.112700 0.000000 4.231790 
# 
# 
# High freq. dielectric constant tensor:
#      x y z
#    x 1.859530 0.000000 0.004780 
#    y 0.000000 1.860540 0.000000 
#    z 0.004780 0.000000 1.873890 
# 
# From -- ./inp_files/80646.got.cif
#   From: 2010.03.12/outbox.cif.g09.slc.cpg/sg14_41_cif.got.tgz:80646.got - 2010.03.31 13:35:05.
