data_PCOD8129055
_publ_section_title
;
Structure prediction by ZEFSAII (Michael W. Deem and Ramdas Pophale) SiO2 
 PCOD8129055
Probable space group: P 21/C
;
_chemical_formula_sum "Si O2"
_cell_formula_units_Z 32
_cell_length_a 8.684714
_cell_length_b 10.731322
_cell_length_c 26.321741
_cell_angle_alpha 90.000000
_cell_angle_beta 37.319611
_cell_angle_gamma 90.000000
_cell_volume 1487.245728
_symmetry_space_group_name_H-M "P 21/C"
_symmetry_group_IT_number 14
_symmetry_cell_setting 'monoclinic'
loop_
_space_group_symop_operation_xyz
x,y,z
-x,1/2+y,1/2-z
-x,-y,-z
x,1/2-y,1/2+z
loop_
_atom_site_type_symbol
_atom_site_label
_atom_site_fract_x
_atom_site_fract_y
_atom_site_fract_z
Si Si1 0.769476 0.404948 0.553507
Si Si2 0.745993 0.669703 0.701577
Si Si3 0.711389 0.359233 0.104656
Si Si4 0.422125 0.901136 0.190676
Si Si5 0.796213 0.986691 0.490206
Si Si6 0.705660 0.107123 0.953936
Si Si7 0.614285 0.210555 0.389961
Si Si8 0.988221 0.927505 0.663519
O O1 0.809660 0.284027 0.578595
O O2 0.518322 0.476226 0.636683
O O3 0.725562 0.358331 0.507837
O O4 0.000000 0.500000 0.500000
O O5 0.554694 0.629003 0.796114
O O6 0.622823 0.650721 0.678547
O O7 0.811485 0.816444 0.688173
O O8 0.999153 0.582674 0.640653
O O9 0.907666 0.455103 0.078290
O O10 0.679906 0.402896 0.054886
O O11 0.359506 0.795566 0.166305
O O12 0.165432 0.946019 0.285179
O O13 0.648183 0.861749 0.542667
O O14 0.788010 0.035242 0.434746
O O15 0.605643 0.218853 0.945955
O O16 0.500000 0.000000 0.000000
O O17 0.860417 0.119528 0.326095
#
# Coordination Sequence:
#
# PCOD8129055 Si02
#       8
#     4   4   4   4   4   4   4   4
#     4  12  23  43  71 100 136 180 233 295 351 416
#     4  11  24  43  70 101 141 179 239 295 346 420
#     4  11  24  42  70 106 133 186 242 291 349 411
#     4  12  24  44  71 103 138 181 238 292 349 426
#     4  11  25  45  71  99 145 186 239 284 355 428
#     4  11  24  44  69 101 139 180 230 287 360 422
#     4  11  26  45  68 103 141 187 228 287 361 421
#     4  11  25  48  67 102 141 185 231 291 357 421
#
# _framework density 21.516285
#
# number of rings (size 3 to 8) (size 9 to 14) (size 15 to 20)
#    0.000    0.750    5.000    2.625    3.500    2.000 
#    2.250    1.250    0.000    0.000    0.000    0.000 
#    0.000    0.000    0.000    0.000    0.000    0.000 
#
# Total GULP energy -396710.897372 kJ/mol
# GULP energy per Si atom -12397.215543 kJ/mol
# Density = 2.146731 g / cm^3
# Si number density = 21.516285 Si / 1000 Ang^3
#
#
#
# Elastic Constant Matrix: (Units=GPa)
#
#
# Indices 1 2 3 4 5 6 
#
# 1 97.3302 50.0171 46.3936 0.0000 0.1560 0.0000
# 2 50.0171 100.4948 58.7884 0.0000 -3.1944 0.0000
# 3 46.3936 58.7884 135.6390 0.0000 3.5865 0.0000
# 4 0.0000 0.0000 0.0000 38.2127 0.0000 0.1674
# 5 0.1560 -3.1944 3.5865 0.0000 29.7334 0.0000
# 6 0.0000 0.0000 0.0000 0.1674 0.0000 32.8189
#
#
#
# Elastic Compliance Matrix: (Units=1/GPa)
#
#
# Indices 1 2 3 4 5 6 
#
# 1 0.014386 -0.005761 -0.002413 0.000000 -0.000403 0.000000
# 2 -0.005761 0.015775 -0.004928 0.000000 0.002319 0.000000
# 3 -0.002413 -0.004928 0.010380 0.000000 -0.001769 0.000000
# 4 0.000000 0.000000 0.000000 0.026170 0.000000 -0.000134
# 5 -0.000403 0.002319 -0.001769 0.000000 0.034097 0.000000
# 6 0.000000 0.000000 0.000000 -0.000134 0.000000 0.030471
#
#
# Mechanical properties :
#
#
# Convention : Reuss Voigt Hill
#
# Bulk Modulus (GPa) = 69.74930 71.54026 70.64478
# Shear Modulus (GPa) = 30.81460 32.03734 31.42597
#
# Velocity S-wave (km/s) = 3.78848 3.86292 3.82588
# Velocity P-wave (km/s) = 7.18500 7.29505 7.24023
#
# Compressibility (1/GPa) = 0.01433706
#
# Stress axis : x y z
#
# Youngs Moduli (GPa) = 69.51364 63.39302 96.33627
#
# Poissons Ratio (x) = 0.36522 0.23243
# Poissons Ratio (y) = 0.40049 0.47472
# Poissons Ratio (z) = 0.16772 0.31239
#
# Static dielectric constant tensor:
#      x y z
#    x 4.024390 0.000000 -0.033940 
#    y 0.000000 3.870280 0.000000 
#    z -0.033940 0.000000 4.108790 
# 
# 
# High freq. dielectric constant tensor:
#      x y z
#    x 1.845510 0.000000 0.000550 
#    y 0.000000 1.844580 0.000000 
#    z 0.000550 0.000000 1.853420 
# 
# From -- ./inp_files/72347.got.cif
#   From: 2010.03.12/outbox.cif.g09.slc.cpg/sg14_37_cif.got.tgz:72347.got - 2010.03.31 13:35:05.
