data_PCOD8129033
_publ_section_title
;
Structure prediction by ZEFSAII (Michael W. Deem and Ramdas Pophale) SiO2 
 PCOD8129033
Probable space group: P 21/C
;
_chemical_formula_sum "Si O2"
_cell_formula_units_Z 28
_cell_length_a 11.561393
_cell_length_b 13.576036
_cell_length_c 8.953710
_cell_angle_alpha 90.000000
_cell_angle_beta 71.241192
_cell_angle_gamma 90.000000
_cell_volume 1330.703918
_symmetry_space_group_name_H-M "P 21/C"
_symmetry_group_IT_number 14
_symmetry_cell_setting 'monoclinic'
loop_
_space_group_symop_operation_xyz
x,y,z
-x,1/2+y,1/2-z
-x,-y,-z
x,1/2-y,1/2+z
loop_
_atom_site_type_symbol
_atom_site_label
_atom_site_fract_x
_atom_site_fract_y
_atom_site_fract_z
Si Si1 0.321307 0.699396 0.654358
Si Si2 0.213113 0.942334 0.978930
Si Si3 0.074193 0.697522 0.341027
Si Si4 0.574162 0.370342 0.076842
Si Si5 0.682773 0.544677 0.855060
Si Si6 0.097848 0.372967 0.063856
Si Si7 0.934027 0.547223 0.226478
O O1 0.315523 0.610618 0.537575
O O2 0.184791 0.734952 0.743002
O O3 0.402967 0.786608 0.555274
O O4 0.381477 0.661412 0.779820
O O5 0.109589 0.861924 0.976715
O O6 0.275872 0.983218 0.805348
O O7 0.153973 0.032648 0.094762
O O8 0.951983 0.761352 0.419480
O O9 0.046541 0.618505 0.222205
O O10 0.429576 0.386781 0.144489
O O11 0.645171 0.469412 0.001422
O O12 0.789528 0.616377 0.869606
O O13 0.984963 0.441286 0.158802
O O14 0.140366 0.404546 0.879766
#
# Coordination Sequence:
#
# PCOD8129033 Si02
#       7
#     4   4   4   4   4   4   4
#     4  12  22  43  72  99 126 172 231 276 327 407
#     4  12  23  41  70 100 133 177 222 277 338 408
#     4  12  23  39  71 103 134 174 221 278 335 408
#     4  11  24  46  70  93 131 180 228 277 331 390
#     4  11  25  45  66  95 138 177 223 282 331 396
#     4  11  24  42  66 103 140 177 218 281 346 400
#     4  11  24  40  66 103 140 175 218 274 345 411
#
# _framework density 21.041495000000001
#
# number of rings (size 3 to 8) (size 9 to 14) (size 15 to 20)
#    0.000    0.571    5.714    2.143    2.000    0.571 
#    5.143    0.000    0.000    0.000    0.000    0.000 
#    0.000    0.000    0.000    0.000    0.000    0.000 
#
# Total GULP energy -347346.424444 kJ/mol
# GULP energy per Si atom -12405.229444 kJ/mol
# Density = 2.099360 g / cm^3
# Si number density = 21.041495 Si / 1000 Ang^3
#
#
#
# Elastic Constant Matrix: (Units=GPa)
#
#
# Indices 1 2 3 4 5 6 
#
# 1 93.2561 59.8480 55.0672 0.0000 2.9397 0.0000
# 2 59.8480 96.8115 46.0899 0.0000 6.1693 0.0000
# 3 55.0672 46.0899 104.2483 0.0000 19.6607 0.0000
# 4 0.0000 0.0000 0.0000 21.3116 0.0000 2.0175
# 5 2.9397 6.1693 19.6607 0.0000 29.6388 0.0000
# 6 0.0000 0.0000 0.0000 2.0175 0.0000 35.8436
#
#
#
# Elastic Compliance Matrix: (Units=1/GPa)
#
#
# Indices 1 2 3 4 5 6 
#
# 1 0.021666 -0.009890 -0.008064 0.000000 0.005259 0.000000
# 2 -0.009890 0.017640 -0.002363 0.000000 -0.001123 0.000000
# 3 -0.008064 -0.002363 0.016748 0.000000 -0.009818 0.000000
# 4 0.000000 0.000000 0.000000 0.047174 0.000000 -0.002655
# 5 0.005259 -0.001123 -0.009818 0.000000 0.039965 0.000000
# 6 0.000000 0.000000 0.000000 -0.002655 0.000000 0.028048
#
#
# Mechanical properties :
#
#
# Convention : Reuss Voigt Hill
#
# Bulk Modulus (GPa) = 64.84708 68.48068 66.66388
# Shear Modulus (GPa) = 23.03993 26.24622 24.64307
#
# Velocity S-wave (km/s) = 3.31263 3.53562 3.42594
# Velocity P-wave (km/s) = 6.74662 7.02023 6.88479
#
# Compressibility (1/GPa) = 0.01542090
#
# Stress axis : x y z
#
# Youngs Moduli (GPa) = 46.15541 56.69079 59.70697
#
# Poissons Ratio (x) = 0.56066 0.48148
# Poissons Ratio (y) = 0.45646 0.14108
# Poissons Ratio (z) = 0.37220 0.13395
#
# Static dielectric constant tensor:
#      x y z
#    x 3.698410 0.000000 0.198010 
#    y 0.000000 3.892130 0.000000 
#    z 0.198010 0.000000 3.873340 
# 
# 
# High freq. dielectric constant tensor:
#      x y z
#    x 1.811640 0.000000 0.019420 
#    y 0.000000 1.828320 0.000000 
#    z 0.019420 0.000000 1.832640 
# 
# From -- ./inp_files/13043.got.cif
#   From: 2010.03.12/outbox.cif.g09.slc.cpg/sg14_7_cif.got.tgz:13043.got - 2010.03.31 13:35:05.
