data_PCOD8129562
_publ_section_title
;
Structure prediction by ZEFSAII (Michael W. Deem and Ramdas Pophale) SiO2 
 PCOD8129562
Probable space group: C 2/C
;
_chemical_formula_sum "Si O2"
_cell_formula_units_Z 32
_cell_length_a 15.000000
_cell_length_b 18.000000
_cell_length_c 24.000000
_cell_angle_alpha 90.000000
_cell_angle_beta 30.000000
_cell_angle_gamma 90.000000
_cell_volume 3240.000000
_symmetry_space_group_name_H-M "C 2/C"
_symmetry_group_IT_number 15
_symmetry_cell_setting 'monoclinic'
loop_
_space_group_symop_operation_xyz
x,y,z
-x,y,1/2-z
-x,-y,-z
x,-y,1/2+z
1/2+x,1/2+y,z
1/2-x,1/2+y,1/2-z
1/2-x,1/2-y,-z
1/2+x,1/2-y,1/2+z
loop_
_atom_site_type_symbol
_atom_site_label
_atom_site_fract_x
_atom_site_fract_y
_atom_site_fract_z
Si Si1 0.296745 0.044738 0.349264
Si Si2 0.271026 0.529649 0.498949
Si Si3 0.259379 0.792448 0.267192
Si Si4 0.456444 0.310373 0.521618
Si Si5 0.589647 0.694743 0.073045
Si Si6 0.154712 0.205914 0.704313
Si Si7 0.428687 0.463433 0.231254
Si Si8 0.137715 0.462208 0.300661
O O1 0.500000 0.071934 0.250000
O O2 0.164787 0.115656 0.420245
O O3 0.239606 0.986693 0.428919
O O4 0.283512 0.000645 0.297863
O O5 0.357513 0.610548 0.437313
O O6 0.400998 0.466763 0.402325
O O7 0.073551 0.520512 0.578567
O O8 0.410964 0.729791 0.199319
O O9 0.152738 0.765964 0.269453
O O10 0.349634 0.872858 0.209054
O O11 0.114407 0.802747 0.392717
O O12 0.555967 0.309537 0.526108
O O13 0.338916 0.235644 0.578126
O O14 0.750000 0.750000 0.000000
O O15 0.132795 0.117638 0.715682
O O16 0.000000 0.242128 0.750000
O O17 0.500000 0.504781 0.250000
O O18 0.254662 0.494061 0.290452
#
# Coordination Sequence:
#
# PCOD8129562 Si02
#       8
#     8   8   8   8   8   8   8   8
#     4  10  21  37  66 102 125 157 206 266 338 376
#     4  11  22  40  66  92 127 167 205 272 316 376
#     4  10  21  38  60  89 119 166 208 248 319 378
#     4  11  22  38  64  92 127 163 202 267 315 375
#     4  11  23  41  60  88 127 164 209 257 315 376
#     4   9  20  39  61  86 123 159 205 257 307 372
#     4  10  22  41  60  86 120 171 217 249 302 375
#     4  10  20  38  64  91 125 158 207 262 322 384
#
# _framework density 9.8765429999999999
#
# number of rings (size 3 to 8) (size 9 to 14) (size 15 to 20)
#    0.000    1.750    1.250    3.375    0.000    3.000 
#    2.250   12.500    0.000    0.000    0.000    0.000 
#    0.000    0.000    0.000    0.000    0.000    0.000 
#
# Total GULP energy -396443.776144 kJ/mol
# GULP energy per Si atom -12388.868004 kJ/mol
# Density = 0.985406 g / cm^3
# Si number density = 9.876543 Si / 1000 Ang^3
#
#
#
# Elastic Constant Matrix: (Units=GPa)
#
#
# Indices 1 2 3 4 5 6 
#
# 1 160.6144 31.2965 50.7835 0.0077 -23.4716 -0.0007
# 2 31.2965 102.7121 47.9218 -0.0046 -8.8575 0.0034
# 3 50.7835 47.9218 120.7337 -0.0229 -18.5841 0.0123
# 4 0.0077 -0.0046 -0.0229 41.8976 0.0123 -6.2681
# 5 -23.4716 -8.8575 -18.5841 0.0123 31.1794 0.0006
# 6 -0.0007 0.0034 0.0123 -6.2681 0.0006 30.7943
#
#
#
# Elastic Compliance Matrix: (Units=1/GPa)
#
#
# Indices 1 2 3 4 5 6 
#
# 1 0.007732 -0.000954 -0.002223 -0.000004 0.004225 0.000000
# 2 -0.000954 0.012078 -0.004376 -0.000001 0.000104 0.000000
# 3 -0.002223 -0.004376 0.011567 0.000005 0.003978 -0.000003
# 4 -0.000004 -0.000001 0.000005 0.024617 -0.000010 0.005011
# 5 0.004225 0.000104 0.003978 -0.000010 0.037653 -0.000004
# 6 0.000000 0.000000 -0.000003 0.005011 -0.000004 0.033494
#
#
# Mechanical properties :
#
#
# Convention : Reuss Voigt Hill
#
# Bulk Modulus (GPa) = 61.46686 71.56263 66.51475
# Shear Modulus (GPa) = 33.85872 37.71148 35.78510
#
# Velocity S-wave (km/s) = 4.14466 4.37411 4.26093
# Velocity P-wave (km/s) = 7.35455 7.86243 7.61272
#
# Compressibility (1/GPa) = 0.01626893
#
# Stress axis : x y z
#
# Youngs Moduli (GPa) = 129.32573 82.79781 86.45123
#
# Poissons Ratio (x) = 0.07903 0.19221
# Poissons Ratio (y) = 0.12343 0.37834
# Poissons Ratio (z) = 0.28753 0.36236
#
# Static dielectric constant tensor:
#      x y z
#    x 4.275610 -0.000010 -0.231500 
#    y -0.000010 3.716870 0.000030 
#    z -0.231500 0.000030 3.725590 
# 
# 
# High freq. dielectric constant tensor:
#      x y z
#    x 1.803890 0.000000 -0.019580 
#    y 0.000000 1.771760 0.000000 
#    z -0.019580 0.000000 1.776570 
# 
# From -- ./inp_files/274816.got.cif
#   From: 2010.06.25/outbox.ucp.g09.slc.cvg/sg15_138_cif.got.tgz:274816.got - 2010.06.28 14:40:10.
