data_PCOD8129993
_publ_section_title
;
Structure prediction by ZEFSAII (Michael W. Deem and Ramdas Pophale) SiO2 
 PCOD8129993
Probable space group: C 2/C
;
_chemical_formula_sum "Si O2"
_cell_formula_units_Z 56
_cell_length_a 17.594577
_cell_length_b 19.729332
_cell_length_c 9.336726
_cell_angle_alpha 90.000000
_cell_angle_beta 117.734873
_cell_angle_gamma 90.000000
_cell_volume 2868.688126
_symmetry_space_group_name_H-M "C 2/C"
_symmetry_group_IT_number 15
_symmetry_cell_setting 'monoclinic'
loop_
_space_group_symop_operation_xyz
x,y,z
-x,y,1/2-z
-x,-y,-z
x,-y,1/2+z
1/2+x,1/2+y,z
1/2-x,1/2+y,1/2-z
1/2-x,1/2-y,-z
1/2+x,1/2-y,1/2+z
loop_
_atom_site_type_symbol
_atom_site_label
_atom_site_fract_x
_atom_site_fract_y
_atom_site_fract_z
Si Si1 0.862840 0.833291 0.792825
Si Si2 0.787066 0.302235 0.264876
Si Si3 0.403060 0.874248 0.153608
Si Si4 0.520240 0.647353 0.609219
Si Si5 0.811892 0.075558 0.759691
Si Si6 0.881832 0.765743 0.522556
Si Si7 0.740037 0.446312 0.958135
O O1 0.817905 0.772070 0.847981
O O2 0.910983 0.798057 0.699942
O O3 0.797183 0.889772 0.681138
O O4 0.931917 0.872404 0.951707
O O5 0.867995 0.343250 0.272126
O O6 0.737862 0.354009 0.329646
O O7 0.718592 0.285622 0.078775
O O8 0.500000 0.901771 0.250000
O O9 0.397979 0.814396 0.032539
O O10 0.343002 0.936752 0.052890
O O11 0.500000 0.672991 0.750000
O O12 0.585487 0.583561 0.671132
O O13 0.563825 0.708607 0.563215
O O14 0.797512 0.058848 0.914488
O O15 0.778552 0.019509 0.622205
#
# Coordination Sequence:
#
# PCOD8129993 Si02
#       7
#     8   8   8   8   8   8   8
#     4  11  18  36  65  83 115 152 208 238 286 347
#     4   9  17  36  60  92 114 149 195 254 290 342
#     4  10  17  31  62  94 112 142 205 256 285 336
#     4  11  24  37  53  92 125 154 193 244 296 349
#     4  10  24  41  59  82 129 153 201 236 298 351
#     4  10  16  35  62  90 117 149 197 252 293 341
#     4  11  22  40  60  87 115 167 195 236 296 359
#
# _framework density 19.521118000000001
#
# number of rings (size 3 to 8) (size 9 to 14) (size 15 to 20)
#    0.000    1.714    5.714    3.000    2.000    0.571 
#    0.000    7.143    0.000    0.857    0.000    0.000 
#    0.000    0.000    0.000    0.000    0.000    0.000 
#
# Total GULP energy -346911.530048 kJ/mol
# GULP energy per Si atom -12389.697502 kJ/mol
# Density = 1.947669 g / cm^3
# Si number density = 19.521118 Si / 1000 Ang^3
#
#
#
# Elastic Constant Matrix: (Units=GPa)
#
#
# Indices 1 2 3 4 5 6 
#
# 1 90.3770 35.6103 50.1617 0.0000 22.2632 0.0000
# 2 35.6103 96.2011 27.1439 0.0000 5.4039 0.0000
# 3 50.1617 27.1439 68.4770 0.0000 15.1038 0.0000
# 4 0.0000 0.0000 0.0000 36.8121 0.0000 4.8313
# 5 22.2632 5.4039 15.1038 0.0000 32.7889 0.0000
# 6 0.0000 0.0000 0.0000 4.8313 0.0000 18.9972
#
#
#
# Elastic Compliance Matrix: (Units=1/GPa)
#
#
# Indices 1 2 3 4 5 6 
#
# 1 0.021553 -0.004024 -0.012369 0.000000 -0.008274 0.000000
# 2 -0.004024 0.012457 -0.002382 0.000000 0.001776 0.000000
# 3 -0.012369 -0.002382 0.025233 0.000000 -0.002833 0.000000
# 4 0.000000 0.000000 0.000000 0.028103 0.000000 -0.007147
# 5 -0.008274 0.001776 -0.002833 0.000000 0.037128 0.000000
# 6 0.000000 0.000000 0.000000 -0.007147 0.000000 0.054457
#
#
# Mechanical properties :
#
#
# Convention : Reuss Voigt Hill
#
# Bulk Modulus (GPa) = 46.09547 53.43188 49.76367
# Shear Modulus (GPa) = 22.35033 27.19558 24.77296
#
# Velocity S-wave (km/s) = 3.38735 3.73652 3.56621
# Velocity P-wave (km/s) = 6.24206 6.78574 6.51957
#
# Compressibility (1/GPa) = 0.02169411
#
# Stress axis : x y z
#
# Youngs Moduli (GPa) = 46.39697 80.27852 39.63084
#
# Poissons Ratio (x) = 0.32301 0.49018
# Poissons Ratio (y) = 0.18668 0.09441
# Poissons Ratio (z) = 0.57386 0.19123
#
# Static dielectric constant tensor:
#      x y z
#    x 3.629910 0.000000 0.276940 
#    y 0.000000 3.590270 0.000000 
#    z 0.276940 0.000000 3.375970 
# 
# 
# High freq. dielectric constant tensor:
#      x y z
#    x 1.760490 0.000000 0.019370 
#    y 0.000000 1.745670 0.000000 
#    z 0.019370 0.000000 1.732340 
# 
# From -- ./inp_files/50347.got.cif
#   From: 2010.06.25/outbox.cif.g09.slc.cpg/sg15_26_cif.got.tgz:50347.got - 2010.06.28 07:06:18.
