data_PCOD8129978
_publ_section_title
;
Structure prediction by ZEFSAII (Michael W. Deem and Ramdas Pophale) SiO2 
 PCOD8129978
Probable space group: C 2/C
;
_chemical_formula_sum "Si O2"
_cell_formula_units_Z 48
_cell_length_a 7.383251
_cell_length_b 19.217464
_cell_length_c 18.380162
_cell_angle_alpha 90.000000
_cell_angle_beta 60.440259
_cell_angle_gamma 90.000000
_cell_volume 2268.471408
_symmetry_space_group_name_H-M "C 2/C"
_symmetry_group_IT_number 15
_symmetry_cell_setting 'monoclinic'
loop_
_space_group_symop_operation_xyz
x,y,z
-x,y,1/2-z
-x,-y,-z
x,-y,1/2+z
1/2+x,1/2+y,z
1/2-x,1/2+y,1/2-z
1/2-x,1/2-y,-z
1/2+x,1/2-y,1/2+z
loop_
_atom_site_type_symbol
_atom_site_label
_atom_site_fract_x
_atom_site_fract_y
_atom_site_fract_z
Si Si1 0.316611 0.669145 0.990280
Si Si2 0.287423 0.771212 0.746257
Si Si3 0.517490 0.634344 0.389592
Si Si4 0.885531 0.615001 0.113303
Si Si5 0.115038 0.873597 0.301866
Si Si6 0.798682 0.977941 0.739381
O O1 0.441255 0.642980 0.896175
O O2 0.250000 0.750000 0.000000
O O3 0.463824 0.653662 0.029879
O O4 0.112850 0.620608 0.033802
O O5 0.500000 0.772515 0.750000
O O6 0.087687 0.797688 0.830106
O O7 0.325658 0.814553 0.666391
O O8 0.231092 0.692155 0.734398
O O9 0.282313 0.609647 0.418928
O O10 0.677587 0.573260 0.334523
O O11 0.884614 0.549957 0.170706
O O12 0.000000 0.887105 0.250000
O O13 0.242889 0.945793 0.287333
O O14 0.000000 0.971324 0.750000
#
# Coordination Sequence:
#
# PCOD8129978 Si02
#       6
#     8   8   8   8   8   8
#     4  12  22  38  63  95 120 158 206 253 309 356
#     4  10  16  34  61  88 121 159 198 251 302 359
#     4  10  21  37  64  86 123 160 203 250 300 363
#     4  10  20  38  64  90 118 160 204 243 305 360
#     4  10  20  37  61  85 125 159 202 256 306 360
#     4   8  18  37  59  87 119 164 200 242 299 363
#
# _framework density 21.159624999999998
#
# number of rings (size 3 to 8) (size 9 to 14) (size 15 to 20)
#    0.000    2.000    3.333    2.500    0.000    1.333 
#    0.000    7.500    7.333    4.000    0.000    0.000 
#    0.000    0.000    0.000    0.000    0.000    0.000 
#
# Total GULP energy -297423.790006 kJ/mol
# GULP energy per Si atom -12392.657917 kJ/mol
# Density = 2.111146 g / cm^3
# Si number density = 21.159625 Si / 1000 Ang^3
#
#
#
# Elastic Constant Matrix: (Units=GPa)
#
#
# Indices 1 2 3 4 5 6 
#
# 1 64.4705 14.1690 30.6871 0.0000 -0.1477 0.0000
# 2 14.1690 172.3636 62.1048 0.0000 -8.0794 0.0000
# 3 30.6871 62.1048 128.7649 0.0000 4.1870 0.0000
# 4 0.0000 0.0000 0.0000 25.5920 0.0000 -3.8412
# 5 -0.1477 -8.0794 4.1870 0.0000 32.4526 0.0000
# 6 0.0000 0.0000 0.0000 -3.8412 0.0000 18.9084
#
#
#
# Elastic Compliance Matrix: (Units=1/GPa)
#
#
# Indices 1 2 3 4 5 6 
#
# 1 0.017510 0.000124 -0.004254 0.000000 0.000660 0.000000
# 2 0.000124 0.007182 -0.003567 0.000000 0.002249 0.000000
# 3 -0.004254 -0.003567 0.010574 0.000000 -0.002272 0.000000
# 4 0.000000 0.000000 0.000000 0.040304 0.000000 0.008188
# 5 0.000660 0.002249 -0.002272 0.000000 0.031670 0.000000
# 6 0.000000 0.000000 0.000000 0.008188 0.000000 0.054550
#
#
# Mechanical properties :
#
#
# Convention : Reuss Voigt Hill
#
# Bulk Modulus (GPa) = 50.31998 64.39120 57.35559
# Shear Modulus (GPa) = 27.20232 32.63314 29.91773
#
# Velocity S-wave (km/s) = 3.58938 3.93139 3.76427
# Velocity P-wave (km/s) = 6.40398 7.14878 6.78660
#
# Compressibility (1/GPa) = 0.01987282
#
# Stress axis : x y z
#
# Youngs Moduli (GPa) = 57.10957 139.23680 94.57018
#
# Poissons Ratio (x) = -0.01733 0.40235
# Poissons Ratio (y) = -0.00711 0.33731
# Poissons Ratio (z) = 0.24297 0.49662
#
# Static dielectric constant tensor:
#      x y z
#    x 3.768760 0.000000 -0.106020 
#    y 0.000000 4.394570 0.000000 
#    z -0.106020 0.000000 3.884680 
# 
# 
# High freq. dielectric constant tensor:
#      x y z
#    x 1.810410 0.000000 0.008120 
#    y 0.000000 1.833930 0.000000 
#    z 0.008120 0.000000 1.818350 
# 
# From -- ./inp_files/191493.got.cif
#   From: 2010.06.25/outbox.cif.g09.slc.cpg/sg15_96_cif.got.tgz:191493.got - 2010.06.28 07:06:18.
