data_PCOD8129142
_publ_section_title
;
Structure prediction by ZEFSAII (Michael W. Deem and Ramdas Pophale) SiO2 
 PCOD8129142
Probable space group: P 21/C
;
_chemical_formula_sum "Si O2"
_cell_formula_units_Z 28
_cell_length_a 8.821538
_cell_length_b 10.830722
_cell_length_c 16.112324
_cell_angle_alpha 90.000000
_cell_angle_beta 125.103756
_cell_angle_gamma 90.000000
_cell_volume 1259.426069
_symmetry_space_group_name_H-M "P 21/C"
_symmetry_group_IT_number 14
_symmetry_cell_setting 'monoclinic'
loop_
_space_group_symop_operation_xyz
x,y,z
-x,1/2+y,1/2-z
-x,-y,-z
x,1/2-y,1/2+z
loop_
_atom_site_type_symbol
_atom_site_label
_atom_site_fract_x
_atom_site_fract_y
_atom_site_fract_z
Si Si1 0.924479 0.872082 0.449176
Si Si2 0.624545 0.650093 0.135971
Si Si3 0.380053 0.520912 0.542025
Si Si4 0.750798 0.280199 0.050680
Si Si5 0.136401 0.196962 0.922171
Si Si6 0.763182 0.119499 0.728278
Si Si7 0.551099 0.851211 0.242857
O O1 0.949110 0.786316 0.536728
O O2 0.713300 0.891540 0.355376
O O3 0.047004 0.827513 0.410552
O O4 0.000000 0.000000 0.500000
O O5 0.739750 0.728275 0.104750
O O6 0.717791 0.518584 0.182451
O O7 0.612207 0.724166 0.218426
O O8 0.414736 0.633275 0.036735
O O9 0.500000 0.500000 0.500000
O O10 0.260596 0.643548 0.490007
O O11 0.252702 0.401489 0.512872
O O12 0.511236 0.540313 0.663400
O O13 0.737772 0.282681 0.145991
O O14 0.975285 0.122715 0.824428
O O15 0.633384 0.166840 0.761232
#
# Coordination Sequence:
#
# PCOD8129142 Si02
#       7
#     4   4   4   4   4   4   4
#     4  12  27  48  72 104 144 183 241 294 359 430
#     4  11  24  48  68 107 144 184 242 292 359 423
#     4  11  25  47  74 103 149 182 241 295 355 422
#     4  11  24  45  72 102 142 188 235 294 356 423
#     4  12  26  45  75 109 141 194 236 297 360 424
#     4  12  27  43  75 104 146 187 237 294 354 430
#     4  11  26  45  70 104 139 192 233 295 361 418
#
# _framework density 22.232351000000001
#
# number of rings (size 3 to 8) (size 9 to 14) (size 15 to 20)
#    0.000    0.571    2.857    5.571    6.000    2.286 
#    0.000    0.000    0.000    0.000    0.000    0.000 
#    0.000    0.000    0.000    0.000    0.000    0.000 
#
# Total GULP energy -347304.894292 kJ/mol
# GULP energy per Si atom -12403.746225 kJ/mol
# Density = 2.218175 g / cm^3
# Si number density = 22.232351 Si / 1000 Ang^3
#
#
#
# Elastic Constant Matrix: (Units=GPa)
#
#
# Indices 1 2 3 4 5 6 
#
# 1 110.2935 24.1166 20.0811 0.0000 -9.5263 0.0000
# 2 24.1166 110.3587 33.3475 0.0000 -0.6884 0.0000
# 3 20.0811 33.3475 102.2980 0.0000 1.8132 0.0000
# 4 0.0000 0.0000 0.0000 39.6102 0.0000 -0.3352
# 5 -9.5263 -0.6884 1.8132 0.0000 48.4880 0.0000
# 6 0.0000 0.0000 0.0000 -0.3352 0.0000 29.6473
#
#
#
# Elastic Compliance Matrix: (Units=1/GPa)
#
#
# Indices 1 2 3 4 5 6 
#
# 1 0.009869 -0.001718 -0.001412 0.000000 0.001967 0.000000
# 2 -0.001718 0.010354 -0.003037 0.000000 -0.000077 0.000000
# 3 -0.001412 -0.003037 0.011055 0.000000 -0.000734 0.000000
# 4 0.000000 0.000000 0.000000 0.025248 0.000000 0.000285
# 5 0.001967 -0.000077 -0.000734 0.000000 0.021037 0.000000
# 6 0.000000 0.000000 0.000000 0.000285 0.000000 0.033733
#
#
# Mechanical properties :
#
#
# Convention : Reuss Voigt Hill
#
# Bulk Modulus (GPa) = 52.78312 53.11560 52.94936
# Shear Modulus (GPa) = 38.47773 39.90942 39.19357
#
# Velocity S-wave (km/s) = 4.16469 4.24147 4.20325
# Velocity P-wave (km/s) = 6.84977 6.92313 6.88655
#
# Compressibility (1/GPa) = 0.01894545
#
# Stress axis : x y z
#
# Youngs Moduli (GPa) = 101.32358 96.58250 90.45272
#
# Poissons Ratio (x) = 0.16590 0.12774
# Poissons Ratio (y) = 0.17405 0.27467
# Poissons Ratio (z) = 0.14310 0.29329
#
# Static dielectric constant tensor:
#      x y z
#    x 4.793520 0.000000 0.668760 
#    y 0.000000 3.870580 0.000000 
#    z 0.668760 0.000000 4.737100 
# 
# 
# High freq. dielectric constant tensor:
#      x y z
#    x 1.891090 0.000000 -0.003070 
#    y 0.000000 1.874950 0.000000 
#    z -0.003070 0.000000 1.887700 
# 
# From -- ./inp_files/40414.got.cif
#   From: 2010.03.12/outbox.cif.g09.slc.cpg/sg14_21_cif.got.tgz:40414.got - 2010.03.31 13:35:05.
