data_PCOD8129014
_publ_section_title
;
Structure prediction by ZEFSAII (Michael W. Deem and Ramdas Pophale) SiO2 
 PCOD8129014
Probable space group: P 21/C
;
_chemical_formula_sum "Si O2"
_cell_formula_units_Z 28
_cell_length_a 7.487267
_cell_length_b 11.545449
_cell_length_c 18.403962
_cell_angle_alpha 90.000000
_cell_angle_beta 36.814481
_cell_angle_gamma 90.000000
_cell_volume 953.314269
_symmetry_space_group_name_H-M "P 21/C"
_symmetry_group_IT_number 14
_symmetry_cell_setting 'monoclinic'
loop_
_space_group_symop_operation_xyz
x,y,z
-x,1/2+y,1/2-z
-x,-y,-z
x,1/2-y,1/2+z
loop_
_atom_site_type_symbol
_atom_site_label
_atom_site_fract_x
_atom_site_fract_y
_atom_site_fract_z
Si Si1 0.867910 0.298263 0.164802
Si Si2 0.437568 0.464133 0.139961
Si Si3 0.792007 0.096418 0.899570
Si Si4 0.957546 0.197609 0.989269
Si Si5 0.584410 0.872818 0.705184
Si Si6 0.547989 0.332405 0.971678
Si Si7 0.535047 0.972724 0.128557
O O1 0.675448 0.190300 0.259099
O O2 0.750100 0.417720 0.236422
O O3 0.799785 0.283039 0.099574
O O4 0.213683 0.289298 0.066993
O O5 0.662180 0.516364 0.127996
O O6 0.357311 0.554879 0.102549
O O7 0.133083 0.435911 0.279654
O O8 0.583479 0.355910 0.048103
O O9 0.753912 0.225829 0.880426
O O10 0.565290 0.014918 0.925120
O O11 0.754400 0.110533 0.001746
O O12 0.142193 0.283205 0.874675
O O13 0.178321 0.109940 0.959868
O O14 0.443549 0.907632 0.829969
#
# Coordination Sequence:
#
# PCOD8129014 Si02
#       7
#     4   4   4   4   4   4   4
#     4  11  23  47  74  99 149 190 241 307 358 437
#     4  11  24  45  72 107 145 189 250 293 362 444
#     4  12  25  44  73 108 148 187 245 303 370 423
#     4  11  25  45  70 104 140 190 246 297 368 432
#     4  11  25  45  73 103 144 195 246 302 366 435
#     4  11  24  44  75 109 144 195 245 302 363 440
#     4  11  24  46  68 103 146 187 239 304 360 429
#
# _framework density 29.371217000000001
#
# number of rings (size 3 to 8) (size 9 to 14) (size 15 to 20)
#    0.000    0.857    5.714    0.857    4.000    1.143 
#    0.000    1.429    0.000    0.000    0.000    0.000 
#    0.000    0.000    0.000    0.000    0.000    0.000 
#
# Total GULP energy -347136.865541 kJ/mol
# GULP energy per Si atom -12397.745198 kJ/mol
# Density = 2.930437 g / cm^3
# Si number density = 29.371217 Si / 1000 Ang^3
#
#
#
# Elastic Constant Matrix: (Units=GPa)
#
#
# Indices 1 2 3 4 5 6 
#
# 1 107.8564 41.3279 63.2707 0.0000 25.8881 0.0000
# 2 41.3279 115.8086 57.9162 0.0000 3.3460 0.0000
# 3 63.2707 57.9162 118.0696 0.0000 25.7986 0.0000
# 4 0.0000 0.0000 0.0000 42.6835 0.0000 8.1258
# 5 25.8881 3.3460 25.7986 0.0000 60.4185 0.0000
# 6 0.0000 0.0000 0.0000 8.1258 0.0000 46.6837
#
#
#
# Elastic Compliance Matrix: (Units=1/GPa)
#
#
# Indices 1 2 3 4 5 6 
#
# 1 0.014384 -0.002069 -0.005925 0.000000 -0.003519 0.000000
# 2 -0.002069 0.011950 -0.005297 0.000000 0.002486 0.000000
# 3 -0.005925 -0.005297 0.015026 0.000000 -0.003584 0.000000
# 4 0.000000 0.000000 0.000000 0.024231 0.000000 -0.004218
# 5 -0.003519 0.002486 -0.003584 0.000000 0.019452 0.000000
# 6 0.000000 0.000000 0.000000 -0.004218 0.000000 0.022155
#
#
# Mechanical properties :
#
#
# Convention : Reuss Voigt Hill
#
# Bulk Modulus (GPa) = 67.65643 74.08491 70.87067
# Shear Modulus (GPa) = 36.04784 41.90512 38.97648
#
# Velocity S-wave (km/s) = 3.50711 3.78132 3.64679
# Velocity P-wave (km/s) = 6.28369 6.65905 6.47409
#
# Compressibility (1/GPa) = 0.01478056
#
# Stress axis : x y z
#
# Youngs Moduli (GPa) = 69.51979 83.68083 66.55294
#
# Poissons Ratio (x) = 0.17311 0.39430
# Poissons Ratio (y) = 0.14382 0.35250
# Poissons Ratio (z) = 0.41187 0.44322
#
# Static dielectric constant tensor:
#      x y z
#    x 5.681320 0.000000 0.541930 
#    y 0.000000 5.826480 0.000000 
#    z 0.541930 0.000000 5.567410 
# 
# 
# High freq. dielectric constant tensor:
#      x y z
#    x 2.204680 0.000000 0.028300 
#    y 0.000000 2.223510 0.000000 
#    z 0.028300 0.000000 2.223200 
# 
# From -- ./inp_files/65519.got.cif
#   From: 2010.03.12/outbox.cif.g09.slc.cpg/sg14_33_cif.got.tgz:65519.got - 2010.03.31 13:35:05.
