data_PCOD8129840
_publ_section_title
;
Structure prediction by ZEFSAII (Michael W. Deem and Ramdas Pophale) SiO2 
 PCOD8129840
Probable space group: C 2/C
;
_chemical_formula_sum "Si O2"
_cell_formula_units_Z 64
_cell_length_a 25.109804
_cell_length_b 19.000983
_cell_length_c 20.742606
_cell_angle_alpha 90.000000
_cell_angle_beta 22.418507
_cell_angle_gamma 90.000000
_cell_volume 3774.227629
_symmetry_space_group_name_H-M "C 2/C"
_symmetry_group_IT_number 15
_symmetry_cell_setting 'monoclinic'
loop_
_space_group_symop_operation_xyz
x,y,z
-x,y,1/2-z
-x,-y,-z
x,-y,1/2+z
1/2+x,1/2+y,z
1/2-x,1/2+y,1/2-z
1/2-x,1/2-y,-z
1/2+x,1/2-y,1/2+z
loop_
_atom_site_type_symbol
_atom_site_label
_atom_site_fract_x
_atom_site_fract_y
_atom_site_fract_z
Si Si1 0.637753 0.811984 0.864858
Si Si2 0.133090 0.440858 0.793300
Si Si3 0.869293 0.156775 0.606183
Si Si4 0.191494 0.532783 0.850125
Si Si5 0.149411 0.538734 0.661629
Si Si6 0.333316 0.326906 0.763680
Si Si7 0.144935 0.672230 0.749031
Si Si8 0.177761 0.450975 0.989366
O O1 0.670793 0.858567 0.763604
O O2 0.611194 0.730392 0.875656
O O3 0.768618 0.815335 0.765695
O O4 0.501532 0.847519 0.051889
O O5 0.200641 0.482641 0.777727
O O6 0.197057 0.476130 0.656991
O O7 0.967277 0.442412 0.970153
O O8 0.798972 0.097381 0.728332
O O9 0.772804 0.170292 0.653820
O O10 0.020504 0.132401 0.411055
O O11 0.244158 0.494654 0.856291
O O12 0.183634 0.616324 0.650593
O O13 0.225396 0.524614 0.507934
O O14 0.985791 0.540483 0.833561
O O15 0.363921 0.252741 0.766233
O O16 0.228398 0.370570 0.925979
#
# Coordination Sequence:
#
# PCOD8129840 Si02
#       8
#     8   8   8   8   8   8   8   8
#     4  10  17  32  51  75  99 127 167 205 241 287
#     4  10  16  30  55  73  90 130 173 201 235 287
#     4  10  20  29  50  78 103 126 159 206 248 288
#     4  10  17  31  52  74  97 128 164 207 243 284
#     4  10  19  32  53  72  94 133 172 204 236 284
#     4  10  20  30  47  75 105 131 158 201 249 292
#     4  10  17  32  51  70  99 136 169 193 235 297
#     4  10  20  33  48  74 102 127 166 209 243 280
#
# _framework density 16.957111999999999
#
# number of rings (size 3 to 8) (size 9 to 14) (size 15 to 20)
#    0.000    2.000    5.000    0.750    0.000    1.000 
#    0.000    0.625    0.000    0.750    0.000    0.000 
#    0.000    0.000    0.000    0.000    0.000    0.000 
#
# Total GULP energy -396466.299175 kJ/mol
# GULP energy per Si atom -12389.571849 kJ/mol
# Density = 1.691852 g / cm^3
# Si number density = 16.957112 Si / 1000 Ang^3
#
#
#
# Elastic Constant Matrix: (Units=GPa)
#
#
# Indices 1 2 3 4 5 6 
#
# 1 87.1873 46.1533 31.2953 0.0071 21.0043 -0.0030
# 2 46.1533 83.3645 16.9978 0.0019 18.8979 -0.0018
# 3 31.2953 16.9978 37.0932 0.0129 2.6216 -0.0075
# 4 0.0071 0.0019 0.0129 23.5933 -0.0086 -2.6977
# 5 21.0043 18.8979 2.6216 -0.0086 28.9562 0.0039
# 6 -0.0030 -0.0018 -0.0075 -2.6977 0.0039 17.1759
#
#
#
# Elastic Compliance Matrix: (Units=1/GPa)
#
#
# Indices 1 2 3 4 5 6 
#
# 1 0.023715 -0.007425 -0.015834 -0.000002 -0.010923 -0.000001
# 2 -0.007425 0.017783 -0.001454 0.000000 -0.006088 0.000001
# 3 -0.015834 -0.001454 0.040364 -0.000013 0.008780 0.000011
# 4 -0.000002 0.000000 -0.000013 0.043160 0.000015 0.006779
# 5 -0.010923 -0.006088 0.008780 0.000015 0.045637 -0.000007
# 6 -0.000001 0.000001 0.000011 0.006779 -0.000007 0.059286
#
#
# Mechanical properties :
#
#
# Convention : Reuss Voigt Hill
#
# Bulk Modulus (GPa) = 30.83009 44.05974 37.44492
# Shear Modulus (GPa) = 17.23060 21.49164 19.36112
#
# Velocity S-wave (km/s) = 3.19114 3.56393 3.38267
# Velocity P-wave (km/s) = 5.63901 6.55553 6.11447
#
# Compressibility (1/GPa) = 0.03243584
#
# Stress axis : x y z
#
# Youngs Moduli (GPa) = 42.16799 56.23429 24.77466
#
# Poissons Ratio (x) = 0.41752 0.39227
# Poissons Ratio (y) = 0.31308 0.03603
# Poissons Ratio (z) = 0.66767 0.08179
#
# Static dielectric constant tensor:
#      x y z
#    x 3.337030 -0.000010 0.037300 
#    y -0.000010 3.516120 0.000020 
#    z 0.037300 0.000020 3.015010 
# 
# 
# High freq. dielectric constant tensor:
#      x y z
#    x 1.638580 0.000000 -0.018330 
#    y 0.000000 1.654850 0.000000 
#    z -0.018330 0.000000 1.621240 
# 
# From -- ./inp_files/258059.got.cif
#   From: 2010.06.25/outbox.cif.g09.slc.cpg/sg15_130_cif.got.tgz:258059.got - 2010.06.28 07:06:18.
