data_PCOD8129361
_publ_section_title
;
Structure prediction by ZEFSAII (Michael W. Deem and Ramdas Pophale) SiO2 
 PCOD8129361
Probable space group: P 21/C
;
_chemical_formula_sum "Si O2"
_cell_formula_units_Z 24
_cell_length_a 11.682041
_cell_length_b 8.597986
_cell_length_c 11.802258
_cell_angle_alpha 90.000000
_cell_angle_beta 113.239432
_cell_angle_gamma 90.000000
_cell_volume 1089.260619
_symmetry_space_group_name_H-M "P 21/C"
_symmetry_group_IT_number 14
_symmetry_cell_setting 'monoclinic'
loop_
_space_group_symop_operation_xyz
x,y,z
-x,1/2+y,1/2-z
-x,-y,-z
x,1/2-y,1/2+z
loop_
_atom_site_type_symbol
_atom_site_label
_atom_site_fract_x
_atom_site_fract_y
_atom_site_fract_z
Si Si1 0.628072 0.436068 0.003276
Si Si2 0.768459 0.541951 0.422196
Si Si3 0.861202 0.406213 0.237776
Si Si4 0.536801 0.109314 0.911554
Si Si5 0.878970 0.041387 0.207543
Si Si6 0.293843 0.124862 0.682186
O O1 0.738076 0.478519 0.132752
O O2 0.500000 0.500000 0.000000
O O3 0.618535 0.250691 0.990751
O O4 0.659774 0.507321 0.894840
O O5 0.853289 0.443961 0.368325
O O6 0.624713 0.486006 0.359638
O O7 0.821846 0.516339 0.567666
O O8 0.772259 0.724312 0.395524
O O9 0.871206 0.224721 0.219132
O O10 0.977766 0.492404 0.227548
O O11 0.414374 0.173753 0.802151
O O12 0.500000 0.000000 0.000000
O O13 0.806667 0.961953 0.281512
#
# Coordination Sequence:
#
# PCOD8129361 Si02
#       6
#     4   4   4   4   4   4
#     4  12  26  45  74 109 146 190 243 299 367 431
#     4  12  26  48  73 107 150 188 245 301 365 430
#     4  12  27  49  75 105 145 194 243 302 363 432
#     4  12  22  45  72 105 146 186 241 305 356 429
#     4  12  28  50  74 107 147 190 249 296 363 442
#     4  12  26  44  76 107 148 192 239 301 368 434
#
# _framework density 22.033296
#
# number of rings (size 3 to 8) (size 9 to 14) (size 15 to 20)
#    0.000    0.000    3.333    6.500    4.667    0.667 
#    0.000    0.000    0.000    0.000    0.000    0.000 
#    0.000    0.000    0.000    0.000    0.000    0.000 
#
# Total GULP energy -297802.839928 kJ/mol
# GULP energy per Si atom -12408.451664 kJ/mol
# Density = 2.198315 g / cm^3
# Si number density = 22.033296 Si / 1000 Ang^3
#
#
#
# Elastic Constant Matrix: (Units=GPa)
#
#
# Indices 1 2 3 4 5 6 
#
# 1 188.1407 52.0914 66.8185 0.0000 -10.2818 0.0000
# 2 52.0914 124.3467 64.6121 0.0000 -2.1558 0.0000
# 3 66.8185 64.6121 110.5674 0.0000 -16.1785 0.0000
# 4 0.0000 0.0000 0.0000 26.1183 0.0000 -8.1940
# 5 -10.2818 -2.1558 -16.1785 0.0000 43.6021 0.0000
# 6 0.0000 0.0000 0.0000 -8.1940 0.0000 45.3969
#
#
#
# Elastic Compliance Matrix: (Units=1/GPa)
#
#
# Indices 1 2 3 4 5 6 
#
# 1 0.006862 -0.001057 -0.003490 0.000000 0.000271 0.000000
# 2 -0.001057 0.011886 -0.006617 0.000000 -0.002117 0.000000
# 3 -0.003490 -0.006617 0.015704 0.000000 0.004677 0.000000
# 4 0.000000 0.000000 0.000000 0.040586 0.000000 0.007326
# 5 0.000271 -0.002117 0.004677 0.000000 0.024629 0.000000
# 6 0.000000 0.000000 0.000000 0.007326 0.000000 0.023350
#
#
# Mechanical properties :
#
#
# Convention : Reuss Voigt Hill
#
# Bulk Modulus (GPa) = 82.46998 87.78875 85.12937
# Shear Modulus (GPa) = 33.47019 38.99231 36.23125
#
# Velocity S-wave (km/s) = 3.90176 4.21134 4.05950
# Velocity P-wave (km/s) = 7.60324 7.97354 7.79059
#
# Compressibility (1/GPa) = 0.01212562
#
# Stress axis : x y z
#
# Youngs Moduli (GPa) = 145.73217 84.13012 63.67642
#
# Poissons Ratio (x) = 0.08889 0.22221
# Poissons Ratio (y) = 0.15398 0.42136
# Poissons Ratio (z) = 0.50856 0.55671
#
# Static dielectric constant tensor:
#      x y z
#    x 4.354260 0.000000 0.038670 
#    y 0.000000 3.894720 0.000000 
#    z 0.038670 0.000000 4.067580 
# 
# 
# High freq. dielectric constant tensor:
#      x y z
#    x 1.890390 0.000000 -0.003880 
#    y 0.000000 1.879990 0.000000 
#    z -0.003880 0.000000 1.872190 
# 
# From -- ./inp_files/28199.got.cif
#   From: 2010.03.12/outbox.cif.g09.slc.cpg/sg14_15_cif.got.tgz:28199.got - 2010.03.31 13:35:05.
