data_PCOD8129318
_publ_section_title
;
Structure prediction by ZEFSAII (Michael W. Deem and Ramdas Pophale) SiO2 
 PCOD8129318
Probable space group: P 21/C
;
_chemical_formula_sum "Si O2"
_cell_formula_units_Z 20
_cell_length_a 11.328537
_cell_length_b 4.967037
_cell_length_c 14.157098
_cell_angle_alpha 90.000000
_cell_angle_beta 76.729576
_cell_angle_gamma 90.000000
_cell_volume 775.337994
_symmetry_space_group_name_H-M "P 21/C"
_symmetry_group_IT_number 14
_symmetry_cell_setting 'monoclinic'
loop_
_space_group_symop_operation_xyz
x,y,z
-x,1/2+y,1/2-z
-x,-y,-z
x,1/2-y,1/2+z
loop_
_atom_site_type_symbol
_atom_site_label
_atom_site_fract_x
_atom_site_fract_y
_atom_site_fract_z
Si Si1 0.917010 0.749667 0.990644
Si Si2 0.348638 0.122680 0.419181
Si Si3 0.927972 0.676373 0.278802
Si Si4 0.672526 0.701216 0.285489
Si Si5 0.396058 0.716992 0.081611
O O1 0.886220 0.723912 0.887528
O O2 0.783042 0.762232 0.061224
O O3 0.000000 0.500000 0.000000
O O4 0.000000 0.000000 0.000000
O O5 0.389408 0.096605 0.300882
O O6 0.458754 0.289364 0.449370
O O7 0.344414 0.849282 0.484979
O O8 0.814425 0.738307 0.231947
O O9 0.960749 0.360754 0.276373
O O10 0.674814 0.470081 0.365064
O O11 0.615045 0.967792 0.341711
#
# Coordination Sequence:
#
# PCOD8129318 Si02
#       5
#     4   4   4   4   4
#     4  12  27  46  72 106 141 188 242 297 360 429
#     4  11  26  48  75 108 148 191 240 303 364 424
#     4  12  25  46  69 103 143 189 239 297 355 431
#     4  12  25  47  73 106 148 191 241 296 364 432
#     4  11  27  46  74 110 146 189 244 296 360 445
#
# _framework density 25.795203999999998
#
# number of rings (size 3 to 8) (size 9 to 14) (size 15 to 20)
#    0.000    0.400    2.000    6.000    2.800    8.000 
#    0.000    0.000    0.000    0.000    0.000    0.000 
#    0.000    0.000    0.000    0.000    0.000    0.000 
#
# Total GULP energy -247808.922732 kJ/mol
# GULP energy per Si atom -12390.446137 kJ/mol
# Density = 2.573649 g / cm^3
# Si number density = 25.795204 Si / 1000 Ang^3
#
#
#
# Elastic Constant Matrix: (Units=GPa)
#
#
# Indices 1 2 3 4 5 6 
#
# 1 159.5965 29.0153 7.1808 0.0000 4.1211 0.0000
# 2 29.0153 112.6767 8.8029 0.0000 0.4549 0.0000
# 3 7.1808 8.8029 107.3144 0.0000 17.3824 0.0000
# 4 0.0000 0.0000 0.0000 30.8122 0.0000 -1.8821
# 5 4.1211 0.4549 17.3824 0.0000 35.8316 0.0000
# 6 0.0000 0.0000 0.0000 -1.8821 0.0000 34.3849
#
#
#
# Elastic Compliance Matrix: (Units=1/GPa)
#
#
# Indices 1 2 3 4 5 6 
#
# 1 0.006597 -0.001681 -0.000200 0.000000 -0.000640 0.000000
# 2 -0.001681 0.009363 -0.000725 0.000000 0.000426 0.000000
# 3 -0.000200 -0.000725 0.010186 0.000000 -0.004909 0.000000
# 4 0.000000 0.000000 0.000000 0.032564 0.000000 0.001782
# 5 -0.000640 0.000426 -0.004909 0.000000 0.030358 0.000000
# 6 0.000000 0.000000 0.000000 0.001782 0.000000 0.029180
#
#
# Mechanical properties :
#
#
# Convention : Reuss Voigt Hill
#
# Bulk Modulus (GPa) = 47.76453 52.17616 49.97034
# Shear Modulus (GPa) = 38.33288 42.51164 40.42226
#
# Velocity S-wave (km/s) = 3.85911 4.06402 3.96289
# Velocity P-wave (km/s) = 6.19790 6.50328 6.35243
#
# Compressibility (1/GPa) = 0.02093604
#
# Stress axis : x y z
#
# Youngs Moduli (GPa) = 151.58721 106.80799 98.16988
#
# Poissons Ratio (x) = 0.17950 0.01962
# Poissons Ratio (y) = 0.25475 0.07113
# Poissons Ratio (z) = 0.03029 0.07739
#
# Static dielectric constant tensor:
#      x y z
#    x 4.697510 0.000000 0.087360 
#    y 0.000000 4.312320 0.000000 
#    z 0.087360 0.000000 5.040880 
# 
# 
# High freq. dielectric constant tensor:
#      x y z
#    x 2.050720 0.000000 0.004230 
#    y 0.000000 2.010800 0.000000 
#    z 0.004230 0.000000 2.052540 
# 
# From -- ./inp_files/42447.got.cif
#   From: 2010.03.12/outbox.cif.g09.slc.cpg/sg14_22_cif.got.tgz:42447.got - 2010.03.31 13:35:05.
