data_PCOD8129516
_publ_section_title
;
Structure prediction by ZEFSAII (Michael W. Deem and Ramdas Pophale) SiO2 
 PCOD8129516
Probable space group: P 21/C
;
_chemical_formula_sum "Si O2"
_cell_formula_units_Z 24
_cell_length_a 16.800936
_cell_length_b 16.239829
_cell_length_c 9.377457
_cell_angle_alpha 90.000000
_cell_angle_beta 33.151686
_cell_angle_gamma 90.000000
_cell_volume 1399.181756
_symmetry_space_group_name_H-M "P 21/C"
_symmetry_group_IT_number 14
_symmetry_cell_setting 'monoclinic'
loop_
_space_group_symop_operation_xyz
x,y,z
-x,1/2+y,1/2-z
-x,-y,-z
x,1/2-y,1/2+z
loop_
_atom_site_type_symbol
_atom_site_label
_atom_site_fract_x
_atom_site_fract_y
_atom_site_fract_z
Si Si1 0.171236 0.670327 0.155089
Si Si2 0.668626 0.496021 0.413543
Si Si3 0.907253 0.933970 0.054424
Si Si4 0.092745 0.066030 0.276187
Si Si5 0.331376 0.996022 0.419423
Si Si6 0.171232 0.670328 0.831211
O O1 0.215720 0.750000 0.176421
O O2 0.997916 0.651171 0.431520
O O3 0.268598 0.592884 0.059842
O O4 0.210108 0.690712 0.934839
O O5 0.749296 0.567936 0.384225
O O6 0.698263 0.512770 0.202604
O O7 0.500002 0.499998 0.704976
O O8 0.731406 0.407116 0.365628
O O9 0.749295 0.932063 0.367886
O O10 0.890416 0.959371 0.914376
O O11 0.000000 0.000000 0.000000
O O12 0.002087 0.151173 0.425263
O O13 0.000000 0.000000 0.500000
#
# Coordination Sequence:
#
# PCOD8129516 Si02
#       6
#     4   4   4   4   4   4
#     4   9  18  31  48  70  94 123 159 198 240 284
#     4   9  18  33  51  71  97 128 160 195 239 287
#     4   9  17  30  48  70  93 120 158 195 230 278
#     4   9  17  30  48  70  93 120 158 195 230 278
#     4   9  18  33  51  71  97 128 160 195 239 287
#     4   9  18  31  48  70  94 123 159 198 240 284
#
# _framework density 17.152882999999999
#
# number of rings (size 3 to 8) (size 9 to 14) (size 15 to 20)
#    0.000    3.000    0.000    3.000    0.000    7.333 
#    0.000    1.667    0.000    8.000    0.000    0.000 
#    0.000    0.000    0.000    0.000    0.000    0.000 
#
# Total GULP energy -297398.476959 kJ/mol
# GULP energy per Si atom -12391.603207 kJ/mol
# Density = 1.711384 g / cm^3
# Si number density = 17.152883 Si / 1000 Ang^3
#
#
#
# Elastic Constant Matrix: (Units=GPa)
#
#
# Indices 1 2 3 4 5 6 
#
# 1 97.4414 32.9630 45.6196 0.0000 -13.4969 0.0000
# 2 32.9630 65.5337 34.3785 0.0000 -2.3688 0.0000
# 3 45.6196 34.3785 112.5261 0.0000 -11.7565 0.0000
# 4 0.0000 0.0000 0.0000 20.1528 0.0000 5.8629
# 5 -13.4969 -2.3688 -11.7565 0.0000 27.0296 0.0000
# 6 0.0000 0.0000 0.0000 5.8629 0.0000 23.6555
#
#
#
# Elastic Compliance Matrix: (Units=1/GPa)
#
#
# Indices 1 2 3 4 5 6 
#
# 1 0.014468 -0.005116 -0.003766 0.000000 0.005138 0.000000
# 2 -0.005116 0.020000 -0.004316 0.000000 -0.002679 0.000000
# 3 -0.003766 -0.004316 0.012043 0.000000 0.002980 0.000000
# 4 0.000000 0.000000 0.000000 0.053477 0.000000 -0.013254
# 5 0.005138 -0.002679 0.002980 0.000000 0.040623 0.000000
# 6 0.000000 0.000000 0.000000 -0.013254 0.000000 0.045558
#
#
# Mechanical properties :
#
#
# Convention : Reuss Voigt Hill
#
# Bulk Modulus (GPa) = 49.71238 55.71371 52.71305
# Shear Modulus (GPa) = 22.80285 25.00359 23.90322
#
# Velocity S-wave (km/s) = 3.65003 3.82211 3.73706
# Velocity P-wave (km/s) = 6.84168 7.21313 7.02986
#
# Compressibility (1/GPa) = 0.02011571
#
# Stress axis : x y z
#
# Youngs Moduli (GPa) = 69.11822 49.99980 83.03296
#
# Poissons Ratio (x) = 0.25581 0.31267
# Poissons Ratio (y) = 0.35362 0.35838
# Poissons Ratio (z) = 0.26027 0.21580
#
# Static dielectric constant tensor:
#      x y z
#    x 3.464480 0.000000 -0.134650 
#    y 0.000000 2.965340 0.000000 
#    z -0.134650 0.000000 3.544770 
# 
# 
# High freq. dielectric constant tensor:
#      x y z
#    x 1.665670 0.000000 0.004900 
#    y 0.000000 1.627140 0.000000 
#    z 0.004900 0.000000 1.662740 
# 
# From -- ./inp_files/9052.got.cif
#   From: 2010.03.12/outbox.cif.g09.slc.cpg/sg14_5_cif.got.tgz:9052.got - 2010.03.31 13:35:05.
