data_PCOD8129792
_publ_section_title
;
Structure prediction by ZEFSAII (Michael W. Deem and Ramdas Pophale) SiO2 
 PCOD8129792
Probable space group: C 2/C
;
_chemical_formula_sum "Si O2"
_cell_formula_units_Z 64
_cell_length_a 17.916734
_cell_length_b 26.230948
_cell_length_c 8.894787
_cell_angle_alpha 90.000000
_cell_angle_beta 104.327563
_cell_angle_gamma 90.000000
_cell_volume 4050.288000
_symmetry_space_group_name_H-M "C 2/C"
_symmetry_group_IT_number 15
_symmetry_cell_setting 'monoclinic'
loop_
_space_group_symop_operation_xyz
x,y,z
-x,y,1/2-z
-x,-y,-z
x,-y,1/2+z
1/2+x,1/2+y,z
1/2-x,1/2+y,1/2-z
1/2-x,1/2-y,-z
1/2+x,1/2-y,1/2+z
loop_
_atom_site_type_symbol
_atom_site_label
_atom_site_fract_x
_atom_site_fract_y
_atom_site_fract_z
Si Si1 0.271810 0.223489 0.664593
Si Si2 0.319333 0.794516 0.668605
Si Si3 0.093163 0.949594 0.634766
Si Si4 0.082694 0.054997 0.482441
Si Si5 0.344819 0.349875 0.322058
Si Si6 0.451192 0.746756 0.873843
Si Si7 0.395275 0.747843 0.415160
Si Si8 0.823385 0.856312 0.959686
O O1 0.250000 0.250000 0.500000
O O2 0.236338 0.250853 0.794871
O O3 0.239267 0.165941 0.652545
O O4 0.363687 0.228538 0.741059
O O5 0.393723 0.795797 0.819783
O O6 0.352304 0.777664 0.526265
O O7 0.267546 0.845462 0.624284
O O8 0.099627 0.951138 0.816244
O O9 0.155117 0.909525 0.605175
O O10 0.007802 0.935028 0.534546
O O11 0.113633 0.005149 0.582427
O O12 0.129135 0.101602 0.573279
O O13 0.401851 0.303165 0.386991
O O14 0.338646 0.361848 0.143710
O O15 0.500000 0.734114 0.750000
O O16 0.512603 0.757575 0.036932
O O17 0.378328 0.687455 0.418819
#
# Coordination Sequence:
#
# PCOD8129792 Si02
#       8
#     8   8   8   8   8   8   8   8
#     4  10  19  29  42  64  93 126 153 195 231 269
#     4   9  17  30  43  66  93 119 161 186 225 274
#     4  10  22  36  49  66  89 122 152 198 239 271
#     4  10  22  36  47  68  91 115 159 197 233 277
#     4  11  19  30  45  68  92 122 162 191 232 273
#     4   9  16  27  46  69  91 126 159 193 220 265
#     4  10  16  30  46  66  93 126 161 188 221 274
#     4  11  17  29  50  65  89 127 156 190 233 275
#
# _framework density 15.801346000000001
#
# number of rings (size 3 to 8) (size 9 to 14) (size 15 to 20)
#    0.000    2.000    5.000    2.250    3.500    1.000 
#    0.000    1.875    0.000    0.000    0.000    0.000 
#    0.000    1.000    0.250    0.000    0.000    0.250 
#
# Total GULP energy -396509.287230 kJ/mol
# GULP energy per Si atom -12390.915226 kJ/mol
# Density = 1.576538 g / cm^3
# Si number density = 15.801346 Si / 1000 Ang^3
#
#
#
# Elastic Constant Matrix: (Units=GPa)
#
#
# Indices 1 2 3 4 5 6 
#
# 1 69.9165 44.1171 43.2981 0.0000 27.1437 0.0000
# 2 44.1171 95.9731 47.4358 0.0000 11.6834 0.0000
# 3 43.2981 47.4358 88.5203 0.0000 28.9599 0.0000
# 4 0.0000 0.0000 0.0000 25.8683 0.0000 2.3557
# 5 27.1437 11.6834 28.9599 0.0000 30.7413 0.0000
# 6 0.0000 0.0000 0.0000 2.3557 0.0000 25.8871
#
#
#
# Elastic Compliance Matrix: (Units=1/GPa)
#
#
# Indices 1 2 3 4 5 6 
#
# 1 0.030233 -0.010064 -0.002765 0.000000 -0.020265 0.000000
# 2 -0.010064 0.017664 -0.007595 0.000000 0.009327 0.000000
# 3 -0.002765 -0.007595 0.021648 0.000000 -0.015066 0.000000
# 4 0.000000 0.000000 0.000000 0.038980 0.000000 -0.003547
# 5 -0.020265 0.009327 -0.015066 0.000000 0.061071 0.000000
# 6 0.000000 0.000000 0.000000 -0.003547 0.000000 0.038952
#
#
# Mechanical properties :
#
#
# Convention : Reuss Voigt Hill
#
# Bulk Modulus (GPa) = 34.84597 58.23465 46.54031
# Shear Modulus (GPa) = 19.30792 24.46993 21.88893
#
# Velocity S-wave (km/s) = 3.49938 3.93949 3.72594
# Velocity P-wave (km/s) = 6.19903 7.59125 6.93019
#
# Compressibility (1/GPa) = 0.02869772
#
# Stress axis : x y z
#
# Youngs Moduli (GPa) = 33.07647 56.61225 46.19395
#
# Poissons Ratio (x) = 0.56974 0.12773
# Poissons Ratio (y) = 0.33288 0.35083
# Poissons Ratio (z) = 0.09146 0.42995
#
# Static dielectric constant tensor:
#      x y z
#    x 3.390700 0.000000 0.368080 
#    y 0.000000 2.824840 0.000000 
#    z 0.368080 0.000000 3.199290 
# 
# 
# High freq. dielectric constant tensor:
#      x y z
#    x 1.595910 0.000000 0.011780 
#    y 0.000000 1.565410 0.000000 
#    z 0.011780 0.000000 1.621120 
# 
# From -- ./inp_files/51277.got.cif
#   From: 2010.06.25/outbox.cif.g09.slc.cpg/sg15_26_cif.got.tgz:51277.got - 2010.06.28 07:06:18.
