data_PCOD8129499
_publ_section_title
;
Structure prediction by ZEFSAII (Michael W. Deem and Ramdas Pophale) SiO2 
 PCOD8129499
Probable space group: P 21/C
;
_chemical_formula_sum "Si O2"
_cell_formula_units_Z 12
_cell_length_a 7.657821
_cell_length_b 12.946307
_cell_length_c 6.795238
_cell_angle_alpha 90.000000
_cell_angle_beta 140.253365
_cell_angle_gamma 90.000000
_cell_volume 430.748959
_symmetry_space_group_name_H-M "P 21/C"
_symmetry_group_IT_number 14
_symmetry_cell_setting 'monoclinic'
loop_
_space_group_symop_operation_xyz
x,y,z
-x,1/2+y,1/2-z
-x,-y,-z
x,1/2-y,1/2+z
loop_
_atom_site_type_symbol
_atom_site_label
_atom_site_fract_x
_atom_site_fract_y
_atom_site_fract_z
Si Si1 0.193242 0.403681 0.702159
Si Si2 0.418480 0.905878 0.792307
Si Si3 0.143840 0.319099 0.086201
O O1 0.487766 0.425695 0.852808
O O2 0.224866 0.382979 0.961539
O O3 0.060886 0.300790 0.482908
O O4 0.000000 0.500000 0.500000
O O5 0.099956 0.881530 0.520034
O O6 0.595458 0.812262 0.040666
O O7 0.500000 0.000000 0.000000
#
# Coordination Sequence:
#
# PCOD8129499 Si02
#       3
#     4   4   4
#     4  12  28  50  82 114 154 207 254 317 385 453
#     4  12  28  50  79 114 155 200 261 314 383 457
#     4  12  29  50  75 116 156 200 255 318 380 457
#
# _framework density 27.858453000000001
#
# number of rings (size 3 to 8) (size 9 to 14) (size 15 to 20)
#    0.000    0.000    6.667    1.000    4.667    4.000 
#    0.000    0.000    0.000    0.000    0.000    0.000 
#    0.000    0.000    0.000    0.000    0.000    0.000 
#
# Total GULP energy -148804.134367 kJ/mol
# GULP energy per Si atom -12400.344531 kJ/mol
# Density = 2.779505 g / cm^3
# Si number density = 27.858453 Si / 1000 Ang^3
#
#
#
# Elastic Constant Matrix: (Units=GPa)
#
#
# Indices 1 2 3 4 5 6 
#
# 1 257.4793 14.6824 26.8027 0.0000 -6.1263 0.0000
# 2 14.6824 84.8221 -22.9147 0.0000 4.6238 0.0000
# 3 26.8027 -22.9147 64.0929 0.0000 -9.2527 0.0000
# 4 0.0000 0.0000 0.0000 21.0585 0.0000 -11.4473
# 5 -6.1263 4.6238 -9.2527 0.0000 48.9695 0.0000
# 6 0.0000 0.0000 0.0000 -11.4473 0.0000 53.8601
#
#
#
# Elastic Compliance Matrix: (Units=1/GPa)
#
#
# Indices 1 2 3 4 5 6 
#
# 1 0.004194 -0.001332 -0.002196 0.000000 0.000236 0.000000
# 2 -0.001332 0.013479 0.005313 0.000000 -0.000435 0.000000
# 3 -0.002196 0.005313 0.018822 0.000000 0.002780 0.000000
# 4 0.000000 0.000000 0.000000 0.053690 0.000000 0.011411
# 5 0.000236 -0.000435 0.002780 0.000000 0.021017 0.000000
# 6 0.000000 0.000000 0.000000 0.011411 0.000000 0.020992
#
#
# Mechanical properties :
#
#
# Convention : Reuss Voigt Hill
#
# Bulk Modulus (GPa) = 24.95952 49.28168 37.12060
# Shear Modulus (GPa) = 35.21670 50.63253 42.92462
#
# Velocity S-wave (km/s) = 3.55932 4.26783 3.92958
# Velocity P-wave (km/s) = 5.08631 6.48184 5.82601
#
# Compressibility (1/GPa) = 0.04006488
#
# Stress axis : x y z
#
# Youngs Moduli (GPa) = 238.43709 74.18906 53.13029
#
# Poissons Ratio (x) = 0.09883 0.11668
# Poissons Ratio (y) = 0.31762 -0.28230
# Poissons Ratio (z) = 0.52363 -0.39419
#
# Static dielectric constant tensor:
#      x y z
#    x 5.553530 0.000000 -0.090720 
#    y 0.000000 6.009890 0.000000 
#    z -0.090720 0.000000 5.263320 
# 
# 
# High freq. dielectric constant tensor:
#      x y z
#    x 2.153460 0.000000 -0.014380 
#    y 0.000000 2.159650 0.000000 
#    z -0.014380 0.000000 2.101480 
# 
# From -- ./inp_files/4747.got.cif
#   From: 2010.03.12/outbox.cif.g09.slc.cpg/sg14_3_cif.got.tgz:4747.got - 2010.03.31 13:35:05.
