data_PCOD8129426
_publ_section_title
;
Structure prediction by ZEFSAII (Michael W. Deem and Ramdas Pophale) SiO2 
 PCOD8129426
Probable space group: P 21/C
;
_chemical_formula_sum "Si O2"
_cell_formula_units_Z 20
_cell_length_a 30.579794
_cell_length_b 4.824276
_cell_length_c 18.601970
_cell_angle_alpha 90.000000
_cell_angle_beta 17.267700
_cell_angle_gamma 90.000000
_cell_volume 814.597501
_symmetry_space_group_name_H-M "P 21/C"
_symmetry_group_IT_number 14
_symmetry_cell_setting 'monoclinic'
loop_
_space_group_symop_operation_xyz
x,y,z
-x,1/2+y,1/2-z
-x,-y,-z
x,1/2-y,1/2+z
loop_
_atom_site_type_symbol
_atom_site_label
_atom_site_fract_x
_atom_site_fract_y
_atom_site_fract_z
Si Si1 0.442593 0.395634 0.800461
Si Si2 0.946895 0.323462 0.224779
Si Si3 0.879815 0.858396 0.240068
Si Si4 0.600916 0.485580 0.410039
Si Si5 0.806642 0.528088 0.588525
O O1 0.459298 0.625034 0.836379
O O2 0.501288 0.542663 0.635960
O O3 0.272834 0.291952 0.060907
O O4 0.952762 0.581591 0.160191
O O5 0.911871 0.432188 0.358719
O O6 0.834701 0.090520 0.370879
O O7 0.099406 0.143881 0.990855
O O8 0.000000 0.000000 0.000000
O O9 0.500000 0.500000 0.500000
O O10 0.693258 0.213134 0.285205
O O11 0.712879 0.717434 0.209765
#
# Coordination Sequence:
#
# PCOD8129426 Si02
#       5
#     4   4   4   4   4
#     4  12  28  49  75 111 154 201 258 314 387 468
#     4  12  25  47  72 112 150 191 259 313 386 448
#     4  12  28  48  76 105 155 204 256 310 383 465
#     4  12  26  46  76 108 152 199 258 311 396 461
#     4  12  25  44  77 109 146 196 249 326 380 458
#
# _framework density 24.552005000000001
#
# number of rings (size 3 to 8) (size 9 to 14) (size 15 to 20)
#    0.000    0.000    0.000   10.800    8.400    0.000 
#    0.000    0.000    0.000    0.000    0.000    0.000 
#    0.000    0.000    0.000    0.000    0.000    0.000 
#
# Total GULP energy -247854.190267 kJ/mol
# GULP energy per Si atom -12392.709513 kJ/mol
# Density = 2.449612 g / cm^3
# Si number density = 24.552005 Si / 1000 Ang^3
#
#
#
# Elastic Constant Matrix: (Units=GPa)
#
#
# Indices 1 2 3 4 5 6 
#
# 1 134.4062 54.9830 49.8203 0.0000 -20.2453 0.0000
# 2 54.9830 165.8619 33.1828 0.0000 -23.9050 0.0000
# 3 49.8203 33.1828 101.9264 0.0000 -16.6209 0.0000
# 4 0.0000 0.0000 0.0000 48.6490 0.0000 -9.2714
# 5 -20.2453 -23.9050 -16.6209 0.0000 37.4015 0.0000
# 6 0.0000 0.0000 0.0000 -9.2714 0.0000 66.0787
#
#
#
# Elastic Compliance Matrix: (Units=1/GPa)
#
#
# Indices 1 2 3 4 5 6 
#
# 1 0.010139 -0.002255 -0.003840 0.000000 0.002340 0.000000
# 2 -0.002255 0.007389 -0.000789 0.000000 0.003151 0.000000
# 3 -0.003840 -0.000789 0.012424 0.000000 0.002938 0.000000
# 4 0.000000 0.000000 0.000000 0.021120 0.000000 0.002963
# 5 0.002340 0.003151 0.002938 0.000000 0.031323 0.000000
# 6 0.000000 0.000000 0.000000 0.002963 0.000000 0.015549
#
#
# Mechanical properties :
#
#
# Convention : Reuss Voigt Hill
#
# Bulk Modulus (GPa) = 61.79544 75.35184 68.57364
# Shear Modulus (GPa) = 42.69608 48.03973 45.36791
#
# Velocity S-wave (km/s) = 4.17466 4.42820 4.30330
# Velocity P-wave (km/s) = 6.96139 7.54339 7.25822
#
# Compressibility (1/GPa) = 0.01618242
#
# Stress axis : x y z
#
# Youngs Moduli (GPa) = 98.63356 135.33969 80.49018
#
# Poissons Ratio (x) = 0.30525 0.30906
# Poissons Ratio (y) = 0.22246 0.06352
# Poissons Ratio (z) = 0.37872 0.10681
#
# Static dielectric constant tensor:
#      x y z
#    x 4.650410 0.000000 -0.227010 
#    y 0.000000 4.822420 0.000000 
#    z -0.227010 0.000000 4.586670 
# 
# 
# High freq. dielectric constant tensor:
#      x y z
#    x 1.993980 0.000000 -0.010300 
#    y 0.000000 1.996650 0.000000 
#    z -0.010300 0.000000 1.970630 
# 
# From -- ./inp_files/62400.got.cif
#   From: 2010.03.12/outbox.cif.g09.slc.cpg/sg14_32_cif.got.tgz:62400.got - 2010.03.31 13:35:05.
