data_PCOD8129417
_publ_section_title
;
Structure prediction by ZEFSAII (Michael W. Deem and Ramdas Pophale) SiO2 
 PCOD8129417
Probable space group: P 21/C
;
_chemical_formula_sum "Si O2"
_cell_formula_units_Z 16
_cell_length_a 11.122231
_cell_length_b 7.704564
_cell_length_c 11.605379
_cell_angle_alpha 90.000000
_cell_angle_beta 39.470354
_cell_angle_gamma 90.000000
_cell_volume 632.174668
_symmetry_space_group_name_H-M "P 21/C"
_symmetry_group_IT_number 14
_symmetry_cell_setting 'monoclinic'
loop_
_space_group_symop_operation_xyz
x,y,z
-x,1/2+y,1/2-z
-x,-y,-z
x,1/2-y,1/2+z
loop_
_atom_site_type_symbol
_atom_site_label
_atom_site_fract_x
_atom_site_fract_y
_atom_site_fract_z
Si Si1 0.656160 0.215569 0.172184
Si Si2 0.948106 0.537121 0.364043
Si Si3 0.642946 0.993253 0.499066
Si Si4 0.891198 0.392124 0.174570
O O1 0.667849 0.321079 0.044451
O O2 0.699179 0.324566 0.256662
O O3 0.443767 0.140460 0.342803
O O4 0.816627 0.064293 0.052771
O O5 0.973366 0.735159 0.383050
O O6 0.844063 0.519343 0.316342
O O7 0.151916 0.440479 0.199934
O O8 0.500000 0.000000 0.500000
O O9 0.000000 0.500000 0.000000
#
# Coordination Sequence:
#
# PCOD8129417 Si02
#       4
#     4   4   4   4
#     4  12  27  47  74 112 149 200 246 305 368 437
#     4  12  25  48  76 105 152 193 250 303 368 438
#     4  12  27  47  73 110 149 193 251 304 370 437
#     4  12  24  48  77 110 143 200 244 301 376 438
#
# _framework density 25.309463000000001
#
# number of rings (size 3 to 8) (size 9 to 14) (size 15 to 20)
#    0.000    0.000    7.500    0.750    3.500    0.000 
#    4.500    2.500    0.000    0.000    0.000    0.000 
#    0.000    0.000    0.000    0.000    0.000    0.000 
#
# Total GULP energy -198387.830771 kJ/mol
# GULP energy per Si atom -12399.239423 kJ/mol
# Density = 2.525186 g / cm^3
# Si number density = 25.309463 Si / 1000 Ang^3
#
#
#
# Elastic Constant Matrix: (Units=GPa)
#
#
# Indices 1 2 3 4 5 6 
#
# 1 108.6219 46.6687 25.1657 0.0000 15.6658 0.0000
# 2 46.6687 114.9942 27.9902 0.0000 6.5881 0.0000
# 3 25.1657 27.9902 115.8198 0.0000 -12.3810 0.0000
# 4 0.0000 0.0000 0.0000 33.3370 0.0000 11.0436
# 5 15.6658 6.5881 -12.3810 0.0000 43.4929 0.0000
# 6 0.0000 0.0000 0.0000 11.0436 0.0000 49.8281
#
#
#
# Elastic Compliance Matrix: (Units=1/GPa)
#
#
# Indices 1 2 3 4 5 6 
#
# 1 0.012098 -0.004154 -0.002087 0.000000 -0.004322 0.000000
# 2 -0.004154 0.010856 -0.001791 0.000000 -0.000658 0.000000
# 3 -0.002087 -0.001791 0.009932 0.000000 0.003850 0.000000
# 4 0.000000 0.000000 0.000000 0.032374 0.000000 -0.007175
# 5 -0.004322 -0.000658 0.003850 0.000000 0.025745 0.000000
# 6 0.000000 0.000000 0.000000 -0.007175 0.000000 0.021659
#
#
# Mechanical properties :
#
#
# Convention : Reuss Voigt Hill
#
# Bulk Modulus (GPa) = 59.44859 59.89834 59.67346
# Shear Modulus (GPa) = 37.22044 41.30569 39.26307
#
# Velocity S-wave (km/s) = 3.83902 4.04422 3.94295
# Velocity P-wave (km/s) = 6.57194 6.74725 6.66017
#
# Compressibility (1/GPa) = 0.01682126
#
# Stress axis : x y z
#
# Youngs Moduli (GPa) = 82.65878 92.11759 100.68476
#
# Poissons Ratio (x) = 0.38267 0.21011
# Poissons Ratio (y) = 0.34338 0.18035
# Poissons Ratio (z) = 0.17249 0.16500
#
# Static dielectric constant tensor:
#      x y z
#    x 5.427610 0.000000 -0.021570 
#    y 0.000000 5.165720 0.000000 
#    z -0.021570 0.000000 4.765430 
# 
# 
# High freq. dielectric constant tensor:
#      x y z
#    x 2.019580 0.000000 0.016340 
#    y 0.000000 2.005780 0.000000 
#    z 0.016340 0.000000 2.011740 
# 
# From -- ./inp_files/27683.got.cif
#   From: 2010.03.12/outbox.cif.g09.slc.cpg/sg14_14_cif.got.tgz:27683.got - 2010.03.31 13:35:05.
