data_PCOD8129204
_publ_section_title
;
Structure prediction by ZEFSAII (Michael W. Deem and Ramdas Pophale) SiO2 
 PCOD8129204
Probable space group: P 21/C
;
_chemical_formula_sum "Si O2"
_cell_formula_units_Z 20
_cell_length_a 20.207776
_cell_length_b 5.859972
_cell_length_c 14.660173
_cell_angle_alpha 90.000000
_cell_angle_beta 151.837223
_cell_angle_gamma 90.000000
_cell_volume 819.360486
_symmetry_space_group_name_H-M "P 21/C"
_symmetry_group_IT_number 14
_symmetry_cell_setting 'monoclinic'
loop_
_space_group_symop_operation_xyz
x,y,z
-x,1/2+y,1/2-z
-x,-y,-z
x,1/2-y,1/2+z
loop_
_atom_site_type_symbol
_atom_site_label
_atom_site_fract_x
_atom_site_fract_y
_atom_site_fract_z
Si Si1 0.211368 0.293024 0.026778
Si Si2 0.065114 0.967181 0.730868
Si Si3 0.426913 0.090562 0.651524
Si Si4 0.100478 0.705809 0.603225
Si Si5 0.351234 0.433104 0.858685
O O1 0.307634 0.459206 0.082685
O O2 0.282788 0.262671 0.212335
O O3 0.194735 0.060086 0.948052
O O4 0.050952 0.372755 0.840258
O O5 0.983167 0.135390 0.565387
O O6 0.138461 0.792783 0.750737
O O7 0.499247 0.337944 0.767976
O O8 0.363154 0.158588 0.475887
O O9 0.245853 0.647107 0.729274
O O10 0.000000 0.500000 0.500000
O O11 0.500000 0.500000 0.000000
#
# Coordination Sequence:
#
# PCOD8129204 Si02
#       5
#     4   4   4   4   4
#     4  12  27  47  78 115 156 209 272 334 405 482
#     4  11  27  45  77 111 154 210 267 337 396 479
#     4  12  31  53  80 114 162 214 266 332 408 493
#     4  11  24  49  75 109 153 207 270 329 401 480
#     4  12  27  48  78 115 157 213 265 333 408 484
#
# _framework density 24.409282000000001
#
# number of rings (size 3 to 8) (size 9 to 14) (size 15 to 20)
#    0.000    0.400    4.000    2.400   11.200    0.800 
#    0.000    0.000    0.000    0.000    0.000    0.000 
#    0.000    0.000    0.000    0.000    0.000    0.000 
#
# Total GULP energy -247771.255305 kJ/mol
# GULP energy per Si atom -12388.562765 kJ/mol
# Density = 2.435373 g / cm^3
# Si number density = 24.409282 Si / 1000 Ang^3
#
#
#
# Elastic Constant Matrix: (Units=GPa)
#
#
# Indices 1 2 3 4 5 6 
#
# 1 129.6335 1.3581 9.3649 0.0000 -0.2352 0.0000
# 2 1.3581 70.7981 -2.7740 0.0000 -3.0298 0.0000
# 3 9.3649 -2.7740 73.7835 0.0000 -16.5810 0.0000
# 4 0.0000 0.0000 0.0000 19.9043 0.0000 -9.4061
# 5 -0.2352 -3.0298 -16.5810 0.0000 65.1142 0.0000
# 6 0.0000 0.0000 0.0000 -9.4061 0.0000 41.3529
#
#
#
# Elastic Compliance Matrix: (Units=1/GPa)
#
#
# Indices 1 2 3 4 5 6 
#
# 1 0.007792 -0.000201 -0.001053 0.000000 -0.000249 0.000000
# 2 -0.000201 0.014194 0.000750 0.000000 0.000851 0.000000
# 3 -0.001053 0.000750 0.014555 0.000000 0.003737 0.000000
# 4 0.000000 0.000000 0.000000 0.056291 0.000000 0.012804
# 5 -0.000249 0.000851 0.003737 0.000000 0.016348 0.000000
# 6 0.000000 0.000000 0.000000 0.012804 0.000000 0.027094
#
#
# Mechanical properties :
#
#
# Convention : Reuss Voigt Hill
#
# Bulk Modulus (GPa) = 28.14209 32.23480 30.18845
# Shear Modulus (GPa) = 33.52863 43.02535 38.27699
#
# Velocity S-wave (km/s) = 3.71023 4.20296 3.96426
# Velocity P-wave (km/s) = 5.46889 6.06530 5.77480
#
# Compressibility (1/GPa) = 0.03553396
#
# Stress axis : x y z
#
# Youngs Moduli (GPa) = 128.34087 70.45057 68.70560
#
# Poissons Ratio (x) = 0.01419 0.07232
# Poissons Ratio (y) = 0.02584 -0.05156
# Poissons Ratio (z) = 0.13508 -0.05287
#
# Static dielectric constant tensor:
#      x y z
#    x 4.758990 0.000000 -0.027840 
#    y 0.000000 4.183610 0.000000 
#    z -0.027840 0.000000 4.284600 
# 
# 
# High freq. dielectric constant tensor:
#      x y z
#    x 2.001200 0.000000 -0.007110 
#    y 0.000000 1.957590 0.000000 
#    z -0.007110 0.000000 1.975870 
# 
# From -- ./inp_files/49571.got.cif
#   From: 2010.03.12/outbox.cif.g09.slc.cpg/sg14_25_cif.got.tgz:49571.got - 2010.03.31 13:35:05.
