data_PCOD8129917
_publ_section_title
;
Structure prediction by ZEFSAII (Michael W. Deem and Ramdas Pophale) SiO2 
 PCOD8129917
Probable space group: C 2/C
;
_chemical_formula_sum "Si O2"
_cell_formula_units_Z 52
_cell_length_a 12.081753
_cell_length_b 13.126411
_cell_length_c 21.300334
_cell_angle_alpha 90.000000
_cell_angle_beta 48.304126
_cell_angle_gamma 90.000000
_cell_volume 2522.321388
_symmetry_space_group_name_H-M "C 2/C"
_symmetry_group_IT_number 15
_symmetry_cell_setting 'monoclinic'
loop_
_space_group_symop_operation_xyz
x,y,z
-x,y,1/2-z
-x,-y,-z
x,-y,1/2+z
1/2+x,1/2+y,z
1/2-x,1/2+y,1/2-z
1/2-x,1/2-y,-z
1/2+x,1/2-y,1/2+z
loop_
_atom_site_type_symbol
_atom_site_label
_atom_site_fract_x
_atom_site_fract_y
_atom_site_fract_z
Si Si1 0.733285 0.847541 0.843682
Si Si2 0.150864 0.985210 0.593353
Si Si3 0.653814 0.436541 0.825841
Si Si4 0.804072 0.283578 0.153781
Si Si5 0.000000 0.126786 0.750000
Si Si6 0.647848 0.866823 0.232959
Si Si7 0.571431 0.094005 0.007553
O O1 0.817437 0.912499 0.758741
O O2 0.770889 0.728815 0.829625
O O3 0.781561 0.890458 0.893189
O O4 0.554495 0.857568 0.900333
O O5 0.284835 0.048814 0.509209
O O6 0.064781 0.060648 0.670639
O O7 0.023173 0.949812 0.593749
O O8 0.693286 0.338169 0.851412
O O9 0.747494 0.534321 0.811366
O O10 0.631027 0.306062 0.229486
O O11 0.889910 0.335012 0.180741
O O12 0.873877 0.323949 0.063590
O O13 0.500000 0.892004 0.250000
O O14 0.500000 0.000000 0.000000
#
# Coordination Sequence:
#
# PCOD8129917 Si02
#       7
#     8   8   8   8   4   8   8
#     4  10  19  36  60  85 114 145 196 245 284 330
#     4  10  16  33  59  81 104 145 194 237 271 332
#     4  11  20  35  57  84 115 151 193 230 290 349
#     4  10  21  35  59  84 110 146 197 236 286 330
#     4  10  16  32  58  78 102 138 196 236 264 322
#     4  11  22  36  55  86 118 153 189 234 289 350
#     4   9  19  35  60  87 111 142 197 251 285 321
#
# _framework density 20.615929999999999
#
# number of rings (size 3 to 8) (size 9 to 14) (size 15 to 20)
#    0.000    1.846    3.077    3.692    1.077    0.000 
#    0.000   10.000    0.000    0.000    0.000    0.000 
#    0.000    0.000    0.000    0.000    0.000    0.000 
#
# Total GULP energy -322194.131301 kJ/mol
# GULP energy per Si atom -12392.081973 kJ/mol
# Density = 2.056901 g / cm^3
# Si number density = 20.615930 Si / 1000 Ang^3
#
#
#
# Elastic Constant Matrix: (Units=GPa)
#
#
# Indices 1 2 3 4 5 6 
#
# 1 88.5200 46.5627 19.8109 0.0000 -26.2060 0.0000
# 2 46.5627 147.7139 21.3934 0.0000 -20.4420 0.0000
# 3 19.8109 21.3934 53.5418 0.0001 -27.6800 0.0000
# 4 0.0000 0.0000 0.0001 14.5170 0.0000 -4.6449
# 5 -26.2060 -20.4420 -27.6800 0.0000 32.3811 0.0000
# 6 0.0000 0.0000 0.0000 -4.6449 0.0000 29.0676
#
#
#
# Elastic Compliance Matrix: (Units=1/GPa)
#
#
# Indices 1 2 3 4 5 6 
#
# 1 0.016605 -0.003754 0.001932 0.000000 0.012720 0.000000
# 2 -0.003754 0.008295 -0.001413 0.000000 0.000990 0.000000
# 3 0.001932 -0.001413 0.033820 0.000000 0.029581 0.000000
# 4 0.000000 0.000000 0.000000 0.072596 0.000000 0.011601
# 5 0.012720 0.000990 0.029581 0.000000 0.067088 0.000000
# 6 0.000000 0.000000 0.000000 0.011601 0.000000 0.036256
#
#
# Mechanical properties :
#
#
# Convention : Reuss Voigt Hill
#
# Bulk Modulus (GPa) = 19.13921 51.70108 35.42014
# Shear Modulus (GPa) = 19.33890 28.66040 23.99965
#
# Velocity S-wave (km/s) = 3.06609 3.73259 3.41564
# Velocity P-wave (km/s) = 4.67316 6.61128 5.72483
#
# Compressibility (1/GPa) = 0.05224877
#
# Stress axis : x y z
#
# Youngs Moduli (GPa) = 60.22396 120.55670 29.56868
#
# Poissons Ratio (x) = 0.45253 -0.05712
# Poissons Ratio (y) = 0.22606 0.04179
# Poissons Ratio (z) = -0.11635 0.17039
#
# Static dielectric constant tensor:
#      x y z
#    x 4.372810 0.000000 -1.145380 
#    y 0.000000 3.098530 0.000000 
#    z -1.145380 0.000000 4.287550 
# 
# 
# High freq. dielectric constant tensor:
#      x y z
#    x 1.794060 0.000000 -0.038990 
#    y 0.000000 1.819060 0.000000 
#    z -0.038990 0.000000 1.781390 
# 
# From -- ./inp_files/236909.got.cif
#   From: 2010.06.25/outbox.cif.g09.slc.cpg/sg15_119_cif.got.tgz:236909.got - 2010.06.28 07:06:18.
