data_PCOD8129722
_publ_section_title
;
Structure prediction by ZEFSAII (Michael W. Deem and Ramdas Pophale) SiO2 
 PCOD8129722
Probable space group: C 2/C
;
_chemical_formula_sum "Si O2"
_cell_formula_units_Z 40
_cell_length_a 18.019724
_cell_length_b 5.001614
_cell_length_c 23.718415
_cell_angle_alpha 90.000000
_cell_angle_beta 110.786202
_cell_angle_gamma 90.000000
_cell_volume 1998.546776
_symmetry_space_group_name_H-M "C 2/C"
_symmetry_group_IT_number 15
_symmetry_cell_setting 'monoclinic'
loop_
_space_group_symop_operation_xyz
x,y,z
-x,y,1/2-z
-x,-y,-z
x,-y,1/2+z
1/2+x,1/2+y,z
1/2-x,1/2+y,1/2-z
1/2-x,1/2-y,-z
1/2+x,1/2-y,1/2+z
loop_
_atom_site_type_symbol
_atom_site_label
_atom_site_fract_x
_atom_site_fract_y
_atom_site_fract_z
Si Si1 0.290366 0.624387 0.911119
Si Si2 0.922737 0.890996 0.694933
Si Si3 0.327797 0.153731 0.987932
Si Si4 0.235004 0.787574 0.781883
Si Si5 0.113916 0.419102 0.882571
O O1 0.347048 0.376425 0.945068
O O2 0.297959 0.696483 0.847108
O O3 0.199892 0.547131 0.897249
O O4 0.313799 0.872836 0.955403
O O5 0.892276 0.138537 0.650348
O O6 0.000000 0.978807 0.750000
O O7 0.854545 0.804303 0.719913
O O8 0.945476 0.640468 0.660023
O O9 0.250000 0.250000 0.000000
O O10 0.398784 0.126363 0.053452
O O11 0.236962 0.576453 0.731745
#
# Coordination Sequence:
#
# PCOD8129722 Si02
#       5
#     8   8   8   8   8
#     4  10  18  29  47  75 105 132 165 212 262 307
#     4  11  22  36  53  78 108 140 175 213 255 308
#     4  10  16  27  47  74 104 132 160 211 271 307
#     4  11  21  35  53  77 106 139 174 213 255 306
#     4  10  18  31  50  76 106 135 168 215 263 308
#
# _framework density 20.014541000000001
#
# number of rings (size 3 to 8) (size 9 to 14) (size 15 to 20)
#    0.000    1.600    0.000   12.600    0.000    0.000 
#    0.000    0.000    0.000    0.000    0.000   28.000 
#    0.000    0.000    0.000    0.000    0.000    0.000 
#
# Total GULP energy -247896.525648 kJ/mol
# GULP energy per Si atom -12394.826282 kJ/mol
# Density = 1.996899 g / cm^3
# Si number density = 20.014541 Si / 1000 Ang^3
#
#
#
# Elastic Constant Matrix: (Units=GPa)
#
#
# Indices 1 2 3 4 5 6 
#
# 1 30.9430 18.9751 31.3270 0.0000 3.9229 -0.0005
# 2 18.9751 109.7485 26.7415 0.0010 7.0530 -0.0013
# 3 31.3270 26.7415 120.8957 -0.0004 7.4977 0.0003
# 4 0.0000 0.0010 -0.0004 52.7731 -0.0002 -1.3419
# 5 3.9229 7.0530 7.4977 -0.0002 11.9328 0.0006
# 6 -0.0005 -0.0013 0.0003 -1.3419 0.0006 9.8747
#
#
#
# Elastic Compliance Matrix: (Units=1/GPa)
#
#
# Indices 1 2 3 4 5 6 
#
# 1 0.047028 -0.005160 -0.010692 0.000000 -0.005693 0.000003
# 2 -0.005160 0.010438 -0.000723 0.000000 -0.004019 0.000001
# 3 -0.010692 -0.000723 0.011402 0.000000 -0.003222 -0.000001
# 4 0.000000 0.000000 0.000000 0.019015 0.000000 0.002584
# 5 -0.005693 -0.004019 -0.003222 0.000000 0.090074 -0.000006
# 6 0.000003 0.000001 -0.000001 0.002584 -0.000006 0.101620
#
#
# Mechanical properties :
#
#
# Convention : Reuss Voigt Hill
#
# Bulk Modulus (GPa) = 27.99598 46.18605 37.09101
# Shear Modulus (GPa) = 15.40211 27.21904 21.31058
#
# Velocity S-wave (km/s) = 2.77708 3.69177 3.26660
# Velocity P-wave (km/s) = 4.92961 6.42639 5.72711
#
# Compressibility (1/GPa) = 0.03571942
#
# Stress axis : x y z
#
# Youngs Moduli (GPa) = 21.26407 95.80159 87.70629
#
# Poissons Ratio (x) = 0.49433 0.93772
# Poissons Ratio (y) = 0.10972 0.06337
# Poissons Ratio (z) = 0.22735 0.06922
#
# Static dielectric constant tensor:
#      x y z
#    x 3.188510 0.000050 -1.437340 
#    y 0.000050 4.117160 -0.000250 
#    z -1.437340 -0.000250 12.362760 
# 
# 
# High freq. dielectric constant tensor:
#      x y z
#    x 1.686890 0.000000 0.001440 
#    y 0.000000 1.813040 0.000000 
#    z 0.001440 0.000000 1.814750 
# 
# From -- ./inp_files/246312.got.cif
#   From: 2010.06.25/outbox.cif.g09.slc.cpg/sg15_124_cif.got.tgz:246312.got - 2010.06.28 07:06:18.
