data_PCOD8129226
_publ_section_title
;
Structure prediction by ZEFSAII (Michael W. Deem and Ramdas Pophale) SiO2 
 PCOD8129226
Probable space group: P 21/C
;
_chemical_formula_sum "Si O2"
_cell_formula_units_Z 24
_cell_length_a 12.471404
_cell_length_b 9.970104
_cell_length_c 18.491953
_cell_angle_alpha 90.000000
_cell_angle_beta 29.440302
_cell_angle_gamma 90.000000
_cell_volume 1130.149433
_symmetry_space_group_name_H-M "P 21/C"
_symmetry_group_IT_number 14
_symmetry_cell_setting 'monoclinic'
loop_
_space_group_symop_operation_xyz
x,y,z
-x,1/2+y,1/2-z
-x,-y,-z
x,1/2-y,1/2+z
loop_
_atom_site_type_symbol
_atom_site_label
_atom_site_fract_x
_atom_site_fract_y
_atom_site_fract_z
Si Si1 0.664501 0.410968 0.268313
Si Si2 0.546148 0.785143 0.499402
Si Si3 0.343421 0.048842 0.830024
Si Si4 0.068283 0.704609 0.472806
Si Si5 0.901405 0.851313 0.702823
Si Si6 0.643623 0.056839 0.519732
O O1 0.606151 0.322164 0.371884
O O2 0.451928 0.436082 0.344417
O O3 0.857305 0.340846 0.109741
O O4 0.744703 0.554666 0.247852
O O5 0.773413 0.716503 0.344084
O O6 0.420716 0.834153 0.502020
O O7 0.587952 0.906929 0.528950
O O8 0.515075 0.093894 0.668265
O O9 0.272865 0.895999 0.856422
O O10 0.130469 0.142504 0.955974
O O11 0.990262 0.732422 0.599990
O O12 0.098542 0.937521 0.619364
#
# Coordination Sequence:
#
# PCOD8129226 Si02
#       6
#     4   4   4   4   4   4
#     4  12  27  43  75 105 138 176 235 285 334 408
#     4  11  27  48  68 102 142 179 227 281 351 404
#     4  11  25  45  74 100 137 185 225 288 341 398
#     4  11  25  44  71 104 136 179 231 278 346 406
#     4  12  27  43  72 104 136 181 231 283 337 411
#     4  11  25  47  72  97 142 185 221 288 345 400
#
# _framework density 21.236131
#
# number of rings (size 3 to 8) (size 9 to 14) (size 15 to 20)
#    0.000    0.667    5.000    1.000    9.333    1.333 
#    0.000    0.000    0.000    0.000    0.000    0.000 
#    0.000    0.000    0.000    0.000    0.000    0.000 
#
# Total GULP energy -297833.884225 kJ/mol
# GULP energy per Si atom -12409.745176 kJ/mol
# Density = 2.118780 g / cm^3
# Si number density = 21.236131 Si / 1000 Ang^3
#
#
#
# Elastic Constant Matrix: (Units=GPa)
#
#
# Indices 1 2 3 4 5 6 
#
# 1 102.5721 29.1903 29.3099 0.0000 -14.4134 0.0000
# 2 29.1903 67.5650 25.5401 0.0000 -5.0271 0.0000
# 3 29.3099 25.5401 100.1925 0.0000 2.7661 0.0000
# 4 0.0000 0.0000 0.0000 43.8592 0.0000 4.1421
# 5 -14.4134 -5.0271 2.7661 0.0000 35.9134 0.0000
# 6 0.0000 0.0000 0.0000 4.1421 0.0000 14.4987
#
#
#
# Elastic Compliance Matrix: (Units=1/GPa)
#
#
# Indices 1 2 3 4 5 6 
#
# 1 0.012293 -0.003942 -0.002718 0.000000 0.004591 0.000000
# 2 -0.003942 0.017893 -0.003441 0.000000 0.001188 0.000000
# 3 -0.002718 -0.003441 0.011721 0.000000 -0.002475 0.000000
# 4 0.000000 0.000000 0.000000 0.023432 0.000000 -0.006694
# 5 0.004591 0.001188 -0.002475 0.000000 0.030044 0.000000
# 6 0.000000 0.000000 0.000000 -0.006694 0.000000 0.070884
#
#
# Mechanical properties :
#
#
# Convention : Reuss Voigt Hill
#
# Bulk Modulus (GPa) = 46.07106 48.71223 47.39165
# Shear Modulus (GPa) = 25.81257 31.27355 28.54306
#
# Velocity S-wave (km/s) = 3.49019 3.84169 3.67015
# Velocity P-wave (km/s) = 6.16309 6.53194 6.35019
#
# Compressibility (1/GPa) = 0.02170560
#
# Stress axis : x y z
#
# Youngs Moduli (GPa) = 81.34804 55.88920 85.31483
#
# Poissons Ratio (x) = 0.22031 0.23189
# Poissons Ratio (y) = 0.32067 0.29354
# Poissons Ratio (z) = 0.22111 0.19229
#
# Static dielectric constant tensor:
#      x y z
#    x 3.775520 0.000000 0.014690 
#    y 0.000000 3.821850 0.000000 
#    z 0.014690 0.000000 3.884540 
# 
# 
# High freq. dielectric constant tensor:
#      x y z
#    x 1.835020 0.000000 0.000260 
#    y 0.000000 1.840740 0.000000 
#    z 0.000260 0.000000 1.843810 
# 
# From -- ./inp_files/57654.got.cif
#   From: 2010.03.12/outbox.cif.g09.slc.cpg/sg14_29_cif.got.tgz:57654.got - 2010.03.31 13:35:05.
