data_PCOD8129406
_publ_section_title
;
Structure prediction by ZEFSAII (Michael W. Deem and Ramdas Pophale) SiO2 
 PCOD8129406
Probable space group: P 21/C
;
_chemical_formula_sum "Si O2"
_cell_formula_units_Z 32
_cell_length_a 11.458194
_cell_length_b 17.628600
_cell_length_c 14.221244
_cell_angle_alpha 90.000000
_cell_angle_beta 149.252018
_cell_angle_gamma 90.000000
_cell_volume 1468.641483
_symmetry_space_group_name_H-M "P 21/C"
_symmetry_group_IT_number 14
_symmetry_cell_setting 'monoclinic'
loop_
_space_group_symop_operation_xyz
x,y,z
-x,1/2+y,1/2-z
-x,-y,-z
x,1/2-y,1/2+z
loop_
_atom_site_type_symbol
_atom_site_label
_atom_site_fract_x
_atom_site_fract_y
_atom_site_fract_z
Si Si1 0.129316 0.078739 0.601449
Si Si2 0.175682 0.818289 0.740723
Si Si3 0.732206 0.969994 0.617037
Si Si4 0.913979 0.693507 0.255321
Si Si5 0.503080 0.051991 0.724389
Si Si6 0.137868 0.429139 0.470998
Si Si7 0.316353 0.350415 0.413247
Si Si8 0.159687 0.826568 0.110806
O O1 0.390361 0.072753 0.745622
O O2 0.159312 0.103670 0.730458
O O3 0.993026 0.141240 0.448628
O O4 0.000000 0.000000 0.500000
O O5 0.228347 0.735758 0.734982
O O6 0.061628 0.811804 0.763184
O O7 0.414008 0.863273 0.917900
O O8 0.782791 0.884652 0.685201
O O9 0.706444 0.974387 0.486547
O O10 0.500000 0.000000 0.500000
O O11 0.936357 0.024520 0.784326
O O12 0.733485 0.761103 0.125405
O O13 0.082771 0.710201 0.459121
O O14 0.614646 0.124585 0.751847
O O15 0.686816 0.986213 0.860078
O O16 0.263177 0.378678 0.480696
O O17 0.046327 0.376917 0.491120
#
# Coordination Sequence:
#
# PCOD8129406 Si02
#       8
#     4   4   4   4   4   4   4   4
#     4  12  27  49  73 104 144 197 247 296 362 439
#     4  12  27  49  71 105 147 188 241 298 360 441
#     4  12  24  43  76 105 142 186 236 301 367 426
#     4  12  25  49  72 104 144 189 238 297 369 431
#     4  12  24  44  74 105 143 192 234 300 369 424
#     4  12  26  46  69 111 145 179 247 301 359 436
#     4  12  28  46  73 104 145 196 242 298 365 436
#     4  12  24  46  75 105 145 183 241 300 361 435
#
# _framework density 21.788843
#
# number of rings (size 3 to 8) (size 9 to 14) (size 15 to 20)
#    0.000    0.000    6.250    4.125    0.000    1.000 
#    2.250    0.000    0.000    0.000    0.000    0.000 
#    0.000    0.000    0.000    0.000    0.000    0.000 
#
# Total GULP energy -396982.357107 kJ/mol
# GULP energy per Si atom -12405.698660 kJ/mol
# Density = 2.173925 g / cm^3
# Si number density = 21.788843 Si / 1000 Ang^3
#
#
#
# Elastic Constant Matrix: (Units=GPa)
#
#
# Indices 1 2 3 4 5 6 
#
# 1 105.8352 32.7615 14.2275 0.0000 5.6930 0.0000
# 2 32.7615 100.6748 20.6923 0.0000 9.4665 0.0000
# 3 14.2275 20.6923 92.5919 0.0000 -2.0294 0.0000
# 4 0.0000 0.0000 0.0000 23.3885 0.0000 -2.2221
# 5 5.6930 9.4665 -2.0294 0.0000 31.9560 0.0000
# 6 0.0000 0.0000 0.0000 -2.2221 0.0000 35.8097
#
#
#
# Elastic Compliance Matrix: (Units=1/GPa)
#
#
# Indices 1 2 3 4 5 6 
#
# 1 0.010609 -0.003163 -0.000946 0.000000 -0.001013 0.000000
# 2 -0.003163 0.011699 -0.002195 0.000000 -0.003042 0.000000
# 3 -0.000946 -0.002195 0.011470 0.000000 0.001547 0.000000
# 4 0.000000 0.000000 0.000000 0.043010 0.000000 0.002669
# 5 -0.001013 -0.003042 0.001547 0.000000 0.032473 0.000000
# 6 0.000000 0.000000 0.000000 0.002669 0.000000 0.028091
#
#
# Mechanical properties :
#
#
# Convention : Reuss Voigt Hill
#
# Bulk Modulus (GPa) = 47.23379 48.27384 47.75382
# Shear Modulus (GPa) = 31.84376 33.65887 32.75132
#
# Velocity S-wave (km/s) = 3.82707 3.93463 3.88122
# Velocity P-wave (km/s) = 6.42290 6.54562 6.48455
#
# Compressibility (1/GPa) = 0.02117128
#
# Stress axis : x y z
#
# Youngs Moduli (GPa) = 94.25661 85.47420 87.18485
#
# Poissons Ratio (x) = 0.27034 0.08244
# Poissons Ratio (y) = 0.29812 0.19139
# Poissons Ratio (z) = 0.08913 0.18764
#
# Static dielectric constant tensor:
#      x y z
#    x 4.077660 0.000000 -0.150610 
#    y 0.000000 4.044790 0.000000 
#    z -0.150610 0.000000 3.979120 
# 
# 
# High freq. dielectric constant tensor:
#      x y z
#    x 1.869480 0.000000 -0.005740 
#    y 0.000000 1.862870 0.000000 
#    z -0.005740 0.000000 1.869250 
# 
# From -- ./inp_files/45464.got.cif
#   From: 2010.03.12/outbox.cif.g09.slc.cpg/sg14_23_cif.got.tgz:45464.got - 2010.03.31 13:35:05.
