data_PCOD8129605
_publ_section_title
;
Structure prediction by ZEFSAII (Michael W. Deem and Ramdas Pophale) SiO2 
 PCOD8129605
Probable space group: C 2/C
;
_chemical_formula_sum "Si O2"
_cell_formula_units_Z 32
_cell_length_a 15.000000
_cell_length_b 12.000000
_cell_length_c 27.000000
_cell_angle_alpha 90.000000
_cell_angle_beta 40.000000
_cell_angle_gamma 90.000000
_cell_volume 3123.947783
_symmetry_space_group_name_H-M "C 2/C"
_symmetry_group_IT_number 15
_symmetry_cell_setting 'monoclinic'
loop_
_space_group_symop_operation_xyz
x,y,z
-x,y,1/2-z
-x,-y,-z
x,-y,1/2+z
1/2+x,1/2+y,z
1/2-x,1/2+y,1/2-z
1/2-x,1/2-y,-z
1/2+x,1/2-y,1/2+z
loop_
_atom_site_type_symbol
_atom_site_label
_atom_site_fract_x
_atom_site_fract_y
_atom_site_fract_z
Si Si1 0.346542 0.046542 0.164648
Si Si2 0.881473 0.553928 0.393886
Si Si3 0.885047 0.686525 0.609139
Si Si4 0.425483 0.362924 0.667991
Si Si5 0.590292 0.811488 0.163262
Si Si6 0.672040 0.140968 0.433622
Si Si7 0.660427 0.531891 0.572470
Si Si8 0.876017 0.224396 0.841408
O O1 0.468539 0.086582 0.148462
O O2 0.198048 0.088306 0.246446
O O3 0.380119 0.095901 0.096558
O O4 0.350932 0.912560 0.162004
O O5 0.874994 0.429943 0.375307
O O6 0.760497 0.566048 0.485460
O O7 0.858656 0.645580 0.361299
O O8 0.867221 0.806167 0.643204
O O9 0.771809 0.681603 0.614722
O O10 0.040274 0.672694 0.522662
O O11 0.505117 0.265057 0.662335
O O12 0.529253 0.461714 0.608428
O O13 0.500000 0.832498 0.250000
O O14 0.735165 0.750995 0.114046
O O15 0.758795 0.042634 0.421952
O O16 0.597024 0.644845 0.622901
O O17 0.000000 0.205482 0.750000
#
# Coordination Sequence:
#
# PCOD8129605 Si02
#       8
#     8   8   8   8   8   8   8   8
#     4  12  22  40  66  97 128 167 225 262 317 378
#     4  12  25  44  64  97 135 174 206 267 333 389
#     4  12  23  44  66  98 129 167 219 267 315 385
#     4  11  24  40  67 100 126 167 218 275 313 379
#     4  11  22  42  66  96 134 169 213 264 330 379
#     4  11  22  40  71  97 122 171 222 270 309 378
#     4  11  23  42  68  96 131 168 220 264 325 376
#     4  12  26  44  65  94 135 175 209 263 331 384
#
# _framework density 10.243449
#
# number of rings (size 3 to 8) (size 9 to 14) (size 15 to 20)
#    0.000    0.500    5.000    4.125    0.000    2.000 
#    0.000    5.000    0.000    0.000    0.000    0.000 
#    0.000    0.000    0.000    0.000    0.000    0.000 
#
# Total GULP energy -396956.719169 kJ/mol
# GULP energy per Si atom -12404.897474 kJ/mol
# Density = 1.022013 g / cm^3
# Si number density = 10.243449 Si / 1000 Ang^3
#
#
#
# Elastic Constant Matrix: (Units=GPa)
#
#
# Indices 1 2 3 4 5 6 
#
# 1 37.4715 23.7335 15.0914 0.0000 -2.6696 0.0000
# 2 23.7335 117.5437 69.8392 0.0000 -6.5150 0.0000
# 3 15.0914 69.8392 114.7004 0.0000 -11.1812 0.0000
# 4 0.0000 0.0000 0.0000 31.5759 0.0000 -8.8612
# 5 -2.6696 -6.5150 -11.1812 0.0000 22.3046 0.0000
# 6 0.0000 0.0000 0.0000 -8.8612 0.0000 4.1904
#
#
#
# Elastic Compliance Matrix: (Units=1/GPa)
#
#
# Indices 1 2 3 4 5 6 
#
# 1 0.030683 -0.005956 -0.000234 0.000000 0.001816 0.000000
# 2 -0.005956 0.014487 -0.008089 0.000000 -0.000537 0.000000
# 3 -0.000234 -0.008089 0.014132 0.000000 0.004694 0.000000
# 4 0.000000 0.000000 0.000000 0.077896 0.000000 0.164722
# 5 0.001816 -0.000537 0.004694 0.000000 0.047247 0.000000
# 6 0.000000 0.000000 0.000000 0.164722 0.000000 0.586969
#
#
# Mechanical properties :
#
#
# Convention : Reuss Voigt Hill
#
# Bulk Modulus (GPa) = 32.52681 54.11598 43.32139
# Shear Modulus (GPa) = 6.17117 22.35094 14.26106
#
# Velocity S-wave (km/s) = 1.73747 3.30659 2.64124
# Velocity P-wave (km/s) = 4.46502 6.40705 5.52208
#
# Compressibility (1/GPa) = 0.03074387
#
# Stress axis : x y z
#
# Youngs Moduli (GPa) = 32.59175 69.02938 70.76088
#
# Poissons Ratio (x) = 0.41112 0.01653
# Poissons Ratio (y) = 0.19411 0.57241
# Poissons Ratio (z) = 0.00761 0.55840
#
# Static dielectric constant tensor:
#      x y z
#    x 3.722860 0.000000 -0.063040 
#    y 0.000000 3.867000 0.000000 
#    z -0.063040 0.000000 3.811780 
# 
# 
# High freq. dielectric constant tensor:
#      x y z
#    x 1.792560 0.000000 -0.009170 
#    y 0.000000 1.817490 0.000000 
#    z -0.009170 0.000000 1.819490 
# 
# From -- ./inp_files/296095.got.cif
#   From: 2010.06.25/outbox.ucp.g09.slc.cvg/sg15_149_cif.got.tgz:296095.got - 2010.06.28 14:40:10.
