data_PCOD8129755
_publ_section_title
;
Structure prediction by ZEFSAII (Michael W. Deem and Ramdas Pophale) SiO2 
 PCOD8129755
Probable space group: C 2/C
;
_chemical_formula_sum "Si O2"
_cell_formula_units_Z 60
_cell_length_a 20.204866
_cell_length_b 16.719197
_cell_length_c 21.078413
_cell_angle_alpha 90.000000
_cell_angle_beta 152.627843
_cell_angle_gamma 90.000000
_cell_volume 3273.771160
_symmetry_space_group_name_H-M "C 2/C"
_symmetry_group_IT_number 15
_symmetry_cell_setting 'monoclinic'
loop_
_space_group_symop_operation_xyz
x,y,z
-x,y,1/2-z
-x,-y,-z
x,-y,1/2+z
1/2+x,1/2+y,z
1/2-x,1/2+y,1/2-z
1/2-x,1/2-y,-z
1/2+x,1/2-y,1/2+z
loop_
_atom_site_type_symbol
_atom_site_label
_atom_site_fract_x
_atom_site_fract_y
_atom_site_fract_z
Si Si1 0.242326 0.549757 0.803492
Si Si2 0.000000 0.076947 0.250000
Si Si3 0.556956 0.809687 0.172181
Si Si4 0.743572 0.322648 0.894741
Si Si5 0.897911 0.155882 0.838345
Si Si6 0.275201 0.589503 0.245715
Si Si7 0.137762 0.239976 0.109565
Si Si8 0.966510 0.998938 0.090626
O O1 0.105760 0.597476 0.714865
O O2 0.350839 0.614720 0.864659
O O3 0.191704 0.485954 0.706221
O O4 0.316822 0.501375 0.924600
O O5 0.138071 0.129833 0.350809
O O6 0.053311 0.022782 0.353425
O O7 0.664317 0.758548 0.307003
O O8 0.556566 0.775706 0.100958
O O9 0.392693 0.802481 0.058263
O O10 0.796212 0.376403 0.879216
O O11 0.759245 0.197984 0.687736
O O12 0.964440 0.089436 0.848713
O O13 0.017797 0.223937 0.954011
O O14 0.283905 0.657378 0.306292
O O15 0.434956 0.561991 0.362689
#
# Coordination Sequence:
#
# PCOD8129755 Si02
#       8
#     8   4   8   8   8   8   8   8
#     4  10  17  31  55  80 107 145 168 215 265 319
#     4  10  24  38  58  68 100 144 190 226 250 292
#     4  10  21  32  53  80 115 138 170 213 264 311
#     4  10  22  37  50  78 109 144 179 215 254 308
#     4  10  18  29  54  80 111 133 174 204 272 320
#     4   9  16  29  54  77 110 134 173 208 259 313
#     4  10  16  28  48  84 108 136 155 212 262 325
#     4  10  18  35  54  75  99 146 185 216 254 318
#
# _framework density 18.327487000000001
#
# number of rings (size 3 to 8) (size 9 to 14) (size 15 to 20)
#    0.000    2.133    2.667    3.200    3.733    1.067 
#    0.000    2.667    0.000    0.800    0.000    0.000 
#    0.000    0.000    0.000    0.000    0.000    0.000 
#
# Total GULP energy -371890.887546 kJ/mol
# GULP energy per Si atom -12396.362918 kJ/mol
# Density = 1.828577 g / cm^3
# Si number density = 18.327487 Si / 1000 Ang^3
#
#
#
# Elastic Constant Matrix: (Units=GPa)
#
#
# Indices 1 2 3 4 5 6 
#
# 1 62.7889 34.2021 33.2776 -0.0019 6.4437 -0.0008
# 2 34.2021 85.1716 35.0898 0.0030 10.3691 0.0033
# 3 33.2776 35.0898 79.2022 0.0052 20.2977 0.0003
# 4 -0.0019 0.0030 0.0052 29.7209 0.0068 8.0413
# 5 6.4437 10.3691 20.2977 0.0068 22.4628 0.0008
# 6 -0.0008 0.0033 0.0003 8.0413 0.0008 22.8819
#
#
#
# Elastic Compliance Matrix: (Units=1/GPa)
#
#
# Indices 1 2 3 4 5 6 
#
# 1 0.023248 -0.006563 -0.007714 0.000002 0.003331 0.000001
# 2 -0.006563 0.016238 -0.003902 0.000000 -0.002087 -0.000002
# 3 -0.007714 -0.003902 0.021559 -0.000001 -0.015468 0.000001
# 4 0.000002 0.000000 -0.000001 0.037182 -0.000011 -0.013067
# 5 0.003331 -0.002087 -0.015468 -0.000011 0.058503 0.000002
# 6 0.000001 -0.000002 0.000001 -0.013067 0.000002 0.048295
#
#
# Mechanical properties :
#
#
# Convention : Reuss Voigt Hill
#
# Bulk Modulus (GPa) = 40.50471 48.03351 44.26911
# Shear Modulus (GPa) = 20.03121 23.31936 21.67529
#
# Velocity S-wave (km/s) = 3.30958 3.57090 3.44272
# Velocity P-wave (km/s) = 6.06242 6.57777 6.32535
#
# Compressibility (1/GPa) = 0.02468849
#
# Stress axis : x y z
#
# Youngs Moduli (GPa) = 43.01494 61.58362 46.38336
#
# Poissons Ratio (x) = 0.40418 0.35779
# Poissons Ratio (y) = 0.28231 0.18097
# Poissons Ratio (z) = 0.33180 0.24028
#
# Static dielectric constant tensor:
#      x y z
#    x 3.048320 -0.000010 0.048110 
#    y -0.000010 3.562040 -0.000020 
#    z 0.048110 -0.000020 3.295860 
# 
# 
# High freq. dielectric constant tensor:
#      x y z
#    x 1.658190 0.000000 0.009470 
#    y 0.000000 1.716730 0.000000 
#    z 0.009470 0.000000 1.701690 
# 
# From -- ./inp_files/61567.got.cif
#   From: 2010.06.25/outbox.cif.g09.slc.cpg/sg15_31_cif.got.tgz:61567.got - 2010.06.28 07:06:18.
