data_PCOD8129808
_publ_section_title
;
Structure prediction by ZEFSAII (Michael W. Deem and Ramdas Pophale) SiO2 
 PCOD8129808
Probable space group: C 2/C
;
_chemical_formula_sum "Si O2"
_cell_formula_units_Z 60
_cell_length_a 28.787679
_cell_length_b 22.181154
_cell_length_c 5.155525
_cell_angle_alpha 90.000000
_cell_angle_beta 86.780994
_cell_angle_gamma 90.000000
_cell_volume 3286.835063
_symmetry_space_group_name_H-M "C 2/C"
_symmetry_group_IT_number 15
_symmetry_cell_setting 'monoclinic'
loop_
_space_group_symop_operation_xyz
x,y,z
-x,y,1/2-z
-x,-y,-z
x,-y,1/2+z
1/2+x,1/2+y,z
1/2-x,1/2+y,1/2-z
1/2-x,1/2-y,-z
1/2+x,1/2-y,1/2+z
loop_
_atom_site_type_symbol
_atom_site_label
_atom_site_fract_x
_atom_site_fract_y
_atom_site_fract_z
Si Si1 0.280573 0.332853 0.489113
Si Si2 0.318372 0.798971 0.975202
Si Si3 0.099820 0.959124 0.690451
Si Si4 0.500000 0.459524 0.750000
Si Si5 0.627180 0.223116 0.527262
Si Si6 0.551747 0.973079 0.964277
Si Si7 0.030911 0.335877 0.985533
Si Si8 0.332794 0.354125 0.982150
O O1 0.294831 0.264825 0.422968
O O2 0.225179 0.344307 0.470215
O O3 0.292446 0.346636 0.782484
O O4 0.308910 0.371703 0.264789
O O5 0.348113 0.814581 0.710430
O O6 0.352742 0.801188 0.208364
O O7 0.137055 0.908251 0.634221
O O8 0.049208 0.924339 0.714017
O O9 0.105889 0.009008 0.465559
O O10 0.500000 0.500000 0.500000
O O11 0.572100 0.211672 0.523088
O O12 0.635261 0.294751 0.501687
O O13 0.552286 0.901629 0.923541
O O14 0.578175 0.005838 0.716988
O O15 0.500000 0.000000 0.000000
O O16 0.000000 0.314674 0.750000
O O17 0.000000 0.338847 0.250000
#
# Coordination Sequence:
#
# PCOD8129808 Si02
#       8
#     8   8   8   4   8   8   8   8
#     4   9  17  30  55  77 100 131 160 215 259 307
#     4   9  17  33  51  75 102 132 173 199 258 309
#     4  10  19  33  53  75 101 130 183 221 261 300
#     4   8  16  30  48  66  90 128 160 216 250 290
#     4  10  21  33  49  75 111 140 165 216 254 314
#     4  10  16  30  49  72  91 119 169 225 238 259
#     4  12  21  33  51  73 107 138 173 206 255 299
#     4  10  19  33  51  79 108 128 169 217 263 313
#
# _framework density 18.254642
#
# number of rings (size 3 to 8) (size 9 to 14) (size 15 to 20)
#    0.000    2.133    2.667    2.400    0.000    3.200 
#    1.200    0.000    5.867    0.000    0.000   18.667 
#    0.000    0.000    0.000    0.000    0.000    0.000 
#
# Total GULP energy -371719.862150 kJ/mol
# GULP energy per Si atom -12390.662072 kJ/mol
# Density = 1.821309 g / cm^3
# Si number density = 18.254642 Si / 1000 Ang^3
#
#
#
# Elastic Constant Matrix: (Units=GPa)
#
#
# Indices 1 2 3 4 5 6 
#
# 1 90.6206 26.6240 20.2777 0.0000 3.0162 0.0000
# 2 26.6240 40.7572 5.0700 0.0000 -0.6637 0.0000
# 3 20.2777 5.0700 114.6304 0.0000 6.7287 0.0000
# 4 0.0000 0.0000 0.0000 16.9844 0.0000 -3.1350
# 5 3.0162 -0.6637 6.7287 0.0000 27.6726 0.0000
# 6 0.0000 0.0000 0.0000 -3.1350 0.0000 14.6158
#
#
#
# Elastic Compliance Matrix: (Units=1/GPa)
#
#
# Indices 1 2 3 4 5 6 
#
# 1 0.014187 -0.009035 -0.002036 0.000000 -0.001268 0.000000
# 2 -0.009035 0.030446 0.000153 0.000000 0.001678 0.000000
# 3 -0.002036 0.000153 0.009195 0.000000 -0.002010 0.000000
# 4 0.000000 0.000000 0.000000 0.061305 0.000000 0.013149
# 5 -0.001268 0.001678 -0.002010 0.000000 0.036804 0.000000
# 6 0.000000 0.000000 0.000000 0.013149 0.000000 0.071240
#
#
# Mechanical properties :
#
#
# Convention : Reuss Voigt Hill
#
# Bulk Modulus (GPa) = 31.25670 38.88350 35.07010
# Shear Modulus (GPa) = 19.55603 24.79031 22.17317
#
# Velocity S-wave (km/s) = 3.27661 3.68914 3.48898
# Velocity P-wave (km/s) = 5.61023 6.28436 5.95684
#
# Compressibility (1/GPa) = 0.03199314
#
# Stress axis : x y z
#
# Youngs Moduli (GPa) = 70.48632 32.84529 108.75463
#
# Poissons Ratio (x) = 0.29676 0.22138
# Poissons Ratio (y) = 0.63684 -0.01666
# Poissons Ratio (z) = 0.14348 -0.00503
#
# Static dielectric constant tensor:
#      x y z
#    x 3.466100 0.000000 -0.005710 
#    y 0.000000 2.962450 0.000000 
#    z -0.005710 0.000000 3.007200 
# 
# 
# High freq. dielectric constant tensor:
#      x y z
#    x 1.695200 0.000000 0.002240 
#    y 0.000000 1.654990 0.000000 
#    z 0.002240 0.000000 1.740570 
# 
# From -- ./inp_files/17437.got.cif
#   From: 2010.06.25/outbox.cif.g09.slc.cpg/sg15_9_cif.got.tgz:17437.got - 2010.06.28 07:06:18.
