data_PCOD8129267
_publ_section_title
;
Structure prediction by ZEFSAII (Michael W. Deem and Ramdas Pophale) SiO2 
 PCOD8129267
Probable space group: P 21/C
;
_chemical_formula_sum "Si O2"
_cell_formula_units_Z 24
_cell_length_a 11.273313
_cell_length_b 11.118891
_cell_length_c 9.364082
_cell_angle_alpha 90.000000
_cell_angle_beta 110.066389
_cell_angle_gamma 90.000000
_cell_volume 1102.505019
_symmetry_space_group_name_H-M "P 21/C"
_symmetry_group_IT_number 14
_symmetry_cell_setting 'monoclinic'
loop_
_space_group_symop_operation_xyz
x,y,z
-x,1/2+y,1/2-z
-x,-y,-z
x,1/2-y,1/2+z
loop_
_atom_site_type_symbol
_atom_site_label
_atom_site_fract_x
_atom_site_fract_y
_atom_site_fract_z
Si Si1 0.095245 0.841159 0.120184
Si Si2 0.421449 0.111995 0.027576
Si Si3 0.545287 0.662449 0.142057
Si Si4 0.872339 0.436499 0.909116
Si Si5 0.147631 0.470031 0.405715
Si Si6 0.302713 0.946594 0.409261
O O1 0.105421 0.705276 0.073920
O O2 0.211249 0.869657 0.271546
O O3 0.960935 0.867024 0.142554
O O4 0.099412 0.919684 0.979725
O O5 0.412419 0.207027 0.894869
O O6 0.279599 0.080198 0.017764
O O7 0.484013 0.164054 0.199724
O O8 0.500000 0.000000 0.000000
O O9 0.655044 0.566827 0.154343
O O10 0.421122 0.634724 0.999452
O O11 0.823110 0.477707 0.736659
O O12 0.768188 0.483431 0.976213
O O13 0.000000 0.500000 0.000000
#
# Coordination Sequence:
#
# PCOD8129267 Si02
#       6
#     4   4   4   4   4   4
#     4  11  25  47  72 102 148 186 236 308 356 445
#     4  12  29  49  76 108 149 191 248 299 369 435
#     4  11  29  47  77 104 149 194 241 307 357 444
#     4  12  26  43  73 107 140 190 240 295 371 439
#     4  11  26  45  72 105 142 186 236 301 371 422
#     4  11  25  50  71 105 141 191 247 292 368 427
#
# _framework density 21.768606999999999
#
# number of rings (size 3 to 8) (size 9 to 14) (size 15 to 20)
#    0.000    0.667    3.333    2.000   16.333    0.000 
#    0.000    0.000    0.000    0.000    0.000    0.000 
#    0.000    0.000    0.000    0.000    0.000    0.000 
#
# Total GULP energy -297728.144844 kJ/mol
# GULP energy per Si atom -12405.339369 kJ/mol
# Density = 2.171906 g / cm^3
# Si number density = 21.768607 Si / 1000 Ang^3
#
#
#
# Elastic Constant Matrix: (Units=GPa)
#
#
# Indices 1 2 3 4 5 6 
#
# 1 123.9876 39.6247 28.8032 0.0000 4.2490 0.0000
# 2 39.6247 94.3090 40.6942 0.0000 6.0877 0.0000
# 3 28.8032 40.6942 122.8624 0.0000 -11.4258 0.0000
# 4 0.0000 0.0000 0.0000 36.3192 0.0000 -7.2190
# 5 4.2490 6.0877 -11.4258 0.0000 45.5200 0.0000
# 6 0.0000 0.0000 0.0000 -7.2190 0.0000 22.1778
#
#
#
# Elastic Compliance Matrix: (Units=1/GPa)
#
#
# Indices 1 2 3 4 5 6 
#
# 1 0.009452 -0.003431 -0.001146 0.000000 -0.000711 0.000000
# 2 -0.003431 0.013962 -0.004059 0.000000 -0.002566 0.000000
# 3 -0.001146 -0.004059 0.010047 0.000000 0.003172 0.000000
# 4 0.000000 0.000000 0.000000 0.029438 0.000000 0.009582
# 5 -0.000711 -0.002566 0.003172 0.000000 0.023174 0.000000
# 6 0.000000 0.000000 0.000000 0.009582 0.000000 0.048209
#
#
# Mechanical properties :
#
#
# Convention : Reuss Voigt Hill
#
# Bulk Modulus (GPa) = 61.76511 62.15591 61.96051
# Shear Modulus (GPa) = 31.85709 36.27251 34.06480
#
# Velocity S-wave (km/s) = 3.82965 4.08643 3.96012
# Velocity P-wave (km/s) = 6.92748 7.13304 7.03101
#
# Compressibility (1/GPa) = 0.01619037
#
# Stress axis : x y z
#
# Youngs Moduli (GPa) = 105.79312 71.62259 99.53215
#
# Poissons Ratio (x) = 0.24576 0.11402
# Poissons Ratio (y) = 0.36301 0.40397
# Poissons Ratio (z) = 0.12119 0.29069
#
# Static dielectric constant tensor:
#      x y z
#    x 4.066450 0.000000 -0.006300 
#    y 0.000000 3.949250 0.000000 
#    z -0.006300 0.000000 4.053030 
# 
# 
# High freq. dielectric constant tensor:
#      x y z
#    x 1.868990 0.000000 -0.001730 
#    y 0.000000 1.851690 0.000000 
#    z -0.001730 0.000000 1.874480 
# 
# From -- ./inp_files/12506.got.cif
#   From: 2010.03.12/outbox.cif.g09.slc.cpg/sg14_7_cif.got.tgz:12506.got - 2010.03.31 13:35:05.
