data_PCOD8129308
_publ_section_title
;
Structure prediction by ZEFSAII (Michael W. Deem and Ramdas Pophale) SiO2 
 PCOD8129308
Probable space group: P 21/C
;
_chemical_formula_sum "Si O2"
_cell_formula_units_Z 32
_cell_length_a 16.445979
_cell_length_b 15.746879
_cell_length_c 13.396025
_cell_angle_alpha 90.000000
_cell_angle_beta 155.208395
_cell_angle_gamma 90.000000
_cell_volume 1454.704509
_symmetry_space_group_name_H-M "P 21/C"
_symmetry_group_IT_number 14
_symmetry_cell_setting 'monoclinic'
loop_
_space_group_symop_operation_xyz
x,y,z
-x,1/2+y,1/2-z
-x,-y,-z
x,1/2-y,1/2+z
loop_
_atom_site_type_symbol
_atom_site_label
_atom_site_fract_x
_atom_site_fract_y
_atom_site_fract_z
Si Si1 0.731787 0.228802 0.282989
Si Si2 0.978812 0.111454 0.068689
Si Si3 0.488225 0.012326 0.868555
Si Si4 0.722700 0.358045 0.974767
Si Si5 0.572357 0.801801 0.688031
Si Si6 0.178912 0.348759 0.987817
Si Si7 0.117387 0.070274 0.011816
Si Si8 0.887704 0.423067 0.822733
O O1 0.839359 0.315217 0.374245
O O2 0.748074 0.214889 0.419824
O O3 0.823164 0.146279 0.332250
O O4 0.512863 0.249891 0.002467
O O5 0.120861 0.148032 0.308937
O O6 0.867310 0.030422 0.991852
O O7 0.104796 0.082375 0.115864
O O8 0.363857 0.094200 0.710094
O O9 0.401315 0.932363 0.714471
O O10 0.701809 0.032828 0.064132
O O11 0.500000 0.000000 0.000000
O O12 0.601408 0.313586 0.927166
O O13 0.930571 0.391583 0.244730
O O14 0.758431 0.748138 0.929547
O O15 0.671874 0.892695 0.780896
O O16 0.008765 0.375340 0.873294
O O17 0.000000 0.500000 0.000000
#
# Coordination Sequence:
#
# PCOD8129308 Si02
#       8
#     4   4   4   4   4   4   4   4
#     4  12  26  47  73 110 149 188 249 304 362 441
#     4  11  26  47  75 100 146 195 242 300 358 442
#     4  12  23  47  73 110 142 184 245 302 368 433
#     4  12  26  49  74 106 149 188 246 305 360 441
#     4  12  28  47  75 107 146 193 244 301 371 436
#     4  12  25  45  74 107 143 189 237 302 372 435
#     4  11  26  52  69 102 146 195 247 295 363 437
#     4  12  26  45  78 109 149 187 237 307 375 434
#
# _framework density 21.997595
#
# number of rings (size 3 to 8) (size 9 to 14) (size 15 to 20)
#    0.000    0.250    6.250    1.500    5.250    1.500 
#    0.000    0.000    0.000    0.000    0.000    0.000 
#    0.000    0.000    0.000    0.000    0.000    0.000 
#
# Total GULP energy -396779.752325 kJ/mol
# GULP energy per Si atom -12399.367260 kJ/mol
# Density = 2.194753 g / cm^3
# Si number density = 21.997595 Si / 1000 Ang^3
#
#
#
# Elastic Constant Matrix: (Units=GPa)
#
#
# Indices 1 2 3 4 5 6 
#
# 1 66.1847 9.5558 39.0989 0.0000 -2.3368 0.0000
# 2 9.5558 105.5528 35.2118 0.0000 5.0964 0.0000
# 3 39.0989 35.2118 118.4550 0.0000 -3.3374 0.0000
# 4 0.0000 0.0000 0.0000 45.6219 0.0000 2.4507
# 5 -2.3368 5.0964 -3.3374 0.0000 41.4373 0.0000
# 6 0.0000 0.0000 0.0000 2.4507 0.0000 36.2904
#
#
#
# Elastic Compliance Matrix: (Units=1/GPa)
#
#
# Indices 1 2 3 4 5 6 
#
# 1 0.018795 0.000376 -0.006301 0.000000 0.000506 0.000000
# 2 0.000376 0.010624 -0.003326 0.000000 -0.001553 0.000000
# 3 -0.006301 -0.003326 0.011538 0.000000 0.000983 0.000000
# 4 0.000000 0.000000 0.000000 0.021999 0.000000 -0.001486
# 5 0.000506 -0.001553 0.000983 0.000000 0.024432 0.000000
# 6 0.000000 0.000000 0.000000 -0.001486 0.000000 0.027656
#
#
# Mechanical properties :
#
#
# Convention : Reuss Voigt Hill
#
# Bulk Modulus (GPa) = 44.53278 50.88063 47.70670
# Shear Modulus (GPa) = 35.45276 38.42498 36.93887
#
# Velocity S-wave (km/s) = 4.01891 4.18398 4.10228
# Velocity P-wave (km/s) = 6.46714 6.82065 6.64624
#
# Compressibility (1/GPa) = 0.02245537
#
# Stress axis : x y z
#
# Youngs Moduli (GPa) = 53.20452 94.12243 86.66731
#
# Poissons Ratio (x) = -0.03540 0.54613
# Poissons Ratio (y) = -0.02001 0.28827
# Poissons Ratio (z) = 0.33526 0.31306
#
# Static dielectric constant tensor:
#      x y z
#    x 3.894410 0.000000 -0.053450 
#    y 0.000000 4.267620 0.000000 
#    z -0.053450 0.000000 4.252120 
# 
# 
# High freq. dielectric constant tensor:
#      x y z
#    x 1.857040 0.000000 -0.007330 
#    y 0.000000 1.886340 0.000000 
#    z -0.007330 0.000000 1.880730 
# 
# From -- ./inp_files/32995.got.cif
#   From: 2010.03.12/outbox.cif.g09.slc.cpg/sg14_17_cif.got.tgz:32995.got - 2010.03.31 13:35:05.
