data_PCOD8129113
_publ_section_title
;
Structure prediction by ZEFSAII (Michael W. Deem and Ramdas Pophale) SiO2 
 PCOD8129113
Probable space group: P 21/C
;
_chemical_formula_sum "Si O2"
_cell_formula_units_Z 24
_cell_length_a 8.580376
_cell_length_b 14.180767
_cell_length_c 17.714240
_cell_angle_alpha 90.000000
_cell_angle_beta 148.015041
_cell_angle_gamma 90.000000
_cell_volume 1141.709901
_symmetry_space_group_name_H-M "P 21/C"
_symmetry_group_IT_number 14
_symmetry_cell_setting 'monoclinic'
loop_
_space_group_symop_operation_xyz
x,y,z
-x,1/2+y,1/2-z
-x,-y,-z
x,1/2-y,1/2+z
loop_
_atom_site_type_symbol
_atom_site_label
_atom_site_fract_x
_atom_site_fract_y
_atom_site_fract_z
Si Si1 0.145408 0.960344 0.776484
Si Si2 0.830803 0.257430 0.023224
Si Si3 0.232494 0.385454 0.434762
Si Si4 0.206380 0.292144 0.817387
Si Si5 0.836009 0.937622 0.372414
Si Si6 0.829058 0.091617 0.903924
O O1 0.878329 0.885538 0.670531
O O2 0.132337 0.024053 0.845771
O O3 0.099878 0.025184 0.685110
O O4 0.455812 0.906216 0.897512
O O5 0.941398 0.227673 0.151100
O O6 0.051306 0.330626 0.074894
O O7 0.511664 0.306956 0.898163
O O8 0.808744 0.164216 0.964171
O O9 0.258075 0.294574 0.393820
O O10 0.991460 0.362578 0.399290
O O11 0.495048 0.939292 0.253589
O O12 0.000000 0.000000 0.500000
O O13 0.000000 0.000000 0.000000
#
# Coordination Sequence:
#
# PCOD8129113 Si02
#       6
#     4   4   4   4   4   4
#     4  11  24  47  72 101 146 184 238 296 353 426
#     4  12  26  48  69 106 148 186 232 296 365 429
#     4  11  24  44  74 106 135 187 241 287 357 430
#     4  12  25  45  76 103 140 192 237 296 361 424
#     4  12  29  47  70 110 148 187 244 298 356 431
#     4  12  26  46  76 102 143 194 235 290 366 426
#
# _framework density 21.021103
#
# number of rings (size 3 to 8) (size 9 to 14) (size 15 to 20)
#    0.000    0.333    6.667    1.000    7.000    3.333 
#    0.000    0.000    0.000    0.000    0.000    0.000 
#    0.000    0.000    0.000    0.000    0.000    0.000 
#
# Total GULP energy -297808.029593 kJ/mol
# GULP energy per Si atom -12408.667900 kJ/mol
# Density = 2.097326 g / cm^3
# Si number density = 21.021103 Si / 1000 Ang^3
#
#
#
# Elastic Constant Matrix: (Units=GPa)
#
#
# Indices 1 2 3 4 5 6 
#
# 1 100.5982 20.6142 37.1622 0.0000 17.5228 0.0000
# 2 20.6142 92.2546 38.1936 0.0000 15.6684 0.0000
# 3 37.1622 38.1936 113.8577 0.0000 12.4440 0.0000
# 4 0.0000 0.0000 0.0000 35.8458 0.0000 3.7296
# 5 17.5228 15.6684 12.4440 0.0000 42.1662 0.0000
# 6 0.0000 0.0000 0.0000 3.7296 0.0000 38.9168
#
#
#
# Elastic Compliance Matrix: (Units=1/GPa)
#
#
# Indices 1 2 3 4 5 6 
#
# 1 0.011936 -0.000682 -0.003258 0.000000 -0.003745 0.000000
# 2 -0.000682 0.013162 -0.003812 0.000000 -0.003482 0.000000
# 3 -0.003258 -0.003812 0.011183 0.000000 -0.000530 0.000000
# 4 0.000000 0.000000 0.000000 0.028178 0.000000 -0.002700
# 5 -0.003745 -0.003482 -0.000530 0.000000 0.026722 0.000000
# 6 0.000000 0.000000 0.000000 -0.002700 0.000000 0.025955
#
#
# Mechanical properties :
#
#
# Convention : Reuss Voigt Hill
#
# Bulk Modulus (GPa) = 48.13021 55.40560 51.76791
# Shear Modulus (GPa) = 35.82565 37.43513 36.63039
#
# Velocity S-wave (km/s) = 4.13276 4.22457 4.17892
# Velocity P-wave (km/s) = 6.76157 7.08593 6.92565
#
# Compressibility (1/GPa) = 0.02077697
#
# Stress axis : x y z
#
# Youngs Moduli (GPa) = 83.77913 75.97913 89.42354
#
# Poissons Ratio (x) = 0.05184 0.29131
# Poissons Ratio (y) = 0.05717 0.34086
# Poissons Ratio (z) = 0.27292 0.28961
#
# Static dielectric constant tensor:
#      x y z
#    x 4.092590 0.000000 0.154940 
#    y 0.000000 4.054340 0.000000 
#    z 0.154940 0.000000 3.860250 
# 
# 
# High freq. dielectric constant tensor:
#      x y z
#    x 1.829580 0.000000 0.006910 
#    y 0.000000 1.833190 0.000000 
#    z 0.006910 0.000000 1.831020 
# 
# From -- ./inp_files/8442.got.cif
#   From: 2010.03.12/outbox.cif.g09.slc.cpg/sg14_5_cif.got.tgz:8442.got - 2010.03.31 13:35:05.
