data_PCOD8129523
_publ_section_title
;
Structure prediction by ZEFSAII (Michael W. Deem and Ramdas Pophale) SiO2 
 PCOD8129523
Probable space group: P 21/C
;
_chemical_formula_sum "Si O2"
_cell_formula_units_Z 32
_cell_length_a 24.000000
_cell_length_b 9.000000
_cell_length_c 15.000000
_cell_angle_alpha 90.000000
_cell_angle_beta 30.000000
_cell_angle_gamma 90.000000
_cell_volume 1620.000000
_symmetry_space_group_name_H-M "P 21/C"
_symmetry_group_IT_number 14
_symmetry_cell_setting 'monoclinic'
loop_
_space_group_symop_operation_xyz
x,y,z
-x,1/2+y,1/2-z
-x,-y,-z
x,1/2-y,1/2+z
loop_
_atom_site_type_symbol
_atom_site_label
_atom_site_fract_x
_atom_site_fract_y
_atom_site_fract_z
Si Si1 0.316333 0.025884 0.247090
Si Si2 0.894806 0.668761 0.312787
Si Si3 0.117565 0.571629 0.925981
Si Si4 0.143215 0.254514 0.944122
Si Si5 0.765819 0.644514 0.851902
Si Si6 0.342500 0.890225 0.398825
Si Si7 0.591107 0.899131 0.059094
Si Si8 0.761585 0.089338 0.922054
O O1 0.223877 0.903894 0.343582
O O2 0.359297 0.980772 0.284117
O O3 0.259680 0.189837 0.327614
O O4 0.411873 0.037385 0.038743
O O5 0.923602 0.693528 0.377744
O O6 0.830374 0.800103 0.350746
O O7 0.822825 0.517723 0.407555
O O8 0.013637 0.667183 0.100094
O O9 0.151534 0.614344 0.778775
O O10 0.915791 0.604449 0.022865
O O11 0.159033 0.133538 0.842664
O O12 0.719757 0.482944 0.938486
O O13 0.665705 0.753125 0.964398
O O14 0.466860 0.858415 0.262225
O O15 0.270587 0.741782 0.484013
O O16 0.645254 0.022077 0.048239
#
# Coordination Sequence:
#
# PCOD8129523 Si02
#       8
#     4   4   4   4   4   4   4   4
#     4   8  18  36  56  81 107 147 191 226 276 345
#     4  11  19  39  65  78 110 161 183 231 288 342
#     4   9  19  39  59  79 114 149 190 226 287 338
#     4   9  19  38  57  82 112 149 194 223 280 347
#     4  10  20  37  60  83 113 151 195 225 286 350
#     4  12  20  35  57  88 116 144 187 250 282 331
#     4   9  19  38  60  76 111 157 194 223 290 343
#     4  10  22  36  57  89 112 144 192 235 287 341
#
# _framework density 19.753086
#
# number of rings (size 3 to 8) (size 9 to 14) (size 15 to 20)
#    0.750    1.500    3.750    1.500    0.000    1.000 
#    6.750    0.625    0.000    3.000    0.000    0.000 
#    0.000    0.000    0.000    0.000    0.000    0.000 
#
# Total GULP energy -396439.521657 kJ/mol
# GULP energy per Si atom -12388.735052 kJ/mol
# Density = 1.970813 g / cm^3
# Si number density = 19.753086 Si / 1000 Ang^3
#
#
#
# Elastic Constant Matrix: (Units=GPa)
#
#
# Indices 1 2 3 4 5 6 
#
# 1 35.4197 -2.9831 11.0994 0.0000 12.8540 0.0000
# 2 -2.9831 46.8315 18.9249 0.0000 2.2104 0.0000
# 3 11.0994 18.9249 81.4736 0.0000 -2.7115 0.0000
# 4 0.0000 0.0000 0.0000 21.3892 0.0000 9.5780
# 5 12.8540 2.2104 -2.7115 0.0000 24.9686 0.0000
# 6 0.0000 0.0000 0.0000 9.5780 0.0000 12.7546
#
#
#
# Elastic Compliance Matrix: (Units=1/GPa)
#
#
# Indices 1 2 3 4 5 6 
#
# 1 0.038923 0.006536 -0.007534 0.000000 -0.021434 0.000000
# 2 0.006536 0.024844 -0.006871 0.000000 -0.006310 0.000000
# 3 -0.007534 -0.006871 0.015100 0.000000 0.006127 0.000000
# 4 0.000000 0.000000 0.000000 0.070439 0.000000 -0.052896
# 5 -0.021434 -0.006310 0.006127 0.000000 0.052309 0.000000
# 6 0.000000 0.000000 0.000000 -0.052896 0.000000 0.118125
#
#
# Mechanical properties :
#
#
# Convention : Reuss Voigt Hill
#
# Bulk Modulus (GPa) = 15.84087 24.20082 20.02084
# Shear Modulus (GPa) = 14.02439 20.93473 17.47956
#
# Velocity S-wave (km/s) = 2.66744 3.25902 2.97796
# Velocity P-wave (km/s) = 4.18615 5.14197 4.68848
#
# Compressibility (1/GPa) = 0.06312785
#
# Stress axis : x y z
#
# Youngs Moduli (GPa) = 25.69178 40.25119 66.22402
#
# Poissons Ratio (x) = -0.26307 0.49894
# Poissons Ratio (y) = -0.16791 0.45504
# Poissons Ratio (z) = 0.19356 0.27657
#
# Static dielectric constant tensor:
#      x y z
#    x 3.443240 0.000000 0.082530 
#    y 0.000000 3.240240 0.000000 
#    z 0.082530 0.000000 3.512890 
# 
# 
# High freq. dielectric constant tensor:
#      x y z
#    x 1.766670 0.000000 0.006480 
#    y 0.000000 1.732630 0.000000 
#    z 0.006480 0.000000 1.767700 
# 
# From -- ./inp_files/51355.got.cif
#   From: 2010.03.12/outbox.ucp.g09.slc.cvg/sg14_26_cif.got.tgz:51355.got - 2010.05.04 20:10:03.
