data_PCOD8129752
_publ_section_title
;
Structure prediction by ZEFSAII (Michael W. Deem and Ramdas Pophale) SiO2 
 PCOD8129752
Probable space group: C 2/C
;
_chemical_formula_sum "Si O2"
_cell_formula_units_Z 44
_cell_length_a 17.644721
_cell_length_b 24.028008
_cell_length_c 8.846927
_cell_angle_alpha 90.000000
_cell_angle_beta 146.895400
_cell_angle_gamma 90.000000
_cell_volume 2048.576682
_symmetry_space_group_name_H-M "C 2/C"
_symmetry_group_IT_number 15
_symmetry_cell_setting 'monoclinic'
loop_
_space_group_symop_operation_xyz
x,y,z
-x,y,1/2-z
-x,-y,-z
x,-y,1/2+z
1/2+x,1/2+y,z
1/2-x,1/2+y,1/2-z
1/2-x,1/2-y,-z
1/2+x,1/2-y,1/2+z
loop_
_atom_site_type_symbol
_atom_site_label
_atom_site_fract_x
_atom_site_fract_y
_atom_site_fract_z
Si Si1 0.032512 0.662297 0.054609
Si Si2 0.500000 0.356329 0.250000
Si Si3 0.780307 0.575178 0.249393
Si Si4 0.159485 0.525624 0.466168
Si Si5 0.706565 0.138324 0.649817
Si Si6 0.881005 0.778389 0.300229
O O1 0.100991 0.622893 0.041380
O O2 0.118590 0.653847 0.352964
O O3 0.030513 0.725968 0.991809
O O4 0.874125 0.646224 0.827232
O O5 0.631157 0.396260 0.491459
O O6 0.475826 0.315620 0.349778
O O7 0.818458 0.534045 0.174973
O O8 0.785127 0.536029 0.404545
O O9 0.248903 0.573464 0.703016
O O10 0.000000 0.533408 0.250000
O O11 0.836382 0.180948 0.863947
O O12 0.750000 0.750000 0.000000
#
# Coordination Sequence:
#
# PCOD8129752 Si02
#       6
#     8   4   8   8   8   8
#     4   9  16  28  46  78 103 130 173 227 275 311
#     4  12  20  32  50  84 120 136 172 224 286 338
#     4  11  23  34  54  82 114 144 182 222 273 322
#     4  11  20  38  56  77 108 147 190 230 259 314
#     4   9  15  28  47  70 102 130 176 220 268 305
#     4  10  16  28  48  75 113 136 165 226 290 316
#
# _framework density 21.478327
#
# number of rings (size 3 to 8) (size 9 to 14) (size 15 to 20)
#    0.000    1.818    9.091    2.727    0.000    0.727 
#    0.000    0.000    0.000    0.000    0.000    5.091 
#    0.000    0.000    0.000    0.000    0.000    0.000 
#
# Total GULP energy -272586.009255 kJ/mol
# GULP energy per Si atom -12390.273148 kJ/mol
# Density = 2.142944 g / cm^3
# Si number density = 21.478327 Si / 1000 Ang^3
#
#
#
# Elastic Constant Matrix: (Units=GPa)
#
#
# Indices 1 2 3 4 5 6 
#
# 1 75.9297 43.5955 25.7426 0.0000 33.1900 0.0000
# 2 43.5955 172.6347 27.0771 0.0000 13.9192 0.0000
# 3 25.7426 27.0771 19.6638 0.0000 14.5753 0.0000
# 4 0.0000 0.0000 0.0000 14.2240 0.0000 -0.0140
# 5 33.1900 13.9192 14.5753 0.0000 22.7160 0.0000
# 6 0.0000 0.0000 0.0000 -0.0140 0.0000 34.7464
#
#
#
# Elastic Compliance Matrix: (Units=1/GPa)
#
#
# Indices 1 2 3 4 5 6 
#
# 1 0.042164 -0.004923 -0.009519 0.000000 -0.052481 0.000000
# 2 -0.004923 0.008141 -0.012202 0.000000 0.010034 0.000000
# 3 -0.009519 -0.012202 0.122554 0.000000 -0.057249 0.000000
# 4 0.000000 0.000000 0.000000 0.070304 0.000000 0.000028
# 5 -0.052481 0.010034 -0.057249 0.000000 0.151285 0.000000
# 6 0.000000 0.000000 0.000000 0.000028 0.000000 0.028780
#
#
# Mechanical properties :
#
#
# Convention : Reuss Voigt Hill
#
# Bulk Modulus (GPa) = 8.36336 51.22872 29.79604
# Shear Modulus (GPa) = 9.68292 25.79151 17.73721
#
# Velocity S-wave (km/s) = 2.12556 3.46904 2.87682
# Velocity P-wave (km/s) = 3.15061 6.32050 4.99375
#
# Compressibility (1/GPa) = 0.11956916
#
# Stress axis : x y z
#
# Youngs Moduli (GPa) = 23.71666 122.83993 8.15970
#
# Poissons Ratio (x) = 0.60477 0.07767
# Poissons Ratio (y) = 0.11676 0.09957
# Poissons Ratio (z) = 0.22576 1.49893
#
# Static dielectric constant tensor:
#      x y z
#    x 4.113960 0.000000 0.585240 
#    y 0.000000 4.693840 0.000000 
#    z 0.585240 0.000000 3.270630 
# 
# 
# High freq. dielectric constant tensor:
#      x y z
#    x 1.837190 0.000000 0.036420 
#    y 0.000000 1.875160 0.000000 
#    z 0.036420 0.000000 1.764360 
# 
# From -- ./inp_files/114159.got.cif
#   From: 2010.06.25/outbox.cif.g09.slc.cpg/sg15_58_cif.got.tgz:114159.got - 2010.06.28 07:06:18.
