data_PCOD8129739
_publ_section_title
;
Structure prediction by ZEFSAII (Michael W. Deem and Ramdas Pophale) SiO2 
 PCOD8129739
Probable space group: C 2/C
;
_chemical_formula_sum "Si O2"
_cell_formula_units_Z 60
_cell_length_a 24.287116
_cell_length_b 13.223117
_cell_length_c 11.390566
_cell_angle_alpha 90.000000
_cell_angle_beta 125.734324
_cell_angle_gamma 90.000000
_cell_volume 2969.400130
_symmetry_space_group_name_H-M "C 2/C"
_symmetry_group_IT_number 15
_symmetry_cell_setting 'monoclinic'
loop_
_space_group_symop_operation_xyz
x,y,z
-x,y,1/2-z
-x,-y,-z
x,-y,1/2+z
1/2+x,1/2+y,z
1/2-x,1/2+y,1/2-z
1/2-x,1/2-y,-z
1/2+x,1/2-y,1/2+z
loop_
_atom_site_type_symbol
_atom_site_label
_atom_site_fract_x
_atom_site_fract_y
_atom_site_fract_z
Si Si1 0.587305 0.607646 0.106174
Si Si2 0.654448 0.678321 0.416426
Si Si3 0.481637 0.116391 0.477934
Si Si4 0.500000 0.922713 0.250000
Si Si5 0.196032 0.379520 0.352329
Si Si6 0.879951 0.433047 0.675576
Si Si7 0.958594 0.915344 0.585236
Si Si8 0.114263 0.691482 0.535557
O O1 0.637073 0.608745 0.281230
O O2 0.511183 0.635534 0.058586
O O3 0.619276 0.687579 0.054408
O O4 0.584176 0.501971 0.034490
O O5 0.724286 0.638654 0.557513
O O6 0.659832 0.797176 0.392123
O O7 0.595702 0.668195 0.440955
O O8 0.486235 0.150897 0.620465
O O9 0.406764 0.124076 0.326783
O O10 0.535171 0.172594 0.462727
O O11 0.500000 0.000000 0.500000
O O12 0.564021 0.994707 0.311792
O O13 0.184411 0.494869 0.380074
O O14 0.162658 0.368907 0.183793
O O15 0.861941 0.343481 0.563058
O O16 0.000000 0.959215 0.750000
#
# Coordination Sequence:
#
# PCOD8129739 Si02
#       8
#     8   8   8   4   8   8   8   8
#     4   9  20  35  58  81 101 132 185 230 280 320
#     4   9  20  37  55  76 105 139 186 230 267 319
#     4  10  17  29  43  71 110 146 172 208 256 314
#     4  10  16  28  44  66 106 146 172 212 244 302
#     4  10  20  34  51  78 109 147 185 215 262 328
#     4  11  18  30  49  75 116 149 173 211 266 325
#     4   9  18  38  58  79  99 131 178 240 283 312
#     4  11  19  32  50  81 111 146 177 219 266 331
#
# _framework density 20.206099999999999
#
# number of rings (size 3 to 8) (size 9 to 14) (size 15 to 20)
#    0.000    2.133    5.333    0.000    0.000    3.200 
#    2.400    0.000    0.000    0.800    0.000    0.000 
#    0.000    0.000    0.000    0.000    0.000    0.000 
#
# Total GULP energy -371791.950905 kJ/mol
# GULP energy per Si atom -12393.065030 kJ/mol
# Density = 2.016011 g / cm^3
# Si number density = 20.206100 Si / 1000 Ang^3
#
#
#
# Elastic Constant Matrix: (Units=GPa)
#
#
# Indices 1 2 3 4 5 6 
#
# 1 54.6042 20.6792 40.6807 0.0000 -1.9793 0.0000
# 2 20.6792 52.0135 39.8280 0.0000 -4.5599 0.0000
# 3 40.6807 39.8280 103.4752 0.0000 -10.2406 0.0000
# 4 0.0000 0.0000 0.0000 24.4618 0.0000 -5.2174
# 5 -1.9793 -4.5599 -10.2406 0.0000 30.2529 0.0000
# 6 0.0000 0.0000 0.0000 -5.2174 0.0000 25.7107
#
#
#
# Elastic Compliance Matrix: (Units=1/GPa)
#
#
# Indices 1 2 3 4 5 6 
#
# 1 0.026477 -0.003657 -0.009193 0.000000 -0.001931 0.000000
# 2 -0.003657 0.027775 -0.009170 0.000000 0.000843 0.000000
# 3 -0.009193 -0.009170 0.017187 0.000000 0.003834 0.000000
# 4 0.000000 0.000000 0.000000 0.042729 0.000000 0.008671
# 5 -0.001931 0.000843 0.003834 0.000000 0.034353 0.000000
# 6 0.000000 0.000000 0.000000 0.008671 0.000000 0.040654
#
#
# Mechanical properties :
#
#
# Convention : Reuss Voigt Hill
#
# Bulk Modulus (GPa) = 36.49520 45.82987 41.16253
# Shear Modulus (GPa) = 20.63147 23.34543 21.98845
#
# Velocity S-wave (km/s) = 3.19886 3.40275 3.30238
# Velocity P-wave (km/s) = 5.63420 6.17809 5.91240
#
# Compressibility (1/GPa) = 0.02740086
#
# Stress axis : x y z
#
# Youngs Moduli (GPa) = 37.76817 36.00375 58.18270
#
# Poissons Ratio (x) = 0.13165 0.53488
# Poissons Ratio (y) = 0.13810 0.53351
# Poissons Ratio (z) = 0.34720 0.33014
#
# Static dielectric constant tensor:
#      x y z
#    x 3.584920 0.000000 -0.270190 
#    y 0.000000 3.023680 0.000000 
#    z -0.270190 0.000000 4.295300 
# 
# 
# High freq. dielectric constant tensor:
#      x y z
#    x 1.758180 0.000000 -0.006010 
#    y 0.000000 1.767690 0.000000 
#    z -0.006010 0.000000 1.794980 
# 
# From -- ./inp_files/123151.got.cif
#   From: 2010.06.25/outbox.cif.g09.slc.cpg/sg15_62_cif.got.tgz:123151.got - 2010.06.28 07:06:18.
