data_PCOD8129052
_publ_section_title
;
Structure prediction by ZEFSAII (Michael W. Deem and Ramdas Pophale) SiO2 
 PCOD8129052
Probable space group: P 21/C
;
_chemical_formula_sum "Si O2"
_cell_formula_units_Z 32
_cell_length_a 11.514562
_cell_length_b 10.686036
_cell_length_c 12.996247
_cell_angle_alpha 90.000000
_cell_angle_beta 112.727586
_cell_angle_gamma 90.000000
_cell_volume 1474.955072
_symmetry_space_group_name_H-M "P 21/C"
_symmetry_group_IT_number 14
_symmetry_cell_setting 'monoclinic'
loop_
_space_group_symop_operation_xyz
x,y,z
-x,1/2+y,1/2-z
-x,-y,-z
x,1/2-y,1/2+z
loop_
_atom_site_type_symbol
_atom_site_label
_atom_site_fract_x
_atom_site_fract_y
_atom_site_fract_z
Si Si1 0.909798 0.883137 0.993452
Si Si2 0.282479 0.749010 0.505915
Si Si3 0.832196 0.646408 0.698791
Si Si4 0.627367 0.454763 0.597506
Si Si5 0.541202 0.272621 0.745483
Si Si6 0.983686 0.128049 0.557812
Si Si7 0.582133 0.082602 0.601684
Si Si8 0.714062 0.623510 0.256247
O O1 0.885274 0.873255 0.104527
O O2 0.780631 0.904459 0.887419
O O3 0.965844 0.748706 0.984358
O O4 0.000000 0.000000 0.000000
O O5 0.275541 0.609716 0.453012
O O6 0.343049 0.742539 0.639015
O O7 0.159283 0.835246 0.464916
O O8 0.375446 0.805749 0.454603
O O9 0.702903 0.571388 0.669967
O O10 0.799749 0.790207 0.712612
O O11 0.940863 0.600279 0.812308
O O12 0.500000 0.500000 0.500000
O O13 0.590545 0.376180 0.684528
O O14 0.505506 0.145590 0.670566
O O15 0.422099 0.317103 0.769366
O O16 0.000000 0.000000 0.500000
O O17 0.500000 0.000000 0.500000
O O18 0.698144 0.004556 0.687962
#
# Coordination Sequence:
#
# PCOD8129052 Si02
#       8
#     4   4   4   4   4   4   4   4
#     4  11  27  46  71 101 134 186 241 287 354 419
#     4  11  25  44  68 100 136 181 232 286 358 420
#     4  11  26  45  69  98 140 179 233 290 359 415
#     4  11  24  42  70 102 136 179 228 292 353 429
#     4  11  25  41  68 101 137 178 224 283 350 428
#     4  11  27  45  71  99 139 187 238 297 350 424
#     4  11  26  42  68 102 137 176 229 282 352 427
#     4  11  26  44  69 100 138 184 221 294 350 424
#
# _framework density 21.695575999999999
#
# number of rings (size 3 to 8) (size 9 to 14) (size 15 to 20)
#    0.000    1.000    1.250    3.000   14.000    4.000 
#    0.000    0.000    0.000    0.000    0.000    0.000 
#    0.000    0.000    0.000    0.000    0.000    0.000 
#
# Total GULP energy -396700.190229 kJ/mol
# GULP energy per Si atom -12396.880945 kJ/mol
# Density = 2.164620 g / cm^3
# Si number density = 21.695576 Si / 1000 Ang^3
#
#
#
# Elastic Constant Matrix: (Units=GPa)
#
#
# Indices 1 2 3 4 5 6 
#
# 1 73.2920 10.1422 34.9086 0.0000 0.1924 0.0000
# 2 10.1422 95.4436 46.8199 0.0000 -5.2414 0.0000
# 3 34.9086 46.8199 155.7413 0.0000 -1.0353 0.0000
# 4 0.0000 0.0000 0.0000 39.9528 0.0000 4.4586
# 5 0.1924 -5.2414 -1.0353 0.0000 41.4123 0.0000
# 6 0.0000 0.0000 0.0000 4.4586 0.0000 36.1503
#
#
#
# Elastic Compliance Matrix: (Units=1/GPa)
#
#
# Indices 1 2 3 4 5 6 
#
# 1 0.015276 0.000057 -0.003442 0.000000 -0.000150 0.000000
# 2 0.000057 0.012379 -0.003725 0.000000 0.001473 0.000000
# 3 -0.003442 -0.003725 0.008311 0.000000 -0.000248 0.000000
# 4 0.000000 0.000000 0.000000 0.025379 0.000000 -0.003130
# 5 -0.000150 0.001473 -0.000248 0.000000 0.024328 0.000000
# 6 0.000000 0.000000 0.000000 -0.003130 0.000000 0.028048
#
#
# Mechanical properties :
#
#
# Convention : Reuss Voigt Hill
#
# Bulk Modulus (GPa) = 45.98439 56.46870 51.22655
# Shear Modulus (GPa) = 36.98505 39.01013 37.99759
#
# Velocity S-wave (km/s) = 4.13331 4.24496 4.18951
# Velocity P-wave (km/s) = 6.63478 7.07888 6.86043
#
# Compressibility (1/GPa) = 0.02174651
#
# Stress axis : x y z
#
# Youngs Moduli (GPa) = 65.46188 80.77988 120.32965
#
# Poissons Ratio (x) = -0.00461 0.41420
# Poissons Ratio (y) = -0.00373 0.44817
# Poissons Ratio (z) = 0.22533 0.30087
#
# Static dielectric constant tensor:
#      x y z
#    x 3.349720 0.000000 -0.450690 
#    y 0.000000 3.797800 0.000000 
#    z -0.450690 0.000000 3.777580 
# 
# 
# High freq. dielectric constant tensor:
#      x y z
#    x 1.843390 0.000000 -0.002900 
#    y 0.000000 1.872420 0.000000 
#    z -0.002900 0.000000 1.875240 
# 
# From -- ./inp_files/29408.got.cif
#   From: 2010.03.12/outbox.cif.g09.slc.cpg/sg14_15_cif.got.tgz:29408.got - 2010.03.31 13:35:05.
