data_PCOD8129816
_publ_section_title
;
Structure prediction by ZEFSAII (Michael W. Deem and Ramdas Pophale) SiO2 
 PCOD8129816
Probable space group: C 2/C
;
_chemical_formula_sum "Si O2"
_cell_formula_units_Z 40
_cell_length_a 20.496575
_cell_length_b 22.727960
_cell_length_c 5.271318
_cell_angle_alpha 90.000000
_cell_angle_beta 78.985293
_cell_angle_gamma 90.000000
_cell_volume 2410.381923
_symmetry_space_group_name_H-M "C 2/C"
_symmetry_group_IT_number 15
_symmetry_cell_setting 'monoclinic'
loop_
_space_group_symop_operation_xyz
x,y,z
-x,y,1/2-z
-x,-y,-z
x,-y,1/2+z
1/2+x,1/2+y,z
1/2-x,1/2+y,1/2-z
1/2-x,1/2-y,-z
1/2+x,1/2-y,1/2+z
loop_
_atom_site_type_symbol
_atom_site_label
_atom_site_fract_x
_atom_site_fract_y
_atom_site_fract_z
Si Si1 0.573894 0.524033 0.495516
Si Si2 0.427485 0.276635 0.875424
Si Si3 0.604104 0.654509 0.606174
Si Si4 0.752881 0.679454 0.518147
Si Si5 0.695396 0.198558 0.520276
O O1 0.500000 0.500000 0.500000
O O2 0.610148 0.487395 0.697268
O O3 0.571832 0.591672 0.576671
O O4 0.500000 0.252038 0.750000
O O5 0.399266 0.309586 0.651356
O O6 0.378526 0.222928 0.971881
O O7 0.433854 0.317358 0.122975
O O8 0.681608 0.649970 0.619054
O O9 0.750000 0.750000 0.500000
O O10 0.799652 0.661567 0.722100
O O11 0.786414 0.656591 0.232169
O O12 0.750000 0.250000 0.500000
#
# Coordination Sequence:
#
# PCOD8129816 Si02
#       5
#     8   8   8   8   8
#     4  10  23  37  46  59  87 126 164 208 247 267
#     4  12  23  29  46  73  92 118 159 205 240 291
#     4  12  21  34  51  66  86 125 168 208 241 283
#     4  10  16  30  51  68  85 110 152 204 241 289
#     4  10  16  32  45  64  95 113 141 200 242 283
#
# _framework density 16.59488
#
# number of rings (size 3 to 8) (size 9 to 14) (size 15 to 20)
#    0.000    1.200    8.000    1.800    8.400    0.000 
#    0.000    0.000    0.000    0.000    0.000    0.000 
#    0.000    0.000    0.000    0.000    0.000   20.000 
#
# Total GULP energy -247804.278912 kJ/mol
# GULP energy per Si atom -12390.213946 kJ/mol
# Density = 1.655711 g / cm^3
# Si number density = 16.594880 Si / 1000 Ang^3
#
#
#
# Elastic Constant Matrix: (Units=GPa)
#
#
# Indices 1 2 3 4 5 6 
#
# 1 79.2369 25.4954 26.6590 0.0000 -11.0908 0.0000
# 2 25.4954 24.8506 9.8402 0.0000 -2.5401 0.0000
# 3 26.6590 9.8402 162.0196 0.0000 15.0215 0.0000
# 4 0.0000 0.0000 0.0000 15.0583 0.0000 6.1249
# 5 -11.0908 -2.5401 15.0215 0.0000 32.1561 0.0000
# 6 0.0000 0.0000 0.0000 6.1249 0.0000 19.0385
#
#
#
# Elastic Compliance Matrix: (Units=1/GPa)
#
#
# Indices 1 2 3 4 5 6 
#
# 1 0.020863 -0.019542 -0.002895 0.000000 0.007005 0.000000
# 2 -0.019542 0.060206 -0.000269 0.000000 -0.001859 0.000000
# 3 -0.002895 -0.000269 0.007065 0.000000 -0.004320 0.000000
# 4 0.000000 0.000000 0.000000 0.076407 0.000000 -0.024581
# 5 0.007005 -0.001859 -0.004320 0.000000 0.035386 0.000000
# 6 0.000000 0.000000 0.000000 -0.024581 0.000000 0.060433
#
#
# Mechanical properties :
#
#
# Convention : Reuss Voigt Hill
#
# Bulk Modulus (GPa) = 23.40703 43.34403 33.37553
# Shear Modulus (GPa) = 15.62444 26.85809 21.24127
#
# Velocity S-wave (km/s) = 3.07175 4.02737 3.58157
# Velocity P-wave (km/s) = 5.16880 6.91389 6.10403
#
# Compressibility (1/GPa) = 0.04272220
#
# Stress axis : x y z
#
# Youngs Moduli (GPa) = 47.93243 16.60972 141.53496
#
# Poissons Ratio (x) = 0.32458 0.40979
# Poissons Ratio (y) = 0.93668 0.03805
# Poissons Ratio (z) = 0.13878 0.00447
#
# Static dielectric constant tensor:
#      x y z
#    x 1.581210 0.000000 -5.706350 
#    y 0.000000 2.643630 0.000000 
#    z -5.706350 0.000000 -19.129270 
# 
# 
# High freq. dielectric constant tensor:
#      x y z
#    x 1.619470 0.000000 0.014930 
#    y 0.000000 1.554820 0.000000 
#    z 0.014930 0.000000 1.688890 
# 
# From -- ./inp_files/10534.got.cif
#   From: 2010.06.25/outbox.cif.g09.slc.cpg/sg15_6_cif.got.tgz:10534.got - 2010.06.28 07:06:18.
