data_PCOD8129434
_publ_section_title
;
Structure prediction by ZEFSAII (Michael W. Deem and Ramdas Pophale) SiO2 
 PCOD8129434
Probable space group: P 21/C
;
_chemical_formula_sum "Si O2"
_cell_formula_units_Z 28
_cell_length_a 14.745084
_cell_length_b 7.742409
_cell_length_c 12.826175
_cell_angle_alpha 90.000000
_cell_angle_beta 125.080274
_cell_angle_gamma 90.000000
_cell_volume 1198.280116
_symmetry_space_group_name_H-M "P 21/C"
_symmetry_group_IT_number 14
_symmetry_cell_setting 'monoclinic'
loop_
_space_group_symop_operation_xyz
x,y,z
-x,1/2+y,1/2-z
-x,-y,-z
x,1/2-y,1/2+z
loop_
_atom_site_type_symbol
_atom_site_label
_atom_site_fract_x
_atom_site_fract_y
_atom_site_fract_z
Si Si1 0.702990 0.956790 0.362306
Si Si2 0.714096 0.332044 0.306812
Si Si3 0.616929 0.917445 0.088775
Si Si4 0.532785 0.894144 0.420920
Si Si5 0.115872 0.876061 0.259770
Si Si6 0.105713 0.284956 0.886581
Si Si7 0.210598 0.565030 0.428484
O O1 0.646332 0.860164 0.226259
O O2 0.607525 0.995126 0.385834
O O3 0.806202 0.842801 0.468532
O O4 0.751823 0.138227 0.356962
O O5 0.581752 0.327593 0.203355
O O6 0.784737 0.403476 0.256293
O O7 0.741532 0.453945 0.423310
O O8 0.695546 0.069338 0.098375
O O9 0.618756 0.753468 0.013712
O O10 0.500000 0.000000 0.000000
O O11 0.500000 0.000000 0.500000
O O12 0.148297 0.747774 0.376235
O O13 0.010167 0.778932 0.136597
O O14 0.087183 0.063577 0.289075
O O15 0.143569 0.108621 0.854515
#
# Coordination Sequence:
#
# PCOD8129434 Si02
#       7
#     4   4   4   4   4   4   4
#     4  12  26  45  73 112 145 199 249 303 379 442
#     4  12  28  47  75 108 153 194 252 311 375 446
#     4  12  25  46  73 105 153 197 240 306 375 440
#     4  12  28  44  72 108 151 198 249 306 372 454
#     4  12  26  53  76 111 147 199 247 315 374 445
#     4  12  27  49  79 109 149 196 252 307 376 448
#     4  12  26  49  72 110 150 193 250 309 371 443
#
# _framework density 23.366821999999999
#
# number of rings (size 3 to 8) (size 9 to 14) (size 15 to 20)
#    0.000    0.000    7.143    1.714    6.000    1.143 
#    2.571    0.000    0.000    0.000    0.000    0.000 
#    0.000    0.000    0.000    0.000    0.000    0.000 
#
# Total GULP energy -347107.990867 kJ/mol
# GULP energy per Si atom -12396.713960 kJ/mol
# Density = 2.331364 g / cm^3
# Si number density = 23.366822 Si / 1000 Ang^3
#
#
#
# Elastic Constant Matrix: (Units=GPa)
#
#
# Indices 1 2 3 4 5 6 
#
# 1 91.1143 15.2695 49.1434 0.0000 3.0961 0.0000
# 2 15.2695 97.7513 25.9765 0.0000 -6.4421 0.0000
# 3 49.1434 25.9765 139.1784 0.0000 0.9114 0.0000
# 4 0.0000 0.0000 0.0000 38.8829 0.0000 0.0378
# 5 3.0961 -6.4421 0.9114 0.0000 37.3999 0.0000
# 6 0.0000 0.0000 0.0000 0.0378 0.0000 33.9130
#
#
#
# Elastic Compliance Matrix: (Units=1/GPa)
#
#
# Indices 1 2 3 4 5 6 
#
# 1 0.013683 -0.000983 -0.004640 0.000000 -0.001189 0.000000
# 2 -0.000983 0.010972 -0.001714 0.000000 0.002013 0.000000
# 3 -0.004640 -0.001714 0.009144 0.000000 -0.000134 0.000000
# 4 0.000000 0.000000 0.000000 0.025718 0.000000 -0.000029
# 5 -0.001189 0.002013 -0.000134 0.000000 0.027186 0.000000
# 6 0.000000 0.000000 0.000000 -0.000029 0.000000 0.029487
#
#
# Mechanical properties :
#
#
# Convention : Reuss Voigt Hill
#
# Bulk Modulus (GPa) = 52.28694 56.53585 54.41140
# Shear Modulus (GPa) = 36.43258 37.88281 37.15769
#
# Velocity S-wave (km/s) = 3.95290 4.03081 3.99205
# Velocity P-wave (km/s) = 6.57716 6.77574 6.67719
#
# Compressibility (1/GPa) = 0.01912524
#
# Stress axis : x y z
#
# Youngs Moduli (GPa) = 73.08302 91.14379 109.35827
#
# Poissons Ratio (x) = 0.08956 0.50745
# Poissons Ratio (y) = 0.07181 0.18744
# Poissons Ratio (z) = 0.33912 0.15622
#
# Static dielectric constant tensor:
#      x y z
#    x 3.602250 0.000000 -0.015250 
#    y 0.000000 2.830000 0.000000 
#    z -0.015250 0.000000 3.561060 
# 
# 
# High freq. dielectric constant tensor:
#      x y z
#    x 1.926870 0.000000 0.010790 
#    y 0.000000 1.932880 0.000000 
#    z 0.010790 0.000000 1.926990 
# 
# From -- ./inp_files/31678.got.cif
#   From: 2010.03.12/outbox.cif.g09.slc.cpg/sg14_16_cif.got.tgz:31678.got - 2010.03.31 13:35:05.
