data_PCOD8129489
_publ_section_title
;
Structure prediction by ZEFSAII (Michael W. Deem and Ramdas Pophale) SiO2 
 PCOD8129489
Probable space group: P 21/C
;
_chemical_formula_sum "Si O2"
_cell_formula_units_Z 20
_cell_length_a 7.119650
_cell_length_b 21.445084
_cell_length_c 7.735591
_cell_angle_alpha 90.000000
_cell_angle_beta 142.608857
_cell_angle_gamma 90.000000
_cell_volume 717.215365
_symmetry_space_group_name_H-M "P 21/C"
_symmetry_group_IT_number 14
_symmetry_cell_setting 'monoclinic'
loop_
_space_group_symop_operation_xyz
x,y,z
-x,1/2+y,1/2-z
-x,-y,-z
x,1/2-y,1/2+z
loop_
_atom_site_type_symbol
_atom_site_label
_atom_site_fract_x
_atom_site_fract_y
_atom_site_fract_z
Si Si1 0.231483 0.312011 0.264142
Si Si2 0.850984 0.499576 0.692603
Si Si3 0.256078 0.320354 0.677236
Si Si4 0.514877 0.049605 0.357205
Si Si5 0.142486 0.861171 0.816014
O O1 0.130115 0.316738 0.389315
O O2 0.399807 0.246355 0.338155
O O3 0.486390 0.365380 0.415715
O O4 0.947806 0.325922 0.928315
O O5 0.500000 0.500000 0.500000
O O6 0.801839 0.537335 0.478462
O O7 0.987280 0.430882 0.762485
O O8 0.147501 0.536752 0.000233
O O9 0.500918 0.376762 0.894076
O O10 0.962715 0.325274 0.589865
O O11 0.500000 0.000000 0.500000
#
# Coordination Sequence:
#
# PCOD8129489 Si02
#       5
#     4   4   4   4   4
#     4  12  30  50  81 122 155 225 274 346 417 493
#     4  12  27  52  81 121 166 213 274 344 415 497
#     4  12  29  53  85 115 171 213 285 339 418 497
#     4  12  27  50  81 118 162 217 267 338 420 489
#     4  12  29  54  82 119 169 213 279 345 411 499
#
# _framework density 27.885626999999999
#
# number of rings (size 3 to 8) (size 9 to 14) (size 15 to 20)
#    0.000    0.000    4.000    3.600    2.800    8.000 
#    0.000    0.000    0.000    0.000    0.000    0.000 
#    0.000    0.000    0.000    0.000    0.000    0.000 
#
# Total GULP energy -247854.302185 kJ/mol
# GULP energy per Si atom -12392.715109 kJ/mol
# Density = 2.782216 g / cm^3
# Si number density = 27.885627 Si / 1000 Ang^3
#
#
#
# Elastic Constant Matrix: (Units=GPa)
#
#
# Indices 1 2 3 4 5 6 
#
# 1 126.3544 2.7152 38.2826 0.0000 -24.0098 0.0000
# 2 2.7152 148.3358 36.1431 0.0000 -22.8109 0.0000
# 3 38.2826 36.1431 142.7079 0.0000 -3.9703 0.0000
# 4 0.0000 0.0000 0.0000 31.0412 0.0000 1.8030
# 5 -24.0098 -22.8109 -3.9703 0.0000 41.9287 0.0000
# 6 0.0000 0.0000 0.0000 1.8030 0.0000 38.7911
#
#
#
# Elastic Compliance Matrix: (Units=1/GPa)
#
#
# Indices 1 2 3 4 5 6 
#
# 1 0.009932 0.001472 -0.002864 0.000000 0.006217 0.000000
# 2 0.001472 0.008042 -0.002293 0.000000 0.005001 0.000000
# 3 -0.002864 -0.002293 0.008298 0.000000 -0.002102 0.000000
# 4 0.000000 0.000000 0.000000 0.032302 0.000000 -0.001501
# 5 0.006217 0.005001 -0.002102 0.000000 0.029932 0.000000
# 6 0.000000 0.000000 0.000000 -0.001501 0.000000 0.025849
#
#
# Mechanical properties :
#
#
# Convention : Reuss Voigt Hill
#
# Bulk Modulus (GPa) = 52.90309 63.51999 58.21154
# Shear Modulus (GPa) = 39.05488 45.03602 42.04545
#
# Velocity S-wave (km/s) = 3.74644 4.02310 3.88723
# Velocity P-wave (km/s) = 6.14223 6.66398 6.40842
#
# Compressibility (1/GPa) = 0.01890249
#
# Stress axis : x y z
#
# Youngs Moduli (GPa) = 100.68749 124.34417 120.51364
#
# Poissons Ratio (x) = -0.18305 0.34517
# Poissons Ratio (y) = -0.14822 0.27629
# Poissons Ratio (z) = 0.28838 0.28507
#
# Static dielectric constant tensor:
#      x y z
#    x 5.288290 0.000000 -0.404340 
#    y 0.000000 5.585120 0.000000 
#    z -0.404340 0.000000 6.570170 
# 
# 
# High freq. dielectric constant tensor:
#      x y z
#    x 2.140250 0.000000 -0.009110 
#    y 0.000000 2.145330 0.000000 
#    z -0.009110 0.000000 2.120370 
# 
# From -- ./inp_files/10840.got.cif
#   From: 2010.03.12/outbox.cif.g09.slc.cpg/sg14_6_cif.got.tgz:10840.got - 2010.03.31 13:35:05.
