data_PCOD8129441
_publ_section_title
;
Structure prediction by ZEFSAII (Michael W. Deem and Ramdas Pophale) SiO2 
 PCOD8129441
Probable space group: P 21/C
;
_chemical_formula_sum "Si O2"
_cell_formula_units_Z 20
_cell_length_a 4.942531
_cell_length_b 8.800447
_cell_length_c 16.757688
_cell_angle_alpha 90.000000
_cell_angle_beta 79.751174
_cell_angle_gamma 90.000000
_cell_volume 717.270391
_symmetry_space_group_name_H-M "P 21/C"
_symmetry_group_IT_number 14
_symmetry_cell_setting 'monoclinic'
loop_
_space_group_symop_operation_xyz
x,y,z
-x,1/2+y,1/2-z
-x,-y,-z
x,1/2-y,1/2+z
loop_
_atom_site_type_symbol
_atom_site_label
_atom_site_fract_x
_atom_site_fract_y
_atom_site_fract_z
Si Si1 0.583547 0.654080 0.392755
Si Si2 0.116217 0.369065 0.222028
Si Si3 0.025352 0.819944 0.986736
Si Si4 0.540199 0.150031 0.826779
Si Si5 0.671899 0.409577 0.923275
O O1 0.735832 0.707300 0.304198
O O2 0.271035 0.711871 0.410792
O O3 0.602993 0.471282 0.393850
O O4 0.736471 0.728274 0.461943
O O5 0.272644 0.418028 0.295181
O O6 0.164659 0.476301 0.143286
O O7 0.795906 0.339695 0.252767
O O8 0.092236 0.707676 0.056931
O O9 0.000000 0.000000 0.000000
O O10 0.475292 0.307987 0.875764
O O11 0.500000 0.500000 0.000000
#
# Coordination Sequence:
#
# PCOD8129441 Si02
#       5
#     4   4   4   4   4
#     4  12  25  47  75 109 160 211 269 341 427 502
#     4  12  27  50  76 116 161 218 278 347 424 510
#     4  12  26  47  77 114 158 206 270 350 423 490
#     4  12  27  50  77 112 167 222 271 341 437 511
#     4  12  28  52  85 125 162 218 293 363 412 515
#
# _framework density 27.883486999999999
#
# number of rings (size 3 to 8) (size 9 to 14) (size 15 to 20)
#    0.000    0.000    4.000    5.400    0.000    2.400 
#    0.000    0.000    0.000    0.000    0.000    0.000 
#    0.000    0.000    0.000    0.000    0.000    0.000 
#
# Total GULP energy -247872.387878 kJ/mol
# GULP energy per Si atom -12393.619394 kJ/mol
# Density = 2.782002 g / cm^3
# Si number density = 27.883487 Si / 1000 Ang^3
#
#
#
# Elastic Constant Matrix: (Units=GPa)
#
#
# Indices 1 2 3 4 5 6 
#
# 1 90.1325 17.0567 35.0524 0.0000 -9.1086 0.0000
# 2 17.0567 144.2548 49.8478 0.0000 4.5223 0.0000
# 3 35.0524 49.8478 133.3090 0.0000 -9.9904 0.0000
# 4 0.0000 0.0000 0.0000 65.9351 0.0000 3.5710
# 5 -9.1086 4.5223 -9.9904 0.0000 47.6488 0.0000
# 6 0.0000 0.0000 0.0000 3.5710 0.0000 30.8402
#
#
#
# Elastic Compliance Matrix: (Units=1/GPa)
#
#
# Indices 1 2 3 4 5 6 
#
# 1 0.012530 -0.000514 -0.002966 0.000000 0.001822 0.000000
# 2 -0.000514 0.008075 -0.002996 0.000000 -0.001493 0.000000
# 3 -0.002966 -0.002996 0.009530 0.000000 0.001716 0.000000
# 4 0.000000 0.000000 0.000000 0.015262 0.000000 -0.001767
# 5 0.001822 -0.001493 0.001716 0.000000 0.021837 0.000000
# 6 0.000000 0.000000 0.000000 -0.001767 0.000000 0.032630
#
#
# Mechanical properties :
#
#
# Convention : Reuss Voigt Hill
#
# Bulk Modulus (GPa) = 58.19700 63.51222 60.85461
# Shear Modulus (GPa) = 42.17881 46.60078 44.38980
#
# Velocity S-wave (km/s) = 3.89354 4.09255 3.99428
# Velocity P-wave (km/s) = 6.41324 6.72005 6.56844
#
# Compressibility (1/GPa) = 0.01718302
#
# Stress axis : x y z
#
# Youngs Moduli (GPa) = 79.81129 123.83747 104.92980
#
# Poissons Ratio (x) = 0.06362 0.31121
# Poissons Ratio (y) = 0.04100 0.31440
# Poissons Ratio (z) = 0.23671 0.37105
#
# Static dielectric constant tensor:
#      x y z
#    x 5.161270 0.000000 0.127700 
#    y 0.000000 5.455310 0.000000 
#    z 0.127700 0.000000 5.262690 
# 
# 
# High freq. dielectric constant tensor:
#      x y z
#    x 2.127010 0.000000 -0.006480 
#    y 0.000000 2.138790 0.000000 
#    z -0.006480 0.000000 2.134260 
# 
# From -- ./inp_files/52648.got.cif
#   From: 2010.03.12/outbox.cif.g09.slc.cpg/sg14_27_cif.got.tgz:52648.got - 2010.03.31 13:35:05.
