data_PCOD8129942
_publ_section_title
;
Structure prediction by ZEFSAII (Michael W. Deem and Ramdas Pophale) SiO2 
 PCOD8129942
Probable space group: C 2/C
;
_chemical_formula_sum "Si O2"
_cell_formula_units_Z 40
_cell_length_a 18.857435
_cell_length_b 9.732327
_cell_length_c 11.972692
_cell_angle_alpha 90.000000
_cell_angle_beta 108.268643
_cell_angle_gamma 90.000000
_cell_volume 2086.558367
_symmetry_space_group_name_H-M "C 2/C"
_symmetry_group_IT_number 15
_symmetry_cell_setting 'monoclinic'
loop_
_space_group_symop_operation_xyz
x,y,z
-x,y,1/2-z
-x,-y,-z
x,-y,1/2+z
1/2+x,1/2+y,z
1/2-x,1/2+y,1/2-z
1/2-x,1/2-y,-z
1/2+x,1/2-y,1/2+z
loop_
_atom_site_type_symbol
_atom_site_label
_atom_site_fract_x
_atom_site_fract_y
_atom_site_fract_z
Si Si1 0.324125 0.672954 0.749511
Si Si2 0.473724 0.344587 0.458087
Si Si3 0.302176 0.637579 0.267411
Si Si4 0.423485 0.376355 0.655749
Si Si5 0.128208 0.839188 0.460283
O O1 0.407889 0.658543 0.836405
O O2 0.286231 0.522850 0.738996
O O3 0.273878 0.778846 0.795752
O O4 0.330897 0.731010 0.625541
O O5 0.500000 0.500000 0.500000
O O6 0.445225 0.276677 0.561630
O O7 0.546819 0.269331 0.443997
O O8 0.368590 0.693582 0.219195
O O9 0.322461 0.671727 0.404921
O O10 0.500000 0.428400 0.750000
O O11 0.379508 0.502733 0.579854
#
# Coordination Sequence:
#
# PCOD8129942 Si02
#       5
#     8   8   8   8   8
#     4  11  22  34  54  83 108 141 174 221 269 316
#     4  10  16  33  56  80 102 131 187 226 255 294
#     4  11  21  35  52  80 112 139 174 221 270 312
#     4  10  17  30  55  80 106 135 182 226 260 303
#     4  10  17  33  55  77 104 137 182 223 259 303
#
# _framework density 19.170324999999998
#
# number of rings (size 3 to 8) (size 9 to 14) (size 15 to 20)
#    0.000    1.600    6.000    4.800    0.000    0.800 
#    0.000    0.000    0.000    3.600    0.000    0.000 
#    0.000    0.000    0.000    0.000    0.000    0.000 
#
# Total GULP energy -247778.621879 kJ/mol
# GULP energy per Si atom -12388.931094 kJ/mol
# Density = 1.912669 g / cm^3
# Si number density = 19.170325 Si / 1000 Ang^3
#
#
#
# Elastic Constant Matrix: (Units=GPa)
#
#
# Indices 1 2 3 4 5 6 
#
# 1 137.5006 35.8181 38.2057 0.0000 -16.0713 0.0000
# 2 35.8181 34.3422 8.5199 0.0000 0.7668 0.0000
# 3 38.2057 8.5199 92.3992 0.0000 -19.2453 0.0000
# 4 0.0000 0.0000 0.0000 7.3666 0.0000 1.3617
# 5 -16.0713 0.7668 -19.2453 0.0000 40.0432 0.0000
# 6 0.0000 0.0000 0.0000 1.3617 0.0000 22.1162
#
#
#
# Elastic Compliance Matrix: (Units=1/GPa)
#
#
# Indices 1 2 3 4 5 6 
#
# 1 0.011427 -0.011253 -0.002986 0.000000 0.003367 0.000000
# 2 -0.011253 0.041041 -0.000262 0.000000 -0.005428 0.000000
# 3 -0.002986 -0.000262 0.013149 0.000000 0.005126 0.000000
# 4 0.000000 0.000000 0.000000 0.137311 0.000000 -0.008454
# 5 0.003367 -0.005428 0.005126 0.000000 0.028892 0.000000
# 6 0.000000 0.000000 0.000000 -0.008454 0.000000 0.045736
#
#
# Mechanical properties :
#
#
# Convention : Reuss Voigt Hill
#
# Bulk Modulus (GPa) = 27.31069 47.70327 37.50698
# Shear Modulus (GPa) = 15.68561 26.01842 20.85201
#
# Velocity S-wave (km/s) = 2.86356 3.68805 3.30164
# Velocity P-wave (km/s) = 5.02102 6.56304 5.84312
#
# Compressibility (1/GPa) = 0.03661570
#
# Stress axis : x y z
#
# Youngs Moduli (GPa) = 87.51082 24.36583 76.05013
#
# Poissons Ratio (x) = 0.27418 0.22710
# Poissons Ratio (y) = 0.98472 0.01993
# Poissons Ratio (z) = 0.26132 0.00639
#
# Static dielectric constant tensor:
#      x y z
#    x 4.535940 0.000000 -0.848730 
#    y 0.000000 2.779980 0.000000 
#    z -0.848730 0.000000 4.035700 
# 
# 
# High freq. dielectric constant tensor:
#      x y z
#    x 1.773990 0.000000 -0.020360 
#    y 0.000000 1.646540 0.000000 
#    z -0.020360 0.000000 1.765120 
# 
# From -- ./inp_files/95145.got.cif
#   From: 2010.06.25/outbox.cif.g09.slc.cpg/sg15_48_cif.got.tgz:95145.got - 2010.06.28 07:06:18.
