data_PCOD8129356
_publ_section_title
;
Structure prediction by ZEFSAII (Michael W. Deem and Ramdas Pophale) SiO2 
 PCOD8129356
Probable space group: P 21/C
;
_chemical_formula_sum "Si O2"
_cell_formula_units_Z 24
_cell_length_a 4.981020
_cell_length_b 11.204012
_cell_length_c 18.770213
_cell_angle_alpha 90.000000
_cell_angle_beta 92.320795
_cell_angle_gamma 90.000000
_cell_volume 1046.657721
_symmetry_space_group_name_H-M "P 21/C"
_symmetry_group_IT_number 14
_symmetry_cell_setting 'monoclinic'
loop_
_space_group_symop_operation_xyz
x,y,z
-x,1/2+y,1/2-z
-x,-y,-z
x,1/2-y,1/2+z
loop_
_atom_site_type_symbol
_atom_site_label
_atom_site_fract_x
_atom_site_fract_y
_atom_site_fract_z
Si Si1 0.538068 0.744489 0.627170
Si Si2 0.002828 0.620501 0.844992
Si Si3 0.933134 0.385414 0.315265
Si Si4 0.501701 0.508518 0.914686
Si Si5 0.129668 0.366457 0.608714
Si Si6 0.395760 0.870294 0.981364
O O1 0.814779 0.676234 0.644208
O O2 0.581459 0.886225 0.626526
O O3 0.416810 0.714614 0.549062
O O4 0.320473 0.704712 0.684403
O O5 0.003080 0.574383 0.764239
O O6 0.792763 0.547998 0.890642
O O7 0.946982 0.762009 0.837355
O O8 0.286815 0.606255 0.887434
O O9 0.848991 0.505976 0.354180
O O10 0.500000 0.500000 0.000000
O O11 0.416453 0.324535 0.580689
O O12 0.915207 0.372771 0.542712
O O13 0.500000 0.000000 0.000000
#
# Coordination Sequence:
#
# PCOD8129356 Si02
#       6
#     4   4   4   4   4   4
#     4  12  25  43  73  99 145 174 232 283 348 406
#     4  12  28  47  71 102 143 186 231 281 351 421
#     4  12  26  45  67 108 132 188 223 284 345 409
#     4  12  27  50  73 105 138 187 237 288 349 417
#     4  12  24  43  72  97 141 173 231 282 341 407
#     4  12  22  43  66 107 133 174 228 287 341 398
#
# _framework density 22.930130999999999
#
# number of rings (size 3 to 8) (size 9 to 14) (size 15 to 20)
#    0.000    0.000    3.333    7.000    4.667    0.000 
#    0.000    0.000    0.000    0.000    0.000    0.000 
#    0.000    0.000    0.000    0.000    0.000    0.000 
#
# Total GULP energy -297744.717995 kJ/mol
# GULP energy per Si atom -12406.029916 kJ/mol
# Density = 2.287794 g / cm^3
# Si number density = 22.930131 Si / 1000 Ang^3
#
#
#
# Elastic Constant Matrix: (Units=GPa)
#
#
# Indices 1 2 3 4 5 6 
#
# 1 108.6760 17.2443 30.4967 0.0000 -15.3595 0.0000
# 2 17.2443 88.8191 12.1766 0.0000 -8.4025 0.0000
# 3 30.4967 12.1766 102.5952 0.0000 -15.1691 0.0000
# 4 0.0000 0.0000 0.0000 26.4475 0.0000 -1.5185
# 5 -15.3595 -8.4025 -15.1691 0.0000 36.3529 0.0000
# 6 0.0000 0.0000 0.0000 -1.5185 0.0000 38.8747
#
#
#
# Elastic Compliance Matrix: (Units=1/GPa)
#
#
# Indices 1 2 3 4 5 6 
#
# 1 0.010569 -0.001415 -0.002517 0.000000 0.003088 0.000000
# 2 -0.001415 0.011804 -0.000709 0.000000 0.001835 0.000000
# 3 -0.002517 -0.000709 0.011082 0.000000 0.003397 0.000000
# 4 0.000000 0.000000 0.000000 0.037896 0.000000 0.001480
# 5 0.003088 0.001835 0.003397 0.000000 0.030654 0.000000
# 6 0.000000 0.000000 0.000000 0.001480 0.000000 0.025781
#
#
# Mechanical properties :
#
#
# Convention : Reuss Voigt Hill
#
# Bulk Modulus (GPa) = 41.36890 46.65840 44.01365
# Shear Modulus (GPa) = 34.45276 36.34653 35.39964
#
# Velocity S-wave (km/s) = 3.88043 3.98565 3.93339
# Velocity P-wave (km/s) = 6.17717 6.44770 6.31388
#
# Compressibility (1/GPa) = 0.02417275
#
# Stress axis : x y z
#
# Youngs Moduli (GPa) = 94.61656 84.71483 90.23932
#
# Poissons Ratio (x) = 0.11985 0.22715
# Poissons Ratio (y) = 0.13386 0.06400
# Poissons Ratio (z) = 0.23816 0.06008
#
# Static dielectric constant tensor:
#      x y z
#    x 4.671140 0.000000 -0.272920 
#    y 0.000000 4.249700 0.000000 
#    z -0.272920 0.000000 4.157460 
# 
# 
# High freq. dielectric constant tensor:
#      x y z
#    x 1.923280 0.000000 -0.004330 
#    y 0.000000 1.920730 0.000000 
#    z -0.004330 0.000000 1.900740 
# 
# From -- ./inp_files/53044.got.cif
#   From: 2010.03.12/outbox.cif.g09.slc.cpg/sg14_27_cif.got.tgz:53044.got - 2010.03.31 13:35:05.
