data_PCOD8129949
_publ_section_title
;
Structure prediction by ZEFSAII (Michael W. Deem and Ramdas Pophale) SiO2 
 PCOD8129949
Probable space group: C 2/C
;
_chemical_formula_sum "Si O2"
_cell_formula_units_Z 64
_cell_length_a 18.184530
_cell_length_b 9.385785
_cell_length_c 18.888548
_cell_angle_alpha 90.000000
_cell_angle_beta 91.283170
_cell_angle_gamma 90.000000
_cell_volume 3223.015061
_symmetry_space_group_name_H-M "C 2/C"
_symmetry_group_IT_number 15
_symmetry_cell_setting 'monoclinic'
loop_
_space_group_symop_operation_xyz
x,y,z
-x,y,1/2-z
-x,-y,-z
x,-y,1/2+z
1/2+x,1/2+y,z
1/2-x,1/2+y,1/2-z
1/2-x,1/2-y,-z
1/2+x,1/2-y,1/2+z
loop_
_atom_site_type_symbol
_atom_site_label
_atom_site_fract_x
_atom_site_fract_y
_atom_site_fract_z
Si Si1 0.420996 0.200370 0.366850
Si Si2 0.320476 0.239713 0.234930
Si Si3 0.923693 0.083916 0.506564
Si Si4 0.406832 0.363299 0.608014
Si Si5 0.926368 0.411699 0.016344
Si Si6 0.936060 0.963331 0.858587
Si Si7 0.081320 0.342826 0.892894
Si Si8 0.324139 0.576052 0.240049
O O1 0.365062 0.168547 0.301446
O O2 0.388988 0.137740 0.441244
O O3 0.429092 0.368867 0.369378
O O4 0.501314 0.128278 0.354614
O O5 0.362826 0.214217 0.163178
O O6 0.306252 0.408132 0.238566
O O7 0.243671 0.159273 0.228079
O O8 0.896337 0.110724 0.425969
O O9 0.936374 0.231897 0.545222
O O10 0.872500 0.978016 0.551515
O O11 0.000000 0.000000 0.500000
O O12 0.434758 0.223387 0.568149
O O13 0.477874 0.429799 0.648577
O O14 0.343094 0.348355 0.665382
O O15 0.881622 0.521762 0.065896
O O16 0.000000 0.500000 0.000000
O O17 0.895310 0.901204 0.790063
#
# Coordination Sequence:
#
# PCOD8129949 Si02
#       8
#     8   8   8   8   8   8   8   8
#     4  10  18  38  64  90 114 153 197 241 298 357
#     4  11  25  43  60  81 122 164 202 243 291 353
#     4  10  16  33  63  93 115 139 191 256 296 341
#     4  11  19  37  65  91 115 150 200 247 295 349
#     4  10  21  35  60  99 126 144 187 253 309 349
#     4  10  18  36  65  91 113 148 202 247 292 352
#     4  11  20  38  62  94 119 151 197 245 300 351
#     4  11  25  42  58  84 121 163 202 244 292 354
#
# _framework density 19.857184
#
# number of rings (size 3 to 8) (size 9 to 14) (size 15 to 20)
#    0.000    1.500    5.000    3.000    1.750    2.000 
#    6.750    5.000    0.000    0.000    0.000    0.000 
#    0.000    0.000    0.000    0.000    0.000    0.000 
#
# Total GULP energy -396423.428003 kJ/mol
# GULP energy per Si atom -12388.232125 kJ/mol
# Density = 1.981199 g / cm^3
# Si number density = 19.857184 Si / 1000 Ang^3
#
#
#
# Elastic Constant Matrix: (Units=GPa)
#
#
# Indices 1 2 3 4 5 6 
#
# 1 50.3162 16.6537 20.6003 0.0000 -13.1231 0.0000
# 2 16.6537 81.5686 24.4991 0.0000 2.4037 0.0000
# 3 20.6003 24.4991 92.6625 0.0000 -10.1460 0.0000
# 4 0.0000 0.0000 0.0000 36.7370 0.0000 -4.3490
# 5 -13.1231 2.4037 -10.1460 0.0000 11.7863 0.0000
# 6 0.0000 0.0000 0.0000 -4.3490 0.0000 23.9411
#
#
#
# Elastic Compliance Matrix: (Units=1/GPa)
#
#
# Indices 1 2 3 4 5 6 
#
# 1 0.032280 -0.007278 -0.001274 0.000000 0.036329 0.000000
# 2 -0.007278 0.015402 -0.004069 0.000000 -0.014748 0.000000
# 3 -0.001274 -0.004069 0.013344 0.000000 0.010898 0.000000
# 4 0.000000 0.000000 0.000000 0.027819 0.000000 0.005053
# 5 0.036329 -0.014748 0.010898 0.000000 0.137683 0.000000
# 6 0.000000 0.000000 0.000000 0.005053 0.000000 0.042687
#
#
# Mechanical properties :
#
#
# Convention : Reuss Voigt Hill
#
# Bulk Modulus (GPa) = 27.94582 38.67259 33.30921
# Shear Modulus (GPa) = 16.31930 25.34584 20.83257
#
# Velocity S-wave (km/s) = 2.86987 3.57656 3.24253
# Velocity P-wave (km/s) = 5.00855 6.04759 5.55243
#
# Compressibility (1/GPa) = 0.03578352
#
# Stress axis : x y z
#
# Youngs Moduli (GPa) = 30.97890 64.92538 74.93905
#
# Poissons Ratio (x) = 0.47255 0.09549
# Poissons Ratio (y) = 0.22548 0.30492
# Poissons Ratio (z) = 0.03947 0.26417
#
# Static dielectric constant tensor:
#      x y z
#    x 3.283350 0.000000 0.012140 
#    y 0.000000 3.795100 0.000000 
#    z 0.012140 0.000000 4.415000 
# 
# 
# High freq. dielectric constant tensor:
#      x y z
#    x 1.724370 0.000000 -0.013100 
#    y 0.000000 1.777080 0.000000 
#    z -0.013100 0.000000 1.797730 
# 
# From -- ./inp_files/251577.got.cif
#   From: 2010.06.25/outbox.cif.g09.slc.cpg/sg15_126_cif.got.tgz:251577.got - 2010.06.28 07:06:18.
