data_PCOD8129076
_publ_section_title
;
Structure prediction by ZEFSAII (Michael W. Deem and Ramdas Pophale) SiO2 
 PCOD8129076
Probable space group: P 21/C
;
_chemical_formula_sum "Si O2"
_cell_formula_units_Z 32
_cell_length_a 12.097056
_cell_length_b 8.297958
_cell_length_c 14.796394
_cell_angle_alpha 90.000000
_cell_angle_beta 72.634842
_cell_angle_gamma 90.000000
_cell_volume 1417.578940
_symmetry_space_group_name_H-M "P 21/C"
_symmetry_group_IT_number 14
_symmetry_cell_setting 'monoclinic'
loop_
_space_group_symop_operation_xyz
x,y,z
-x,1/2+y,1/2-z
-x,-y,-z
x,1/2-y,1/2+z
loop_
_atom_site_type_symbol
_atom_site_label
_atom_site_fract_x
_atom_site_fract_y
_atom_site_fract_z
Si Si1 0.681808 0.661052 0.931133
Si Si2 0.731309 0.350243 0.607981
Si Si3 0.048803 0.647908 0.752003
Si Si4 0.966644 0.180175 0.538413
Si Si5 0.166187 0.310939 0.744316
Si Si6 0.446685 0.675182 0.502303
Si Si7 0.800649 0.716218 0.574152
Si Si8 0.724164 0.324057 0.823778
O O1 0.735866 0.801003 0.855653
O O2 0.706636 0.495584 0.874110
O O3 0.545837 0.688971 0.976892
O O4 0.744399 0.668506 0.012497
O O5 0.837059 0.239033 0.545479
O O6 0.621305 0.300293 0.575108
O O7 0.750797 0.537929 0.583946
O O8 0.704017 0.324028 0.720520
O O9 0.018278 0.703804 0.859484
O O10 0.091418 0.466627 0.740732
O O11 0.146212 0.764141 0.685390
O O12 0.926466 0.662482 0.729395
O O13 0.060485 0.297406 0.469777
O O14 0.000000 0.000000 0.500000
O O15 0.229514 0.310335 0.825534
O O16 0.500000 0.500000 0.500000
O O17 0.366337 0.700769 0.609577
#
# Coordination Sequence:
#
# PCOD8129076 Si02
#       8
#     4   4   4   4   4   4   4   4
#     4  12  26  48  73 109 145 195 246 302 363 439
#     4  11  27  48  74 109 148 196 246 303 372 442
#     4  11  25  42  68 109 152 187 234 306 369 438
#     4  11  24  43  70 109 146 186 241 301 367 440
#     4  12  25  42  72 108 148 193 239 301 370 439
#     4  12  27  49  76 106 146 194 250 304 360 442
#     4  12  25  44  74 104 148 193 245 296 367 439
#     4  11  27  48  74 109 147 191 246 305 373 434
#
# _framework density 22.573699000000001
#
# number of rings (size 3 to 8) (size 9 to 14) (size 15 to 20)
#    0.000    0.500    5.000    2.250    5.250    2.000 
#    0.000    0.000    0.000    0.000    0.000    0.000 
#    0.000    0.000    0.000    0.000    0.000    0.000 
#
# Total GULP energy -396863.899750 kJ/mol
# GULP energy per Si atom -12401.996867 kJ/mol
# Density = 2.252232 g / cm^3
# Si number density = 22.573699 Si / 1000 Ang^3
#
#
#
# Elastic Constant Matrix: (Units=GPa)
#
#
# Indices 1 2 3 4 5 6 
#
# 1 119.7132 17.5381 55.8941 0.0000 7.2239 0.0000
# 2 17.5381 82.6098 19.5965 0.0000 -0.5374 0.0000
# 3 55.8941 19.5965 125.0069 0.0000 4.6588 0.0000
# 4 0.0000 0.0000 0.0000 41.8176 0.0000 -4.3427
# 5 7.2239 -0.5374 4.6588 0.0000 39.2577 0.0000
# 6 0.0000 0.0000 0.0000 -4.3427 0.0000 31.9435
#
#
#
# Elastic Compliance Matrix: (Units=1/GPa)
#
#
# Indices 1 2 3 4 5 6 
#
# 1 0.010748 -0.001209 -0.004562 0.000000 -0.001453 0.000000
# 2 -0.001209 0.012715 -0.001474 0.000000 0.000571 0.000000
# 3 -0.004562 -0.001474 0.010285 0.000000 -0.000401 0.000000
# 4 0.000000 0.000000 0.000000 0.024256 0.000000 0.003298
# 5 -0.001453 0.000571 -0.000401 0.000000 0.025796 0.000000
# 6 0.000000 0.000000 0.000000 0.003298 0.000000 0.031754
#
#
# Mechanical properties :
#
#
# Convention : Reuss Voigt Hill
#
# Bulk Modulus (GPa) = 51.92527 57.04301 54.48414
# Shear Modulus (GPa) = 36.63986 38.22384 37.43185
#
# Velocity S-wave (km/s) = 4.03317 4.11943 4.07653
# Velocity P-wave (km/s) = 6.68888 6.92465 6.80778
#
# Compressibility (1/GPa) = 0.01925845
#
# Stress axis : x y z
#
# Youngs Moduli (GPa) = 93.03918 78.64634 97.22491
#
# Poissons Ratio (x) = 0.09509 0.44355
# Poissons Ratio (y) = 0.11249 0.14330
# Poissons Ratio (z) = 0.42446 0.11592
#
# Static dielectric constant tensor:
#      x y z
#    x 4.375870 0.000000 -0.159580 
#    y 0.000000 3.990640 0.000000 
#    z -0.159580 0.000000 4.454390 
# 
# 
# High freq. dielectric constant tensor:
#      x y z
#    x 1.888470 0.000000 -0.002040 
#    y 0.000000 1.894000 0.000000 
#    z -0.002040 0.000000 1.907710 
# 
# From -- ./inp_files/43709.got.cif
#   From: 2010.03.12/outbox.cif.g09.slc.cpg/sg14_22_cif.got.tgz:43709.got - 2010.03.31 13:35:05.
