data_PCOD8129002
_publ_section_title
;
Structure prediction by ZEFSAII (Michael W. Deem and Ramdas Pophale) SiO2 
 PCOD8129002
Probable space group: P 21/C
;
_chemical_formula_sum "Si O2"
_cell_formula_units_Z 20
_cell_length_a 8.269780
_cell_length_b 6.677862
_cell_length_c 16.471868
_cell_angle_alpha 90.000000
_cell_angle_beta 90.836577
_cell_angle_gamma 90.000000
_cell_volume 909.552882
_symmetry_space_group_name_H-M "P 21/C"
_symmetry_group_IT_number 14
_symmetry_cell_setting 'monoclinic'
loop_
_space_group_symop_operation_xyz
x,y,z
-x,1/2+y,1/2-z
-x,-y,-z
x,1/2-y,1/2+z
loop_
_atom_site_type_symbol
_atom_site_label
_atom_site_fract_x
_atom_site_fract_y
_atom_site_fract_z
Si Si1 0.713965 0.475280 0.293764
Si Si2 0.363633 0.877813 0.810189
Si Si3 0.113746 0.858127 0.055848
Si Si4 0.170832 0.229634 0.344028
Si Si5 0.346962 0.914656 0.452521
O O1 0.728304 0.248893 0.259902
O O2 0.529589 0.537512 0.275701
O O3 0.760025 0.489364 0.389478
O O4 0.831657 0.621539 0.243569
O O5 0.409638 0.742804 0.887450
O O6 0.244456 0.050512 0.837986
O O7 0.009885 0.744463 0.123461
O O8 0.211543 0.692430 0.006699
O O9 0.000000 0.000000 0.000000
O O10 0.271849 0.106898 0.409916
O O11 0.500000 0.000000 0.500000
#
# Coordination Sequence:
#
# PCOD8129002 Si02
#       5
#     4   4   4   4   4
#     4  11  26  43  73 100 140 186 236 292 350 432
#     4  11  23  47  69 105 135 185 245 291 351 425
#     4  12  27  46  70 106 147 186 231 299 366 426
#     4  11  25  46  69 100 144 183 236 292 361 425
#     4  11  26  45  73 103 138 190 239 295 358 430
#
# _framework density 21.988826
#
# number of rings (size 3 to 8) (size 9 to 14) (size 15 to 20)
#    0.000    0.800    4.000    1.800    8.400    1.600 
#    0.000    0.000    0.000    0.000    0.000    0.000 
#    0.000    0.000    0.000    0.000    0.000    0.000 
#
# Total GULP energy -248043.562787 kJ/mol
# GULP energy per Si atom -12402.178139 kJ/mol
# Density = 2.193878 g / cm^3
# Si number density = 21.988826 Si / 1000 Ang^3
#
#
#
# Elastic Constant Matrix: (Units=GPa)
#
#
# Indices 1 2 3 4 5 6 
#
# 1 87.0325 41.9727 33.1136 0.0000 -12.4289 0.0000
# 2 41.9727 128.2241 47.5817 0.0000 5.5946 0.0000
# 3 33.1136 47.5817 115.3893 0.0000 8.9540 0.0000
# 4 0.0000 0.0000 0.0000 35.2436 0.0000 -12.4231
# 5 -12.4289 5.5946 8.9540 0.0000 49.1595 0.0000
# 6 0.0000 0.0000 0.0000 -12.4231 0.0000 38.2098
#
#
#
# Elastic Compliance Matrix: (Units=1/GPa)
#
#
# Indices 1 2 3 4 5 6 
#
# 1 0.015340 -0.004086 -0.003098 0.000000 0.004908 0.000000
# 2 -0.004086 0.010302 -0.002946 0.000000 -0.001669 0.000000
# 3 -0.003098 -0.002946 0.010960 0.000000 -0.002444 0.000000
# 4 0.000000 0.000000 0.000000 0.032047 0.000000 0.010419
# 5 0.004908 -0.001669 -0.002444 0.000000 0.022218 0.000000
# 6 0.000000 0.000000 0.000000 0.010419 0.000000 0.029559
#
#
# Mechanical properties :
#
#
# Convention : Reuss Voigt Hill
#
# Bulk Modulus (GPa) = 61.19236 63.99797 62.59516
# Shear Modulus (GPa) = 34.21523 38.38778 36.30151
#
# Velocity S-wave (km/s) = 3.94893 4.18279 4.06754
# Velocity P-wave (km/s) = 6.97720 7.24539 7.11256
#
# Compressibility (1/GPa) = 0.01634191
#
# Stress axis : x y z
#
# Youngs Moduli (GPa) = 65.18888 97.06460 91.24098
#
# Poissons Ratio (x) = 0.39659 0.28268
# Poissons Ratio (y) = 0.26635 0.26882
# Poissons Ratio (z) = 0.20197 0.28598
#
# Static dielectric constant tensor:
#      x y z
#    x 3.940610 0.000000 -0.146540 
#    y 0.000000 4.293320 0.000000 
#    z -0.146540 0.000000 4.173370 
# 
# 
# High freq. dielectric constant tensor:
#      x y z
#    x 1.869090 0.000000 -0.009030 
#    y 0.000000 1.874340 0.000000 
#    z -0.009030 0.000000 1.878070 
# 
# From -- ./inp_files/53968.got.cif
#   From: 2010.03.12/outbox.cif.g09.slc.cpg/sg14_27_cif.got.tgz:53968.got - 2010.03.31 13:35:05.
