data_PCOD8129282
_publ_section_title
;
Structure prediction by ZEFSAII (Michael W. Deem and Ramdas Pophale) SiO2 
 PCOD8129282
Probable space group: P 21/C
;
_chemical_formula_sum "Si O2"
_cell_formula_units_Z 20
_cell_length_a 20.702614
_cell_length_b 7.726118
_cell_length_c 13.088298
_cell_angle_alpha 90.000000
_cell_angle_beta 25.660672
_cell_angle_gamma 90.000000
_cell_volume 906.563422
_symmetry_space_group_name_H-M "P 21/C"
_symmetry_group_IT_number 14
_symmetry_cell_setting 'monoclinic'
loop_
_space_group_symop_operation_xyz
x,y,z
-x,1/2+y,1/2-z
-x,-y,-z
x,1/2-y,1/2+z
loop_
_atom_site_type_symbol
_atom_site_label
_atom_site_fract_x
_atom_site_fract_y
_atom_site_fract_z
Si Si1 0.684253 0.869267 0.670312
Si Si2 0.056557 0.530864 0.307006
Si Si3 0.226069 0.495372 0.418307
Si Si4 0.348508 0.818724 0.134942
Si Si5 0.134777 0.605198 0.756121
O O1 0.719056 0.697589 0.686986
O O2 0.797181 0.911305 0.416764
O O3 0.707016 0.028252 0.714183
O O4 0.518861 0.853657 0.859332
O O5 0.080842 0.735829 0.262216
O O6 0.000000 0.500000 0.500000
O O7 0.937764 0.469448 0.392617
O O8 0.337762 0.636922 0.210917
O O9 0.222707 0.490828 0.547421
O O10 0.247062 0.817489 0.179354
O O11 0.000000 0.500000 0.000000
#
# Coordination Sequence:
#
# PCOD8129282 Si02
#       5
#     4   4   4   4   4
#     4  11  26  45  71 104 139 186 230 290 351 417
#     4  12  23  43  71 100 139 177 233 289 340 410
#     4  12  24  45  73 101 141 183 236 287 354 417
#     4  11  25  49  68 100 146 181 235 288 348 419
#     4  12  25  43  72 106 138 186 238 288 349 422
#
# _framework density 22.061333999999999
#
# number of rings (size 3 to 8) (size 9 to 14) (size 15 to 20)
#    0.000    0.400    4.000    5.400    0.000    1.600 
#    3.600    0.000    0.000    0.000    0.000    0.000 
#    0.000    0.000    0.000    0.000    0.000    0.000 
#
# Total GULP energy -248060.037096 kJ/mol
# GULP energy per Si atom -12403.001855 kJ/mol
# Density = 2.201112 g / cm^3
# Si number density = 22.061334 Si / 1000 Ang^3
#
#
#
# Elastic Constant Matrix: (Units=GPa)
#
#
# Indices 1 2 3 4 5 6 
#
# 1 99.7497 25.9890 44.1700 0.0000 7.6356 0.0000
# 2 25.9890 153.0383 39.8760 0.0000 3.1312 0.0000
# 3 44.1700 39.8760 120.4005 0.0000 3.2630 0.0000
# 4 0.0000 0.0000 0.0000 34.4410 0.0000 -2.6263
# 5 7.6356 3.1312 3.2630 0.0000 25.9689 0.0000
# 6 0.0000 0.0000 0.0000 -2.6263 0.0000 34.8337
#
#
#
# Elastic Compliance Matrix: (Units=1/GPa)
#
#
# Indices 1 2 3 4 5 6 
#
# 1 0.012330 -0.000958 -0.004125 0.000000 -0.002992 0.000000
# 2 -0.000958 0.007234 -0.002035 0.000000 -0.000335 0.000000
# 3 -0.004125 -0.002035 0.010489 0.000000 0.000140 0.000000
# 4 0.000000 0.000000 0.000000 0.029203 0.000000 0.002202
# 5 -0.002992 -0.000335 0.000140 0.000000 0.039410 0.000000
# 6 0.000000 0.000000 0.000000 0.002202 0.000000 0.028874
#
#
# Mechanical properties :
#
#
# Convention : Reuss Voigt Hill
#
# Bulk Modulus (GPa) = 63.22374 65.91759 64.57067
# Shear Modulus (GPa) = 34.00207 36.59229 35.29718
#
# Velocity S-wave (km/s) = 3.93014 4.07709 4.00429
# Velocity P-wave (km/s) = 7.02247 7.21856 7.12119
#
# Compressibility (1/GPa) = 0.01581684
#
# Stress axis : x y z
#
# Youngs Moduli (GPa) = 81.10089 138.23247 95.33525
#
# Poissons Ratio (x) = 0.13241 0.39327
# Poissons Ratio (y) = 0.07768 0.19405
# Poissons Ratio (z) = 0.33455 0.28137
#
# Static dielectric constant tensor:
#      x y z
#    x 3.828290 0.000000 -0.035180 
#    y 0.000000 2.220780 0.000000 
#    z -0.035180 0.000000 4.104070 
# 
# 
# High freq. dielectric constant tensor:
#      x y z
#    x 1.858450 0.000000 0.000220 
#    y 0.000000 1.891600 0.000000 
#    z 0.000220 0.000000 1.871460 
# 
# From -- ./inp_files/27879.got.cif
#   From: 2010.03.12/outbox.cif.g09.slc.cpg/sg14_14_cif.got.tgz:27879.got - 2010.03.31 13:35:05.
