data_PCOD8129310
_publ_section_title
;
Structure prediction by ZEFSAII (Michael W. Deem and Ramdas Pophale) SiO2 
 PCOD8129310
Probable space group: P 21/C
;
_chemical_formula_sum "Si O2"
_cell_formula_units_Z 16
_cell_length_a 5.243700
_cell_length_b 14.202430
_cell_length_c 9.206609
_cell_angle_alpha 90.000000
_cell_angle_beta 71.922506
_cell_angle_gamma 90.000000
_cell_volume 651.801303
_symmetry_space_group_name_H-M "P 21/C"
_symmetry_group_IT_number 14
_symmetry_cell_setting 'monoclinic'
loop_
_space_group_symop_operation_xyz
x,y,z
-x,1/2+y,1/2-z
-x,-y,-z
x,1/2-y,1/2+z
loop_
_atom_site_type_symbol
_atom_site_label
_atom_site_fract_x
_atom_site_fract_y
_atom_site_fract_z
Si Si1 0.264395 0.969227 0.371480
Si Si2 0.356131 0.874062 0.639620
Si Si3 0.357739 0.837698 0.094656
Si Si4 0.956828 0.899383 0.939551
O O1 0.408583 0.899733 0.461989
O O2 0.221347 0.909801 0.232802
O O3 0.441515 0.061116 0.302050
O O4 0.000000 0.000000 0.500000
O O5 0.409223 0.764034 0.655946
O O6 0.056556 0.897883 0.753856
O O7 0.148113 0.828003 0.997986
O O8 0.646302 0.874303 0.993895
O O9 0.000000 0.000000 0.000000
#
# Coordination Sequence:
#
# PCOD8129310 Si02
#       4
#     4   4   4   4
#     4  11  26  48  71 106 146 191 234 301 360 420
#     4  11  27  45  73 105 145 188 239 295 356 426
#     4  12  28  46  76 107 143 191 241 291 357 429
#     4  12  26  50  72 106 143 190 237 295 354 421
#
# _framework density 24.547359
#
# number of rings (size 3 to 8) (size 9 to 14) (size 15 to 20)
#    0.000    0.500    2.500    3.750   14.000    0.000 
#    0.000    0.000    0.000    0.000    0.000    0.000 
#    0.000    0.000    0.000    0.000    0.000    0.000 
#
# Total GULP energy -198408.971007 kJ/mol
# GULP energy per Si atom -12400.560688 kJ/mol
# Density = 2.449149 g / cm^3
# Si number density = 24.547359 Si / 1000 Ang^3
#
#
#
# Elastic Constant Matrix: (Units=GPa)
#
#
# Indices 1 2 3 4 5 6 
#
# 1 102.0336 6.6886 32.8632 0.0000 -23.0149 0.0000
# 2 6.6886 116.1514 12.6884 0.0000 -15.3770 0.0000
# 3 32.8632 12.6884 117.5855 0.0000 -20.8691 0.0000
# 4 0.0000 0.0000 0.0000 36.6547 0.0000 -3.7481
# 5 -23.0149 -15.3770 -20.8691 0.0000 52.1587 0.0000
# 6 0.0000 0.0000 0.0000 -3.7481 0.0000 21.1729
#
#
#
# Elastic Compliance Matrix: (Units=1/GPa)
#
#
# Indices 1 2 3 4 5 6 
#
# 1 0.011529 0.000157 -0.002506 0.000000 0.004131 0.000000
# 2 0.000157 0.008993 -0.000572 0.000000 0.002491 0.000000
# 3 -0.002506 -0.000572 0.009731 0.000000 0.002619 0.000000
# 4 0.000000 0.000000 0.000000 0.027785 0.000000 0.004918
# 5 0.004131 0.002491 0.002619 0.000000 0.022777 0.000000
# 6 0.000000 0.000000 0.000000 0.004918 0.000000 0.048101
#
#
# Mechanical properties :
#
#
# Convention : Reuss Voigt Hill
#
# Bulk Modulus (GPa) = 40.96536 48.91675 44.94106
# Shear Modulus (GPa) = 34.99047 40.89928 37.94488
#
# Velocity S-wave (km/s) = 3.77958 4.08626 3.93591
# Velocity P-wave (km/s) = 5.98093 6.49878 6.24522
#
# Compressibility (1/GPa) = 0.02441087
#
# Stress axis : x y z
#
# Youngs Moduli (GPa) = 86.73532 111.20067 102.75983
#
# Poissons Ratio (x) = -0.01743 0.25752
# Poissons Ratio (y) = -0.01359 0.05878
# Poissons Ratio (z) = 0.21736 0.06361
#
# Static dielectric constant tensor:
#      x y z
#    x -1.431480 0.000000 0.636520 
#    y 0.000000 4.532250 0.000000 
#    z 0.636520 0.000000 4.924240 
# 
# 
# High freq. dielectric constant tensor:
#      x y z
#    x 1.971840 0.000000 -0.004660 
#    y 0.000000 1.982300 0.000000 
#    z -0.004660 0.000000 1.993360 
# 
# From -- ./inp_files/4984.got.cif
#   From: 2010.03.12/outbox.cif.g09.slc.cpg/sg14_3_cif.got.tgz:4984.got - 2010.03.31 13:35:05.
