data_PCOD8129491
_publ_section_title
;
Structure prediction by ZEFSAII (Michael W. Deem and Ramdas Pophale) SiO2 
 PCOD8129491
Probable space group: P 21/C
;
_chemical_formula_sum "Si O2"
_cell_formula_units_Z 12
_cell_length_a 9.077117
_cell_length_b 5.446411
_cell_length_c 12.653585
_cell_angle_alpha 90.000000
_cell_angle_beta 45.494934
_cell_angle_gamma 90.000000
_cell_volume 446.145222
_symmetry_space_group_name_H-M "P 21/C"
_symmetry_group_IT_number 14
_symmetry_cell_setting 'monoclinic'
loop_
_space_group_symop_operation_xyz
x,y,z
-x,1/2+y,1/2-z
-x,-y,-z
x,1/2-y,1/2+z
loop_
_atom_site_type_symbol
_atom_site_label
_atom_site_fract_x
_atom_site_fract_y
_atom_site_fract_z
Si Si1 0.515629 0.716214 0.679181
Si Si2 0.285825 0.853754 0.611624
Si Si3 0.908443 0.512398 0.430049
O O1 0.532488 0.482107 0.747068
O O2 0.337052 0.660617 0.681975
O O3 0.746897 0.743109 0.508456
O O4 0.239115 0.721813 0.523699
O O5 0.500000 0.000000 0.500000
O O6 0.081564 0.997521 0.752506
O O7 0.000000 0.500000 0.500000
#
# Coordination Sequence:
#
# PCOD8129491 Si02
#       3
#     4   4   4
#     4  12  27  51  83 119 169 220 279 347 424 502
#     4  12  28  52  81 121 173 217 286 352 427 504
#     4  12  28  48  84 122 161 226 281 349 423 510
#
# _framework density 26.897072000000001
#
# number of rings (size 3 to 8) (size 9 to 14) (size 15 to 20)
#    0.000    0.000    3.333    5.000    4.667    1.333 
#    0.000    0.000    0.000    0.000    0.000    0.000 
#    0.000    0.000    0.000    0.000    0.000    0.000 
#
# Total GULP energy -148670.663368 kJ/mol
# GULP energy per Si atom -12389.221947 kJ/mol
# Density = 2.683585 g / cm^3
# Si number density = 26.897072 Si / 1000 Ang^3
#
#
#
# Elastic Constant Matrix: (Units=GPa)
#
#
# Indices 1 2 3 4 5 6 
#
# 1 191.0302 53.5067 6.5770 0.0000 -5.7691 0.0000
# 2 53.5067 99.5772 39.2452 0.0000 -4.0102 0.0000
# 3 6.5770 39.2452 160.3518 0.0000 -28.2615 0.0000
# 4 0.0000 0.0000 0.0000 45.6620 0.0000 -10.4164
# 5 -5.7691 -4.0102 -28.2615 0.0000 49.8085 0.0000
# 6 0.0000 0.0000 0.0000 -10.4164 0.0000 47.5336
#
#
#
# Elastic Compliance Matrix: (Units=1/GPa)
#
#
# Indices 1 2 3 4 5 6 
#
# 1 0.006252 -0.003635 0.000788 0.000000 0.000879 0.000000
# 2 -0.003635 0.013251 -0.003311 0.000000 -0.001233 0.000000
# 3 0.000788 -0.003311 0.007759 0.000000 0.004227 0.000000
# 4 0.000000 0.000000 0.000000 0.023052 0.000000 0.005052
# 5 0.000879 -0.001233 0.004227 0.000000 0.022478 0.000000
# 6 0.000000 0.000000 0.000000 0.005052 0.000000 0.022145
#
#
# Mechanical properties :
#
#
# Convention : Reuss Voigt Hill
#
# Bulk Modulus (GPa) = 66.90523 72.17966 69.54244
# Shear Modulus (GPa) = 44.54889 52.04283 48.29586
#
# Velocity S-wave (km/s) = 4.07415 4.40351 4.24203
# Velocity P-wave (km/s) = 6.86004 7.26280 7.06429
#
# Compressibility (1/GPa) = 0.01494652
#
# Stress axis : x y z
#
# Youngs Moduli (GPa) = 159.94209 75.46626 128.87495
#
# Poissons Ratio (x) = 0.27430 -0.10155
# Poissons Ratio (y) = 0.58135 0.42675
# Poissons Ratio (z) = -0.12603 0.24989
#
# Static dielectric constant tensor:
#      x y z
#    x 5.874510 0.000000 -0.094160 
#    y 0.000000 4.721820 0.000000 
#    z -0.094160 0.000000 5.840170 
# 
# 
# High freq. dielectric constant tensor:
#      x y z
#    x 2.111360 0.000000 -0.007320 
#    y 0.000000 2.053870 0.000000 
#    z -0.007320 0.000000 2.117930 
# 
# From -- ./inp_files/22382.got.cif
#   From: 2010.03.12/outbox.cif.g09.slc.cpg/sg14_12_cif.got.tgz:22382.got - 2010.03.31 13:35:05.
