data_PCOD8129477
_publ_section_title
;
Structure prediction by ZEFSAII (Michael W. Deem and Ramdas Pophale) SiO2 
 PCOD8129477
Probable space group: P 21/C
;
_chemical_formula_sum "Si O2"
_cell_formula_units_Z 16
_cell_length_a 4.672668
_cell_length_b 16.995733
_cell_length_c 8.851617
_cell_angle_alpha 90.000000
_cell_angle_beta 113.031778
_cell_angle_gamma 90.000000
_cell_volume 646.920924
_symmetry_space_group_name_H-M "P 21/C"
_symmetry_group_IT_number 14
_symmetry_cell_setting 'monoclinic'
loop_
_space_group_symop_operation_xyz
x,y,z
-x,1/2+y,1/2-z
-x,-y,-z
x,1/2-y,1/2+z
loop_
_atom_site_type_symbol
_atom_site_label
_atom_site_fract_x
_atom_site_fract_y
_atom_site_fract_z
Si Si1 0.193878 0.957805 0.869153
Si Si2 0.041170 0.697096 0.518838
Si Si3 0.478092 0.514635 0.819786
Si Si4 0.319107 0.182202 0.755981
O O1 0.292870 0.950632 0.712615
O O2 0.127245 0.872889 0.922477
O O3 0.123194 0.990502 0.182048
O O4 0.500000 0.000000 0.000000
O O5 0.359927 0.729948 0.656907
O O6 0.822391 0.666585 0.607714
O O7 0.900401 0.768480 0.397097
O O8 0.609018 0.600113 0.808864
O O9 0.500000 0.500000 0.000000
#
# Coordination Sequence:
#
# PCOD8129477 Si02
#       4
#     4   4   4   4
#     4  12  26  51  83 112 150 210 261 321 385 463
#     4  12  28  52  80 115 158 210 258 323 395 469
#     4  12  28  50  81 117 157 200 266 327 384 461
#     4  12  28  52  77 116 159 205 258 322 391 472
#
# _framework density 24.732547
#
# number of rings (size 3 to 8) (size 9 to 14) (size 15 to 20)
#    0.000    0.000    2.500    6.000    3.500    0.000 
#    0.000    0.000    0.000    0.000    0.000    0.000 
#    0.000    0.000    0.000    0.000    0.000    0.000 
#
# Total GULP energy -198373.027831 kJ/mol
# GULP energy per Si atom -12398.314239 kJ/mol
# Density = 2.467625 g / cm^3
# Si number density = 24.732547 Si / 1000 Ang^3
#
#
#
# Elastic Constant Matrix: (Units=GPa)
#
#
# Indices 1 2 3 4 5 6 
#
# 1 175.3536 72.7993 67.7135 0.0000 -14.5293 0.0000
# 2 72.7993 98.4124 87.4563 0.0000 -3.6439 0.0000
# 3 67.7135 87.4563 133.3587 0.0000 -14.3155 0.0000
# 4 0.0000 0.0000 0.0000 11.6569 0.0000 14.7174
# 5 -14.5293 -3.6439 -14.3155 0.0000 61.1453 0.0000
# 6 0.0000 0.0000 0.0000 14.7174 0.0000 43.0953
#
#
#
# Elastic Compliance Matrix: (Units=1/GPa)
#
#
# Indices 1 2 3 4 5 6 
#
# 1 0.008390 -0.006026 -0.000136 0.000000 0.001603 0.000000
# 2 -0.006026 0.029016 -0.016348 0.000000 -0.003530 0.000000
# 3 -0.000136 -0.016348 0.018649 0.000000 0.003360 0.000000
# 4 0.000000 0.000000 0.000000 0.150813 0.000000 -0.051504
# 5 0.001603 -0.003530 0.003360 0.000000 0.017311 0.000000
# 6 0.000000 0.000000 0.000000 -0.051504 0.000000 0.040794
#
#
# Mechanical properties :
#
#
# Convention : Reuss Voigt Hill
#
# Bulk Modulus (GPa) = 90.61919 95.89588 93.25754
# Shear Modulus (GPa) = 15.94021 35.12320 25.53171
#
# Velocity S-wave (km/s) = 2.54146 3.77254 3.21645
# Velocity P-wave (km/s) = 6.73285 7.60483 7.18208
#
# Compressibility (1/GPa) = 0.01103519
#
# Stress axis : x y z
#
# Youngs Moduli (GPa) = 119.19188 34.46352 53.62126
#
# Poissons Ratio (x) = 0.20767 0.00730
# Poissons Ratio (y) = 0.71824 0.87660
# Poissons Ratio (z) = 0.01623 0.56341
#
# Static dielectric constant tensor:
#      x y z
#    x 5.788370 0.000000 -0.218550 
#    y 0.000000 4.206290 0.000000 
#    z -0.218550 0.000000 5.044080 
# 
# 
# High freq. dielectric constant tensor:
#      x y z
#    x 2.027980 0.000000 -0.007330 
#    y 0.000000 1.967300 0.000000 
#    z -0.007330 0.000000 1.999870 
# 
# From -- ./inp_files/5143.got.cif
#   From: 2010.03.12/outbox.cif.g09.slc.cpg/sg14_3_cif.got.tgz:5143.got - 2010.03.31 13:35:05.
