data_PCOD8129763
_publ_section_title
;
Structure prediction by ZEFSAII (Michael W. Deem and Ramdas Pophale) SiO2 
 PCOD8129763
Probable space group: C 2/C
;
_chemical_formula_sum "Si O2"
_cell_formula_units_Z 48
_cell_length_a 21.042845
_cell_length_b 34.247798
_cell_length_c 5.182843
_cell_angle_alpha 90.000000
_cell_angle_beta 109.334996
_cell_angle_gamma 90.000000
_cell_volume 3524.460018
_symmetry_space_group_name_H-M "C 2/C"
_symmetry_group_IT_number 15
_symmetry_cell_setting 'monoclinic'
loop_
_space_group_symop_operation_xyz
x,y,z
-x,y,1/2-z
-x,-y,-z
x,-y,1/2+z
1/2+x,1/2+y,z
1/2-x,1/2+y,1/2-z
1/2-x,1/2-y,-z
1/2+x,1/2-y,1/2+z
loop_
_atom_site_type_symbol
_atom_site_label
_atom_site_fract_x
_atom_site_fract_y
_atom_site_fract_z
Si Si1 0.352863 0.227587 0.626037
Si Si2 0.217482 0.189118 0.443262
Si Si3 0.575322 0.483121 0.075067
Si Si4 0.542980 0.396548 0.055066
Si Si5 0.852242 0.830701 0.153353
Si Si6 0.577501 0.247423 0.283222
O O1 0.297529 0.193760 0.506240
O O2 0.316544 0.268909 0.589871
O O3 0.407884 0.226276 0.469962
O O4 0.388221 0.221273 0.948627
O O5 0.204177 0.168911 0.699722
O O6 0.185685 0.163120 0.170265
O O7 0.613205 0.494877 0.390331
O O8 0.577799 0.437053 0.021060
O O9 0.500000 0.500000 0.000000
O O10 0.500000 0.405623 0.250000
O O11 0.597409 0.365209 0.212910
O O12 0.500000 0.380991 0.750000
O O13 0.894282 0.791022 0.194803
O O14 0.500000 0.250358 0.250000
#
# Coordination Sequence:
#
# PCOD8129763 Si02
#       6
#     8   8   8   8   8   8
#     4   9  17  28  45  53  67 101 122 152 182 226
#     4   9  17  31  41  54  70  92 133 149 180 231
#     4  10  16  29  41  53  68  95 129 161 178 230
#     4  12  20  28  41  56  76  99 125 154 210 246
#     4  10  20  28  39  56  77  97 116 160 198 237
#     4  10  18  28  39  58  79  93 118 152 200 239
#
# _framework density 13.619108000000001
#
# number of rings (size 3 to 8) (size 9 to 14) (size 15 to 20)
#    0.000    2.000    3.333    3.000    0.000    6.667 
#    0.000    0.000    0.000    0.000    0.000    0.000 
#    0.000    0.000    0.000    0.000    0.000    0.000 
#
# Total GULP energy -297443.380862 kJ/mol
# GULP energy per Si atom -12393.474203 kJ/mol
# Density = 1.358811 g / cm^3
# Si number density = 13.619108 Si / 1000 Ang^3
#
#
#
# Elastic Constant Matrix: (Units=GPa)
#
#
# Indices 1 2 3 4 5 6 
#
# 1 66.4026 20.2691 33.7681 0.0000 -11.7661 0.0000
# 2 20.2691 44.9801 31.5799 0.0000 5.3581 0.0000
# 3 33.7681 31.5799 109.3757 0.0000 -15.3402 0.0000
# 4 0.0000 0.0000 0.0000 17.9485 0.0000 -1.7751
# 5 -11.7661 5.3581 -15.3402 0.0000 22.1052 0.0000
# 6 0.0000 0.0000 0.0000 -1.7751 0.0000 3.6886
#
#
#
# Elastic Compliance Matrix: (Units=1/GPa)
#
#
# Indices 1 2 3 4 5 6 
#
# 1 0.021178 -0.009523 -0.002087 0.000000 0.012132 0.000000
# 2 -0.009523 0.036477 -0.010572 0.000000 -0.021247 0.000000
# 3 -0.002087 -0.010572 0.014449 0.000000 0.011479 0.000000
# 4 0.000000 0.000000 0.000000 0.058499 0.000000 0.028152
# 5 0.012132 -0.021247 0.011479 0.000000 0.064812 0.000000
# 6 0.000000 0.000000 0.000000 0.028152 0.000000 0.284651
#
#
# Mechanical properties :
#
#
# Convention : Reuss Voigt Hill
#
# Bulk Modulus (GPa) = 36.04899 43.55472 39.80186
# Shear Modulus (GPa) = 9.36898 17.75789 13.56343
#
# Velocity S-wave (km/s) = 2.62569 3.61487 3.15923
# Velocity P-wave (km/s) = 5.97655 7.03371 6.52657
#
# Compressibility (1/GPa) = 0.02774003
#
# Stress axis : x y z
#
# Youngs Moduli (GPa) = 47.21959 27.41491 69.20689
#
# Poissons Ratio (x) = 0.26107 0.14444
# Poissons Ratio (y) = 0.44967 0.73163
# Poissons Ratio (z) = 0.09855 0.28982
#
# Static dielectric constant tensor:
#      x y z
#    x 2.418640 0.000000 0.185750 
#    y 0.000000 2.434540 0.000000 
#    z 0.185750 0.000000 2.117830 
# 
# 
# High freq. dielectric constant tensor:
#      x y z
#    x 1.490800 0.000000 -0.026700 
#    y 0.000000 1.473410 0.000000 
#    z -0.026700 0.000000 1.542080 
# 
# From -- ./inp_files/11115.got.cif
#   From: 2010.06.25/outbox.cif.g09.slc.cpg/sg15_6_cif.got.tgz:11115.got - 2010.06.28 07:06:18.
