data_PCOD8129921
_publ_section_title
;
Structure prediction by ZEFSAII (Michael W. Deem and Ramdas Pophale) SiO2 
 PCOD8129921
Probable space group: C 2/C
;
_chemical_formula_sum "Si O2"
_cell_formula_units_Z 44
_cell_length_a 21.776078
_cell_length_b 19.256326
_cell_length_c 12.805179
_cell_angle_alpha 90.000000
_cell_angle_beta 158.166057
_cell_angle_gamma 90.000000
_cell_volume 1997.035274
_symmetry_space_group_name_H-M "C 2/C"
_symmetry_group_IT_number 15
_symmetry_cell_setting 'monoclinic'
loop_
_space_group_symop_operation_xyz
x,y,z
-x,y,1/2-z
-x,-y,-z
x,-y,1/2+z
1/2+x,1/2+y,z
1/2-x,1/2+y,1/2-z
1/2-x,1/2-y,-z
1/2+x,1/2-y,1/2+z
loop_
_atom_site_type_symbol
_atom_site_label
_atom_site_fract_x
_atom_site_fract_y
_atom_site_fract_z
Si Si1 0.697676 0.561871 0.366488
Si Si2 0.000000 0.080205 0.750000
Si Si3 0.321433 0.969013 0.844882
Si Si4 0.109061 0.702831 0.328876
Si Si5 0.129203 0.903172 0.251461
Si Si6 0.069831 0.601692 0.590012
O O1 0.826200 0.560077 0.471444
O O2 0.673244 0.481423 0.355779
O O3 0.775344 0.603962 0.586109
O O4 0.522413 0.599478 0.068939
O O5 0.074301 0.130486 0.776594
O O6 0.870711 0.028755 0.489294
O O7 0.397452 0.046182 0.951723
O O8 0.410794 0.917564 0.907018
O O9 0.250000 0.750000 0.500000
O O10 0.211309 0.637324 0.539721
O O11 0.000000 0.736950 0.250000
O O12 0.975994 0.675989 0.032655
#
# Coordination Sequence:
#
# PCOD8129921 Si02
#       6
#     8   4   8   8   8   8
#     4  10  20  34  63 103 135 167 199 267 330 399
#     4  10  16  32  58  92 132 176 200 256 316 402
#     4  10  19  30  60  94 142 169 206 253 332 400
#     4  12  28  47  68  90 122 175 230 277 320 388
#     4  10  20  38  61  99 134 167 213 254 327 396
#     4  11  20  38  59  94 131 173 215 265 324 385
#
# _framework density 22.03266
#
# number of rings (size 3 to 8) (size 9 to 14) (size 15 to 20)
#    0.000    1.455    3.636    2.727    1.273    0.000 
#    0.000    0.909    0.000    0.000    0.000    0.000 
#    0.000    0.000    0.000    0.000    0.000    0.000 
#
# Total GULP energy -272561.871692 kJ/mol
# GULP energy per Si atom -12389.175986 kJ/mol
# Density = 2.198251 g / cm^3
# Si number density = 22.032660 Si / 1000 Ang^3
#
#
#
# Elastic Constant Matrix: (Units=GPa)
#
#
# Indices 1 2 3 4 5 6 
#
# 1 108.8884 27.6624 37.1090 0.0000 2.9010 0.0000
# 2 27.6624 38.2508 30.7093 0.0000 -6.2168 0.0000
# 3 37.1090 30.7093 132.1628 0.0000 -10.3526 0.0000
# 4 0.0000 0.0000 0.0000 29.1718 0.0000 8.5162
# 5 2.9010 -6.2168 -10.3526 0.0000 38.7816 0.0000
# 6 0.0000 0.0000 0.0000 8.5162 0.0000 24.7377
#
#
#
# Elastic Compliance Matrix: (Units=1/GPa)
#
#
# Indices 1 2 3 4 5 6 
#
# 1 0.011758 -0.007507 -0.001757 0.000000 -0.002552 0.000000
# 2 -0.007507 0.037332 -0.006183 0.000000 0.004895 0.000000
# 3 -0.001757 -0.006183 0.009630 0.000000 0.001711 0.000000
# 4 0.000000 0.000000 0.000000 0.038110 0.000000 -0.013120
# 5 -0.002552 0.004895 0.001711 0.000000 0.027218 0.000000
# 6 0.000000 0.000000 0.000000 -0.013120 0.000000 0.044941
#
#
# Mechanical properties :
#
#
# Convention : Reuss Voigt Hill
#
# Bulk Modulus (GPa) = 35.93788 52.25149 44.09468
# Shear Modulus (GPa) = 23.90537 30.79296 27.34916
#
# Velocity S-wave (km/s) = 3.29750 3.74251 3.52703
# Velocity P-wave (km/s) = 5.55379 6.51476 6.05338
#
# Compressibility (1/GPa) = 0.02782580
#
# Stress axis : x y z
#
# Youngs Moduli (GPa) = 85.05129 26.78661 103.83731
#
# Poissons Ratio (x) = 0.20109 0.18243
# Poissons Ratio (y) = 0.63850 0.64204
# Poissons Ratio (z) = 0.14942 0.16562
#
# Static dielectric constant tensor:
#      x y z
#    x 4.441350 0.000000 0.204970 
#    y 0.000000 3.414270 0.000000 
#    z 0.204970 0.000000 4.235410 
# 
# 
# High freq. dielectric constant tensor:
#      x y z
#    x 1.888490 0.000000 0.012620 
#    y 0.000000 1.798260 0.000000 
#    z 0.012620 0.000000 1.885540 
# 
# From -- ./inp_files/174449.got.cif
#   From: 2010.06.25/outbox.cif.g09.slc.cpg/sg15_88_cif.got.tgz:174449.got - 2010.06.28 07:06:18.
