data_PCOD8129320
_publ_section_title
;
Structure prediction by ZEFSAII (Michael W. Deem and Ramdas Pophale) SiO2 
 PCOD8129320
Probable space group: P 21/C
;
_chemical_formula_sum "Si O2"
_cell_formula_units_Z 28
_cell_length_a 6.555759
_cell_length_b 11.484890
_cell_length_c 21.306765
_cell_angle_alpha 90.000000
_cell_angle_beta 125.151021
_cell_angle_gamma 90.000000
_cell_volume 1311.680502
_symmetry_space_group_name_H-M "P 21/C"
_symmetry_group_IT_number 14
_symmetry_cell_setting 'monoclinic'
loop_
_space_group_symop_operation_xyz
x,y,z
-x,1/2+y,1/2-z
-x,-y,-z
x,1/2-y,1/2+z
loop_
_atom_site_type_symbol
_atom_site_label
_atom_site_fract_x
_atom_site_fract_y
_atom_site_fract_z
Si Si1 0.900467 0.063214 0.921473
Si Si2 0.269566 0.515289 0.146681
Si Si3 0.342767 0.828315 0.318402
Si Si4 0.617661 0.278098 0.922687
Si Si5 0.412313 0.568021 0.308333
Si Si6 0.853070 0.878576 0.157287
Si Si7 0.268614 0.581861 0.943663
O O1 0.805620 0.190171 0.923289
O O2 0.120064 0.080728 0.910045
O O3 0.687386 0.985059 0.852327
O O4 0.000000 0.000000 0.000000
O O5 0.425147 0.395992 0.170909
O O6 0.379990 0.600709 0.113964
O O7 0.297655 0.575918 0.218864
O O8 0.980674 0.488435 0.082776
O O9 0.427117 0.695325 0.341456
O O10 0.260099 0.880022 0.370194
O O11 0.113915 0.833600 0.229913
O O12 0.338489 0.228163 0.872859
O O13 0.708266 0.302368 0.009687
O O14 0.237383 0.489608 0.320440
O O15 0.500000 0.500000 0.000000
#
# Coordination Sequence:
#
# PCOD8129320 Si02
#       7
#     4   4   4   4   4   4   4
#     4  11  27  46  72 101 144 188 236 296 363 427
#     4  12  26  48  72 109 143 190 246 294 373 427
#     4  12  27  44  77 104 143 192 239 301 361 439
#     4  11  28  45  74 104 145 185 235 305 356 438
#     4  11  27  44  72 106 140 188 244 296 354 442
#     4  11  26  49  71 105 141 192 238 293 367 429
#     4  12  28  46  73 111 144 187 244 304 371 429
#
# _framework density 21.346664000000001
#
# number of rings (size 3 to 8) (size 9 to 14) (size 15 to 20)
#    0.000    0.571    4.286    1.286   14.000    1.143 
#    0.000    0.000    0.000    0.000    0.000    0.000 
#    0.000    0.000    0.000    0.000    0.000    0.000 
#
# Total GULP energy -347435.909694 kJ/mol
# GULP energy per Si atom -12408.425346 kJ/mol
# Density = 2.129808 g / cm^3
# Si number density = 21.346664 Si / 1000 Ang^3
#
#
#
# Elastic Constant Matrix: (Units=GPa)
#
#
# Indices 1 2 3 4 5 6 
#
# 1 130.2131 45.1575 44.0080 0.0000 1.2530 0.0000
# 2 45.1575 120.5467 28.7024 0.0000 7.5589 0.0000
# 3 44.0080 28.7024 111.1713 0.0000 -5.0654 0.0000
# 4 0.0000 0.0000 0.0000 38.5881 0.0000 -3.7868
# 5 1.2530 7.5589 -5.0654 0.0000 42.8493 0.0000
# 6 0.0000 0.0000 0.0000 -3.7868 0.0000 15.6360
#
#
#
# Elastic Compliance Matrix: (Units=1/GPa)
#
#
# Indices 1 2 3 4 5 6 
#
# 1 0.009738 -0.002898 -0.003113 0.000000 -0.000142 0.000000
# 2 -0.002898 0.009848 -0.001479 0.000000 -0.001827 0.000000
# 3 -0.003113 -0.001479 0.010683 0.000000 0.001615 0.000000
# 4 0.000000 0.000000 0.000000 0.026546 0.000000 0.006429
# 5 -0.000142 -0.001827 0.001615 0.000000 0.023855 0.000000
# 6 0.000000 0.000000 0.000000 0.006429 0.000000 0.065512
#
#
# Mechanical properties :
#
#
# Convention : Reuss Voigt Hill
#
# Bulk Modulus (GPa) = 65.40480 66.40743 65.90611
# Shear Modulus (GPa) = 30.07383 35.68554 32.87969
#
# Velocity S-wave (km/s) = 3.75751 4.09310 3.92889
# Velocity P-wave (km/s) = 7.03783 7.31536 7.17794
#
# Compressibility (1/GPa) = 0.01528940
#
# Stress axis : x y z
#
# Youngs Moduli (GPa) = 102.68811 101.54623 93.60791
#
# Poissons Ratio (x) = 0.29427 0.29142
# Poissons Ratio (y) = 0.29757 0.13841
# Poissons Ratio (z) = 0.31969 0.15015
#
# Static dielectric constant tensor:
#      x y z
#    x 3.970110 0.000000 -0.097180 
#    y 0.000000 3.892280 0.000000 
#    z -0.097180 0.000000 4.050860 
# 
# 
# High freq. dielectric constant tensor:
#      x y z
#    x 1.850590 0.000000 -0.005970 
#    y 0.000000 1.846610 0.000000 
#    z -0.005970 0.000000 1.848420 
# 
# From -- ./inp_files/63422.got.cif
#   From: 2010.03.12/outbox.cif.g09.slc.cpg/sg14_32_cif.got.tgz:63422.got - 2010.03.31 13:35:05.
