data_PCOD8129472
_publ_section_title
;
Structure prediction by ZEFSAII (Michael W. Deem and Ramdas Pophale) SiO2 
 PCOD8129472
Probable space group: P 21/C
;
_chemical_formula_sum "Si O2"
_cell_formula_units_Z 16
_cell_length_a 8.418466
_cell_length_b 4.974973
_cell_length_c 21.717267
_cell_angle_alpha 90.000000
_cell_angle_beta 51.489144
_cell_angle_gamma 90.000000
_cell_volume 711.717696
_symmetry_space_group_name_H-M "P 21/C"
_symmetry_group_IT_number 14
_symmetry_cell_setting 'monoclinic'
loop_
_space_group_symop_operation_xyz
x,y,z
-x,1/2+y,1/2-z
-x,-y,-z
x,1/2-y,1/2+z
loop_
_atom_site_type_symbol
_atom_site_label
_atom_site_fract_x
_atom_site_fract_y
_atom_site_fract_z
Si Si1 0.632133 0.627468 0.222279
Si Si2 0.485538 0.751745 0.047315
Si Si3 0.861808 0.748366 0.047266
Si Si4 0.131162 0.614921 0.720347
O O1 0.501908 0.383707 0.223853
O O2 0.795847 0.738181 0.134368
O O3 0.739484 0.507418 0.255744
O O4 0.662210 0.751811 0.054477
O O5 0.270750 0.761460 0.133442
O O6 0.500000 0.500000 0.000000
O O7 0.500000 0.000000 0.000000
O O8 0.000000 0.500000 0.000000
O O9 0.000000 0.000000 0.000000
O O10 0.000685 0.368067 0.723713
#
# Coordination Sequence:
#
# PCOD8129472 Si02
#       4
#     4   4   4   4
#     4  12  26  50  77 103 149 195 250 306 358 436
#     4  12  28  50  72 107 154 192 241 305 371 439
#     4  12  28  48  74 110 146 196 246 300 370 434
#     4  12  28  48  77 110 145 196 248 301 370 436
#
# _framework density 22.480823999999998
#
# number of rings (size 3 to 8) (size 9 to 14) (size 15 to 20)
#    0.000    0.000    2.500    6.000   14.000    0.000 
#    0.000    0.000    0.000    0.000    0.000    0.000 
#    0.000    0.000    0.000    0.000    0.000    0.000 
#
# Total GULP energy -198477.061832 kJ/mol
# GULP energy per Si atom -12404.816364 kJ/mol
# Density = 2.242966 g / cm^3
# Si number density = 22.480824 Si / 1000 Ang^3
#
#
#
# Elastic Constant Matrix: (Units=GPa)
#
#
# Indices 1 2 3 4 5 6 
#
# 1 66.4422 37.9062 51.2092 0.0000 -13.9150 0.0000
# 2 37.9062 197.7662 82.8898 0.0000 -17.6759 0.0000
# 3 51.2092 82.8898 174.1929 0.0000 -3.5347 0.0000
# 4 0.0000 0.0000 0.0000 56.1011 0.0000 -8.3551
# 5 -13.9150 -17.6759 -3.5347 0.0000 36.3730 0.0000
# 6 0.0000 0.0000 0.0000 -8.3551 0.0000 55.4180
#
#
#
# Elastic Compliance Matrix: (Units=1/GPa)
#
#
# Indices 1 2 3 4 5 6 
#
# 1 0.021546 -0.001120 -0.005656 0.000000 0.007149 0.000000
# 2 -0.001120 0.006669 -0.002792 0.000000 0.002541 0.000000
# 3 -0.005656 -0.002792 0.008678 0.000000 -0.002677 0.000000
# 4 0.000000 0.000000 0.000000 0.018234 0.000000 0.002749
# 5 0.007149 0.002541 -0.002677 0.000000 0.031202 0.000000
# 6 0.000000 0.000000 0.000000 0.002749 0.000000 0.018459
#
#
# Mechanical properties :
#
#
# Convention : Reuss Voigt Hill
#
# Bulk Modulus (GPa) = 56.32052 86.93463 71.62757
# Shear Modulus (GPa) = 38.50756 47.33815 42.92285
#
# Velocity S-wave (km/s) = 4.14322 4.59378 4.37431
# Velocity P-wave (km/s) = 6.92787 8.17873 7.57915
#
# Compressibility (1/GPa) = 0.01775552
#
# Stress axis : x y z
#
# Youngs Moduli (GPa) = 46.41176 149.95503 115.23448
#
# Poissons Ratio (x) = 0.16799 0.65177
# Poissons Ratio (y) = 0.05199 0.32178
# Poissons Ratio (z) = 0.26251 0.41873
#
# Static dielectric constant tensor:
#      x y z
#    x 4.309950 0.000000 -0.176750 
#    y 0.000000 4.478070 0.000000 
#    z -0.176750 0.000000 4.306240 
# 
# 
# High freq. dielectric constant tensor:
#      x y z
#    x 1.899440 0.000000 -0.007590 
#    y 0.000000 1.916400 0.000000 
#    z -0.007590 0.000000 1.899370 
# 
# From -- ./inp_files/64081.got.cif
#   From: 2010.03.12/outbox.cif.g09.slc.cpg/sg14_33_cif.got.tgz:64081.got - 2010.03.31 13:35:05.
