data_PCOD8129916
_publ_section_title
;
Structure prediction by ZEFSAII (Michael W. Deem and Ramdas Pophale) SiO2 
 PCOD8129916
Probable space group: C 2/C
;
_chemical_formula_sum "Si O2"
_cell_formula_units_Z 56
_cell_length_a 11.448448
_cell_length_b 27.954846
_cell_length_c 14.934764
_cell_angle_alpha 90.000000
_cell_angle_beta 41.199344
_cell_angle_gamma 90.000000
_cell_volume 3148.307315
_symmetry_space_group_name_H-M "C 2/C"
_symmetry_group_IT_number 15
_symmetry_cell_setting 'monoclinic'
loop_
_space_group_symop_operation_xyz
x,y,z
-x,y,1/2-z
-x,-y,-z
x,-y,1/2+z
1/2+x,1/2+y,z
1/2-x,1/2+y,1/2-z
1/2-x,1/2-y,-z
1/2+x,1/2-y,1/2+z
loop_
_atom_site_type_symbol
_atom_site_label
_atom_site_fract_x
_atom_site_fract_y
_atom_site_fract_z
Si Si1 0.711464 0.499660 0.389171
Si Si2 0.389054 0.121831 0.541569
Si Si3 0.026739 0.130318 0.537474
Si Si4 0.362756 0.452787 0.398255
Si Si5 0.857171 0.402760 0.753294
Si Si6 0.345532 0.705329 0.902215
Si Si7 0.649778 0.896211 0.232573
O O1 0.500000 0.500000 0.500000
O O2 0.738901 0.508802 0.480522
O O3 0.804044 0.541512 0.278168
O O4 0.810884 0.452376 0.301197
O O5 0.278933 0.075538 0.577304
O O6 0.572991 0.117757 0.381059
O O7 0.289252 0.170919 0.573873
O O8 0.422774 0.118075 0.627646
O O9 0.029465 0.084063 0.600867
O O10 0.179662 0.127259 0.375161
O O11 0.055271 0.177940 0.576212
O O12 0.831921 0.132099 0.605551
O O13 0.500000 0.477871 0.250000
O O14 0.000000 0.393942 0.750000
O O15 0.500000 0.725371 0.750000
O O16 0.250000 0.750000 0.000000
O O17 0.500000 0.879287 0.250000
#
# Coordination Sequence:
#
# PCOD8129916 Si02
#       7
#     8   8   8   8   8   8   8
#     4  11  20  35  51  82 119 155 214 267 296 349
#     4  11  21  39  60  86 123 161 191 251 323 358
#     4  10  19  38  58  84 128 157 183 244 322 368
#     4  10  16  32  58  77 112 156 197 252 320 341
#     4  11  19  33  60  86 114 157 201 256 317 357
#     4  11  22  36  67 105 127 140 188 253 327 387
#     4  12  24  40  57  79 119 178 216 237 286 371
#
# _framework density 17.787336
#
# number of rings (size 3 to 8) (size 9 to 14) (size 15 to 20)
#    0.000    1.143   10.000    1.286    2.000    0.571 
#    2.571    0.714    0.000    0.857    0.000    0.000 
#    0.000    0.000    0.000    0.000    0.000    0.000 
#
# Total GULP energy -347077.926979 kJ/mol
# GULP energy per Si atom -12395.640249 kJ/mol
# Density = 1.774685 g / cm^3
# Si number density = 17.787336 Si / 1000 Ang^3
#
#
#
# Elastic Constant Matrix: (Units=GPa)
#
#
# Indices 1 2 3 4 5 6 
#
# 1 119.4520 33.5490 54.7160 0.0000 -4.8052 0.0000
# 2 33.5490 82.8802 51.2524 0.0000 6.3394 0.0000
# 3 54.7160 51.2524 177.2787 0.0000 0.4194 0.0000
# 4 0.0000 0.0000 0.0000 22.4014 0.0000 0.8531
# 5 -4.8052 6.3394 0.4194 0.0000 26.6753 0.0000
# 6 0.0000 0.0000 0.0000 0.8531 0.0000 9.1468
#
#
#
# Elastic Compliance Matrix: (Units=1/GPa)
#
#
# Indices 1 2 3 4 5 6 
#
# 1 0.010384 -0.002943 -0.002360 0.000000 0.002607 0.000000
# 2 -0.002943 0.015846 -0.003663 0.000000 -0.004238 0.000000
# 3 -0.002360 -0.003663 0.007427 0.000000 0.000329 0.000000
# 4 0.000000 0.000000 0.000000 0.044799 0.000000 -0.004178
# 5 0.002607 -0.004238 0.000329 0.000000 0.038960 0.000000
# 6 0.000000 0.000000 0.000000 -0.004178 0.000000 0.109718
#
#
# Mechanical properties :
#
#
# Convention : Reuss Voigt Hill
#
# Bulk Modulus (GPa) = 63.59194 73.18286 68.38740
# Shear Modulus (GPa) = 19.97530 27.65093 23.81312
#
# Velocity S-wave (km/s) = 3.35477 3.94703 3.66289
# Velocity P-wave (km/s) = 7.12985 7.87430 7.51130
#
# Compressibility (1/GPa) = 0.01572526
#
# Stress axis : x y z
#
# Youngs Moduli (GPa) = 96.29986 63.10641 134.63511
#
# Poissons Ratio (x) = 0.18574 0.31778
# Poissons Ratio (y) = 0.28344 0.49314
# Poissons Ratio (z) = 0.22729 0.23115
#
# Static dielectric constant tensor:
#      x y z
#    x 7.192300 0.000000 4.365810 
#    y 0.000000 3.603120 0.000000 
#    z 4.365810 0.000000 8.732670 
# 
# 
# High freq. dielectric constant tensor:
#      x y z
#    x 1.660330 0.000000 -0.007780 
#    y 0.000000 1.651260 0.000000 
#    z -0.007780 0.000000 1.713090 
# 
# From -- ./inp_files/149017.got.cif
#   From: 2010.06.25/outbox.cif.g09.slc.cpg/sg15_75_cif.got.tgz:149017.got - 2010.06.28 07:06:18.
