data_PCOD8129408
_publ_section_title
;
Structure prediction by ZEFSAII (Michael W. Deem and Ramdas Pophale) SiO2 
 PCOD8129408
Probable space group: P 21/C
;
_chemical_formula_sum "Si O2"
_cell_formula_units_Z 16
_cell_length_a 16.389722
_cell_length_b 4.907259
_cell_length_c 24.723322
_cell_angle_alpha 90.000000
_cell_angle_beta 159.950262
_cell_angle_gamma 90.000000
_cell_volume 681.716021
_symmetry_space_group_name_H-M "P 21/C"
_symmetry_group_IT_number 14
_symmetry_cell_setting 'monoclinic'
loop_
_space_group_symop_operation_xyz
x,y,z
-x,1/2+y,1/2-z
-x,-y,-z
x,1/2-y,1/2+z
loop_
_atom_site_type_symbol
_atom_site_label
_atom_site_fract_x
_atom_site_fract_y
_atom_site_fract_z
Si Si1 0.395187 0.002059 0.657601
Si Si2 0.424607 0.176589 0.344902
Si Si3 0.130227 0.764974 0.810389
Si Si4 0.128799 0.672451 0.185369
O O1 0.423728 0.744891 0.715129
O O2 0.438786 0.902854 0.624130
O O3 0.130766 0.118644 0.500346
O O4 0.611225 0.160136 0.510308
O O5 0.319132 0.479087 0.274078
O O6 0.201846 0.981761 0.218719
O O7 0.135763 0.883540 0.753619
O O8 0.947554 0.512361 0.698917
#
# Coordination Sequence:
#
# PCOD8129408 Si02
#       4
#     4   4   4   4
#     4  12  28  48  72 102 144 194 242 292 342 416
#     4  12  26  46  74 107 141 186 236 293 358 421
#     4  12  24  44  76 106 146 186 226 294 368 422
#     4  12  26  46  74 107 141 186 236 293 358 421
#
# _framework density 23.470181
#
# number of rings (size 3 to 8) (size 9 to 14) (size 15 to 20)
#    0.000    0.000    2.500    7.500    3.500    6.000 
#    0.000    0.000    0.000    0.000    0.000    0.000 
#    0.000    0.000    0.000    0.000    0.000    0.000 
#
# Total GULP energy -198581.867786 kJ/mol
# GULP energy per Si atom -12411.366737 kJ/mol
# Density = 2.341676 g / cm^3
# Si number density = 23.470181 Si / 1000 Ang^3
#
#
#
# Elastic Constant Matrix: (Units=GPa)
#
#
# Indices 1 2 3 4 5 6 
#
# 1 38.8220 16.0945 23.2615 0.0000 0.8679 0.0000
# 2 16.0945 123.2776 26.9885 0.0000 -1.8070 0.0000
# 3 23.2615 26.9885 106.8274 0.0000 -6.2528 0.0000
# 4 0.0000 0.0000 0.0000 47.1644 0.0000 4.9107
# 5 0.8679 -1.8070 -6.2528 0.0000 33.0098 0.0000
# 6 0.0000 0.0000 0.0000 4.9107 0.0000 45.4801
#
#
#
# Elastic Compliance Matrix: (Units=1/GPa)
#
#
# Indices 1 2 3 4 5 6 
#
# 1 0.030576 -0.002687 -0.006102 0.000000 -0.002107 0.000000
# 2 -0.002687 0.008823 -0.001630 0.000000 0.000245 0.000000
# 3 -0.006102 -0.001630 0.011230 0.000000 0.002198 0.000000
# 4 0.000000 0.000000 0.000000 0.021443 0.000000 -0.002315
# 5 -0.002107 0.000245 0.002198 0.000000 0.030779 0.000000
# 6 0.000000 0.000000 0.000000 -0.002315 0.000000 0.022238
#
#
# Mechanical properties :
#
#
# Convention : Reuss Voigt Hill
#
# Bulk Modulus (GPa) = 33.56676 44.62402 39.09539
# Shear Modulus (GPa) = 32.08060 38.63637 35.35848
#
# Velocity S-wave (km/s) = 3.70113 4.06173 3.88561
# Velocity P-wave (km/s) = 5.70941 6.40712 6.06830
#
# Compressibility (1/GPa) = 0.02979138
#
# Stress axis : x y z
#
# Youngs Moduli (GPa) = 32.70536 113.34153 89.04660
#
# Poissons Ratio (x) = 0.30452 0.54340
# Poissons Ratio (y) = 0.08787 0.14511
# Poissons Ratio (z) = 0.19958 0.18470
#
# Static dielectric constant tensor:
#      x y z
#    x 4.037950 0.000000 -0.042140 
#    y 0.000000 4.359070 0.000000 
#    z -0.042140 0.000000 4.197960 
# 
# 
# High freq. dielectric constant tensor:
#      x y z
#    x 1.925540 0.000000 -0.000560 
#    y 0.000000 1.947470 0.000000 
#    z -0.000560 0.000000 1.936700 
# 
# From -- ./inp_files/27287.got.cif
#   From: 2010.03.12/outbox.cif.g09.slc.cpg/sg14_14_cif.got.tgz:27287.got - 2010.03.31 13:35:05.
