data_PCOD8129981
_publ_section_title
;
Structure prediction by ZEFSAII (Michael W. Deem and Ramdas Pophale) SiO2 
 PCOD8129981
Probable space group: C 2/C
;
_chemical_formula_sum "Si O2"
_cell_formula_units_Z 28
_cell_length_a 25.293364
_cell_length_b 8.109692
_cell_length_c 11.263490
_cell_angle_alpha 90.000000
_cell_angle_beta 149.910768
_cell_angle_gamma 90.000000
_cell_volume 1158.306078
_symmetry_space_group_name_H-M "C 2/C"
_symmetry_group_IT_number 15
_symmetry_cell_setting 'monoclinic'
loop_
_space_group_symop_operation_xyz
x,y,z
-x,y,1/2-z
-x,-y,-z
x,-y,1/2+z
1/2+x,1/2+y,z
1/2-x,1/2+y,1/2-z
1/2-x,1/2-y,-z
1/2+x,1/2-y,1/2+z
loop_
_atom_site_type_symbol
_atom_site_label
_atom_site_fract_x
_atom_site_fract_y
_atom_site_fract_z
Si Si1 0.686280 0.617542 0.041328
Si Si2 0.185143 0.324553 0.265937
Si Si3 0.500000 0.373895 0.750000
Si Si4 0.025102 0.194212 0.549871
O O1 0.788879 0.518452 0.194661
O O2 0.721391 0.738594 0.214138
O O3 0.600590 0.488512 0.923017
O O4 0.636198 0.721024 0.833488
O O5 0.250000 0.250000 0.500000
O O6 0.061244 0.301107 0.047337
O O7 0.473429 0.254756 0.586148
O O8 0.000000 0.000000 0.500000
#
# Coordination Sequence:
#
# PCOD8129981 Si02
#       4
#     8   8   4   8
#     4  11  21  37  67  94 131 171 216 273 331 387
#     4  12  21  38  67 100 130 170 227 268 326 402
#     4  10  16  34  62  92 114 170 212 250 322 384
#     4  10  18  35  65  92 121 171 212 267 324 382
#
# _framework density 24.173231000000001
#
# number of rings (size 3 to 8) (size 9 to 14) (size 15 to 20)
#    0.000    1.143   11.429    0.000    0.000    0.000 
#    0.000    5.714    6.286    8.571    0.000    0.000 
#    0.000    0.000    0.000    0.000    0.000    0.000 
#
# Total GULP energy -173582.558396 kJ/mol
# GULP energy per Si atom -12398.754171 kJ/mol
# Density = 2.411821 g / cm^3
# Si number density = 24.173231 Si / 1000 Ang^3
#
#
#
# Elastic Constant Matrix: (Units=GPa)
#
#
# Indices 1 2 3 4 5 6 
#
# 1 112.3305 41.7300 59.8374 0.0000 -34.5765 0.0000
# 2 41.7300 49.5147 57.0350 0.0000 -4.5893 0.0000
# 3 59.8374 57.0350 151.4832 0.0000 -41.5169 0.0000
# 4 0.0000 0.0000 0.0000 27.6470 0.0000 -3.9349
# 5 -34.5765 -4.5893 -41.5169 0.0000 69.6606 0.0000
# 6 0.0000 0.0000 0.0000 -3.9349 0.0000 25.1177
#
#
#
# Elastic Compliance Matrix: (Units=1/GPa)
#
#
# Indices 1 2 3 4 5 6 
#
# 1 0.015807 -0.013794 0.001017 0.000000 0.007543 0.000000
# 2 -0.013794 0.050576 -0.017399 0.000000 -0.013884 0.000000
# 3 0.001017 -0.017399 0.015030 0.000000 0.008316 0.000000
# 4 0.000000 0.000000 0.000000 0.036995 0.000000 0.005796
# 5 0.007543 -0.013884 0.008316 0.000000 0.022141 0.000000
# 6 0.000000 0.000000 0.000000 0.005796 0.000000 0.040721
#
#
# Mechanical properties :
#
#
# Convention : Reuss Voigt Hill
#
# Bulk Modulus (GPa) = 47.48169 70.05924 58.77047
# Shear Modulus (GPa) = 20.10934 34.80012 27.45473
#
# Velocity S-wave (km/s) = 2.88737 3.79834 3.37374
# Velocity P-wave (km/s) = 5.54984 6.94850 6.28818
#
# Compressibility (1/GPa) = 0.02106075
#
# Stress axis : x y z
#
# Youngs Moduli (GPa) = 63.26399 19.77231 66.53543
#
# Poissons Ratio (x) = 0.27274 -0.06768
# Poissons Ratio (y) = 0.87267 1.15763
# Poissons Ratio (z) = -0.06435 0.34401
#
# Static dielectric constant tensor:
#      x y z
#    x 5.082830 0.000000 -0.562900 
#    y 0.000000 3.929070 0.000000 
#    z -0.562900 0.000000 4.939700 
# 
# 
# High freq. dielectric constant tensor:
#      x y z
#    x 1.970950 0.000000 -0.018950 
#    y 0.000000 1.911110 0.000000 
#    z -0.018950 0.000000 1.973470 
# 
# From -- ./inp_files/83628.got.cif
#   From: 2010.06.25/outbox.cif.g09.slc.cpg/sg15_42_cif.got.tgz:83628.got - 2010.06.28 07:06:18.
