data_PCOD8129702
_publ_section_title
;
Structure prediction by ZEFSAII (Michael W. Deem and Ramdas Pophale) SiO2 
 PCOD8129702
Probable space group: C 2/C
;
_chemical_formula_sum "Si O2"
_cell_formula_units_Z 56
_cell_length_a 22.628482
_cell_length_b 17.809614
_cell_length_c 21.479259
_cell_angle_alpha 90.000000
_cell_angle_beta 23.777316
_cell_angle_gamma 90.000000
_cell_volume 3490.048473
_symmetry_space_group_name_H-M "C 2/C"
_symmetry_group_IT_number 15
_symmetry_cell_setting 'monoclinic'
loop_
_space_group_symop_operation_xyz
x,y,z
-x,y,1/2-z
-x,-y,-z
x,-y,1/2+z
1/2+x,1/2+y,z
1/2-x,1/2+y,1/2-z
1/2-x,1/2-y,-z
1/2+x,1/2-y,1/2+z
loop_
_atom_site_type_symbol
_atom_site_label
_atom_site_fract_x
_atom_site_fract_y
_atom_site_fract_z
Si Si1 0.347143 0.099235 0.537903
Si Si2 0.493715 0.288483 0.007479
Si Si3 0.186719 0.887821 0.902125
Si Si4 0.926222 0.493680 0.137644
Si Si5 0.812941 0.656285 0.711899
Si Si6 0.953696 0.118324 0.725993
Si Si7 0.930400 0.720459 0.198808
O O1 0.310000 0.124843 0.644097
O O2 0.201507 0.080332 0.640284
O O3 0.430038 0.167515 0.423294
O O4 0.449449 0.024772 0.435180
O O5 0.605977 0.353233 0.919917
O O6 0.580808 0.227951 0.881850
O O7 0.353204 0.323171 0.106823
O O8 0.426208 0.247327 0.131985
O O9 0.279647 0.825626 0.850980
O O10 0.283117 0.954472 0.781563
O O11 0.068894 0.916310 0.065976
O O12 0.876006 0.407995 0.197530
O O13 0.000000 0.500000 0.000000
O O14 0.938000 0.208788 0.737280
O O15 0.000000 0.094049 0.750000
#
# Coordination Sequence:
#
# PCOD8129702 Si02
#       7
#     8   8   8   8   8   8   8
#     4   9  17  31  42  60  93 122 155 202 228 262
#     4  10  16  26  45  65  93 119 154 188 230 268
#     4  10  18  31  45  63  94 129 160 197 226 266
#     4   9  20  32  46  63  87 124 168 185 227 283
#     4  10  17  29  45  65  89 124 158 186 227 285
#     4  11  20  29  44  67  90 122 168 206 229 254
#     4   9  16  28  43  58  88 129 158 194 229 251
#
# _framework density 16.045622999999999
#
# number of rings (size 3 to 8) (size 9 to 14) (size 15 to 20)
#    0.000    2.286    4.286    2.571    0.000    2.857 
#    0.000    2.143    0.000    0.000    0.000    0.000 
#    0.000    0.000    0.000   12.857    0.000    0.000 
#
# Total GULP energy -347033.533030 kJ/mol
# GULP energy per Si atom -12394.054751 kJ/mol
# Density = 1.600910 g / cm^3
# Si number density = 16.045623 Si / 1000 Ang^3
#
#
#
# Elastic Constant Matrix: (Units=GPa)
#
#
# Indices 1 2 3 4 5 6 
#
# 1 39.7938 35.1300 33.9658 0.0070 -14.7871 -0.0026
# 2 35.1300 85.9712 60.5007 0.0122 -9.9022 -0.0057
# 3 33.9658 60.5007 118.5268 0.0105 -28.3700 -0.0049
# 4 0.0070 0.0122 0.0105 24.0296 -0.0022 1.3605
# 5 -14.7871 -9.9022 -28.3700 -0.0022 18.6182 0.0007
# 6 -0.0026 -0.0057 -0.0049 1.3605 0.0007 8.2236
#
#
#
# Elastic Compliance Matrix: (Units=1/GPa)
#
#
# Indices 1 2 3 4 5 6 
#
# 1 0.053964 -0.020617 0.004240 -0.000004 0.038355 0.000002
# 2 -0.020617 0.026633 -0.012932 -0.000004 -0.021915 0.000007
# 3 0.004240 -0.012932 0.020436 -0.000001 0.027630 0.000002
# 4 -0.000004 -0.000004 -0.000001 0.042009 -0.000002 -0.006950
# 5 0.038355 -0.021915 0.027630 -0.000002 0.114620 0.000004
# 6 0.000002 0.000007 0.000002 -0.006950 0.000004 0.122751
#
#
# Mechanical properties :
#
#
# Convention : Reuss Voigt Hill
#
# Bulk Modulus (GPa) = 23.57648 55.94276 39.75962
# Shear Modulus (GPa) = 11.03345 17.82064 14.42704
#
# Velocity S-wave (km/s) = 2.62511 3.33622 3.00180
# Velocity P-wave (km/s) = 4.89015 7.05556 6.07020
#
# Compressibility (1/GPa) = 0.04241516
#
# Stress axis : x y z
#
# Youngs Moduli (GPa) = 18.53094 37.54774 48.93327
#
# Poissons Ratio (x) = 0.77413 -0.20748
# Poissons Ratio (y) = 0.38205 0.63279
# Poissons Ratio (z) = -0.07857 0.48556
#
# Static dielectric constant tensor:
#      x y z
#    x 2.548610 -0.000010 -0.269380 
#    y -0.000010 3.225060 0.000030 
#    z -0.269380 0.000030 3.283610 
# 
# 
# High freq. dielectric constant tensor:
#      x y z
#    x 1.546040 0.000000 -0.028880 
#    y 0.000000 1.595590 0.000000 
#    z -0.028880 0.000000 1.639910 
# 
# From -- ./inp_files/56158.got.cif
#   From: 2010.06.25/outbox.cif.g09.slc.cpg/sg15_29_cif.got.tgz:56158.got - 2010.06.28 07:06:18.
