data_PCOD8129616
_publ_section_title
;
Structure prediction by ZEFSAII (Michael W. Deem and Ramdas Pophale) SiO2 
 PCOD8129616
Probable space group: C 2/C
;
_chemical_formula_sum "Si O2"
_cell_formula_units_Z 44
_cell_length_a 23.672463
_cell_length_b 16.757841
_cell_length_c 17.570257
_cell_angle_alpha 90.000000
_cell_angle_beta 159.582472
_cell_angle_gamma 90.000000
_cell_volume 2431.583936
_symmetry_space_group_name_H-M "C 2/C"
_symmetry_group_IT_number 15
_symmetry_cell_setting 'monoclinic'
loop_
_space_group_symop_operation_xyz
x,y,z
-x,y,1/2-z
-x,-y,-z
x,-y,1/2+z
1/2+x,1/2+y,z
1/2-x,1/2+y,1/2-z
1/2-x,1/2-y,-z
1/2+x,1/2-y,1/2+z
loop_
_atom_site_type_symbol
_atom_site_label
_atom_site_fract_x
_atom_site_fract_y
_atom_site_fract_z
Si Si1 0.509139 0.535412 0.889246
Si Si2 0.109237 0.106056 0.162948
Si Si3 0.473428 0.086751 0.627837
Si Si4 0.000000 0.142783 0.250000
Si Si5 0.093807 0.752022 0.748252
Si Si6 0.273177 0.500290 0.469738
O O1 0.493149 0.448211 0.907987
O O2 0.352567 0.553464 0.638042
O O3 0.524919 0.603707 0.973201
O O4 0.672335 0.534536 0.043229
O O5 0.286825 0.066399 0.377776
O O6 0.123800 0.197967 0.208365
O O7 0.500000 0.105701 0.750000
O O8 0.526303 0.164221 0.645053
O O9 0.579668 0.009598 0.734940
O O10 0.041079 0.198584 0.374345
O O11 0.155700 0.088828 0.428463
O O12 0.250000 0.750000 0.000000
#
# Coordination Sequence:
#
# PCOD8129616 Si02
#       6
#     8   8   8   4   8   8
#     4   9  19  33  49  66  97 136 171 207 234 299
#     4  11  20  31  47  73 101 133 171 199 247 288
#     4  12  20  28  47  78 104 130 165 199 243 304
#     4  10  14  26  38  64  90 126 160 176 230 296
#     4  12  17  27  45  70 103 133 158 193 242 304
#     4  10  18  33  50  67  95 133 172 198 249 286
#
# _framework density 18.095200999999999
#
# number of rings (size 3 to 8) (size 9 to 14) (size 15 to 20)
#    0.000    1.455   10.000    0.000    0.000    0.727 
#    0.000    0.000    0.000    0.000    0.000    5.091 
#    0.000    0.000    0.000    0.545    0.000    0.000 
#
# Total GULP energy -272610.965181 kJ/mol
# GULP energy per Si atom -12391.407508 kJ/mol
# Density = 1.805402 g / cm^3
# Si number density = 18.095201 Si / 1000 Ang^3
#
#
#
# Elastic Constant Matrix: (Units=GPa)
#
#
# Indices 1 2 3 4 5 6 
#
# 1 104.0316 26.7339 36.8108 0.0003 -11.8533 0.0000
# 2 26.7339 38.7302 16.2252 0.0001 -10.7136 0.0000
# 3 36.8108 16.2252 66.8792 0.0008 0.8109 0.0002
# 4 0.0003 0.0001 0.0008 16.0944 0.0003 -9.9595
# 5 -11.8533 -10.7136 0.8109 0.0003 27.4173 0.0001
# 6 0.0000 0.0000 0.0002 -9.9595 0.0001 24.3396
#
#
#
# Elastic Compliance Matrix: (Units=1/GPa)
#
#
# Indices 1 2 3 4 5 6 
#
# 1 0.013740 -0.005824 -0.006196 0.000000 0.003848 0.000000
# 2 -0.005824 0.035309 -0.005499 0.000000 0.011442 0.000000
# 3 -0.006196 -0.005499 0.019763 -0.000001 -0.005412 -0.000001
# 4 0.000000 0.000000 -0.000001 0.083201 -0.000001 0.034045
# 5 0.003848 0.011442 -0.005412 -0.000001 0.042768 0.000000
# 6 0.000000 0.000000 -0.000001 0.034045 0.000000 0.055016
#
#
# Mechanical properties :
#
#
# Convention : Reuss Voigt Hill
#
# Bulk Modulus (GPa) = 29.61019 41.02009 35.31514
# Shear Modulus (GPa) = 16.88659 22.22834 19.55746
#
# Velocity S-wave (km/s) = 3.05816 3.50867 3.29113
# Velocity P-wave (km/s) = 5.37298 6.25561 5.83102
#
# Compressibility (1/GPa) = 0.03377216
#
# Stress axis : x y z
#
# Youngs Moduli (GPa) = 72.77994 28.32175 50.60061
#
# Poissons Ratio (x) = 0.16495 0.31354
# Poissons Ratio (y) = 0.42387 0.27826
# Poissons Ratio (z) = 0.45097 0.15575
#
# Static dielectric constant tensor:
#      x y z
#    x 3.555790 0.000000 0.168190 
#    y 0.000000 2.972650 0.000000 
#    z 0.168190 0.000000 3.293630 
# 
# 
# High freq. dielectric constant tensor:
#      x y z
#    x 1.709500 0.000000 0.019980 
#    y 0.000000 1.646960 0.000000 
#    z 0.019980 0.000000 1.674970 
# 
# From -- ./inp_files/219922.got.cif
#   From: 2010.06.25/outbox.cif.g09.slc.cpg/sg15_110_cif.got.tgz:219922.got - 2010.06.28 07:06:18.
