data_PCOD8129412
_publ_section_title
;
Structure prediction by ZEFSAII (Michael W. Deem and Ramdas Pophale) SiO2 
 PCOD8129412
Probable space group: P 21/C
;
_chemical_formula_sum "Si O2"
_cell_formula_units_Z 16
_cell_length_a 13.723753
_cell_length_b 7.400844
_cell_length_c 8.744260
_cell_angle_alpha 90.000000
_cell_angle_beta 48.231309
_cell_angle_gamma 90.000000
_cell_volume 662.403993
_symmetry_space_group_name_H-M "P 21/C"
_symmetry_group_IT_number 14
_symmetry_cell_setting 'monoclinic'
loop_
_space_group_symop_operation_xyz
x,y,z
-x,1/2+y,1/2-z
-x,-y,-z
x,1/2-y,1/2+z
loop_
_atom_site_type_symbol
_atom_site_label
_atom_site_fract_x
_atom_site_fract_y
_atom_site_fract_z
Si Si1 0.748292 0.810006 0.987480
Si Si2 0.197207 0.837808 0.184990
Si Si3 0.020401 0.674855 0.586026
Si Si4 0.646983 0.977118 0.398135
O O1 0.648449 0.649911 0.047114
O O2 0.894620 0.731492 0.813987
O O3 0.722872 0.973858 0.891679
O O4 0.729115 0.871924 0.182287
O O5 0.071063 0.838233 0.426687
O O6 0.142703 0.853432 0.069844
O O7 0.291008 0.668531 0.119612
O O8 0.000000 0.500000 0.500000
O O9 0.500000 0.000000 0.500000
#
# Coordination Sequence:
#
# PCOD8129412 Si02
#       4
#     4   4   4   4
#     4  12  27  48  78 110 154 203 257 332 384 459
#     4  12  25  47  77 113 157 198 255 325 396 460
#     4  12  24  47  77 119 154 191 257 323 401 463
#     4  12  31  51  75 114 156 215 268 305 389 468
#
# _framework density 24.154442
#
# number of rings (size 3 to 8) (size 9 to 14) (size 15 to 20)
#    0.000    0.000    5.000    3.750    7.000    1.000 
#    0.000    0.000    0.000    0.000    0.000    0.000 
#    0.000    0.000    0.000    0.000    0.000    0.000 
#
# Total GULP energy -198274.429758 kJ/mol
# GULP energy per Si atom -12392.151860 kJ/mol
# Density = 2.409947 g / cm^3
# Si number density = 24.154442 Si / 1000 Ang^3
#
#
#
# Elastic Constant Matrix: (Units=GPa)
#
#
# Indices 1 2 3 4 5 6 
#
# 1 145.3958 54.8977 23.8568 0.0000 -15.5276 0.0000
# 2 54.8977 124.1022 20.8593 0.0000 -22.7075 0.0000
# 3 23.8568 20.8593 75.3686 0.0000 0.0233 0.0000
# 4 0.0000 0.0000 0.0000 36.7707 0.0000 8.0235
# 5 -15.5276 -22.7075 0.0233 0.0000 18.7612 0.0000
# 6 0.0000 0.0000 0.0000 8.0235 0.0000 47.9849
#
#
#
# Elastic Compliance Matrix: (Units=1/GPa)
#
#
# Indices 1 2 3 4 5 6 
#
# 1 0.008665 -0.002813 -0.001965 0.000000 0.003769 0.000000
# 2 -0.002813 0.011923 -0.002413 0.000000 0.012106 0.000000
# 3 -0.001965 -0.002413 0.014560 0.000000 -0.004565 0.000000
# 4 0.000000 0.000000 0.000000 0.028225 0.000000 -0.004719
# 5 0.003769 0.012106 -0.004565 0.000000 0.071079 0.000000
# 6 0.000000 0.000000 0.000000 -0.004719 0.000000 0.021629
#
#
# Mechanical properties :
#
#
# Convention : Reuss Voigt Hill
#
# Bulk Modulus (GPa) = 48.15964 60.45491 54.30728
# Shear Modulus (GPa) = 28.18727 37.05354 32.62041
#
# Velocity S-wave (km/s) = 3.41979 3.92091 3.67889
# Velocity P-wave (km/s) = 5.96446 6.75136 6.37007
#
# Compressibility (1/GPa) = 0.02076427
#
# Stress axis : x y z
#
# Youngs Moduli (GPa) = 115.40804 83.87254 68.68362
#
# Poissons Ratio (x) = 0.23593 0.13499
# Poissons Ratio (y) = 0.32464 0.16574
# Poissons Ratio (z) = 0.22682 0.20240
#
# Static dielectric constant tensor:
#      x y z
#    x 4.290750 0.000000 0.163300 
#    y 0.000000 4.987200 0.000000 
#    z 0.163300 0.000000 4.581430 
# 
# 
# High freq. dielectric constant tensor:
#      x y z
#    x 1.953470 0.000000 0.013020 
#    y 0.000000 1.981020 0.000000 
#    z 0.013020 0.000000 1.955810 
# 
# From -- ./inp_files/11718.got.cif
#   From: 2010.03.12/outbox.cif.g09.slc.cpg/sg14_6_cif.got.tgz:11718.got - 2010.03.31 13:35:05.
