data_PCOD8129116
_publ_section_title
;
Structure prediction by ZEFSAII (Michael W. Deem and Ramdas Pophale) SiO2 
 PCOD8129116
Probable space group: P 21/C
;
_chemical_formula_sum "Si O2"
_cell_formula_units_Z 20
_cell_length_a 5.010799
_cell_length_b 16.683593
_cell_length_c 10.021420
_cell_angle_alpha 90.000000
_cell_angle_beta 92.577312
_cell_angle_gamma 90.000000
_cell_volume 836.924539
_symmetry_space_group_name_H-M "P 21/C"
_symmetry_group_IT_number 14
_symmetry_cell_setting 'monoclinic'
loop_
_space_group_symop_operation_xyz
x,y,z
-x,1/2+y,1/2-z
-x,-y,-z
x,1/2-y,1/2+z
loop_
_atom_site_type_symbol
_atom_site_label
_atom_site_fract_x
_atom_site_fract_y
_atom_site_fract_z
Si Si1 0.016320 0.939238 0.880481
Si Si2 0.232096 0.011148 0.614011
Si Si3 0.401335 0.121987 0.317051
Si Si4 0.705863 0.215698 0.133908
Si Si5 0.200682 0.186102 0.561459
O O1 0.725267 0.908715 0.824872
O O2 0.185011 0.863189 0.939590
O O3 0.152741 0.980546 0.757990
O O4 0.000000 0.000000 0.000000
O O5 0.298638 0.104882 0.636885
O O6 0.488361 0.952747 0.588631
O O7 0.000000 0.000000 0.500000
O O8 0.636836 0.185929 0.284574
O O9 0.171992 0.164772 0.402304
O O10 0.429942 0.247408 0.068782
O O11 0.930572 0.284640 0.127050
#
# Coordination Sequence:
#
# PCOD8129116 Si02
#       5
#     4   4   4   4   4
#     4  11  26  50  74 109 160 205 257 310 385 473
#     4  11  24  44  78 113 146 204 263 316 381 463
#     4  11  25  49  75 109 160 194 264 319 376 466
#     4  11  27  46  69 111 153 195 251 319 382 445
#     4  12  25  45  78 111 147 197 257 325 386 443
#
# _framework density 23.897015
#
# number of rings (size 3 to 8) (size 9 to 14) (size 15 to 20)
#    0.000    0.800    4.000    1.800    5.600    6.400 
#    0.000    0.000    0.000    0.000    0.000    0.000 
#    0.000    0.000    0.000    0.000    0.000    0.000 
#
# Total GULP energy -247822.223301 kJ/mol
# GULP energy per Si atom -12391.111165 kJ/mol
# Density = 2.384262 g / cm^3
# Si number density = 23.897015 Si / 1000 Ang^3
#
#
#
# Elastic Constant Matrix: (Units=GPa)
#
#
# Indices 1 2 3 4 5 6 
#
# 1 107.0572 35.9511 18.3593 0.0000 6.8700 0.0000
# 2 35.9511 140.7419 56.5556 0.0000 -4.9581 0.0000
# 3 18.3593 56.5556 73.2263 0.0000 11.7115 0.0000
# 4 0.0000 0.0000 0.0000 43.9187 0.0000 -5.0979
# 5 6.8700 -4.9581 11.7115 0.0000 35.6606 0.0000
# 6 0.0000 0.0000 0.0000 -5.0979 0.0000 49.4392
#
#
#
# Elastic Compliance Matrix: (Units=1/GPa)
#
#
# Indices 1 2 3 4 5 6 
#
# 1 0.010417 -0.002671 -0.000178 0.000000 -0.002320 0.000000
# 2 -0.002671 0.011643 -0.009144 0.000000 0.005137 0.000000
# 3 -0.000178 -0.009144 0.022123 0.000000 -0.008503 0.000000
# 4 0.000000 0.000000 0.000000 0.023045 0.000000 0.002376
# 5 -0.002320 0.005137 -0.008503 0.000000 0.031996 0.000000
# 6 0.000000 0.000000 0.000000 0.002376 0.000000 0.020472
#
#
# Mechanical properties :
#
#
# Convention : Reuss Voigt Hill
#
# Bulk Modulus (GPa) = 49.51174 60.30639 54.90906
# Shear Modulus (GPa) = 33.24150 39.81433 36.52791
#
# Velocity S-wave (km/s) = 3.73370 4.08619 3.91392
# Velocity P-wave (km/s) = 6.27305 6.89589 6.59183
#
# Compressibility (1/GPa) = 0.02019723
#
# Stress axis : x y z
#
# Youngs Moduli (GPa) = 95.99511 85.88869 45.20171
#
# Poissons Ratio (x) = 0.22944 0.00803
# Poissons Ratio (y) = 0.25644 0.41333
# Poissons Ratio (z) = 0.01705 0.78537
#
# Static dielectric constant tensor:
#      x y z
#    x 4.617920 0.000000 -0.371330 
#    y 0.000000 4.992690 0.000000 
#    z -0.371330 0.000000 4.225020 
# 
# 
# High freq. dielectric constant tensor:
#      x y z
#    x 1.959080 0.000000 -0.027770 
#    y 0.000000 1.968900 0.000000 
#    z -0.027770 0.000000 1.925750 
# 
# From -- ./inp_files/5504.got.cif
#   From: 2010.03.12/outbox.cif.g09.slc.cpg/sg14_3_cif.got.tgz:5504.got - 2010.03.31 13:35:05.
