data_PCOD8129017
_publ_section_title
;
Structure prediction by ZEFSAII (Michael W. Deem and Ramdas Pophale) SiO2 
 PCOD8129017
Probable space group: P 21/C
;
_chemical_formula_sum "Si O2"
_cell_formula_units_Z 20
_cell_length_a 6.927196
_cell_length_b 8.201803
_cell_length_c 18.147059
_cell_angle_alpha 90.000000
_cell_angle_beta 136.670365
_cell_angle_gamma 90.000000
_cell_volume 707.490172
_symmetry_space_group_name_H-M "P 21/C"
_symmetry_group_IT_number 14
_symmetry_cell_setting 'monoclinic'
loop_
_space_group_symop_operation_xyz
x,y,z
-x,1/2+y,1/2-z
-x,-y,-z
x,1/2-y,1/2+z
loop_
_atom_site_type_symbol
_atom_site_label
_atom_site_fract_x
_atom_site_fract_y
_atom_site_fract_z
Si Si1 0.395574 0.759584 0.079057
Si Si2 0.792221 0.850537 0.905486
Si Si3 0.337065 0.503243 0.188171
Si Si4 0.370451 0.745512 0.905865
Si Si5 0.075528 0.482714 0.257295
O O1 0.317848 0.607590 0.108746
O O2 0.689851 0.839822 0.180234
O O3 0.424502 0.692087 0.004060
O O4 0.128541 0.887250 0.009861
O O5 0.753582 0.681113 0.851314
O O6 0.644179 0.989425 0.813832
O O7 0.642370 0.822474 0.943005
O O8 0.115058 0.572101 0.188259
O O9 0.239579 0.591506 0.823699
O O10 0.130626 0.889610 0.838363
#
# Coordination Sequence:
#
# PCOD8129017 Si02
#       5
#     4   4   4   4   4
#     4  12  24  48  74 104 144 187 250 295 347 437
#     4  11  26  44  75 103 142 194 237 299 362 421
#     4  11  23  48  70 103 145 189 234 300 360 416
#     4  11  27  44  73 106 142 192 238 297 361 426
#     4  11  26  49  71 107 150 190 239 298 365 418
#
# _framework density 28.268943
#
# number of rings (size 3 to 8) (size 9 to 14) (size 15 to 20)
#    0.000    0.800    4.000    1.200    5.600    7.200 
#    0.000    0.000    0.000    0.000    0.000    0.000 
#    0.000    0.000    0.000    0.000    0.000    0.000 
#
# Total GULP energy -247967.247616 kJ/mol
# GULP energy per Si atom -12398.362381 kJ/mol
# Density = 2.820460 g / cm^3
# Si number density = 28.268943 Si / 1000 Ang^3
#
#
#
# Elastic Constant Matrix: (Units=GPa)
#
#
# Indices 1 2 3 4 5 6 
#
# 1 78.6105 -4.5722 70.8728 0.0000 5.5475 0.0000
# 2 -4.5722 36.4334 18.5033 0.0000 -4.8985 0.0000
# 3 70.8728 18.5033 118.9185 0.0000 -9.9431 0.0000
# 4 0.0000 0.0000 0.0000 32.2075 0.0000 5.2749
# 5 5.5475 -4.8985 -9.9431 0.0000 55.5425 0.0000
# 6 0.0000 0.0000 0.0000 5.2749 0.0000 51.9038
#
#
#
# Elastic Compliance Matrix: (Units=1/GPa)
#
#
# Indices 1 2 3 4 5 6 
#
# 1 0.036615 0.016356 -0.024925 0.000000 -0.006676 0.000000
# 2 0.016356 0.037292 -0.015646 0.000000 -0.001146 0.000000
# 3 -0.024925 -0.015646 0.026183 0.000000 0.005797 0.000000
# 4 0.000000 0.000000 0.000000 0.031574 0.000000 -0.003209
# 5 -0.006676 -0.001146 0.005797 0.000000 0.019608 0.000000
# 6 0.000000 0.000000 0.000000 -0.003209 0.000000 0.019593
#
#
# Mechanical properties :
#
#
# Convention : Reuss Voigt Hill
#
# Bulk Modulus (GPa) = 19.35751 44.84115 32.09933
# Shear Modulus (GPa) = 21.14045 37.87464 29.50755
#
# Velocity S-wave (km/s) = 2.73762 3.66429 3.23432
# Velocity P-wave (km/s) = 4.10551 5.81373 5.03263
#
# Compressibility (1/GPa) = 0.05165953
#
# Stress axis : x y z
#
# Youngs Moduli (GPa) = 27.31148 26.81551 38.19305
#
# Poissons Ratio (x) = -0.43858 0.95195
# Poissons Ratio (y) = -0.44670 0.59756
# Poissons Ratio (z) = 0.68073 0.41955
#
# Static dielectric constant tensor:
#      x y z
#    x 5.402560 0.000000 0.059000 
#    y 0.000000 5.111930 0.000000 
#    z 0.059000 0.000000 5.358730 
# 
# 
# High freq. dielectric constant tensor:
#      x y z
#    x 2.148440 0.000000 -0.007450 
#    y 0.000000 2.147370 0.000000 
#    z -0.007450 0.000000 2.151810 
# 
# From -- ./inp_files/64919.got.cif
#   From: 2010.03.12/outbox.cif.g09.slc.cpg/sg14_33_cif.got.tgz:64919.got - 2010.03.31 13:35:05.
