data_PCOD8129903
_publ_section_title
;
Structure prediction by ZEFSAII (Michael W. Deem and Ramdas Pophale) SiO2 
 PCOD8129903
Probable space group: C 2/C
;
_chemical_formula_sum "Si O2"
_cell_formula_units_Z 52
_cell_length_a 23.299517
_cell_length_b 16.900246
_cell_length_c 14.148738
_cell_angle_alpha 90.000000
_cell_angle_beta 152.219069
_cell_angle_gamma 90.000000
_cell_volume 2596.746138
_symmetry_space_group_name_H-M "C 2/C"
_symmetry_group_IT_number 15
_symmetry_cell_setting 'monoclinic'
loop_
_space_group_symop_operation_xyz
x,y,z
-x,y,1/2-z
-x,-y,-z
x,-y,1/2+z
1/2+x,1/2+y,z
1/2-x,1/2+y,1/2-z
1/2-x,1/2-y,-z
1/2+x,1/2-y,1/2+z
loop_
_atom_site_type_symbol
_atom_site_label
_atom_site_fract_x
_atom_site_fract_y
_atom_site_fract_z
Si Si1 0.202161 0.119432 0.180648
Si Si2 0.618703 0.657004 0.358088
Si Si3 0.500000 0.634535 0.750000
Si Si4 0.644774 0.231673 0.720439
Si Si5 0.869120 0.015479 0.263280
Si Si6 0.191924 0.842017 0.380135
Si Si7 0.118556 0.309415 0.697788
O O1 0.167074 0.204815 0.171178
O O2 0.222430 0.057123 0.294405
O O3 0.325559 0.132071 0.300101
O O4 0.089265 0.085285 0.951245
O O5 0.500000 0.664327 0.250000
O O6 0.610094 0.725052 0.267264
O O7 0.740148 0.672601 0.598495
O O8 0.622907 0.569943 0.318091
O O9 0.406109 0.682977 0.679889
O O10 0.527752 0.178800 0.519412
O O11 0.811523 0.932518 0.153293
O O12 0.000000 0.000000 0.500000
O O13 0.159318 0.783975 0.244207
O O14 0.328660 0.830077 0.621155
#
# Coordination Sequence:
#
# PCOD8129903 Si02
#       7
#     8   8   4   8   8   8   8
#     4  10  20  33  60  87 118 153 196 244 296 343
#     4  10  22  35  60  86 114 151 200 244 302 354
#     4  10  16  32  54  88 114 148 184 240 290 334
#     4  10  19  38  55  86 118 154 197 245 290 355
#     4  11  21  37  58  86 120 148 196 257 294 340
#     4  10  20  34  58  91 118 150 203 239 296 344
#     4  10  20  36  59  85 119 157 192 240 294 357
#
# _framework density 20.025061000000001
#
# number of rings (size 3 to 8) (size 9 to 14) (size 15 to 20)
#    0.000    1.846    3.077    1.846    1.077    0.000 
#    0.000    0.769    0.000    3.692    0.000    0.000 
#    0.000    0.000    0.000    0.000    0.000    0.000 
#
# Total GULP energy -322167.407496 kJ/mol
# GULP energy per Si atom -12391.054134 kJ/mol
# Density = 1.997948 g / cm^3
# Si number density = 20.025061 Si / 1000 Ang^3
#
#
#
# Elastic Constant Matrix: (Units=GPa)
#
#
# Indices 1 2 3 4 5 6 
#
# 1 73.4592 31.9475 31.0947 0.0000 1.9577 0.0000
# 2 31.9475 106.7864 47.8026 0.0000 6.1026 0.0000
# 3 31.0947 47.8026 154.0145 0.0000 10.8673 0.0000
# 4 0.0000 0.0000 0.0000 22.5471 0.0000 -2.0600
# 5 1.9577 6.1026 10.8673 0.0000 20.3317 0.0000
# 6 0.0000 0.0000 0.0000 -2.0600 0.0000 17.9304
#
#
#
# Elastic Compliance Matrix: (Units=1/GPa)
#
#
# Indices 1 2 3 4 5 6 
#
# 1 0.016199 -0.003950 -0.002097 0.000000 0.000747 0.000000
# 2 -0.003950 0.011884 -0.002771 0.000000 -0.001706 0.000000
# 3 -0.002097 -0.002771 0.008005 0.000000 -0.003245 0.000000
# 4 0.000000 0.000000 0.000000 0.044822 0.000000 0.005149
# 5 0.000747 -0.001706 -0.003245 0.000000 0.051359 0.000000
# 6 0.000000 0.000000 0.000000 0.005149 0.000000 0.056363
#
#
# Mechanical properties :
#
#
# Convention : Reuss Voigt Hill
#
# Bulk Modulus (GPa) = 54.19415 61.77219 57.98317
# Shear Modulus (GPa) = 23.53844 27.05617 25.29731
#
# Velocity S-wave (km/s) = 3.43220 3.67974 3.55812
# Velocity P-wave (km/s) = 6.54436 6.99774 6.77484
#
# Compressibility (1/GPa) = 0.01845218
#
# Stress axis : x y z
#
# Youngs Moduli (GPa) = 61.73341 84.14663 124.91834
#
# Poissons Ratio (x) = 0.33239 0.26197
# Poissons Ratio (y) = 0.24385 0.34611
# Poissons Ratio (z) = 0.12946 0.23314
#
# Static dielectric constant tensor:
#      x y z
#    x 3.762330 0.000000 -0.213380 
#    y 0.000000 3.680440 0.000000 
#    z -0.213380 0.000000 3.825940 
# 
# 
# High freq. dielectric constant tensor:
#      x y z
#    x 1.778740 0.000000 -0.013030 
#    y 0.000000 1.755400 0.000000 
#    z -0.013030 0.000000 1.784060 
# 
# From -- ./inp_files/174022.got.cif
#   From: 2010.06.25/outbox.cif.g09.slc.cpg/sg15_88_cif.got.tgz:174022.got - 2010.06.28 07:06:18.
