data_PCOD8129173
_publ_section_title
;
Structure prediction by ZEFSAII (Michael W. Deem and Ramdas Pophale) SiO2 
 PCOD8129173
Probable space group: P 21/C
;
_chemical_formula_sum "Si O2"
_cell_formula_units_Z 28
_cell_length_a 9.204435
_cell_length_b 20.590817
_cell_length_c 9.884325
_cell_angle_alpha 90.000000
_cell_angle_beta 138.992108
_cell_angle_gamma 90.000000
_cell_volume 1229.219535
_symmetry_space_group_name_H-M "P 21/C"
_symmetry_group_IT_number 14
_symmetry_cell_setting 'monoclinic'
loop_
_space_group_symop_operation_xyz
x,y,z
-x,1/2+y,1/2-z
-x,-y,-z
x,1/2-y,1/2+z
loop_
_atom_site_type_symbol
_atom_site_label
_atom_site_fract_x
_atom_site_fract_y
_atom_site_fract_z
Si Si1 0.029954 0.024511 0.372482
Si Si2 0.188863 0.438687 0.489540
Si Si3 0.517397 0.038813 0.649507
Si Si4 0.150715 0.239678 0.566031
Si Si5 0.830414 0.346773 0.702914
Si Si6 0.369120 0.308843 0.491198
Si Si7 0.873436 0.142044 0.927661
O O1 0.830340 0.075468 0.210684
O O2 0.272691 0.056135 0.528787
O O3 0.000473 0.968426 0.240115
O O4 0.000000 0.000000 0.500000
O O5 0.365136 0.493046 0.656481
O O6 0.298103 0.381853 0.477679
O O7 0.067388 0.411996 0.540345
O O8 0.643965 0.108128 0.718896
O O9 0.500000 0.000000 0.500000
O O10 0.355332 0.263606 0.615535
O O11 0.225655 0.225451 0.771785
O O12 0.050506 0.174054 0.437013
O O13 0.955560 0.293972 0.405888
O O14 0.620252 0.312179 0.620064
O O15 0.850256 0.329733 0.560472
#
# Coordination Sequence:
#
# PCOD8129173 Si02
#       7
#     4   4   4   4   4   4   4
#     4  12  26  42  70 105 144 184 231 296 366 429
#     4  11  24  47  68 109 148 178 243 299 354 441
#     4  12  24  44  75 107 142 192 233 290 377 427
#     4  11  26  50  70 100 141 189 244 294 359 424
#     4  12  26  44  71 103 138 183 243 288 352 431
#     4  11  27  46  73 100 140 190 235 302 362 423
#     4  11  24  47  71 102 145 185 238 299 344 438
#
# _framework density 22.778680999999999
#
# number of rings (size 3 to 8) (size 9 to 14) (size 15 to 20)
#    0.000    0.571    4.286    3.000    6.000    1.143 
#    5.143    0.000    0.000    0.000    0.000    0.000 
#    0.000    0.000    0.000    0.000    0.000    0.000 
#
# Total GULP energy -347085.974593 kJ/mol
# GULP energy per Si atom -12395.927664 kJ/mol
# Density = 2.272684 g / cm^3
# Si number density = 22.778681 Si / 1000 Ang^3
#
#
#
# Elastic Constant Matrix: (Units=GPa)
#
#
# Indices 1 2 3 4 5 6 
#
# 1 136.4259 32.4866 39.4415 0.0000 -3.5638 0.0000
# 2 32.4866 76.8818 24.4725 0.0000 3.0274 0.0000
# 3 39.4415 24.4725 86.1740 0.0000 -4.9566 0.0000
# 4 0.0000 0.0000 0.0000 39.3364 0.0000 3.1522
# 5 -3.5638 3.0274 -4.9566 0.0000 36.5539 0.0000
# 6 0.0000 0.0000 0.0000 3.1522 0.0000 27.9335
#
#
#
# Elastic Compliance Matrix: (Units=1/GPa)
#
#
# Indices 1 2 3 4 5 6 
#
# 1 0.008953 -0.002767 -0.003274 0.000000 0.000658 0.000000
# 2 -0.002767 0.015266 -0.003182 0.000000 -0.001966 0.000000
# 3 -0.003274 -0.003182 0.014114 0.000000 0.001858 0.000000
# 4 0.000000 0.000000 0.000000 0.025654 0.000000 -0.002895
# 5 0.000658 -0.001966 0.001858 0.000000 0.027836 0.000000
# 6 0.000000 0.000000 0.000000 -0.002895 0.000000 0.036126
#
#
# Mechanical properties :
#
#
# Convention : Reuss Voigt Hill
#
# Bulk Modulus (GPa) = 50.28508 54.69811 52.49160
# Shear Modulus (GPa) = 32.67492 34.30351 33.48921
#
# Velocity S-wave (km/s) = 3.79152 3.88486 3.83848
# Velocity P-wave (km/s) = 6.42581 6.64740 6.53754
#
# Compressibility (1/GPa) = 0.01988661
#
# Stress axis : x y z
#
# Youngs Moduli (GPa) = 111.70038 65.50338 70.85398
#
# Poissons Ratio (x) = 0.18123 0.23198
# Poissons Ratio (y) = 0.30904 0.22548
# Poissons Ratio (z) = 0.36571 0.20845
#
# Static dielectric constant tensor:
#      x y z
#    x 4.409990 0.000000 0.171160 
#    y 0.000000 4.208180 0.000000 
#    z 0.171160 0.000000 4.335580 
# 
# 
# High freq. dielectric constant tensor:
#      x y z
#    x 1.915240 0.000000 -0.006710 
#    y 0.000000 1.909260 0.000000 
#    z -0.006710 0.000000 1.885390 
# 
# From -- ./inp_files/10442.got.cif
#   From: 2010.03.12/outbox.cif.g09.slc.cpg/sg14_6_cif.got.tgz:10442.got - 2010.03.31 13:35:05.
