data_PCOD8129830
_publ_section_title
;
Structure prediction by ZEFSAII (Michael W. Deem and Ramdas Pophale) SiO2 
 PCOD8129830
Probable space group: C 2/C
;
_chemical_formula_sum "Si O2"
_cell_formula_units_Z 56
_cell_length_a 22.828581
_cell_length_b 25.805688
_cell_length_c 5.239237
_cell_angle_alpha 90.000000
_cell_angle_beta 107.894221
_cell_angle_gamma 90.000000
_cell_volume 2937.165572
_symmetry_space_group_name_H-M "C 2/C"
_symmetry_group_IT_number 15
_symmetry_cell_setting 'monoclinic'
loop_
_space_group_symop_operation_xyz
x,y,z
-x,y,1/2-z
-x,-y,-z
x,-y,1/2+z
1/2+x,1/2+y,z
1/2-x,1/2+y,1/2-z
1/2-x,1/2-y,-z
1/2+x,1/2-y,1/2+z
loop_
_atom_site_type_symbol
_atom_site_label
_atom_site_fract_x
_atom_site_fract_y
_atom_site_fract_z
Si Si1 0.189246 0.284713 0.932294
Si Si2 0.572247 0.532468 0.336411
Si Si3 0.257286 0.389295 0.003348
Si Si4 0.838885 0.469245 0.797766
Si Si5 0.167077 0.877941 0.901142
Si Si6 0.974023 0.441247 0.963706
Si Si7 0.176338 0.758647 0.917658
O O1 0.207760 0.344197 0.974221
O O2 0.150355 0.274178 0.622713
O O3 0.250000 0.250000 0.000000
O O4 0.148660 0.266114 0.121236
O O5 0.500000 0.544527 0.250000
O O6 0.591413 0.505005 0.627408
O O7 0.605662 0.587612 0.341425
O O8 0.222084 0.438988 0.855973
O O9 0.307659 0.378187 0.853726
O O10 0.286914 0.399984 0.320269
O O11 0.838730 0.516437 0.596544
O O12 0.900844 0.436731 0.843824
O O13 0.154828 0.817478 0.939081
O O14 0.000000 0.411883 0.750000
O O15 0.000000 0.412593 0.250000
O O16 0.000000 0.500000 0.000000
O O17 0.250000 0.750000 0.000000
#
# Coordination Sequence:
#
# PCOD8129830 Si02
#       7
#     8   8   8   8   8   8   8
#     4  10  16  32  50  71 107 136 171 205 251 319
#     4  10  23  42  60  78 109 149 194 238 274 325
#     4  12  23  32  51  82 116 140 174 210 280 343
#     4  12  23  35  47  75 110 139 173 223 259 300
#     4  12  21  35  57  82 106 146 183 212 277 346
#     4  10  16  32  56  66  84 130 191 215 233 276
#     4  10  16  30  54  76 104 134 172 213 249 316
#
# _framework density 19.066001
#
# number of rings (size 3 to 8) (size 9 to 14) (size 15 to 20)
#    0.000    1.143    8.571    1.714    0.000    3.429 
#    0.000    0.000    0.000    0.000    0.000    3.000 
#    0.000    0.000    0.000    0.000    0.000    0.000 
#
# Total GULP energy -346951.260291 kJ/mol
# GULP energy per Si atom -12391.116439 kJ/mol
# Density = 1.902261 g / cm^3
# Si number density = 19.066001 Si / 1000 Ang^3
#
#
#
# Elastic Constant Matrix: (Units=GPa)
#
#
# Indices 1 2 3 4 5 6 
#
# 1 41.9562 29.3950 25.6197 0.0000 -4.6859 0.0000
# 2 29.3950 69.9285 18.9460 0.0000 0.8407 0.0000
# 3 25.6197 18.9460 139.2196 0.0000 -29.8725 0.0000
# 4 0.0000 0.0000 0.0000 17.0784 0.0000 -1.5702
# 5 -4.6859 0.8407 -29.8725 0.0000 26.5178 0.0000
# 6 0.0000 0.0000 0.0000 -1.5702 0.0000 17.8679
#
#
#
# Elastic Compliance Matrix: (Units=1/GPa)
#
#
# Indices 1 2 3 4 5 6 
#
# 1 0.036743 -0.014280 -0.004389 0.000000 0.002001 0.000000
# 2 -0.014280 0.020666 -0.001143 0.000000 -0.004466 0.000000
# 3 -0.004389 -0.001143 0.010534 0.000000 0.011127 0.000000
# 4 0.000000 0.000000 0.000000 0.059030 0.000000 0.005187
# 5 0.002001 -0.004466 0.011127 0.000000 0.050740 0.000000
# 6 0.000000 0.000000 0.000000 0.005187 0.000000 0.056422
#
#
# Mechanical properties :
#
#
# Convention : Reuss Voigt Hill
#
# Bulk Modulus (GPa) = 35.31158 44.33619 39.82388
# Shear Modulus (GPa) = 17.65548 24.10238 20.87893
#
# Velocity S-wave (km/s) = 3.04636 3.55935 3.31280
# Velocity P-wave (km/s) = 5.56189 6.34007 5.96369
#
# Compressibility (1/GPa) = 0.02831932
#
# Stress axis : x y z
#
# Youngs Moduli (GPa) = 27.21640 48.38784 94.93483
#
# Poissons Ratio (x) = 0.69098 0.41664
# Poissons Ratio (y) = 0.38865 0.10849
# Poissons Ratio (z) = 0.11945 0.05530
#
# Static dielectric constant tensor:
#      x y z
#    x 2.806110 0.000000 1.093350 
#    y 0.000000 3.207920 0.000000 
#    z 1.093350 0.000000 -1.817950 
# 
# 
# High freq. dielectric constant tensor:
#      x y z
#    x 1.697280 0.000000 -0.032200 
#    y 0.000000 1.711990 0.000000 
#    z -0.032200 0.000000 1.773470 
# 
# From -- ./inp_files/13930.got.cif
#   From: 2010.06.25/outbox.cif.g09.slc.cpg/sg15_7_cif.got.tgz:13930.got - 2010.06.28 07:06:18.
