data_PCOD8129415
_publ_section_title
;
Structure prediction by ZEFSAII (Michael W. Deem and Ramdas Pophale) SiO2 
 PCOD8129415
Probable space group: P 21/C
;
_chemical_formula_sum "Si O2"
_cell_formula_units_Z 28
_cell_length_a 16.738811
_cell_length_b 4.884993
_cell_length_c 13.859188
_cell_angle_alpha 90.000000
_cell_angle_beta 91.724033
_cell_angle_gamma 90.000000
_cell_volume 1132.738600
_symmetry_space_group_name_H-M "P 21/C"
_symmetry_group_IT_number 14
_symmetry_cell_setting 'monoclinic'
loop_
_space_group_symop_operation_xyz
x,y,z
-x,1/2+y,1/2-z
-x,-y,-z
x,1/2-y,1/2+z
loop_
_atom_site_type_symbol
_atom_site_label
_atom_site_fract_x
_atom_site_fract_y
_atom_site_fract_z
Si Si1 0.636294 0.590925 0.409266
Si Si2 0.988557 0.776278 0.186739
Si Si3 0.839025 0.789178 0.560864
Si Si4 0.713349 0.390137 0.818944
Si Si5 0.678711 0.859272 0.120861
Si Si6 0.137518 0.719150 0.563956
Si Si7 0.510818 0.636133 0.689330
O O1 0.679654 0.413019 0.329927
O O2 0.660223 0.495109 0.517615
O O3 0.541697 0.526036 0.392017
O O4 0.661671 0.901012 0.384117
O O5 0.900186 0.827732 0.142007
O O6 0.999618 0.463647 0.219143
O O7 0.052946 0.852482 0.107806
O O8 0.751621 0.853275 0.604931
O O9 0.825694 0.563254 0.475858
O O10 0.876099 0.070721 0.524167
O O11 0.711270 0.438691 0.704403
O O12 0.804842 0.373799 0.858017
O O13 0.593581 0.734188 0.151193
O O14 0.534908 0.401138 0.768826
#
# Coordination Sequence:
#
# PCOD8129415 Si02
#       7
#     4   4   4   4   4   4   4
#     4  12  25  48  68 108 144 188 252 301 370 438
#     4  12  26  47  73 109 148 198 249 302 373 448
#     4  12  26  45  75 108 145 197 250 302 377 442
#     4  12  25  45  73 104 147 187 245 311 355 446
#     4  12  26  46  78 104 149 195 249 301 382 433
#     4  12  24  48  71 107 151 189 250 309 364 447
#     4  12  25  47  72 105 148 198 248 310 372 440
#
# _framework density 24.718852999999999
#
# number of rings (size 3 to 8) (size 9 to 14) (size 15 to 20)
#    0.000    0.000    5.714    3.857    0.000    5.714 
#    0.000    2.857    0.000    0.000    0.000    0.000 
#    0.000    0.000    0.000    0.000    0.000    0.000 
#
# Total GULP energy -347146.977439 kJ/mol
# GULP energy per Si atom -12398.106337 kJ/mol
# Density = 2.466259 g / cm^3
# Si number density = 24.718853 Si / 1000 Ang^3
#
#
#
# Elastic Constant Matrix: (Units=GPa)
#
#
# Indices 1 2 3 4 5 6 
#
# 1 162.0099 7.4228 32.9292 0.0000 -3.7009 0.0000
# 2 7.4228 78.0339 7.5873 0.0000 -8.5142 0.0000
# 3 32.9292 7.5873 86.0398 0.0000 16.1474 0.0000
# 4 0.0000 0.0000 0.0000 25.2877 0.0000 3.3434
# 5 -3.7009 -8.5142 16.1474 0.0000 52.6917 0.0000
# 6 0.0000 0.0000 0.0000 3.3434 0.0000 33.4411
#
#
#
# Elastic Compliance Matrix: (Units=1/GPa)
#
#
# Indices 1 2 3 4 5 6 
#
# 1 0.006786 -0.000229 -0.002822 0.000000 0.001304 0.000000
# 2 -0.000229 0.013275 -0.001573 0.000000 0.002611 0.000000
# 3 -0.002822 -0.001573 0.013715 0.000000 -0.004655 0.000000
# 4 0.000000 0.000000 0.000000 0.040075 0.000000 -0.004007
# 5 0.001304 0.002611 -0.004655 0.000000 0.020918 0.000000
# 6 0.000000 0.000000 0.000000 -0.004007 0.000000 0.030304
#
#
# Mechanical properties :
#
#
# Convention : Reuss Voigt Hill
#
# Bulk Modulus (GPa) = 40.76928 46.88469 43.82699
# Shear Modulus (GPa) = 35.08862 40.82706 37.95784
#
# Velocity S-wave (km/s) = 3.77172 4.06847 3.92290
# Velocity P-wave (km/s) = 5.95792 6.40923 6.18769
#
# Compressibility (1/GPa) = 0.02452827
#
# Stress axis : x y z
#
# Youngs Moduli (GPa) = 147.35560 75.33222 72.91326
#
# Poissons Ratio (x) = 0.01724 0.20575
# Poissons Ratio (y) = 0.03372 0.11469
# Poissons Ratio (z) = 0.41582 0.11850
#
# Static dielectric constant tensor:
#      x y z
#    x 4.596830 0.000000 0.147630 
#    y 0.000000 4.060570 0.000000 
#    z 0.147630 0.000000 4.440590 
# 
# 
# High freq. dielectric constant tensor:
#      x y z
#    x 2.006820 0.000000 0.012300 
#    y 0.000000 1.966060 0.000000 
#    z 0.012300 0.000000 1.980880 
# 
# From -- ./inp_files/47818.got.cif
#   From: 2010.03.12/outbox.cif.g09.slc.cpg/sg14_24_cif.got.tgz:47818.got - 2010.03.31 13:35:05.
