data_PCOD8129112
_publ_section_title
;
Structure prediction by ZEFSAII (Michael W. Deem and Ramdas Pophale) SiO2 
 PCOD8129112
Probable space group: P 21/C
;
_chemical_formula_sum "Si O2"
_cell_formula_units_Z 28
_cell_length_a 9.002324
_cell_length_b 15.990613
_cell_length_c 8.989002
_cell_angle_alpha 90.000000
_cell_angle_beta 73.725238
_cell_angle_gamma 90.000000
_cell_volume 1242.139189
_symmetry_space_group_name_H-M "P 21/C"
_symmetry_group_IT_number 14
_symmetry_cell_setting 'monoclinic'
loop_
_space_group_symop_operation_xyz
x,y,z
-x,1/2+y,1/2-z
-x,-y,-z
x,1/2-y,1/2+z
loop_
_atom_site_type_symbol
_atom_site_label
_atom_site_fract_x
_atom_site_fract_y
_atom_site_fract_z
Si Si1 0.168716 0.505680 0.016017
Si Si2 0.427554 0.713497 0.138235
Si Si3 0.407090 0.866276 0.326961
Si Si4 0.861703 0.829864 0.885126
Si Si5 0.765655 0.674327 0.087377
Si Si6 0.178040 0.585880 0.322209
Si Si7 0.627904 0.959945 0.069769
O O1 0.154696 0.523904 0.192437
O O2 0.257698 0.578052 0.901941
O O3 0.254068 0.417430 0.975995
O O4 0.000000 0.500000 0.000000
O O5 0.374068 0.808636 0.190239
O O6 0.592704 0.704112 0.173260
O O7 0.304198 0.654874 0.250308
O O8 0.444833 0.693466 0.957871
O O9 0.549299 0.928510 0.246555
O O10 0.872997 0.826576 0.703674
O O11 0.015803 0.871271 0.911126
O O12 0.849302 0.735672 0.947998
O O13 0.708253 0.881173 0.969350
O O14 0.240812 0.529748 0.439643
O O15 0.500000 0.000000 0.000000
#
# Coordination Sequence:
#
# PCOD8129112 Si02
#       7
#     4   4   4   4   4   4   4
#     4  11  24  46  72 101 147 188 238 296 366 432
#     4  11  24  44  74 102 142 182 243 295 350 436
#     4  11  25  45  73 109 138 192 245 292 363 427
#     4  12  27  45  70 108 144 187 239 297 368 428
#     4  12  25  47  71 104 144 193 239 294 361 435
#     4  11  26  45  70 109 139 186 240 299 367 424
#     4  12  26  47  73 105 144 191 243 301 362 437
#
# _framework density 22.541758000000002
#
# number of rings (size 3 to 8) (size 9 to 14) (size 15 to 20)
#    0.000    0.571    2.857    4.714    6.000    2.286 
#    0.000    0.000    0.000    0.000    0.000    0.000 
#    0.000    0.000    0.000    0.000    0.000    0.000 
#
# Total GULP energy -347330.050992 kJ/mol
# GULP energy per Si atom -12404.644678 kJ/mol
# Density = 2.249045 g / cm^3
# Si number density = 22.541758 Si / 1000 Ang^3
#
#
#
# Elastic Constant Matrix: (Units=GPa)
#
#
# Indices 1 2 3 4 5 6 
#
# 1 102.6758 49.4421 33.3817 0.0000 10.8859 0.0000
# 2 49.4421 136.7801 47.3910 0.0000 5.5043 0.0000
# 3 33.3817 47.3910 73.9505 0.0000 -1.5045 0.0000
# 4 0.0000 0.0000 0.0000 38.5646 0.0000 -5.3811
# 5 10.8859 5.5043 -1.5045 0.0000 29.0380 0.0000
# 6 0.0000 0.0000 0.0000 -5.3811 0.0000 39.7778
#
#
#
# Elastic Compliance Matrix: (Units=1/GPa)
#
#
# Indices 1 2 3 4 5 6 
#
# 1 0.013018 -0.003159 -0.003943 0.000000 -0.004486 0.000000
# 2 -0.003159 0.010293 -0.005192 0.000000 -0.001036 0.000000
# 3 -0.003943 -0.005192 0.018699 0.000000 0.003431 0.000000
# 4 0.000000 0.000000 0.000000 0.026429 0.000000 0.003575
# 5 -0.004486 -0.001036 0.003431 0.000000 0.036494 0.000000
# 6 0.000000 0.000000 0.000000 0.003575 0.000000 0.025623
#
#
# Mechanical properties :
#
#
# Convention : Reuss Voigt Hill
#
# Bulk Modulus (GPa) = 57.39462 63.75955 60.57709
# Shear Modulus (GPa) = 31.06506 33.68884 32.37695
#
# Velocity S-wave (km/s) = 3.71632 3.87008 3.79398
# Velocity P-wave (km/s) = 6.62808 6.95101 6.79146
#
# Compressibility (1/GPa) = 0.01742323
#
# Stress axis : x y z
#
# Youngs Moduli (GPa) = 76.81563 97.15064 53.47761
#
# Poissons Ratio (x) = 0.30689 0.21088
# Poissons Ratio (y) = 0.24265 0.27763
# Poissons Ratio (z) = 0.30291 0.50436
#
# Static dielectric constant tensor:
#      x y z
#    x 3.712630 0.000000 -0.332310 
#    y 0.000000 4.402410 0.000000 
#    z -0.332310 0.000000 3.702840 
# 
# 
# High freq. dielectric constant tensor:
#      x y z
#    x 1.892460 0.000000 -0.005380 
#    y 0.000000 1.907400 0.000000 
#    z -0.005380 0.000000 1.883480 
# 
# From -- ./inp_files/9389.got.cif
#   From: 2010.03.12/outbox.cif.g09.slc.cpg/sg14_5_cif.got.tgz:9389.got - 2010.03.31 13:35:05.
