data_PCOD8129625
_publ_section_title
;
Structure prediction by ZEFSAII (Michael W. Deem and Ramdas Pophale) SiO2 
 PCOD8129625
Probable space group: C 2/C
;
_chemical_formula_sum "Si O2"
_cell_formula_units_Z 52
_cell_length_a 16.268935
_cell_length_b 8.138654
_cell_length_c 20.748506
_cell_angle_alpha 90.000000
_cell_angle_beta 73.155954
_cell_angle_gamma 90.000000
_cell_volume 2629.386963
_symmetry_space_group_name_H-M "C 2/C"
_symmetry_group_IT_number 15
_symmetry_cell_setting 'monoclinic'
loop_
_space_group_symop_operation_xyz
x,y,z
-x,y,1/2-z
-x,-y,-z
x,-y,1/2+z
1/2+x,1/2+y,z
1/2-x,1/2+y,1/2-z
1/2-x,1/2-y,-z
1/2+x,1/2-y,1/2+z
loop_
_atom_site_type_symbol
_atom_site_label
_atom_site_fract_x
_atom_site_fract_y
_atom_site_fract_z
Si Si1 0.871392 0.870520 0.451590
Si Si2 0.104511 0.632509 0.827682
Si Si3 0.500000 0.561176 0.750000
Si Si4 0.567823 0.334698 0.635864
Si Si5 0.500555 0.826151 0.654136
Si Si6 0.645637 0.962143 0.177157
Si Si7 0.223805 0.787365 0.902820
O O1 0.947494 0.741705 0.419346
O O2 0.847217 0.856159 0.531683
O O3 0.790802 0.828906 0.424266
O O4 0.903257 0.057103 0.431895
O O5 0.145467 0.618728 0.747556
O O6 0.179844 0.676473 0.859048
O O7 0.029681 0.768969 0.848450
O O8 0.069688 0.452806 0.856218
O O9 0.572279 0.449513 0.699079
O O10 0.457563 0.674675 0.703349
O O11 0.633814 0.184192 0.627858
O O12 0.565074 0.914959 0.689935
O O13 0.733360 0.055841 0.141544
#
# Coordination Sequence:
#
# PCOD8129625 Si02
#       7
#     8   8   4   8   8   8   8
#     4   9  21  40  57  83 107 169 190 231 291 358
#     4  11  20  36  56  91 111 148 192 256 281 334
#     4  10  14  30  56  88 106 142 186 244 268 348
#     4  10  19  34  63  82 111 146 206 231 284 341
#     4   9  17  33  62  81 113 147 197 237 290 331
#     4  10  19  37  54  84 118 156 177 241 296 352
#     4  10  23  39  56  79 128 149 194 230 296 353
#
# _framework density 19.776471000000001
#
# number of rings (size 3 to 8) (size 9 to 14) (size 15 to 20)
#    0.000    2.154    3.077    0.923    0.000    3.077 
#    2.769    3.077    0.000    0.000    0.000    0.000 
#    0.000    0.000    0.000    0.000    0.000    0.000 
#
# Total GULP energy -322339.178374 kJ/mol
# GULP energy per Si atom -12397.660707 kJ/mol
# Density = 1.973146 g / cm^3
# Si number density = 19.776471 Si / 1000 Ang^3
#
#
#
# Elastic Constant Matrix: (Units=GPa)
#
#
# Indices 1 2 3 4 5 6 
#
# 1 39.0286 36.9554 21.9826 0.0000 3.3670 0.0000
# 2 36.9554 104.3446 24.7782 0.0002 -3.9076 0.0002
# 3 21.9826 24.7782 75.6358 0.0001 -6.3967 0.0001
# 4 0.0000 0.0002 0.0001 30.2816 0.0000 -9.6895
# 5 3.3670 -3.9076 -6.3967 0.0000 24.6707 0.0000
# 6 0.0000 0.0002 0.0001 -9.6895 0.0000 33.0613
#
#
#
# Elastic Compliance Matrix: (Units=1/GPa)
#
#
# Indices 1 2 3 4 5 6 
#
# 1 0.045351 -0.014228 -0.009441 0.000000 -0.010891 0.000000
# 2 -0.014228 0.014870 -0.000381 0.000000 0.004198 0.000000
# 3 -0.009441 -0.000381 0.016557 0.000000 0.005521 0.000000
# 4 0.000000 0.000000 0.000000 0.036441 0.000000 0.010680
# 5 -0.010891 0.004198 0.005521 0.000000 0.044117 0.000000
# 6 0.000000 0.000000 0.000000 0.010680 0.000000 0.033377
#
#
# Mechanical properties :
#
#
# Convention : Reuss Voigt Hill
#
# Bulk Modulus (GPa) = 34.86914 42.93794 38.90354
# Shear Modulus (GPa) = 20.13102 26.62223 23.37663
#
# Velocity S-wave (km/s) = 3.19396 3.67298 3.44181
# Velocity P-wave (km/s) = 5.59211 6.30448 5.95895
#
# Compressibility (1/GPa) = 0.02867865
#
# Stress axis : x y z
#
# Youngs Moduli (GPa) = 22.05004 67.24730 60.39764
#
# Poissons Ratio (x) = 0.95679 0.57020
# Poissons Ratio (y) = 0.31373 0.02303
# Poissons Ratio (z) = 0.20817 0.02564
#
# Static dielectric constant tensor:
#      x y z
#    x 3.236810 0.000000 -0.242740 
#    y 0.000000 3.872140 0.000000 
#    z -0.242740 0.000000 3.528210 
# 
# 
# High freq. dielectric constant tensor:
#      x y z
#    x 1.730990 0.000000 -0.018320 
#    y 0.000000 1.787440 0.000000 
#    z -0.018320 0.000000 1.764900 
# 
# From -- ./inp_files/242430.got.cif
#   From: 2010.06.25/outbox.cif.g09.slc.cpg/sg15_122_cif.got.tgz:242430.got - 2010.06.28 07:06:18.
