data_PCOD8129215
_publ_section_title
;
Structure prediction by ZEFSAII (Michael W. Deem and Ramdas Pophale) SiO2 
 PCOD8129215
Probable space group: P 21/C
;
_chemical_formula_sum "Si O2"
_cell_formula_units_Z 32
_cell_length_a 7.728294
_cell_length_b 12.499680
_cell_length_c 19.036580
_cell_angle_alpha 90.000000
_cell_angle_beta 134.638439
_cell_angle_gamma 90.000000
_cell_volume 1308.518368
_symmetry_space_group_name_H-M "P 21/C"
_symmetry_group_IT_number 14
_symmetry_cell_setting 'monoclinic'
loop_
_space_group_symop_operation_xyz
x,y,z
-x,1/2+y,1/2-z
-x,-y,-z
x,1/2-y,1/2+z
loop_
_atom_site_type_symbol
_atom_site_label
_atom_site_fract_x
_atom_site_fract_y
_atom_site_fract_z
Si Si1 0.783926 0.724189 0.660924
Si Si2 0.691138 0.331060 0.221987
Si Si3 0.630037 0.691777 0.465823
Si Si4 0.961682 0.476107 0.870214
Si Si5 0.819972 0.343506 0.411362
Si Si6 0.334613 0.447517 0.852313
Si Si7 0.153478 0.870876 0.520923
Si Si8 0.437996 0.008092 0.848917
O O1 0.632841 0.738127 0.544968
O O2 0.723874 0.826902 0.693126
O O3 0.722740 0.609060 0.674502
O O4 0.071093 0.734074 0.732645
O O5 0.461218 0.283934 0.113737
O O6 0.661402 0.315557 0.296710
O O7 0.742017 0.456915 0.221111
O O8 0.456879 0.586399 0.411934
O O9 0.895419 0.648667 0.520918
O O10 0.962715 0.391101 0.934825
O O11 0.705094 0.458736 0.758187
O O12 0.196114 0.458617 0.887331
O O13 0.961705 0.596082 0.905147
O O14 0.770400 0.253628 0.457727
O O15 0.712305 0.455156 0.408818
O O16 0.626819 0.450612 0.938211
#
# Coordination Sequence:
#
# PCOD8129215 Si02
#       8
#     4   4   4   4   4   4   4   4
#     4  11  25  45  69 105 141 185 243 296 359 443
#     4  11  26  44  73 106 143 192 238 303 365 427
#     4  11  26  45  72  98 143 193 235 305 366 424
#     4  11  25  43  72 102 148 185 243 304 363 430
#     4  11  25  46  69 106 145 188 244 294 364 439
#     4  12  24  45  74 105 145 191 241 300 365 429
#     4  11  25  43  70 108 144 188 240 306 362 434
#     4  12  23  48  67 102 143 189 242 297 360 446
#
# _framework density 24.45514
#
# number of rings (size 3 to 8) (size 9 to 14) (size 15 to 20)
#    0.000    0.750    2.500    4.875    8.750    0.000 
#    0.000    0.000    0.000    0.000    0.000    0.000 
#    0.000    0.000    0.000    0.000    0.000    0.000 
#
# Total GULP energy -396599.091762 kJ/mol
# GULP energy per Si atom -12393.721618 kJ/mol
# Density = 2.439948 g / cm^3
# Si number density = 24.455140 Si / 1000 Ang^3
#
#
#
# Elastic Constant Matrix: (Units=GPa)
#
#
# Indices 1 2 3 4 5 6 
#
# 1 80.0428 7.0924 7.1473 0.0000 4.7725 0.0000
# 2 7.0924 102.2181 21.0565 0.0000 -7.2031 0.0000
# 3 7.1473 21.0565 98.9095 0.0000 6.0017 0.0000
# 4 0.0000 0.0000 0.0000 30.5278 0.0000 2.7231
# 5 4.7725 -7.2031 6.0017 0.0000 12.1684 0.0000
# 6 0.0000 0.0000 0.0000 2.7231 0.0000 39.4692
#
#
#
# Elastic Compliance Matrix: (Units=1/GPa)
#
#
# Indices 1 2 3 4 5 6 
#
# 1 0.012969 -0.001229 -0.000333 0.000000 -0.005650 0.000000
# 2 -0.001229 0.011029 -0.002767 0.000000 0.008375 0.000000
# 3 -0.000333 -0.002767 0.011149 0.000000 -0.007006 0.000000
# 4 0.000000 0.000000 0.000000 0.032960 0.000000 -0.002274
# 5 -0.005650 0.008375 -0.007006 0.000000 0.092809 0.000000
# 6 0.000000 0.000000 0.000000 -0.002274 0.000000 0.025493
#
#
# Mechanical properties :
#
#
# Convention : Reuss Voigt Hill
#
# Bulk Modulus (GPa) = 37.75378 39.08475 38.41927
# Shear Modulus (GPa) = 24.52233 32.82469 28.67351
#
# Velocity S-wave (km/s) = 3.17005 3.66764 3.42788
# Velocity P-wave (km/s) = 5.37313 5.82686 5.60459
#
# Compressibility (1/GPa) = 0.02648741
#
# Stress axis : x y z
#
# Youngs Moduli (GPa) = 77.10793 90.67386 89.69805
#
# Poissons Ratio (x) = 0.11148 0.02983
# Poissons Ratio (y) = 0.09480 0.24821
# Poissons Ratio (z) = 0.02564 0.25091
#
# Static dielectric constant tensor:
#      x y z
#    x 4.340010 0.000000 0.107660 
#    y 0.000000 4.490410 0.000000 
#    z 0.107660 0.000000 4.318090 
# 
# 
# High freq. dielectric constant tensor:
#      x y z
#    x 1.968300 0.000000 0.016530 
#    y 0.000000 1.984740 0.000000 
#    z 0.016530 0.000000 1.960600 
# 
# From -- ./inp_files/65604.got.cif
#   From: 2010.03.12/outbox.cif.g09.slc.cpg/sg14_33_cif.got.tgz:65604.got - 2010.03.31 13:35:05.
