data_PCOD8129801
_publ_section_title
;
Structure prediction by ZEFSAII (Michael W. Deem and Ramdas Pophale) SiO2 
 PCOD8129801
Probable space group: C 2/C
;
_chemical_formula_sum "Si O2"
_cell_formula_units_Z 64
_cell_length_a 12.836452
_cell_length_b 18.203560
_cell_length_c 28.014765
_cell_angle_alpha 90.000000
_cell_angle_beta 34.182058
_cell_angle_gamma 90.000000
_cell_volume 3677.806487
_symmetry_space_group_name_H-M "C 2/C"
_symmetry_group_IT_number 15
_symmetry_cell_setting 'monoclinic'
loop_
_space_group_symop_operation_xyz
x,y,z
-x,y,1/2-z
-x,-y,-z
x,-y,1/2+z
1/2+x,1/2+y,z
1/2-x,1/2+y,1/2-z
1/2-x,1/2-y,-z
1/2+x,1/2-y,1/2+z
loop_
_atom_site_type_symbol
_atom_site_label
_atom_site_fract_x
_atom_site_fract_y
_atom_site_fract_z
Si Si1 0.393583 0.717160 0.684800
Si Si2 0.797618 0.142512 0.812916
Si Si3 0.681166 0.790197 0.454300
Si Si4 0.861835 0.487927 0.840981
Si Si5 0.356220 0.423880 0.147208
Si Si6 0.946172 0.638691 0.122290
Si Si7 0.162489 0.511505 0.803646
Si Si8 0.682386 0.624730 0.465278
O O1 0.330678 0.709654 0.763458
O O2 0.619174 0.708636 0.594694
O O3 0.292963 0.654248 0.692368
O O4 0.323746 0.793646 0.688814
O O5 0.690158 0.176696 0.898185
O O6 0.674783 0.077440 0.837071
O O7 0.000000 0.110056 0.750000
O O8 0.533298 0.841654 0.537852
O O9 0.604594 0.705956 0.481960
O O10 0.770220 0.558862 0.850608
O O11 0.696771 0.429438 0.914061
O O12 0.000000 0.450672 0.750000
O O13 0.968583 0.516327 0.847970
O O14 0.329646 0.482731 0.200838
O O15 0.567922 0.417046 0.049885
O O16 0.105872 0.630202 0.100345
O O17 0.824736 0.564003 0.170209
#
# Coordination Sequence:
#
# PCOD8129801 Si02
#       8
#     8   8   8   8   8   8   8   8
#     4   9  16  30  49  73  96 122 155 196 236 281
#     4   9  19  31  49  71  96 124 157 196 234 279
#     4  10  17  28  48  74  96 121 155 195 243 273
#     4   9  19  30  45  71 100 127 154 191 241 287
#     4  10  16  30  48  70  95 125 157 192 235 289
#     4  10  17  30  49  72  99 125 153 196 245 277
#     4   9  20  32  46  67  97 127 157 192 235 280
#     4  10  17  28  49  75  98 119 153 201 242 283
#
# _framework density 17.401676999999999
#
# number of rings (size 3 to 8) (size 9 to 14) (size 15 to 20)
#    0.000    2.500    2.500    1.125    0.000    5.000 
#    0.000    0.000    0.000    4.500    0.000    0.000 
#    0.000    0.000    0.000    0.000    0.000    0.000 
#
# Total GULP energy -396475.995695 kJ/mol
# GULP energy per Si atom -12389.874865 kJ/mol
# Density = 1.736207 g / cm^3
# Si number density = 17.401677 Si / 1000 Ang^3
#
#
#
# Elastic Constant Matrix: (Units=GPa)
#
#
# Indices 1 2 3 4 5 6 
#
# 1 53.1071 37.9435 24.9239 0.0007 18.8510 -0.0007
# 2 37.9435 117.0912 69.4339 0.0200 16.3846 -0.0071
# 3 24.9239 69.4339 90.7366 -0.0040 25.4942 -0.0038
# 4 0.0007 0.0200 -0.0040 32.8970 0.0029 0.6719
# 5 18.8510 16.3846 25.4942 0.0029 19.5403 -0.0042
# 6 -0.0007 -0.0071 -0.0038 0.6719 -0.0042 17.7637
#
#
#
# Elastic Compliance Matrix: (Units=1/GPa)
#
#
# Indices 1 2 3 4 5 6 
#
# 1 0.036559 -0.012652 0.010370 0.000012 -0.038190 -0.000011
# 2 -0.012652 0.020209 -0.016825 -0.000016 0.017212 0.000009
# 3 0.010370 -0.016825 0.031408 0.000017 -0.036874 -0.000009
# 4 0.000012 -0.000016 0.000017 0.030421 -0.000025 -0.001151
# 5 -0.038190 0.017212 -0.036874 -0.000025 0.121695 0.000027
# 6 -0.000011 0.000009 -0.000009 -0.001151 0.000027 0.056338
#
#
# Mechanical properties :
#
#
# Convention : Reuss Voigt Hill
#
# Bulk Modulus (GPa) = 20.01585 58.39306 39.20445
# Shear Modulus (GPa) = 14.22479 22.61579 18.42029
#
# Velocity S-wave (km/s) = 2.86219 3.60895 3.25704
# Velocity P-wave (km/s) = 4.73815 7.14107 6.05991
#
# Compressibility (1/GPa) = 0.04996042
#
# Stress axis : x y z
#
# Youngs Moduli (GPa) = 27.35328 49.48314 31.83906
#
# Poissons Ratio (x) = 0.62607 -0.33016
# Poissons Ratio (y) = 0.34608 0.53570
# Poissons Ratio (z) = -0.28365 0.83256
#
# Static dielectric constant tensor:
#      x y z
#    x 2.994900 0.000010 0.241710 
#    y 0.000010 3.545360 0.000020 
#    z 0.241710 0.000020 3.276410 
# 
# 
# High freq. dielectric constant tensor:
#      x y z
#    x 1.634740 0.000000 0.033210 
#    y 0.000000 1.671270 0.000000 
#    z 0.033210 0.000000 1.668090 
# 
# From -- ./inp_files/182758.got.cif
#   From: 2010.06.25/outbox.cif.g09.slc.cpg/sg15_92_cif.got.tgz:182758.got - 2010.06.28 07:06:18.
