data_PCOD8129765
_publ_section_title
;
Structure prediction by ZEFSAII (Michael W. Deem and Ramdas Pophale) SiO2 
 PCOD8129765
Probable space group: C 2/C
;
_chemical_formula_sum "Si O2"
_cell_formula_units_Z 40
_cell_length_a 15.718516
_cell_length_b 33.131051
_cell_length_c 5.089007
_cell_angle_alpha 90.000000
_cell_angle_beta 73.298346
_cell_angle_gamma 90.000000
_cell_volume 2538.405930
_symmetry_space_group_name_H-M "C 2/C"
_symmetry_group_IT_number 15
_symmetry_cell_setting 'monoclinic'
loop_
_space_group_symop_operation_xyz
x,y,z
-x,y,1/2-z
-x,-y,-z
x,-y,1/2+z
1/2+x,1/2+y,z
1/2-x,1/2+y,1/2-z
1/2-x,1/2-y,-z
1/2+x,1/2-y,1/2+z
loop_
_atom_site_type_symbol
_atom_site_label
_atom_site_fract_x
_atom_site_fract_y
_atom_site_fract_z
Si Si1 0.942025 0.892242 0.056240
Si Si2 0.901048 0.017973 0.616920
Si Si3 0.220858 0.294590 0.607138
Si Si4 0.184450 0.180051 0.956535
Si Si5 0.442052 0.245483 0.052944
O O1 0.898746 0.934531 0.180681
O O2 0.865656 0.861742 0.037809
O O3 0.000000 0.875133 0.250000
O O4 0.000000 0.900946 0.750000
O O5 0.850250 0.005843 0.395190
O O6 0.000000 0.000000 0.500000
O O7 0.250000 0.250000 0.500000
O O8 0.234269 0.319844 0.326411
O O9 0.119658 0.292332 0.801956
O O10 0.280376 0.315165 0.779353
O O11 0.116338 0.216349 0.973592
O O12 0.500000 0.258817 0.250000
O O13 0.500000 0.231937 0.750000
#
# Coordination Sequence:
#
# PCOD8129765 Si02
#       5
#     8   8   8   8   8
#     4  12  20  29  45  65  90 118 159 201 216 246
#     4  10  16  29  42  59  84 120 154 187 208 256
#     4  10  20  35  47  59  88 119 140 180 241 290
#     4  11  21  32  44  66  90 116 145 189 241 261
#     4  11  19  31  48  65  80 107 153 190 220 264
#
# _framework density 15.757921
#
# number of rings (size 3 to 8) (size 9 to 14) (size 15 to 20)
#    0.000    1.200    4.000    8.400    0.000    0.000 
#    0.000    0.000    0.000    0.000    0.000    0.000 
#    0.000    0.000    0.000    0.000    0.000   70.000 
#
# Total GULP energy -247842.371513 kJ/mol
# GULP energy per Si atom -12392.118576 kJ/mol
# Density = 1.572206 g / cm^3
# Si number density = 15.757921 Si / 1000 Ang^3
#
#
#
# Elastic Constant Matrix: (Units=GPa)
#
#
# Indices 1 2 3 4 5 6 
#
# 1 34.6725 15.6077 22.7050 0.0000 0.2436 0.0000
# 2 15.6077 71.3490 15.0096 0.0000 -2.6703 0.0000
# 3 22.7050 15.0096 117.0694 0.0000 9.1311 0.0000
# 4 0.0000 0.0000 0.0000 17.2314 0.0000 8.9104
# 5 0.2436 -2.6703 9.1311 0.0000 32.0179 0.0000
# 6 0.0000 0.0000 0.0000 8.9104 0.0000 15.6520
#
#
#
# Elastic Compliance Matrix: (Units=1/GPa)
#
#
# Indices 1 2 3 4 5 6 
#
# 1 0.035810 -0.006497 -0.006186 0.000000 0.000950 0.000000
# 2 -0.006497 0.015681 -0.000876 0.000000 0.001607 0.000000
# 3 -0.006186 -0.000876 0.010080 0.000000 -0.002901 0.000000
# 4 0.000000 0.000000 0.000000 0.082245 0.000000 -0.046821
# 5 0.000950 0.001607 -0.002901 0.000000 0.032187 0.000000
# 6 0.000000 0.000000 0.000000 -0.046821 0.000000 0.090544
#
#
# Mechanical properties :
#
#
# Convention : Reuss Voigt Hill
#
# Bulk Modulus (GPa) = 29.02419 36.63728 32.83073
# Shear Modulus (GPa) = 16.38540 24.29815 20.34178
#
# Velocity S-wave (km/s) = 3.22812 3.93105 3.59680
# Velocity P-wave (km/s) = 5.68798 6.62606 6.17486
#
# Compressibility (1/GPa) = 0.03445402
#
# Stress axis : x y z
#
# Youngs Moduli (GPa) = 27.92510 63.77088 99.20338
#
# Poissons Ratio (x) = 0.41429 0.61371
# Poissons Ratio (y) = 0.18142 0.08689
# Poissons Ratio (z) = 0.17275 0.05586
#
# Static dielectric constant tensor:
#      x y z
#    x 2.877300 0.000000 -0.265650 
#    y 0.000000 2.883090 0.000000 
#    z -0.265650 0.000000 2.663150 
# 
# 
# High freq. dielectric constant tensor:
#      x y z
#    x 1.561510 0.000000 0.026630 
#    y 0.000000 1.576240 0.000000 
#    z 0.026630 0.000000 1.637910 
# 
# From -- ./inp_files/8467.got.cif
#   From: 2010.06.25/outbox.cif.g09.slc.cpg/sg15_5_cif.got.tgz:8467.got - 2010.06.28 07:06:18.
