data_PCOD8129539
_publ_section_title
;
Structure prediction by ZEFSAII (Michael W. Deem and Ramdas Pophale) SiO2 
 PCOD8129539
Probable space group: C 2/C
;
_chemical_formula_sum "Si O2"
_cell_formula_units_Z 32
_cell_length_a 27.000000
_cell_length_b 24.000000
_cell_length_c 12.000000
_cell_angle_alpha 90.000000
_cell_angle_beta 150.000000
_cell_angle_gamma 90.000000
_cell_volume 3888.000000
_symmetry_space_group_name_H-M "C 2/C"
_symmetry_group_IT_number 15
_symmetry_cell_setting 'monoclinic'
loop_
_space_group_symop_operation_xyz
x,y,z
-x,y,1/2-z
-x,-y,-z
x,-y,1/2+z
1/2+x,1/2+y,z
1/2-x,1/2+y,1/2-z
1/2-x,1/2-y,-z
1/2+x,1/2-y,1/2+z
loop_
_atom_site_type_symbol
_atom_site_label
_atom_site_fract_x
_atom_site_fract_y
_atom_site_fract_z
Si Si1 0.241195 0.653639 0.579783
Si Si2 0.690264 0.665929 0.038777
Si Si3 0.450381 0.402246 0.829097
Si Si4 0.152258 0.251440 0.580442
Si Si5 0.962652 0.769969 0.848860
Si Si6 0.054069 0.727213 0.243030
Si Si7 0.898636 0.065009 0.486256
Si Si8 0.145333 0.939787 0.085293
O O1 0.285852 0.647698 0.541882
O O2 0.294243 0.698984 0.759944
O O3 0.127510 0.676201 0.350491
O O4 0.259198 0.594072 0.678026
O O5 0.787722 0.691608 0.285398
O O6 0.607567 0.713920 0.870506
O O7 0.656712 0.615051 0.054388
O O8 0.467506 0.336370 0.871022
O O9 0.373323 0.419002 0.579438
O O10 0.416604 0.422243 0.888285
O O11 0.554300 0.428556 0.992768
O O12 0.136937 0.243943 0.416449
O O13 0.049709 0.255630 0.444810
O O14 0.971092 0.739098 0.985259
O O15 0.000000 0.707538 0.250000
O O16 0.000000 0.054493 0.750000
O O17 0.836273 0.006945 0.375784
#
# Coordination Sequence:
#
# PCOD8129539 Si02
#       8
#     8   8   8   8   8   8   8   8
#     4  11  19  37  56  77 108 147 186 224 262 330
#     4  11  21  36  53  81 114 144 182 222 271 320
#     4  11  20  35  52  80 115 141 184 211 267 319
#     4  10  18  32  55  80 104 143 184 215 268 325
#     4  11  17  33  56  80 109 143 177 221 270 323
#     4  11  21  35  54  82 110 145 180 225 280 320
#     4  12  24  34  53  81 115 147 177 220 267 321
#     4  11  21  35  55  78 106 154 181 214 260 328
#
# _framework density 8.2304530000000007
#
# number of rings (size 3 to 8) (size 9 to 14) (size 15 to 20)
#    0.000    1.000    6.250    4.500    1.750    0.000 
#    2.250    1.875    0.000    0.000    3.250    1.750 
#    0.000    0.000    0.000    0.000    0.000    0.000 
#
# Total GULP energy -396441.328879 kJ/mol
# GULP energy per Si atom -12388.791527 kJ/mol
# Density = 0.821172 g / cm^3
# Si number density = 8.230453 Si / 1000 Ang^3
#
#
#
# Elastic Constant Matrix: (Units=GPa)
#
#
# Indices 1 2 3 4 5 6 
#
# 1 124.7889 38.7575 36.8101 0.0000 -28.2658 0.0000
# 2 38.7575 123.7450 40.7887 0.0000 -7.5146 0.0000
# 3 36.8101 40.7887 82.7975 0.0000 -28.6684 0.0000
# 4 0.0000 0.0000 0.0000 31.2726 0.0000 -0.8112
# 5 -28.2658 -7.5146 -28.6684 0.0000 32.4251 0.0000
# 6 0.0000 0.0000 0.0000 -0.8112 0.0000 27.5572
#
#
#
# Elastic Compliance Matrix: (Units=1/GPa)
#
#
# Indices 1 2 3 4 5 6 
#
# 1 0.010931 -0.002706 -0.000640 0.000000 0.008336 0.000000
# 2 -0.002706 0.010502 -0.005685 0.000000 -0.004952 0.000000
# 3 -0.000640 -0.005685 0.020917 0.000000 0.016618 0.000000
# 4 0.000000 0.000000 0.000000 0.032001 0.000000 0.000942
# 5 0.008336 -0.004952 0.016618 0.000000 0.051651 0.000000
# 6 0.000000 0.000000 0.000000 0.000942 0.000000 0.036316
#
#
# Mechanical properties :
#
#
# Convention : Reuss Voigt Hill
#
# Bulk Modulus (GPa) = 41.17504 62.67155 51.92330
# Shear Modulus (GPa) = 26.52843 32.58266 29.55555
#
# Velocity S-wave (km/s) = 4.01883 4.45387 4.24193
# Velocity P-wave (km/s) = 6.82663 8.03772 7.45680
#
# Compressibility (1/GPa) = 0.02428656
#
# Stress axis : x y z
#
# Youngs Moduli (GPa) = 91.48254 95.22053 47.80865
#
# Poissons Ratio (x) = 0.25771 0.03061
# Poissons Ratio (y) = 0.24759 0.27179
# Poissons Ratio (z) = 0.05858 0.54132
#
# Static dielectric constant tensor:
#      x y z
#    x 3.406000 0.000000 -0.378970 
#    y 0.000000 3.336270 0.000000 
#    z -0.378970 0.000000 3.488780 
# 
# 
# High freq. dielectric constant tensor:
#      x y z
#    x 1.647780 0.000000 -0.037070 
#    y 0.000000 1.635920 0.000000 
#    z -0.037070 0.000000 1.632750 
# 
# From -- ./inp_files/124464.got.cif
#   From: 2010.06.25/outbox.ucp.g09.slc.cvg/sg15_63_cif.got.tgz:124464.got - 2010.06.28 14:40:10.
