data_PCOD8129419
_publ_section_title
;
Structure prediction by ZEFSAII (Michael W. Deem and Ramdas Pophale) SiO2 
 PCOD8129419
Probable space group: P 21/C
;
_chemical_formula_sum "Si O2"
_cell_formula_units_Z 20
_cell_length_a 17.894150
_cell_length_b 6.795320
_cell_length_c 13.856853
_cell_angle_alpha 90.000000
_cell_angle_beta 30.978221
_cell_angle_gamma 90.000000
_cell_volume 867.261508
_symmetry_space_group_name_H-M "P 21/C"
_symmetry_group_IT_number 14
_symmetry_cell_setting 'monoclinic'
loop_
_space_group_symop_operation_xyz
x,y,z
-x,1/2+y,1/2-z
-x,-y,-z
x,1/2-y,1/2+z
loop_
_atom_site_type_symbol
_atom_site_label
_atom_site_fract_x
_atom_site_fract_y
_atom_site_fract_z
Si Si1 0.116556 0.319241 0.360037
Si Si2 0.564175 0.544041 0.033206
Si Si3 0.136219 0.462821 0.666106
Si Si4 0.359482 0.708421 0.882955
Si Si5 0.837984 0.880310 0.487760
O O1 0.074702 0.155031 0.327266
O O2 0.142281 0.183030 0.423879
O O3 0.000000 0.500000 0.500000
O O4 0.265710 0.416013 0.162060
O O5 0.549048 0.368886 0.127140
O O6 0.475435 0.722975 0.176008
O O7 0.500000 0.500000 0.000000
O O8 0.253328 0.633978 0.551473
O O9 0.216841 0.313943 0.505467
O O10 0.994713 0.556296 0.771984
O O11 0.275176 0.550454 0.910617
#
# Coordination Sequence:
#
# PCOD8129419 Si02
#       5
#     4   4   4   4   4
#     4  12  27  47  77 114 151 202 258 312 388 456
#     4  12  29  49  76 109 154 200 257 318 384 464
#     4  12  24  49  75 114 150 194 258 313 376 459
#     4  12  28  50  76 112 153 208 256 313 395 459
#     4  12  25  45  79 109 152 199 250 321 380 454
#
# _framework density 23.061094000000001
#
# number of rings (size 3 to 8) (size 9 to 14) (size 15 to 20)
#    0.000    0.000    4.000    5.400    8.400    0.800 
#    0.000    0.000    0.000    0.000    0.000    0.000 
#    0.000    0.000    0.000    0.000    0.000    0.000 
#
# Total GULP energy -247867.737671 kJ/mol
# GULP energy per Si atom -12393.386884 kJ/mol
# Density = 2.300861 g / cm^3
# Si number density = 23.061094 Si / 1000 Ang^3
#
#
#
# Elastic Constant Matrix: (Units=GPa)
#
#
# Indices 1 2 3 4 5 6 
#
# 1 149.8005 62.5112 46.1082 0.0000 13.2951 0.0000
# 2 62.5112 113.5373 40.2437 0.0000 -1.9719 0.0000
# 3 46.1082 40.2437 111.6581 0.0000 -5.7721 0.0000
# 4 0.0000 0.0000 0.0000 58.3557 0.0000 -3.4950
# 5 13.2951 -1.9719 -5.7721 0.0000 34.7009 0.0000
# 6 0.0000 0.0000 0.0000 -3.4950 0.0000 43.5493
#
#
#
# Elastic Compliance Matrix: (Units=1/GPa)
#
#
# Indices 1 2 3 4 5 6 
#
# 1 0.009766 -0.004521 -0.002633 0.000000 -0.004437 0.000000
# 2 -0.004521 0.012191 -0.002422 0.000000 0.002022 0.000000
# 3 -0.002633 -0.002422 0.011056 0.000000 0.002710 0.000000
# 4 0.000000 0.000000 0.000000 0.017219 0.000000 0.001382
# 5 -0.004437 0.002022 0.002710 0.000000 0.031083 0.000000
# 6 0.000000 0.000000 0.000000 0.001382 0.000000 0.023073
#
#
# Mechanical properties :
#
#
# Convention : Reuss Voigt Hill
#
# Bulk Modulus (GPa) = 72.14514 74.74690 73.44602
# Shear Modulus (GPa) = 39.01341 42.39668 40.70505
#
# Velocity S-wave (km/s) = 4.11754 4.29237 4.20586
# Velocity P-wave (km/s) = 7.34560 7.55307 7.45005
#
# Compressibility (1/GPa) = 0.01386095
#
# Stress axis : x y z
#
# Youngs Moduli (GPa) = 102.39355 82.03096 90.44660
#
# Poissons Ratio (x) = 0.37086 0.23813
# Poissons Ratio (y) = 0.46291 0.21909
# Poissons Ratio (z) = 0.26958 0.19870
#
# Static dielectric constant tensor:
#      x y z
#    x 4.416610 0.000000 0.017280 
#    y 0.000000 5.324400 0.000000 
#    z 0.017280 0.000000 4.260900 
# 
# 
# High freq. dielectric constant tensor:
#      x y z
#    x 1.923650 0.000000 -0.003350 
#    y 0.000000 1.929580 0.000000 
#    z -0.003350 0.000000 1.921890 
# 
# From -- ./inp_files/49582.got.cif
#   From: 2010.03.12/outbox.cif.g09.slc.cpg/sg14_25_cif.got.tgz:49582.got - 2010.03.31 13:35:05.
