data_PCOD8129682
_publ_section_title
;
Structure prediction by ZEFSAII (Michael W. Deem and Ramdas Pophale) SiO2 
 PCOD8129682
Probable space group: C 2/C
;
_chemical_formula_sum "Si O2"
_cell_formula_units_Z 60
_cell_length_a 19.660220
_cell_length_b 24.534837
_cell_length_c 14.502993
_cell_angle_alpha 90.000000
_cell_angle_beta 151.076828
_cell_angle_gamma 90.000000
_cell_volume 3383.359706
_symmetry_space_group_name_H-M "C 2/C"
_symmetry_group_IT_number 15
_symmetry_cell_setting 'monoclinic'
loop_
_space_group_symop_operation_xyz
x,y,z
-x,y,1/2-z
-x,-y,-z
x,-y,1/2+z
1/2+x,1/2+y,z
1/2-x,1/2+y,1/2-z
1/2-x,1/2-y,-z
1/2+x,1/2-y,1/2+z
loop_
_atom_site_type_symbol
_atom_site_label
_atom_site_fract_x
_atom_site_fract_y
_atom_site_fract_z
Si Si1 0.883011 0.047188 0.721807
Si Si2 0.007266 0.276386 0.555966
Si Si3 0.000000 0.764267 0.250000
Si Si4 0.282830 0.691788 0.749332
Si Si5 0.305653 0.481405 0.931454
Si Si6 0.909344 0.609174 0.318646
Si Si7 0.776952 0.427710 0.294493
Si Si8 0.219070 0.157860 0.951353
O O1 0.813407 0.016220 0.551799
O O2 0.788510 0.036683 0.699917
O O3 0.893095 0.111743 0.713039
O O4 0.040034 0.026659 0.928012
O O5 0.032550 0.269783 0.696263
O O6 0.839798 0.277838 0.338499
O O7 0.073828 0.227018 0.575550
O O8 0.075097 0.334352 0.604816
O O9 0.138944 0.802627 0.428607
O O10 0.303538 0.630437 0.811895
O O11 0.230225 0.689954 0.579991
O O12 0.203910 0.432843 0.773292
O O13 0.242574 0.538933 0.822892
O O14 0.059731 0.580524 0.488224
O O15 0.854007 0.627261 0.152527
#
# Coordination Sequence:
#
# PCOD8129682 Si02
#       8
#     8   8   4   8   8   8   8   8
#     4   9  19  32  49  67  89 122 154 190 229 269
#     4  10  18  27  38  60  88 119 155 182 213 260
#     4  10  16  24  40  60  88 126 158 184 206 252
#     4   9  19  29  42  61  89 123 153 185 221 263
#     4  10  19  33  49  67  92 122 157 191 227 273
#     4  10  19  29  44  65  93 124 154 187 225 267
#     4  10  20  33  47  68  95 123 154 190 232 270
#     4   9  16  27  41  62  89 121 155 181 215 262
#
# _framework density 17.733851000000001
#
# number of rings (size 3 to 8) (size 9 to 14) (size 15 to 20)
#    0.000    2.400    0.000    4.000    0.000   13.333 
#    0.000    0.000    0.000    0.000    0.000    0.000 
#    0.000   26.667    0.000    0.000    0.000    0.000 
#
# Total GULP energy -371750.948672 kJ/mol
# GULP energy per Si atom -12391.698289 kJ/mol
# Density = 1.769349 g / cm^3
# Si number density = 17.733851 Si / 1000 Ang^3
#
#
#
# Elastic Constant Matrix: (Units=GPa)
#
#
# Indices 1 2 3 4 5 6 
#
# 1 56.4914 47.3474 36.0270 0.0000 12.4199 0.0000
# 2 47.3474 105.8076 46.5909 0.0000 12.8285 0.0000
# 3 36.0270 46.5909 69.7618 0.0000 23.3675 0.0000
# 4 0.0000 0.0000 0.0000 21.3450 0.0000 0.7383
# 5 12.4199 12.8285 23.3675 0.0000 18.6642 0.0000
# 6 0.0000 0.0000 0.0000 0.7383 0.0000 26.8486
#
#
#
# Elastic Compliance Matrix: (Units=1/GPa)
#
#
# Indices 1 2 3 4 5 6 
#
# 1 0.032800 -0.010364 -0.008770 0.000000 -0.003723 0.000000
# 2 -0.010364 0.016792 -0.007417 0.000000 0.004641 0.000000
# 3 -0.008770 -0.007417 0.034712 0.000000 -0.032525 0.000000
# 4 0.000000 0.000000 0.000000 0.046894 0.000000 -0.001289
# 5 -0.003723 0.004641 -0.032525 0.000000 0.093587 0.000000
# 6 0.000000 0.000000 0.000000 -0.001289 0.000000 0.037281
#
#
# Mechanical properties :
#
#
# Convention : Reuss Voigt Hill
#
# Bulk Modulus (GPa) = 32.04991 54.66571 43.35781
# Shear Modulus (GPa) = 15.35770 20.17792 17.76781
#
# Velocity S-wave (km/s) = 2.94600 3.37682 3.16874
# Velocity P-wave (km/s) = 5.44829 6.78943 6.15550
#
# Compressibility (1/GPa) = 0.03120133
#
# Stress axis : x y z
#
# Youngs Moduli (GPa) = 30.48776 59.55113 28.80880
#
# Poissons Ratio (x) = 0.61722 0.25265
# Poissons Ratio (y) = 0.31599 0.21367
# Poissons Ratio (z) = 0.26738 0.44168
#
# Static dielectric constant tensor:
#      x y z
#    x 3.105010 0.000000 0.391970 
#    y 0.000000 3.433390 0.000000 
#    z 0.391970 0.000000 3.047840 
# 
# 
# High freq. dielectric constant tensor:
#      x y z
#    x 1.650480 0.000000 0.050720 
#    y 0.000000 1.690300 0.000000 
#    z 0.050720 0.000000 1.655850 
# 
# From -- ./inp_files/169641.got.cif
#   From: 2010.06.25/outbox.cif.g09.slc.cpg/sg15_85_cif.got.tgz:169641.got - 2010.06.28 07:06:18.
