data_PCOD8129862
_publ_section_title
;
Structure prediction by ZEFSAII (Michael W. Deem and Ramdas Pophale) SiO2 
 PCOD8129862
Probable space group: C 2/C
;
_chemical_formula_sum "Si O2"
_cell_formula_units_Z 60
_cell_length_a 17.734290
_cell_length_b 12.015683
_cell_length_c 24.595339
_cell_angle_alpha 90.000000
_cell_angle_beta 38.984541
_cell_angle_gamma 90.000000
_cell_volume 3297.176100
_symmetry_space_group_name_H-M "C 2/C"
_symmetry_group_IT_number 15
_symmetry_cell_setting 'monoclinic'
loop_
_space_group_symop_operation_xyz
x,y,z
-x,y,1/2-z
-x,-y,-z
x,-y,1/2+z
1/2+x,1/2+y,z
1/2-x,1/2+y,1/2-z
1/2-x,1/2-y,-z
1/2+x,1/2-y,1/2+z
loop_
_atom_site_type_symbol
_atom_site_label
_atom_site_fract_x
_atom_site_fract_y
_atom_site_fract_z
Si Si1 0.149056 0.231736 0.729362
Si Si2 0.037586 0.832588 0.019740
Si Si3 0.349294 0.541525 0.694843
Si Si4 0.100612 0.194725 0.365327
Si Si5 0.960235 0.639649 0.402974
Si Si6 0.301632 0.145898 0.399790
Si Si7 0.074869 0.584595 0.821608
Si Si8 0.500000 0.022447 0.750000
O O1 0.126956 0.104032 0.760748
O O2 0.265583 0.274218 0.694589
O O3 0.166770 0.242897 0.654222
O O4 0.044155 0.313034 0.807710
O O5 0.030769 0.705709 0.045841
O O6 0.926890 0.902159 0.103893
O O7 0.024489 0.830546 0.962207
O O8 0.162794 0.886645 0.969369
O O9 0.392360 0.414207 0.677042
O O10 0.212295 0.549738 0.753039
O O11 0.040592 0.297397 0.367465
O O12 0.828405 0.658312 0.449560
O O13 0.992957 0.511233 0.395546
O O14 0.383216 0.047111 0.331588
O O15 0.041882 0.598342 0.776853
#
# Coordination Sequence:
#
# PCOD8129862 Si02
#       8
#     8   8   8   8   8   8   8   4
#     4   9  16  29  51  76  97 128 174 213 250 288
#     4  10  21  30  51  79 107 131 166 218 265 294
#     4  10  19  33  53  76 102 134 172 215 251 305
#     4  10  19  32  48  75 106 135 167 207 254 307
#     4  10  17  31  51  78 103 132 170 212 254 307
#     4  10  16  31  52  81 101 133 168 217 260 297
#     4  10  19  33  57  74  98 138 177 208 253 302
#     4  10  18  32  58  74 100 134 186 208 232 322
#
# _framework density 18.197391
#
# number of rings (size 3 to 8) (size 9 to 14) (size 15 to 20)
#    0.000    2.133    4.000    1.600    0.000    0.533 
#    0.000    0.000    5.867    7.200    0.000    0.000 
#    0.000    0.000    0.000    0.000    0.000    0.000 
#
# Total GULP energy -371824.666384 kJ/mol
# GULP energy per Si atom -12394.155546 kJ/mol
# Density = 1.815597 g / cm^3
# Si number density = 18.197391 Si / 1000 Ang^3
#
#
#
# Elastic Constant Matrix: (Units=GPa)
#
#
# Indices 1 2 3 4 5 6 
#
# 1 62.9712 41.6545 11.2809 0.0000 3.1004 0.0000
# 2 41.6545 129.7093 19.5807 0.0000 8.3800 0.0000
# 3 11.2809 19.5807 48.5473 0.0001 -4.7622 0.0000
# 4 0.0000 0.0000 0.0001 19.5703 0.0000 -2.7038
# 5 3.1004 8.3800 -4.7622 0.0000 17.9011 0.0000
# 6 0.0000 0.0000 0.0000 -2.7038 0.0000 21.5622
#
#
#
# Elastic Compliance Matrix: (Units=1/GPa)
#
#
# Indices 1 2 3 4 5 6 
#
# 1 0.020417 -0.006108 -0.002410 0.000000 -0.001318 0.000000
# 2 -0.006108 0.010468 -0.003265 0.000000 -0.004711 0.000000
# 3 -0.002410 -0.003265 0.023274 0.000000 0.008137 0.000000
# 4 0.000000 0.000000 0.000000 0.051999 0.000000 0.006521
# 5 -0.001318 -0.004711 0.008137 0.000000 0.060461 0.000000
# 6 0.000000 0.000000 0.000000 0.006521 0.000000 0.047195
#
#
# Mechanical properties :
#
#
# Convention : Reuss Voigt Hill
#
# Bulk Modulus (GPa) = 32.68716 42.91778 37.80247
# Shear Modulus (GPa) = 20.19568 23.05415 21.62492
#
# Velocity S-wave (km/s) = 3.33500 3.56321 3.45099
# Velocity P-wave (km/s) = 5.72985 6.36902 6.05787
#
# Compressibility (1/GPa) = 0.03059306
#
# Stress axis : x y z
#
# Youngs Moduli (GPa) = 48.97863 95.52720 42.96705
#
# Poissons Ratio (x) = 0.58345 0.10356
# Poissons Ratio (y) = 0.29915 0.14029
# Poissons Ratio (z) = 0.11805 0.31190
#
# Static dielectric constant tensor:
#      x y z
#    x 3.475850 0.000000 0.018230 
#    y 0.000000 3.400010 0.000000 
#    z 0.018230 0.000000 3.368170 
# 
# 
# High freq. dielectric constant tensor:
#      x y z
#    x 1.693870 0.000000 -0.004380 
#    y 0.000000 1.687400 0.000000 
#    z -0.004380 0.000000 1.703240 
# 
# From -- ./inp_files/160926.got.cif
#   From: 2010.06.25/outbox.cif.g09.slc.cpg/sg15_81_cif.got.tgz:160926.got - 2010.06.28 07:06:18.
