data_PCOD8129661
_publ_section_title
;
Structure prediction by ZEFSAII (Michael W. Deem and Ramdas Pophale) SiO2 
 PCOD8129661
Probable space group: C 2/C
;
_chemical_formula_sum "Si O2"
_cell_formula_units_Z 56
_cell_length_a 14.255302
_cell_length_b 14.132069
_cell_length_c 32.168228
_cell_angle_alpha 90.000000
_cell_angle_beta 153.877237
_cell_angle_gamma 90.000000
_cell_volume 2853.342879
_symmetry_space_group_name_H-M "C 2/C"
_symmetry_group_IT_number 15
_symmetry_cell_setting 'monoclinic'
loop_
_space_group_symop_operation_xyz
x,y,z
-x,y,1/2-z
-x,-y,-z
x,-y,1/2+z
1/2+x,1/2+y,z
1/2-x,1/2+y,1/2-z
1/2-x,1/2-y,-z
1/2+x,1/2-y,1/2+z
loop_
_atom_site_type_symbol
_atom_site_label
_atom_site_fract_x
_atom_site_fract_y
_atom_site_fract_z
Si Si1 0.818298 0.464172 0.373285
Si Si2 0.328108 0.935290 0.146655
Si Si3 0.895484 0.702944 0.960504
Si Si4 0.112065 0.771180 0.838412
Si Si5 0.654205 0.600361 0.027814
Si Si6 0.025423 0.965726 0.825479
Si Si7 0.236316 0.574295 0.520116
O O1 0.838756 0.353142 0.395206
O O2 0.656330 0.476290 0.270696
O O3 0.741834 0.522374 0.383630
O O4 0.037780 0.503601 0.443271
O O5 0.500000 0.963229 0.250000
O O6 0.402687 0.838233 0.152446
O O7 0.095278 0.925368 0.074711
O O8 0.308643 0.016854 0.104806
O O9 0.814012 0.811622 0.927847
O O10 0.780391 0.659405 0.954481
O O11 0.144611 0.699546 0.068215
O O12 0.989373 0.851748 0.816978
O O13 0.000000 0.777944 0.750000
O O14 0.730685 0.620791 0.011549
O O15 0.058691 0.011158 0.884157
#
# Coordination Sequence:
#
# PCOD8129661 Si02
#       7
#     8   8   8   8   8   8   8
#     4  10  18  31  54  84 115 146 177 223 282 338
#     4   9  21  40  58  73  98 152 197 224 264 333
#     4  10  18  34  54  79 114 147 180 219 284 338
#     4  10  15  30  58  78 100 140 193 223 254 324
#     4  10  22  37  57  78 110 146 189 232 273 336
#     4  10  17  30  52  85 110 142 180 224 274 334
#     4  11  19  32  53  86 116 138 173 235 288 320
#
# _framework density 19.626103000000001
#
# number of rings (size 3 to 8) (size 9 to 14) (size 15 to 20)
#    0.000    2.000    4.286    1.286    0.000    1.143 
#    5.143    0.714    0.000    0.000    0.000    0.000 
#    0.000    0.000    0.000    0.000    0.000    0.000 
#
# Total GULP energy -346887.693132 kJ/mol
# GULP energy per Si atom -12388.846183 kJ/mol
# Density = 1.958143 g / cm^3
# Si number density = 19.626103 Si / 1000 Ang^3
#
#
#
# Elastic Constant Matrix: (Units=GPa)
#
#
# Indices 1 2 3 4 5 6 
#
# 1 35.5577 10.6099 15.0615 -0.0002 -2.7259 -0.0001
# 2 10.6099 132.7393 63.8114 -0.0003 -5.2137 -0.0002
# 3 15.0615 63.8114 102.5940 -0.0018 -0.1827 0.0000
# 4 -0.0002 -0.0003 -0.0018 33.4959 -0.0010 -2.2436
# 5 -2.7259 -5.2137 -0.1827 -0.0010 9.4401 -0.0003
# 6 -0.0001 -0.0002 0.0000 -2.2436 -0.0003 21.3718
#
#
#
# Elastic Compliance Matrix: (Units=1/GPa)
#
#
# Indices 1 2 3 4 5 6 
#
# 1 0.030699 0.000074 -0.004537 0.000000 0.008817 0.000000
# 2 0.000074 0.011075 -0.006889 0.000000 0.006005 0.000000
# 3 -0.004537 -0.006889 0.014689 0.000001 -0.004830 0.000000
# 4 0.000000 0.000000 0.000001 0.030066 0.000003 0.003156
# 5 0.008817 0.006005 -0.004830 0.000003 0.111700 0.000002
# 6 0.000000 0.000000 0.000000 0.003156 0.000002 0.047122
#
#
# Mechanical properties :
#
#
# Convention : Reuss Voigt Hill
#
# Bulk Modulus (GPa) = 29.62138 49.98408 39.80273
# Shear Modulus (GPa) = 17.90141 24.95543 21.42842
#
# Velocity S-wave (km/s) = 3.02341 3.56974 3.30787
# Velocity P-wave (km/s) = 5.22625 6.52029 5.90880
#
# Compressibility (1/GPa) = 0.03375940
#
# Stress axis : x y z
#
# Youngs Moduli (GPa) = 32.57438 90.29298 68.07746
#
# Poissons Ratio (x) = -0.00664 0.30886
# Poissons Ratio (y) = -0.00239 0.46896
# Poissons Ratio (z) = 0.14778 0.62199
#
# Static dielectric constant tensor:
#      x y z
#    x 3.236910 0.000000 -0.090290 
#    y 0.000000 4.100600 -0.000010 
#    z -0.090290 -0.000010 3.875680 
# 
# 
# High freq. dielectric constant tensor:
#      x y z
#    x 1.707550 0.000000 0.008440 
#    y 0.000000 1.777350 0.000000 
#    z 0.008440 0.000000 1.771970 
# 
# From -- ./inp_files/313897.got.cif
#   From: 2010.06.25/outbox.cif.g09.slc.cpg/sg15_157_cif.got.tgz:313897.got - 2010.06.28 07:06:18.
