data_PCOD8129758
_publ_section_title
;
Structure prediction by ZEFSAII (Michael W. Deem and Ramdas Pophale) SiO2 
 PCOD8129758
Probable space group: C 2/C
;
_chemical_formula_sum "Si O2"
_cell_formula_units_Z 60
_cell_length_a 10.620262
_cell_length_b 22.194653
_cell_length_c 14.376720
_cell_angle_alpha 90.000000
_cell_angle_beta 115.071396
_cell_angle_gamma 90.000000
_cell_volume 3069.490919
_symmetry_space_group_name_H-M "C 2/C"
_symmetry_group_IT_number 15
_symmetry_cell_setting 'monoclinic'
loop_
_space_group_symop_operation_xyz
x,y,z
-x,y,1/2-z
-x,-y,-z
x,-y,1/2+z
1/2+x,1/2+y,z
1/2-x,1/2+y,1/2-z
1/2-x,1/2-y,-z
1/2+x,1/2-y,1/2+z
loop_
_atom_site_type_symbol
_atom_site_label
_atom_site_fract_x
_atom_site_fract_y
_atom_site_fract_z
Si Si1 0.275625 0.555154 0.312936
Si Si2 0.000000 0.645255 0.750000
Si Si3 0.702147 0.930656 0.196306
Si Si4 0.716739 0.431182 0.475883
Si Si5 0.246571 0.726091 0.895137
Si Si6 0.926407 0.122233 0.885904
Si Si7 0.164468 0.850001 0.809590
Si Si8 0.898482 0.059106 0.059693
O O1 0.206367 0.498974 0.237340
O O2 0.215000 0.566113 0.399180
O O3 0.253353 0.615504 0.246403
O O4 0.440776 0.549589 0.368083
O O5 0.070209 0.602348 0.696860
O O6 0.111240 0.685359 0.838825
O O7 0.678215 0.921298 0.077395
O O8 0.846149 0.895500 0.266537
O O9 0.593305 0.381333 0.431637
O O10 0.663467 0.496380 0.430570
O O11 0.384844 0.688968 0.909287
O O12 0.239258 0.785667 0.830183
O O13 0.250000 0.750000 0.000000
O O14 0.874179 0.071927 0.943523
O O15 0.180062 0.887844 0.909722
O O16 0.000000 0.840248 0.750000
#
# Coordination Sequence:
#
# PCOD8129758 Si02
#       8
#     8   4   8   8   8   8   8   8
#     4  10  19  30  55  82 118 146 181 244 295 337
#     4  10  26  40  56  88 116 158 202 232 296 368
#     4  11  20  36  55  79 123 151 183 242 299 357
#     4  11  19  31  55  90 116 146 185 240 306 352
#     4  11  21  38  62  82 118 158 203 247 283 337
#     4  10  19  30  53  86 118 145 189 240 295 349
#     4  10  19  31  54  87 117 150 194 243 283 327
#     4  10  16  28  51  92 115 137 187 238 296 345
#
# _framework density 19.547215999999999
#
# number of rings (size 3 to 8) (size 9 to 14) (size 15 to 20)
#    0.000    1.600    6.000    1.200    0.000    0.000 
#    0.000    0.667    0.000   10.400    0.000    0.000 
#    0.000    0.000    0.000    0.000    0.000    0.000 
#
# Total GULP energy -371739.441053 kJ/mol
# GULP energy per Si atom -12391.314702 kJ/mol
# Density = 1.950273 g / cm^3
# Si number density = 19.547216 Si / 1000 Ang^3
#
#
#
# Elastic Constant Matrix: (Units=GPa)
#
#
# Indices 1 2 3 4 5 6 
#
# 1 71.8618 48.5844 42.5757 0.0000 -25.4259 0.0000
# 2 48.5844 137.2333 34.8108 0.0000 -8.7888 0.0000
# 3 42.5757 34.8108 88.8565 0.0000 -34.7309 0.0000
# 4 0.0000 0.0000 0.0000 20.3496 0.0000 -6.1286
# 5 -25.4259 -8.7888 -34.7309 0.0000 33.0440 0.0000
# 6 0.0000 0.0000 0.0000 -6.1286 0.0000 0.2173
#
#
#
# Elastic Compliance Matrix: (Units=1/GPa)
#
#
# Indices 1 2 3 4 5 6 
#
# 1 0.026309 -0.007325 -0.004388 0.000000 0.013683 0.000000
# 2 -0.007325 0.010209 -0.002769 0.000000 -0.005831 0.000000
# 3 -0.004388 -0.002769 0.021783 0.000000 0.018782 0.000000
# 4 0.000000 0.000000 0.000000 -0.006559 0.000000 -0.184948
# 5 0.013683 -0.005831 0.018782 0.000000 0.058981 0.000000
# 6 0.000000 0.000000 0.000000 -0.184948 0.000000 -0.614112
#
#
# Mechanical properties :
#
#
# Convention : Reuss Voigt Hill
#
# Bulk Modulus (GPa) = 34.08699 61.09927 47.59313
# Shear Modulus (GPa) = -10.76085 22.18759 5.71337
#
# Velocity S-wave (km/s) = -2.34883 3.37274 1.71149
# Velocity P-wave (km/s) = 3.18122 6.81853 5.32036
#
# Compressibility (1/GPa) = 0.02933671
#
# Stress axis : x y z
#
# Youngs Moduli (GPa) = 38.01014 97.95327 45.90827
#
# Poissons Ratio (x) = 0.71747 0.20145
# Poissons Ratio (y) = 0.27841 0.12712
# Poissons Ratio (z) = 0.16679 0.27124
#
# Static dielectric constant tensor:
#      x y z
#    x 3.295410 0.000000 -0.344730 
#    y 0.000000 3.779120 0.000000 
#    z -0.344730 0.000000 3.906150 
# 
# 
# High freq. dielectric constant tensor:
#      x y z
#    x 1.719900 0.000000 -0.022200 
#    y 0.000000 1.762330 0.000000 
#    z -0.022200 0.000000 1.764230 
# 
# From -- ./inp_files/137902.got.cif
#   From: 2010.06.25/outbox.cif.g09.slc.cpg/sg15_69_cif.got.tgz:137902.got - 2010.06.28 07:06:18.
