data_PCOD8129695
_publ_section_title
;
Structure prediction by ZEFSAII (Michael W. Deem and Ramdas Pophale) SiO2 
 PCOD8129695
Probable space group: C 2/C
;
_chemical_formula_sum "Si O2"
_cell_formula_units_Z 48
_cell_length_a 5.333229
_cell_length_b 26.781895
_cell_length_c 17.727184
_cell_angle_alpha 90.000000
_cell_angle_beta 72.494260
_cell_angle_gamma 90.000000
_cell_volume 2414.777210
_symmetry_space_group_name_H-M "C 2/C"
_symmetry_group_IT_number 15
_symmetry_cell_setting 'monoclinic'
loop_
_space_group_symop_operation_xyz
x,y,z
-x,y,1/2-z
-x,-y,-z
x,-y,1/2+z
1/2+x,1/2+y,z
1/2-x,1/2+y,1/2-z
1/2-x,1/2-y,-z
1/2+x,1/2-y,1/2+z
loop_
_atom_site_type_symbol
_atom_site_label
_atom_site_fract_x
_atom_site_fract_y
_atom_site_fract_z
Si Si1 0.782602 0.890499 0.967411
Si Si2 0.374833 0.419991 0.375066
Si Si3 0.355786 0.034439 0.894118
Si Si4 0.682792 0.791082 0.067216
Si Si5 0.589844 0.305379 0.160189
Si Si6 0.686185 0.079082 0.063803
O O1 0.591301 0.890719 0.911270
O O2 0.086192 0.890700 0.911290
O O3 0.732963 0.942530 0.017141
O O4 0.720488 0.845808 0.029465
O O5 0.655810 0.448195 0.346036
O O6 0.410106 0.365011 0.339833
O O7 0.280622 0.419929 0.469252
O O8 0.151886 0.448184 0.346030
O O9 0.351311 0.975107 0.898628
O O10 0.380925 0.784013 0.118811
O O11 0.881539 0.784021 0.118794
O O12 0.750000 0.750000 0.000000
O O13 0.500000 0.286151 0.250000
#
# Coordination Sequence:
#
# PCOD8129695 Si02
#       6
#     8   8   8   8   8   8
#     4  10  16  29  44  70 109 137 179 214 285 328
#     4  10  16  29  44  70 109 141 176 215 269 327
#     4  10  16  25  46  72 110 145 171 208 271 309
#     4  12  23  40  59  82 114 156 185 252 305 350
#     4  12  23  40  59  82 114 158 192 236 297 378
#     4  10  16  25  46  72 110 145 169 211 269 310
#
# _framework density 19.877611000000002
#
# number of rings (size 3 to 8) (size 9 to 14) (size 15 to 20)
#    0.000    1.333    6.667    6.000    0.000    0.000 
#    0.000    0.000    0.000    0.000    0.000    0.000 
#    0.000   45.333    0.000    0.000    0.000    0.000 
#
# Total GULP energy -297438.799071 kJ/mol
# GULP energy per Si atom -12393.283295 kJ/mol
# Density = 1.983237 g / cm^3
# Si number density = 19.877611 Si / 1000 Ang^3
#
#
#
# Elastic Constant Matrix: (Units=GPa)
#
#
# Indices 1 2 3 4 5 6 
#
# 1 251.9605 39.5293 49.2469 0.0000 -16.7500 0.0000
# 2 39.5293 44.4017 40.0166 0.0000 0.0292 0.0000
# 3 49.2469 40.0166 63.5396 0.0000 0.1964 0.0000
# 4 0.0000 0.0000 0.0000 -5.4882 0.0000 -2.4294
# 5 -16.7500 0.0292 0.1964 0.0000 7.2792 0.0000
# 6 0.0000 0.0000 0.0000 -2.4294 0.0000 22.2684
#
#
#
# Elastic Compliance Matrix: (Units=1/GPa)
#
#
# Indices 1 2 3 4 5 6 
#
# 1 0.005849 -0.002527 -0.002984 0.000000 0.013550 0.000000
# 2 -0.002527 0.053179 -0.031517 0.000000 -0.005178 0.000000
# 3 -0.002984 -0.031517 0.037924 0.000000 -0.007763 0.000000
# 4 0.000000 0.000000 0.000000 -0.173814 0.000000 -0.018962
# 5 0.013550 -0.005178 -0.007763 0.000000 0.168788 0.000000
# 6 0.000000 0.000000 0.000000 -0.018962 0.000000 0.042838
#
#
# Mechanical properties :
#
#
# Convention : Reuss Voigt Hill
#
# Bulk Modulus (GPa) = 43.67491 68.60970 56.14230
# Shear Modulus (GPa) = 23.09977 20.21914 21.65946
#
# Velocity S-wave (km/s) = 3.41266 3.19279 3.30455
# Velocity P-wave (km/s) = 6.12764 6.94139 6.54717
#
# Compressibility (1/GPa) = 0.02289644
#
# Stress axis : x y z
#
# Youngs Moduli (GPa) = 170.95788 18.80430 26.36852
#
# Poissons Ratio (x) = 0.04752 0.07868
# Poissons Ratio (y) = 0.43205 0.83106
# Poissons Ratio (z) = 0.51012 0.59266
#
# Static dielectric constant tensor:
#      x y z
#    x 6.183640 0.000000 -0.278510 
#    y 0.000000 3.402150 0.000000 
#    z -0.278510 0.000000 3.002260 
# 
# 
# High freq. dielectric constant tensor:
#      x y z
#    x 1.824880 0.000000 -0.010970 
#    y 0.000000 1.748900 0.000000 
#    z -0.010970 0.000000 1.699360 
# 
# From -- ./inp_files/185732.got.cif
#   From: 2010.06.25/outbox.cif.g09.slc.cpg/sg15_93_cif.got.tgz:185732.got - 2010.06.28 07:06:18.
