data_PCOD8129631
_publ_section_title
;
Structure prediction by ZEFSAII (Michael W. Deem and Ramdas Pophale) SiO2 
 PCOD8129631
Probable space group: C 2/C
;
_chemical_formula_sum "Si O2"
_cell_formula_units_Z 52
_cell_length_a 21.600013
_cell_length_b 16.878513
_cell_length_c 14.744013
_cell_angle_alpha 90.000000
_cell_angle_beta 33.284786
_cell_angle_gamma 90.000000
_cell_volume 2949.977380
_symmetry_space_group_name_H-M "C 2/C"
_symmetry_group_IT_number 15
_symmetry_cell_setting 'monoclinic'
loop_
_space_group_symop_operation_xyz
x,y,z
-x,y,1/2-z
-x,-y,-z
x,-y,1/2+z
1/2+x,1/2+y,z
1/2-x,1/2+y,1/2-z
1/2-x,1/2-y,-z
1/2+x,1/2-y,1/2+z
loop_
_atom_site_type_symbol
_atom_site_label
_atom_site_fract_x
_atom_site_fract_y
_atom_site_fract_z
Si Si1 0.312056 0.912047 0.001712
Si Si2 0.005984 0.417238 0.048348
Si Si3 0.404389 0.224916 0.271323
Si Si4 0.225582 0.332512 0.731148
Si Si5 0.000000 0.533067 0.750000
Si Si6 0.372332 0.388963 0.400161
Si Si7 0.866732 0.693110 0.590458
O O1 0.193924 0.937669 0.097714
O O2 0.292290 0.868923 0.122451
O O3 0.378622 0.858700 0.848131
O O4 0.391528 0.986737 0.920430
O O5 0.923911 0.352236 0.103855
O O6 0.962464 0.419848 0.205594
O O7 0.000000 0.500000 0.000000
O O8 0.135586 0.386841 0.893575
O O9 0.340259 0.227113 0.254835
O O10 0.363276 0.297327 0.381968
O O11 0.538686 0.229373 0.093104
O O12 0.310814 0.392412 0.573355
O O13 0.293432 0.269862 0.712708
O O14 0.500000 0.421323 0.250000
#
# Coordination Sequence:
#
# PCOD8129631 Si02
#       7
#     8   8   8   8   4   8   8
#     4  11  17  28  51  76 111 146 177 229 286 340
#     4  11  23  37  57  85 113 149 192 241 288 338
#     4  10  15  24  43  78 113 137 161 214 289 333
#     4  10  19  29  48  79 117 146 184 228 277 344
#     4  12  22  40  56  78 110 148 198 238 284 332
#     4  11  17  24  44  80 116 143 169 214 293 354
#     4  11  17  30  50  82 111 140 181 231 280 338
#
# _framework density 17.627254000000001
#
# number of rings (size 3 to 8) (size 9 to 14) (size 15 to 20)
#    0.000    1.231    7.692    2.769    0.000    0.000 
#    0.000    0.769    0.000    0.923    8.000    0.000 
#    0.000    0.000    0.000    0.000    0.000    0.000 
#
# Total GULP energy -322180.553284 kJ/mol
# GULP energy per Si atom -12391.559742 kJ/mol
# Density = 1.758713 g / cm^3
# Si number density = 17.627254 Si / 1000 Ang^3
#
#
#
# Elastic Constant Matrix: (Units=GPa)
#
#
# Indices 1 2 3 4 5 6 
#
# 1 82.1439 20.6783 29.4364 0.0000 -8.5443 0.0000
# 2 20.6783 48.0303 21.9117 0.0000 -1.0903 0.0000
# 3 29.4364 21.9117 56.3881 0.0000 -6.4920 0.0000
# 4 0.0000 0.0000 0.0000 22.4185 0.0000 -5.8254
# 5 -8.5443 -1.0903 -6.4920 0.0000 36.3621 0.0000
# 6 0.0000 0.0000 0.0000 -5.8254 0.0000 28.6466
#
#
#
# Elastic Compliance Matrix: (Units=1/GPa)
#
#
# Indices 1 2 3 4 5 6 
#
# 1 0.015682 -0.003754 -0.006449 0.000000 0.002421 0.000000
# 2 -0.003754 0.026242 -0.008422 0.000000 -0.001599 0.000000
# 3 -0.006449 -0.008422 0.024677 0.000000 0.002638 0.000000
# 4 0.000000 0.000000 0.000000 0.047095 0.000000 0.009577
# 5 0.002421 -0.001599 0.002638 0.000000 0.028493 0.000000
# 6 0.000000 0.000000 0.000000 0.009577 0.000000 0.036856
#
#
# Mechanical properties :
#
#
# Convention : Reuss Voigt Hill
#
# Bulk Modulus (GPa) = 34.06993 36.73501 35.40247
# Shear Modulus (GPa) = 22.11636 25.12116 23.61876
#
# Velocity S-wave (km/s) = 3.54597 3.77919 3.66444
# Velocity P-wave (km/s) = 6.01125 6.31887 6.16698
#
# Compressibility (1/GPa) = 0.02935140
#
# Stress axis : x y z
#
# Youngs Moduli (GPa) = 63.76906 38.10653 40.52384
#
# Poissons Ratio (x) = 0.14307 0.26132
# Poissons Ratio (y) = 0.23942 0.34127
# Poissons Ratio (z) = 0.41122 0.32091
#
# Static dielectric constant tensor:
#      x y z
#    x 3.622200 0.000000 -0.379010 
#    y 0.000000 2.956000 0.000000 
#    z -0.379010 0.000000 3.134290 
# 
# 
# High freq. dielectric constant tensor:
#      x y z
#    x 1.690450 0.000000 -0.025900 
#    y 0.000000 1.637300 0.000000 
#    z -0.025900 0.000000 1.650400 
# 
# From -- ./inp_files/173972.got.cif
#   From: 2010.06.25/outbox.cif.g09.slc.cpg/sg15_87_cif.got.tgz:173972.got - 2010.06.28 07:06:18.
