data_PCOD8129796
_publ_section_title
;
Structure prediction by ZEFSAII (Michael W. Deem and Ramdas Pophale) SiO2 
 PCOD8129796
Probable space group: C 2/C
;
_chemical_formula_sum "Si O2"
_cell_formula_units_Z 64
_cell_length_a 25.913664
_cell_length_b 24.444917
_cell_length_c 5.348174
_cell_angle_alpha 90.000000
_cell_angle_beta 78.087824
_cell_angle_gamma 90.000000
_cell_volume 3314.883556
_symmetry_space_group_name_H-M "C 2/C"
_symmetry_group_IT_number 15
_symmetry_cell_setting 'monoclinic'
loop_
_space_group_symop_operation_xyz
x,y,z
-x,y,1/2-z
-x,-y,-z
x,-y,1/2+z
1/2+x,1/2+y,z
1/2-x,1/2+y,1/2-z
1/2-x,1/2-y,-z
1/2+x,1/2-y,1/2+z
loop_
_atom_site_type_symbol
_atom_site_label
_atom_site_fract_x
_atom_site_fract_y
_atom_site_fract_z
Si Si1 0.938481 0.804026 0.811527
Si Si2 0.199129 0.025610 0.550747
Si Si3 0.720100 0.350617 0.029862
Si Si4 0.099407 0.680356 0.650584
Si Si5 0.286736 0.854001 0.463202
Si Si6 0.561341 0.817280 0.688652
Si Si7 0.184005 0.520072 0.566146
Si Si8 0.889066 0.198654 0.860950
O O1 0.928220 0.739312 0.821787
O O2 0.912699 0.830057 0.587071
O O3 0.000000 0.816769 0.750000
O O4 0.912698 0.830057 0.087554
O O5 0.191806 0.090519 0.558239
O O6 0.172576 0.000025 0.327252
O O7 0.261037 0.012786 0.488738
O O8 0.753922 0.342018 0.745633
O O9 0.753941 0.341995 0.246350
O O10 0.674137 0.305628 0.075833
O O11 0.162583 0.685485 0.587405
O O12 0.078257 0.649214 0.421622
O O13 0.078256 0.649214 0.921849
O O14 0.307781 0.915568 0.442105
O O15 0.500000 0.802484 0.750000
O O16 0.596190 0.762326 0.653798
O O17 0.153065 0.499992 0.347107
#
# Coordination Sequence:
#
# PCOD8129796 Si02
#       8
#     8   8   8   8   8   8   8   8
#     4  10  19  38  57  70  96 126 165 222 256 286
#     4  10  16  30  48  66  88 136 172 193 233 274
#     4  12  21  32  47  72 110 139 160 207 230 284
#     4  10  20  32  51  78  96 128 173 203 242 301
#     4  12  21  32  47  72 110 139 160 207 230 284
#     4  10  19  38  57  70  96 126 165 222 256 286
#     4  10  16  30  48  66  88 136 172 193 233 274
#     4  10  20  32  51  78  96 128 173 203 242 301
#
# _framework density 19.306864000000001
#
# number of rings (size 3 to 8) (size 9 to 14) (size 15 to 20)
#    0.000    1.500    5.000    5.250    0.000    0.000 
#    0.000   15.000    0.000    0.000    0.000    0.000 
#    0.000   34.000    0.000    0.000    0.000    0.000 
#
# Total GULP energy -396559.370936 kJ/mol
# GULP energy per Si atom -12392.480342 kJ/mol
# Density = 1.926292 g / cm^3
# Si number density = 19.306864 Si / 1000 Ang^3
#
#
#
# Elastic Constant Matrix: (Units=GPa)
#
#
# Indices 1 2 3 4 5 6 
#
# 1 103.2886 15.1529 68.8954 0.0000 2.8677 0.0000
# 2 15.1529 14.3890 7.2804 0.0000 -1.6470 0.0000
# 3 68.8954 7.2804 241.2168 0.0000 26.0583 0.0000
# 4 0.0000 0.0000 0.0000 8.6270 0.0000 1.3220
# 5 2.8677 -1.6470 26.0583 0.0000 28.8573 0.0000
# 6 0.0000 0.0000 0.0000 1.3220 0.0000 2.3223
#
#
#
# Elastic Compliance Matrix: (Units=1/GPa)
#
#
# Indices 1 2 3 4 5 6 
#
# 1 0.014018 -0.012715 -0.003758 0.000000 0.001274 0.000000
# 2 -0.012715 0.083260 0.000520 0.000000 0.005546 0.000000
# 3 -0.003758 0.000520 0.005717 0.000000 -0.004760 0.000000
# 4 0.000000 0.000000 0.000000 0.126992 0.000000 -0.072290
# 5 0.001274 0.005546 -0.004760 0.000000 0.039141 0.000000
# 6 0.000000 0.000000 0.000000 -0.072290 0.000000 0.471753
#
#
# Mechanical properties :
#
#
# Convention : Reuss Voigt Hill
#
# Bulk Modulus (GPa) = 14.06694 60.17242 37.11968
# Shear Modulus (GPa) = 6.27759 25.79905 16.03832
#
# Velocity S-wave (km/s) = 1.80514 3.65946 2.88532
# Velocity P-wave (km/s) = 3.41270 7.00639 5.51072
#
# Compressibility (1/GPa) = 0.07108868
#
# Stress axis : x y z
#
# Youngs Moduli (GPa) = 71.33673 12.01060 174.90423
#
# Poissons Ratio (x) = 0.15272 0.65723
# Poissons Ratio (y) = 0.90705 -0.09086
# Poissons Ratio (z) = 0.26806 -0.00624
#
# Static dielectric constant tensor:
#      x y z
#    x 3.365510 0.000000 0.632200 
#    y 0.000000 3.037380 0.000000 
#    z 0.632200 0.000000 6.386690 
# 
# 
# High freq. dielectric constant tensor:
#      x y z
#    x 1.717460 0.000000 0.017620 
#    y 0.000000 1.687700 0.000000 
#    z 0.017620 0.000000 1.801590 
# 
# From -- ./inp_files/17627.got.cif
#   From: 2010.06.25/outbox.cif.g09.slc.cpg/sg15_9_cif.got.tgz:17627.got - 2010.06.28 07:06:18.
