data_PCOD8129256
_publ_section_title
;
Structure prediction by ZEFSAII (Michael W. Deem and Ramdas Pophale) SiO2 
 PCOD8129256
Probable space group: P 21/C
;
_chemical_formula_sum "Si O2"
_cell_formula_units_Z 20
_cell_length_a 8.196737
_cell_length_b 7.338350
_cell_length_c 17.236368
_cell_angle_alpha 90.000000
_cell_angle_beta 47.639664
_cell_angle_gamma 90.000000
_cell_volume 766.096987
_symmetry_space_group_name_H-M "P 21/C"
_symmetry_group_IT_number 14
_symmetry_cell_setting 'monoclinic'
loop_
_space_group_symop_operation_xyz
x,y,z
-x,1/2+y,1/2-z
-x,-y,-z
x,1/2-y,1/2+z
loop_
_atom_site_type_symbol
_atom_site_label
_atom_site_fract_x
_atom_site_fract_y
_atom_site_fract_z
Si Si1 0.327763 0.324450 0.015005
Si Si2 0.213163 0.259353 0.804054
Si Si3 0.932856 0.395572 0.616410
Si Si4 0.331759 0.912442 0.374777
Si Si5 0.807098 0.115409 0.333624
O O1 0.267866 0.491091 0.975425
O O2 0.586651 0.271699 0.930128
O O3 0.238908 0.406248 0.124970
O O4 0.194768 0.141501 0.038036
O O5 0.420815 0.160348 0.697961
O O6 0.301621 0.439122 0.816611
O O7 0.028321 0.303064 0.799421
O O8 0.107738 0.105971 0.896954
O O9 0.829978 0.255436 0.588449
O O10 0.820999 0.371619 0.736751
#
# Coordination Sequence:
#
# PCOD8129256 Si02
#       5
#     4   4   4   4   4
#     4  11  25  49  75 107 154 196 241 310 367 434
#     4  12  25  44  76 107 146 202 240 303 371 430
#     4  12  25  47  76 107 154 189 248 309 355 448
#     4  12  25  48  73 111 150 193 245 303 374 427
#     4  11  25  46  74 109 147 200 241 297 378 420
#
# _framework density 26.106354
#
# number of rings (size 3 to 8) (size 9 to 14) (size 15 to 20)
#    0.000    0.400    6.000    1.800    2.800    1.600 
#    0.000    0.000    0.000    0.000    0.000    0.000 
#    0.000    0.000    0.000    0.000    0.000    0.000 
#
# Total GULP energy -247899.293546 kJ/mol
# GULP energy per Si atom -12394.964677 kJ/mol
# Density = 2.604693 g / cm^3
# Si number density = 26.106354 Si / 1000 Ang^3
#
#
#
# Elastic Constant Matrix: (Units=GPa)
#
#
# Indices 1 2 3 4 5 6 
#
# 1 135.3350 30.7098 45.3974 0.0000 -33.0399 0.0000
# 2 30.7098 80.4993 31.3945 0.0000 -7.1735 0.0000
# 3 45.3974 31.3945 79.9835 0.0000 -22.5967 0.0000
# 4 0.0000 0.0000 0.0000 39.4559 0.0000 -11.8695
# 5 -33.0399 -7.1735 -22.5967 0.0000 46.6981 0.0000
# 6 0.0000 0.0000 0.0000 -11.8695 0.0000 38.4187
#
#
#
# Elastic Compliance Matrix: (Units=1/GPa)
#
#
# Indices 1 2 3 4 5 6 
#
# 1 0.010346 -0.002087 -0.003562 0.000000 0.005275 0.000000
# 2 -0.002087 0.015104 -0.005219 0.000000 -0.001682 0.000000
# 3 -0.003562 -0.005219 0.018110 0.000000 0.005441 0.000000
# 4 0.000000 0.000000 0.000000 0.027942 0.000000 0.008633
# 5 0.005275 -0.001682 0.005441 0.000000 0.027521 0.000000
# 6 0.000000 0.000000 0.000000 0.008633 0.000000 0.028696
#
#
# Mechanical properties :
#
#
# Convention : Reuss Voigt Hill
#
# Bulk Modulus (GPa) = 45.82392 56.75791 51.29091
# Shear Modulus (GPa) = 31.90184 37.46894 34.68539
#
# Velocity S-wave (km/s) = 3.49950 3.79257 3.64898
# Velocity P-wave (km/s) = 5.82405 6.40050 6.11906
#
# Compressibility (1/GPa) = 0.02182267
#
# Stress axis : x y z
#
# Youngs Moduli (GPa) = 96.65974 66.20628 55.21716
#
# Poissons Ratio (x) = 0.13820 0.19670
# Poissons Ratio (y) = 0.20176 0.28818
# Poissons Ratio (z) = 0.34433 0.34554
#
# Static dielectric constant tensor:
#      x y z
#    x 5.096890 0.000000 -0.165250 
#    y 0.000000 4.888420 0.000000 
#    z -0.165250 0.000000 4.679440 
# 
# 
# High freq. dielectric constant tensor:
#      x y z
#    x 2.068180 0.000000 -0.008090 
#    y 0.000000 2.033370 0.000000 
#    z -0.008090 0.000000 2.052890 
# 
# From -- ./inp_files/54405.got.cif
#   From: 2010.03.12/outbox.cif.g09.slc.cpg/sg14_28_cif.got.tgz:54405.got - 2010.03.31 13:35:05.
