data_PCOD8129831
_publ_section_title
;
Structure prediction by ZEFSAII (Michael W. Deem and Ramdas Pophale) SiO2 
 PCOD8129831
Probable space group: C 2/C
;
_chemical_formula_sum "Si O2"
_cell_formula_units_Z 60
_cell_length_a 8.989417
_cell_length_b 20.133242
_cell_length_c 28.247355
_cell_angle_alpha 90.000000
_cell_angle_beta 41.320120
_cell_angle_gamma 90.000000
_cell_volume 3375.527071
_symmetry_space_group_name_H-M "C 2/C"
_symmetry_group_IT_number 15
_symmetry_cell_setting 'monoclinic'
loop_
_space_group_symop_operation_xyz
x,y,z
-x,y,1/2-z
-x,-y,-z
x,-y,1/2+z
1/2+x,1/2+y,z
1/2-x,1/2+y,1/2-z
1/2-x,1/2-y,-z
1/2+x,1/2-y,1/2+z
loop_
_atom_site_type_symbol
_atom_site_label
_atom_site_fract_x
_atom_site_fract_y
_atom_site_fract_z
Si Si1 0.987258 0.594851 0.858973
Si Si2 0.045873 0.264735 0.391263
Si Si3 0.443362 0.094734 0.483607
Si Si4 0.891368 0.111553 0.699001
Si Si5 0.969204 0.873199 0.072285
Si Si6 0.000000 0.782948 0.250000
Si Si7 0.694958 0.025331 0.890683
Si Si8 0.066918 0.261296 0.975395
O O1 0.725181 0.585686 0.908396
O O2 0.024370 0.657855 0.883990
O O3 0.134029 0.598671 0.775878
O O4 0.076816 0.533532 0.868068
O O5 0.276379 0.237830 0.311108
O O6 0.057256 0.252017 0.444654
O O7 0.833352 0.227552 0.419568
O O8 0.202263 0.084813 0.514267
O O9 0.426638 0.072731 0.542089
O O10 0.487577 0.172647 0.468198
O O11 0.648473 0.052301 0.412556
O O12 0.994948 0.171047 0.704817
O O13 0.895620 0.135832 0.644184
O O14 0.040089 0.044496 0.672736
O O15 0.993012 0.800475 0.043637
#
# Coordination Sequence:
#
# PCOD8129831 Si02
#       8
#     8   8   8   8   8   4   8   8
#     4  10  17  32  53  77 101 131 177 222 257 308
#     4   9  17  29  54  79  99 140 177 213 264 306
#     4  10  20  32  48  76 106 137 166 213 254 315
#     4  10  17  32  53  79  97 132 176 226 256 302
#     4  10  21  30  51  82 109 131 168 224 271 295
#     4  10  16  30  54  78 100 126 186 222 256 308
#     4  10  18  32  53  72  99 135 179 205 256 305
#     4  10  18  33  51  78 113 138 170 217 265 318
#
# _framework density 17.775003000000002
#
# number of rings (size 3 to 8) (size 9 to 14) (size 15 to 20)
#    0.000    2.133    4.000    1.600    0.000    0.533 
#    0.000    0.000    0.000   12.800    0.000    0.000 
#    0.000    0.000    0.000    0.000    0.000    0.000 
#
# Total GULP energy -371807.305543 kJ/mol
# GULP energy per Si atom -12393.576851 kJ/mol
# Density = 1.773455 g / cm^3
# Si number density = 17.775003 Si / 1000 Ang^3
#
#
#
# Elastic Constant Matrix: (Units=GPa)
#
#
# Indices 1 2 3 4 5 6 
#
# 1 90.1973 22.1244 41.1818 -0.0082 -0.2993 0.0107
# 2 22.1244 46.8232 25.3029 -0.0163 0.3845 0.0112
# 3 41.1818 25.3029 91.9011 -0.0140 -12.6463 0.0116
# 4 -0.0082 -0.0163 -0.0140 25.1903 0.0028 -0.6849
# 5 -0.2993 0.3845 -12.6463 0.0028 34.8746 -0.0034
# 6 0.0107 0.0112 0.0116 -0.6849 -0.0034 17.7462
#
#
#
# Elastic Compliance Matrix: (Units=1/GPa)
#
#
# Indices 1 2 3 4 5 6 
#
# 1 0.014651 -0.003777 -0.005791 -0.000001 -0.001933 -0.000003
# 2 -0.003777 0.026351 -0.005901 0.000012 -0.002463 -0.000010
# 3 -0.005791 -0.005901 0.015897 0.000002 0.005780 -0.000002
# 4 -0.000001 0.000012 0.000002 0.039740 -0.000002 0.001534
# 5 -0.001933 -0.002463 0.005780 -0.000002 0.030781 0.000005
# 6 -0.000003 -0.000010 -0.000002 0.001534 0.000005 0.056409
#
#
# Mechanical properties :
#
#
# Convention : Reuss Voigt Hill
#
# Bulk Modulus (GPa) = 38.52275 45.12665 41.82470
# Shear Modulus (GPa) = 22.37927 24.91639 23.64783
#
# Velocity S-wave (km/s) = 3.55213 3.74808 3.65142
# Velocity P-wave (km/s) = 6.20830 6.64632 6.43104
#
# Compressibility (1/GPa) = 0.02595869
#
# Stress axis : x y z
#
# Youngs Moduli (GPa) = 68.25443 37.94908 62.90665
#
# Poissons Ratio (x) = 0.14335 0.36431
# Poissons Ratio (y) = 0.25782 0.37124
# Poissons Ratio (z) = 0.39528 0.22395
#
# Static dielectric constant tensor:
#      x y z
#    x 3.476250 -0.000010 -0.204360 
#    y -0.000010 2.931410 0.000050 
#    z -0.204360 0.000050 3.491720 
# 
# 
# High freq. dielectric constant tensor:
#      x y z
#    x 1.698260 0.000000 -0.005590 
#    y 0.000000 1.638730 0.000000 
#    z -0.005590 0.000000 1.690710 
# 
# From -- ./inp_files/290111.got.cif
#   From: 2010.06.25/outbox.cif.g09.slc.cpg/sg15_146_cif.got.tgz:290111.got - 2010.06.28 07:06:18.
