data_PCOD8129231
_publ_section_title
;
Structure prediction by ZEFSAII (Michael W. Deem and Ramdas Pophale) SiO2 
 PCOD8129231
Probable space group: P 21/C
;
_chemical_formula_sum "Si O2"
_cell_formula_units_Z 24
_cell_length_a 10.784519
_cell_length_b 12.210091
_cell_length_c 10.046779
_cell_angle_alpha 90.000000
_cell_angle_beta 56.744976
_cell_angle_gamma 90.000000
_cell_volume 1106.309056
_symmetry_space_group_name_H-M "P 21/C"
_symmetry_group_IT_number 14
_symmetry_cell_setting 'monoclinic'
loop_
_space_group_symop_operation_xyz
x,y,z
-x,1/2+y,1/2-z
-x,-y,-z
x,1/2-y,1/2+z
loop_
_atom_site_type_symbol
_atom_site_label
_atom_site_fract_x
_atom_site_fract_y
_atom_site_fract_z
Si Si1 0.355961 0.810685 0.363108
Si Si2 0.815973 0.664122 0.213452
Si Si3 0.995689 0.970034 0.801127
Si Si4 0.462654 0.268018 0.989455
Si Si5 0.062212 0.672515 0.500603
Si Si6 0.719443 0.547275 0.012969
O O1 0.409450 0.768778 0.475212
O O2 0.477360 0.784739 0.180881
O O3 0.202202 0.752427 0.418235
O O4 0.339360 0.941337 0.374746
O O5 0.671649 0.692507 0.383157
O O6 0.897367 0.560537 0.231921
O O7 0.922983 0.768437 0.149457
O O8 0.779253 0.634417 0.084053
O O9 0.154276 0.015274 0.664933
O O10 0.023387 0.860989 0.872316
O O11 0.905126 0.061766 0.936245
O O12 0.411239 0.392977 0.992443
#
# Coordination Sequence:
#
# PCOD8129231 Si02
#       6
#     4   4   4   4   4   4
#     4  12  28  45  75 103 148 188 238 292 354 431
#     4  12  25  45  75 103 141 185 242 291 350 424
#     4  11  25  44  76 105 140 183 242 298 348 416
#     4  12  27  49  69 106 148 187 229 300 360 417
#     4  11  26  45  72 107 138 187 238 294 352 419
#     4  12  25  46  73 104 140 190 237 292 359 420
#
# _framework density 21.693756
#
# number of rings (size 3 to 8) (size 9 to 14) (size 15 to 20)
#    0.000    0.333    5.000    3.000    2.333    2.000 
#    0.000    0.000    0.000    0.000    0.000    0.000 
#    0.000    0.000    0.000    0.000    0.000    0.000 
#
# Total GULP energy -297808.773854 kJ/mol
# GULP energy per Si atom -12408.698911 kJ/mol
# Density = 2.164438 g / cm^3
# Si number density = 21.693756 Si / 1000 Ang^3
#
#
#
# Elastic Constant Matrix: (Units=GPa)
#
#
# Indices 1 2 3 4 5 6 
#
# 1 69.1183 13.6675 9.7327 0.0000 4.8058 0.0000
# 2 13.6675 87.0904 23.5199 0.0000 -5.4785 0.0000
# 3 9.7327 23.5199 83.3688 0.0000 -1.4378 0.0000
# 4 0.0000 0.0000 0.0000 33.8839 0.0000 9.2585
# 5 4.8058 -5.4785 -1.4378 0.0000 36.9998 0.0000
# 6 0.0000 0.0000 0.0000 9.2585 0.0000 39.8511
#
#
#
# Elastic Compliance Matrix: (Units=1/GPa)
#
#
# Indices 1 2 3 4 5 6 
#
# 1 0.015238 -0.002217 -0.001194 0.000000 -0.002354 0.000000
# 2 -0.002217 0.012860 -0.003334 0.000000 0.002063 0.000000
# 3 -0.001194 -0.003334 0.013078 0.000000 0.000170 0.000000
# 4 0.000000 0.000000 0.000000 0.031513 0.000000 -0.007321
# 5 -0.002354 0.002063 0.000170 0.000000 0.027645 0.000000
# 6 0.000000 0.000000 0.000000 -0.007321 0.000000 0.026794
#
#
# Mechanical properties :
#
#
# Convention : Reuss Voigt Hill
#
# Bulk Modulus (GPa) = 36.11862 37.04642 36.58252
# Shear Modulus (GPa) = 33.36739 34.99080 34.17910
#
# Velocity S-wave (km/s) = 3.92613 4.02050 3.97360
# Velocity P-wave (km/s) = 6.10230 6.21825 6.16055
#
# Compressibility (1/GPa) = 0.02768655
#
# Stress axis : x y z
#
# Youngs Moduli (GPa) = 65.62481 77.75858 76.46590
#
# Poissons Ratio (x) = 0.17239 0.09131
# Poissons Ratio (y) = 0.14549 0.25492
# Poissons Ratio (z) = 0.07836 0.25923
#
# Static dielectric constant tensor:
#      x y z
#    x 3.948200 0.000000 0.052090 
#    y 0.000000 3.998560 0.000000 
#    z 0.052090 0.000000 3.911970 
# 
# 
# High freq. dielectric constant tensor:
#      x y z
#    x 1.858090 0.000000 0.006440 
#    y 0.000000 1.860820 0.000000 
#    z 0.006440 0.000000 1.863810 
# 
# From -- ./inp_files/28487.got.cif
#   From: 2010.03.12/outbox.cif.g09.slc.cpg/sg14_15_cif.got.tgz:28487.got - 2010.03.31 13:35:05.
