data_PCOD8129492
_publ_section_title
;
Structure prediction by ZEFSAII (Michael W. Deem and Ramdas Pophale) SiO2 
 PCOD8129492
Probable space group: P 21/C
;
_chemical_formula_sum "Si O2"
_cell_formula_units_Z 20
_cell_length_a 8.350536
_cell_length_b 9.701344
_cell_length_c 9.903574
_cell_angle_alpha 90.000000
_cell_angle_beta 106.214632
_cell_angle_gamma 90.000000
_cell_volume 770.388949
_symmetry_space_group_name_H-M "P 21/C"
_symmetry_group_IT_number 14
_symmetry_cell_setting 'monoclinic'
loop_
_space_group_symop_operation_xyz
x,y,z
-x,1/2+y,1/2-z
-x,-y,-z
x,1/2-y,1/2+z
loop_
_atom_site_type_symbol
_atom_site_label
_atom_site_fract_x
_atom_site_fract_y
_atom_site_fract_z
Si Si1 0.739314 0.726779 0.189941
Si Si2 0.628324 0.331025 0.428088
Si Si3 0.833539 0.909774 0.977145
Si Si4 0.940309 0.998337 0.637956
Si Si5 0.816120 0.271982 0.724613
O O1 0.554377 0.786145 0.158734
O O2 0.760293 0.578657 0.117794
O O3 0.815188 0.709352 0.358590
O O4 0.844245 0.835806 0.124771
O O5 0.656959 0.286618 0.589356
O O6 0.666804 0.494480 0.423627
O O7 0.758646 0.250270 0.364078
O O8 0.000000 0.000000 0.000000
O O9 0.074172 0.910475 0.757576
O O10 0.000000 0.000000 0.500000
O O11 0.930410 0.148851 0.697137
#
# Coordination Sequence:
#
# PCOD8129492 Si02
#       5
#     4   4   4   4   4
#     4  12  29  50  82 117 164 216 271 345 424 486
#     4  12  27  52  78 122 168 212 270 350 417 495
#     4  12  28  54  83 118 168 218 284 341 415 505
#     4  12  28  50  82 120 157 219 280 339 405 504
#     4  12  27  52  82 116 166 216 275 340 415 495
#
# _framework density 25.960913000000001
#
# number of rings (size 3 to 8) (size 9 to 14) (size 15 to 20)
#    0.000    0.000    4.000    4.200    5.600    0.800 
#    3.600    0.000    0.000    0.000    0.000    0.000 
#    0.000    0.000    0.000    0.000    0.000    0.000 
#
# Total GULP energy -247931.364767 kJ/mol
# GULP energy per Si atom -12396.568238 kJ/mol
# Density = 2.590183 g / cm^3
# Si number density = 25.960913 Si / 1000 Ang^3
#
#
#
# Elastic Constant Matrix: (Units=GPa)
#
#
# Indices 1 2 3 4 5 6 
#
# 1 112.8097 46.1117 66.2623 0.0000 10.9935 0.0000
# 2 46.1117 117.0351 59.8128 0.0000 9.8018 0.0000
# 3 66.2623 59.8128 139.2181 0.0000 3.4227 0.0000
# 4 0.0000 0.0000 0.0000 54.9349 0.0000 -2.4482
# 5 10.9935 9.8018 3.4227 0.0000 41.8032 0.0000
# 6 0.0000 0.0000 0.0000 -2.4482 0.0000 55.2805
#
#
#
# Elastic Compliance Matrix: (Units=1/GPa)
#
#
# Indices 1 2 3 4 5 6 
#
# 1 0.013090 -0.002302 -0.005180 0.000000 -0.002478 0.000000
# 2 -0.002302 0.011557 -0.003825 0.000000 -0.001791 0.000000
# 3 -0.005180 -0.003825 0.011259 0.000000 0.001337 0.000000
# 4 0.000000 0.000000 0.000000 0.018239 0.000000 0.000808
# 5 -0.002478 -0.001791 0.001337 0.000000 0.024884 0.000000
# 6 0.000000 0.000000 0.000000 0.000808 0.000000 0.018125
#
#
# Mechanical properties :
#
#
# Convention : Reuss Voigt Hill
#
# Bulk Modulus (GPa) = 75.24467 79.27073 77.25770
# Shear Modulus (GPa) = 40.25784 43.52878 41.89331
#
# Velocity S-wave (km/s) = 3.94218 4.09920 4.02146
# Velocity P-wave (km/s) = 7.05463 7.28049 7.16845
#
# Compressibility (1/GPa) = 0.01328998
#
# Stress axis : x y z
#
# Youngs Moduli (GPa) = 76.39512 86.53121 88.81747
#
# Poissons Ratio (x) = 0.19923 0.46008
# Poissons Ratio (y) = 0.17589 0.33974
# Poissons Ratio (z) = 0.39573 0.33100
#
# Static dielectric constant tensor:
#      x y z
#    x 4.572760 0.000000 -0.228350 
#    y 0.000000 5.044550 0.000000 
#    z -0.228350 0.000000 5.022910 
# 
# 
# High freq. dielectric constant tensor:
#      x y z
#    x 2.032640 0.000000 -0.012450 
#    y 0.000000 2.049790 0.000000 
#    z -0.012450 0.000000 2.062980 
# 
# From -- ./inp_files/23493.got.cif
#   From: 2010.03.12/outbox.cif.g09.slc.cpg/sg14_12_cif.got.tgz:23493.got - 2010.03.31 13:35:05.
