data_PCOD8129330
_publ_section_title
;
Structure prediction by ZEFSAII (Michael W. Deem and Ramdas Pophale) SiO2 
 PCOD8129330
Probable space group: P 21/C
;
_chemical_formula_sum "Si O2"
_cell_formula_units_Z 24
_cell_length_a 9.147538
_cell_length_b 17.613382
_cell_length_c 7.982802
_cell_angle_alpha 90.000000
_cell_angle_beta 131.695816
_cell_angle_gamma 90.000000
_cell_volume 960.374862
_symmetry_space_group_name_H-M "P 21/C"
_symmetry_group_IT_number 14
_symmetry_cell_setting 'monoclinic'
loop_
_space_group_symop_operation_xyz
x,y,z
-x,1/2+y,1/2-z
-x,-y,-z
x,1/2-y,1/2+z
loop_
_atom_site_type_symbol
_atom_site_label
_atom_site_fract_x
_atom_site_fract_y
_atom_site_fract_z
Si Si1 0.680861 0.397403 0.587230
Si Si2 0.478535 0.281675 0.231603
Si Si3 0.609471 0.137930 0.513489
Si Si4 0.610069 0.952395 0.868791
Si Si5 0.972170 0.852303 0.129482
Si Si6 0.049157 0.309481 0.774066
O O1 0.537395 0.326964 0.443170
O O2 0.596089 0.437434 0.688239
O O3 0.669756 0.459726 0.427834
O O4 0.904965 0.366715 0.765926
O O5 0.535649 0.193842 0.303989
O O6 0.608805 0.314967 0.183063
O O7 0.254200 0.300877 0.025926
O O8 0.454566 0.068407 0.372203
O O9 0.827588 0.102090 0.680046
O O10 0.793582 0.900838 0.069188
O O11 0.027392 0.776641 0.277856
O O12 0.926691 0.835302 0.899301
#
# Coordination Sequence:
#
# PCOD8129330 Si02
#       6
#     4   4   4   4   4   4
#     4  11  27  47  68 101 144 184 229 286 348 409
#     4  12  23  43  71 102 136 182 232 285 342 405
#     4  12  23  43  71 102 136 182 232 285 342 405
#     4  11  27  47  68 101 144 184 229 286 348 409
#     4  12  25  43  72 104 134 181 233 286 342 411
#     4  12  25  43  72 104 134 181 233 286 342 411
#
# _framework density 24.99024
#
# number of rings (size 3 to 8) (size 9 to 14) (size 15 to 20)
#    0.000    0.333    6.667    1.000    4.667    2.667 
#    0.000    3.333    0.000    0.000    0.000    0.000 
#    0.000    0.000    0.000    0.000    0.000    0.000 
#
# Total GULP energy -297326.761628 kJ/mol
# GULP energy per Si atom -12388.615068 kJ/mol
# Density = 2.493336 g / cm^3
# Si number density = 24.990240 Si / 1000 Ang^3
#
#
#
# Elastic Constant Matrix: (Units=GPa)
#
#
# Indices 1 2 3 4 5 6 
#
# 1 75.6266 5.5329 13.5312 0.0000 32.7567 0.0000
# 2 5.5329 60.9164 -5.7517 0.0000 14.1600 0.0000
# 3 13.5312 -5.7517 94.3914 0.0000 31.2104 0.0000
# 4 0.0000 0.0000 0.0000 32.6010 0.0000 1.0343
# 5 32.7567 14.1600 31.2104 0.0000 45.9447 0.0000
# 6 0.0000 0.0000 0.0000 1.0343 0.0000 32.2928
#
#
#
# Elastic Compliance Matrix: (Units=1/GPa)
#
#
# Indices 1 2 3 4 5 6 
#
# 1 0.019815 0.002376 0.002860 0.000000 -0.016802 0.000000
# 2 0.002376 0.019038 0.004281 0.000000 -0.010470 0.000000
# 3 0.002860 0.004281 0.014903 0.000000 -0.013482 0.000000
# 4 0.000000 0.000000 0.000000 0.030705 0.000000 -0.000983
# 5 -0.016802 -0.010470 -0.013482 0.000000 0.046130 0.000000
# 6 0.000000 0.000000 0.000000 -0.000983 0.000000 0.030998
#
#
# Mechanical properties :
#
#
# Convention : Reuss Voigt Hill
#
# Bulk Modulus (GPa) = 13.73808 28.61768 21.17788
# Shear Modulus (GPa) = 29.97273 36.67582 33.32427
#
# Velocity S-wave (km/s) = 3.46696 3.83509 3.65566
# Velocity P-wave (km/s) = 4.64066 5.57557 5.12946
#
# Compressibility (1/GPa) = 0.07279036
#
# Stress axis : x y z
#
# Youngs Moduli (GPa) = 50.46664 52.52642 67.10094
#
# Poissons Ratio (x) = -0.12480 -0.19190
# Poissons Ratio (y) = -0.11991 -0.28728
# Poissons Ratio (z) = -0.14433 -0.22488
#
# Static dielectric constant tensor:
#      x y z
#    x 4.569090 0.000000 0.127630 
#    y 0.000000 4.622200 0.000000 
#    z 0.127630 0.000000 4.483660 
# 
# 
# High freq. dielectric constant tensor:
#      x y z
#    x 1.990770 0.000000 0.015680 
#    y 0.000000 1.987860 0.000000 
#    z 0.015680 0.000000 2.005640 
# 
# From -- ./inp_files/10287.got.cif
#   From: 2010.03.12/outbox.cif.g09.slc.cpg/sg14_6_cif.got.tgz:10287.got - 2010.03.31 13:35:05.
