data_PCOD8129620
_publ_section_title
;
Structure prediction by ZEFSAII (Michael W. Deem and Ramdas Pophale) SiO2 
 PCOD8129620
Probable space group: C 2/C
;
_chemical_formula_sum "Si O2"
_cell_formula_units_Z 52
_cell_length_a 19.831489
_cell_length_b 13.638047
_cell_length_c 15.555316
_cell_angle_alpha 90.000000
_cell_angle_beta 35.918776
_cell_angle_gamma 90.000000
_cell_volume 2468.063740
_symmetry_space_group_name_H-M "C 2/C"
_symmetry_group_IT_number 15
_symmetry_cell_setting 'monoclinic'
loop_
_space_group_symop_operation_xyz
x,y,z
-x,y,1/2-z
-x,-y,-z
x,-y,1/2+z
1/2+x,1/2+y,z
1/2-x,1/2+y,1/2-z
1/2-x,1/2-y,-z
1/2+x,1/2-y,1/2+z
loop_
_atom_site_type_symbol
_atom_site_label
_atom_site_fract_x
_atom_site_fract_y
_atom_site_fract_z
Si Si1 0.366985 0.532605 0.394407
Si Si2 0.877541 0.586788 0.172643
Si Si3 0.373534 0.172511 0.573256
Si Si4 0.294862 0.680339 0.028440
Si Si5 0.822816 0.623298 0.801803
Si Si6 0.193138 0.480336 0.931963
Si Si7 0.500000 0.095897 0.750000
O O1 0.500000 0.561444 0.250000
O O2 0.353601 0.418774 0.434750
O O3 0.304451 0.604706 0.527765
O O4 0.308739 0.551046 0.362143
O O5 0.815334 0.662116 0.299084
O O6 0.874878 0.479527 0.215990
O O7 0.819471 0.588517 0.138329
O O8 0.006884 0.621090 0.030081
O O9 0.386145 0.265913 0.497719
O O10 0.317186 0.196949 0.725715
O O11 0.292132 0.093766 0.609633
O O12 0.250000 0.750000 0.000000
O O13 0.914860 0.662477 0.778336
O O14 0.083045 0.473733 0.108420
#
# Coordination Sequence:
#
# PCOD8129620 Si02
#       7
#     8   8   8   8   8   8   4
#     4  10  22  38  55  85 123 160 196 231 303 365
#     4  10  20  35  53  87 117 151 196 249 303 339
#     4  11  19  34  57  84 121 152 195 249 301 343
#     4  11  24  35  53  86 128 161 191 233 302 375
#     4   9  18  33  57  86 109 146 207 247 285 341
#     4  10  18  33  59  83 115 145 203 250 285 341
#     4  10  14  28  56  90  98 132 184 256 290 310
#
# _framework density 21.069148999999999
#
# number of rings (size 3 to 8) (size 9 to 14) (size 15 to 20)
#    0.000    1.846    4.615    0.923    2.154    0.000 
#    0.000    8.462    0.000    3.692    4.000    0.000 
#    0.000    0.000    0.000    0.000    0.000    0.000 
#
# Total GULP energy -322253.640234 kJ/mol
# GULP energy per Si atom -12394.370778 kJ/mol
# Density = 2.102119 g / cm^3
# Si number density = 21.069149 Si / 1000 Ang^3
#
#
#
# Elastic Constant Matrix: (Units=GPa)
#
#
# Indices 1 2 3 4 5 6 
#
# 1 141.7871 20.2671 62.9715 0.0000 9.3682 0.0000
# 2 20.2671 20.8689 8.9426 0.0000 7.0029 0.0000
# 3 62.9715 8.9426 121.4658 0.0000 -2.2673 0.0000
# 4 0.0000 0.0000 0.0000 22.2741 0.0000 8.0438
# 5 9.3682 7.0029 -2.2673 0.0000 41.7360 0.0000
# 6 0.0000 0.0000 0.0000 8.0438 0.0000 25.4825
#
#
#
# Elastic Compliance Matrix: (Units=1/GPa)
#
#
# Indices 1 2 3 4 5 6 
#
# 1 0.010372 -0.007552 -0.004846 0.000000 -0.001324 0.000000
# 2 -0.007552 0.058193 -0.000520 0.000000 -0.008097 0.000000
# 3 -0.004846 -0.000520 0.010816 0.000000 0.001763 0.000000
# 4 0.000000 0.000000 0.000000 0.050671 0.000000 -0.015995
# 5 -0.001324 -0.008097 0.001763 0.000000 0.025712 0.000000
# 6 0.000000 0.000000 0.000000 -0.015995 0.000000 0.044292
#
#
# Mechanical properties :
#
#
# Convention : Reuss Voigt Hill
#
# Bulk Modulus (GPa) = 18.67602 52.05380 35.36491
# Shear Modulus (GPa) = 20.51366 30.69458 25.60412
#
# Velocity S-wave (km/s) = 3.12370 3.82101 3.48981
# Velocity P-wave (km/s) = 4.67904 6.65031 5.74978
#
# Compressibility (1/GPa) = 0.05354459
#
# Stress axis : x y z
#
# Youngs Moduli (GPa) = 96.41345 17.18430 92.45385
#
# Poissons Ratio (x) = 0.12978 0.44802
# Poissons Ratio (y) = 0.72812 0.04810
# Poissons Ratio (z) = 0.46721 0.00894
#
# Static dielectric constant tensor:
#      x y z
#    x 4.205780 0.000000 0.355640 
#    y 0.000000 3.517510 0.000000 
#    z 0.355640 0.000000 3.931810 
# 
# 
# High freq. dielectric constant tensor:
#      x y z
#    x 1.841210 0.000000 0.021780 
#    y 0.000000 1.782630 0.000000 
#    z 0.021780 0.000000 1.824090 
# 
# From -- ./inp_files/162485.got.cif
#   From: 2010.06.25/outbox.cif.g09.slc.cpg/sg15_82_cif.got.tgz:162485.got - 2010.06.28 07:06:18.
