data_PCOD8129096
_publ_section_title
;
Structure prediction by ZEFSAII (Michael W. Deem and Ramdas Pophale) SiO2 
 PCOD8129096
Probable space group: P 21/C
;
_chemical_formula_sum "Si O2"
_cell_formula_units_Z 32
_cell_length_a 11.737050
_cell_length_b 13.307972
_cell_length_c 9.544433
_cell_angle_alpha 90.000000
_cell_angle_beta 92.059922
_cell_angle_gamma 90.000000
_cell_volume 1489.842047
_symmetry_space_group_name_H-M "P 21/C"
_symmetry_group_IT_number 14
_symmetry_cell_setting 'monoclinic'
loop_
_space_group_symop_operation_xyz
x,y,z
-x,1/2+y,1/2-z
-x,-y,-z
x,1/2-y,1/2+z
loop_
_atom_site_type_symbol
_atom_site_label
_atom_site_fract_x
_atom_site_fract_y
_atom_site_fract_z
Si Si1 0.092413 0.022028 0.620202
Si Si2 0.337322 0.013746 0.191159
Si Si3 0.280344 0.343401 0.457070
Si Si4 0.587222 0.966315 0.264944
Si Si5 0.973098 0.597812 0.589013
Si Si6 0.210059 0.830681 0.053079
Si Si7 0.743185 0.354760 0.765816
Si Si8 0.699958 0.613593 0.021513
O O1 0.029807 0.073943 0.746900
O O2 0.185052 0.098366 0.561411
O O3 0.150101 0.919034 0.674416
O O4 0.000000 0.000000 0.500000
O O5 0.340779 0.115483 0.099978
O O6 0.296514 0.041054 0.344422
O O7 0.460659 0.960922 0.198416
O O8 0.249557 0.938250 0.114131
O O9 0.323020 0.407550 0.327737
O O10 0.144463 0.352852 0.466582
O O11 0.314727 0.228503 0.434105
O O12 0.592229 0.917877 0.420193
O O13 0.626452 0.082337 0.272824
O O14 0.000000 0.500000 0.500000
O O15 0.073931 0.678111 0.568793
O O16 0.273432 0.742611 0.138805
O O17 0.238687 0.819785 0.891861
#
# Coordination Sequence:
#
# PCOD8129096 Si02
#       8
#     4   4   4   4   4   4   4   4
#     4  11  24  44  66  99 144 183 225 286 342 409
#     4  12  25  46  76  98 139 187 229 288 353 410
#     4  12  24  45  73 103 139 184 233 284 351 416
#     4  11  24  52  67 101 145 179 230 296 342 409
#     4  12  22  46  70  95 145 182 225 284 347 415
#     4  12  27  44  71 104 137 189 232 281 351 413
#     4  11  26  46  66 103 143 179 237 284 342 414
#     4  11  26  43  70 108 136 177 237 287 346 412
#
# _framework density 21.478787000000001
#
# number of rings (size 3 to 8) (size 9 to 14) (size 15 to 20)
#    0.000    0.500    6.250    2.250    7.000    2.000 
#    0.000    0.000    0.000    0.000    0.000    0.000 
#    0.000    0.000    0.000    0.000    0.000    0.000 
#
# Total GULP energy -397013.188290 kJ/mol
# GULP energy per Si atom -12406.662134 kJ/mol
# Density = 2.142990 g / cm^3
# Si number density = 21.478787 Si / 1000 Ang^3
#
#
#
# Elastic Constant Matrix: (Units=GPa)
#
#
# Indices 1 2 3 4 5 6 
#
# 1 85.1821 25.7450 20.3879 0.0000 15.0870 0.0000
# 2 25.7450 103.2438 38.4233 0.0000 -3.4391 0.0000
# 3 20.3879 38.4233 139.0534 0.0000 9.3724 0.0000
# 4 0.0000 0.0000 0.0000 38.7166 0.0000 6.8062
# 5 15.0870 -3.4391 9.3724 0.0000 33.9735 0.0000
# 6 0.0000 0.0000 0.0000 6.8062 0.0000 20.7439
#
#
#
# Elastic Compliance Matrix: (Units=1/GPa)
#
#
# Indices 1 2 3 4 5 6 
#
# 1 0.014089 -0.003477 -0.000672 0.000000 -0.006423 0.000000
# 2 -0.003477 0.011783 -0.002986 0.000000 0.003561 0.000000
# 3 -0.000672 -0.002986 0.008269 0.000000 -0.002285 0.000000
# 4 0.000000 0.000000 0.000000 0.027410 0.000000 -0.008993
# 5 -0.006423 0.003561 -0.002285 0.000000 0.033278 0.000000
# 6 0.000000 0.000000 0.000000 -0.008993 0.000000 0.051158
#
#
# Mechanical properties :
#
#
# Convention : Reuss Voigt Hill
#
# Bulk Modulus (GPa) = 50.32550 55.17683 52.75117
# Shear Modulus (GPa) = 29.96168 34.88167 32.42168
#
# Velocity S-wave (km/s) = 3.73895 4.03427 3.88941
# Velocity P-wave (km/s) = 6.49005 6.88805 6.69201
#
# Compressibility (1/GPa) = 0.01987064
#
# Stress axis : x y z
#
# Youngs Moduli (GPa) = 70.97766 84.86991 120.93192
#
# Poissons Ratio (x) = 0.29510 0.08126
# Poissons Ratio (y) = 0.24680 0.36110
# Poissons Ratio (z) = 0.04770 0.25342
#
# Static dielectric constant tensor:
#      x y z
#    x 3.930950 0.000000 0.082920 
#    y 0.000000 3.739110 0.000000 
#    z 0.082920 0.000000 4.101570 
# 
# 
# High freq. dielectric constant tensor:
#      x y z
#    x 1.842440 0.000000 0.006540 
#    y 0.000000 1.835890 0.000000 
#    z 0.006540 0.000000 1.864750 
# 
# From -- ./inp_files/13327.got.cif
#   From: 2010.03.12/outbox.cif.g09.slc.cpg/sg14_7_cif.got.tgz:13327.got - 2010.03.31 13:35:05.
