data_PCOD8129442
_publ_section_title
;
Structure prediction by ZEFSAII (Michael W. Deem and Ramdas Pophale) SiO2 
 PCOD8129442
Probable space group: P 21/C
;
_chemical_formula_sum "Si O2"
_cell_formula_units_Z 20
_cell_length_a 19.964654
_cell_length_b 8.741662
_cell_length_c 13.280869
_cell_angle_alpha 90.000000
_cell_angle_beta 21.693025
_cell_angle_gamma 90.000000
_cell_volume 856.749355
_symmetry_space_group_name_H-M "P 21/C"
_symmetry_group_IT_number 14
_symmetry_cell_setting 'monoclinic'
loop_
_space_group_symop_operation_xyz
x,y,z
-x,1/2+y,1/2-z
-x,-y,-z
x,1/2-y,1/2+z
loop_
_atom_site_type_symbol
_atom_site_label
_atom_site_fract_x
_atom_site_fract_y
_atom_site_fract_z
Si Si1 0.919910 0.836388 0.587376
Si Si2 0.564481 0.474947 0.024535
Si Si3 0.151173 0.656558 0.104400
Si Si4 0.474964 0.292707 0.327349
Si Si5 0.936535 0.130210 0.945685
O O1 0.026989 0.764406 0.346017
O O2 0.931690 0.721810 0.665158
O O3 0.705575 0.854074 0.864522
O O4 0.000000 0.000000 0.500000
O O5 0.782144 0.459834 0.723992
O O6 0.500000 0.500000 0.000000
O O7 0.473766 0.328224 0.207812
O O8 0.502870 0.613270 0.182451
O O9 0.169437 0.748290 0.975124
O O10 0.055277 0.493364 0.218800
O O11 0.349273 0.623045 0.872009
#
# Coordination Sequence:
#
# PCOD8129442 Si02
#       5
#     4   4   4   4   4
#     4  12  26  46  72 107 147 195 251 313 377 448
#     4  12  26  50  75 113 150 194 252 316 376 454
#     4  12  25  48  72 110 146 198 249 310 381 448
#     4  12  26  46  79 106 150 198 253 313 379 451
#     4  12  26  48  74 105 152 196 249 311 379 450
#
# _framework density 23.344049999999999
#
# number of rings (size 3 to 8) (size 9 to 14) (size 15 to 20)
#    0.000    0.000    6.000    4.200    2.800    0.000 
#    0.000    3.000    0.000    0.000    0.000    0.000 
#    0.000    0.000    0.000    0.000    0.000    0.000 
#
# Total GULP energy -248045.502917 kJ/mol
# GULP energy per Si atom -12402.275146 kJ/mol
# Density = 2.329092 g / cm^3
# Si number density = 23.344050 Si / 1000 Ang^3
#
#
#
# Elastic Constant Matrix: (Units=GPa)
#
#
# Indices 1 2 3 4 5 6 
#
# 1 93.8263 41.4095 17.0829 0.0000 6.0948 0.0000
# 2 41.4095 125.8514 25.0006 0.0000 -0.7723 0.0000
# 3 17.0829 25.0006 146.6121 0.0000 -21.1406 0.0000
# 4 0.0000 0.0000 0.0000 42.2002 0.0000 8.9032
# 5 6.0948 -0.7723 -21.1406 0.0000 28.0069 0.0000
# 6 0.0000 0.0000 0.0000 8.9032 0.0000 51.8760
#
#
#
# Elastic Compliance Matrix: (Units=1/GPa)
#
#
# Indices 1 2 3 4 5 6 
#
# 1 0.012938 -0.004004 -0.001399 0.000000 -0.003982 0.000000
# 2 -0.004004 0.009485 -0.001108 0.000000 0.000296 0.000000
# 3 -0.001399 -0.001108 0.008093 0.000000 0.006383 0.000000
# 4 0.000000 0.000000 0.000000 0.024587 0.000000 -0.004220
# 5 -0.003982 0.000296 0.006383 0.000000 0.041398 0.000000
# 6 0.000000 0.000000 0.000000 -0.004220 0.000000 0.020001
#
#
# Mechanical properties :
#
#
# Convention : Reuss Voigt Hill
#
# Bulk Modulus (GPa) = 57.15982 59.25285 58.20634
# Shear Modulus (GPa) = 36.93962 43.26973 40.10468
#
# Velocity S-wave (km/s) = 3.98225 4.30998 4.14935
# Velocity P-wave (km/s) = 6.75895 7.08558 6.92419
#
# Compressibility (1/GPa) = 0.01749481
#
# Stress axis : x y z
#
# Youngs Moduli (GPa) = 77.28950 105.42737 123.56254
#
# Poissons Ratio (x) = 0.42210 0.17287
# Poissons Ratio (y) = 0.30944 0.13693
# Poissons Ratio (z) = 0.10813 0.11684
#
# Static dielectric constant tensor:
#      x y z
#    x 4.219000 0.000000 -0.014840 
#    y 0.000000 4.364930 0.000000 
#    z -0.014840 0.000000 4.315360 
# 
# 
# High freq. dielectric constant tensor:
#      x y z
#    x 1.913990 0.000000 -0.003770 
#    y 0.000000 1.931440 0.000000 
#    z -0.003770 0.000000 1.936820 
# 
# From -- ./inp_files/49976.got.cif
#   From: 2010.03.12/outbox.cif.g09.slc.cpg/sg14_25_cif.got.tgz:49976.got - 2010.03.31 13:35:05.
