data_PCOD8129784
_publ_section_title
;
Structure prediction by ZEFSAII (Michael W. Deem and Ramdas Pophale) SiO2 
 PCOD8129784
Probable space group: C 2/C
;
_chemical_formula_sum "Si O2"
_cell_formula_units_Z 60
_cell_length_a 26.472597
_cell_length_b 11.803955
_cell_length_c 17.964447
_cell_angle_alpha 90.000000
_cell_angle_beta 143.558956
_cell_angle_gamma 90.000000
_cell_volume 3334.425137
_symmetry_space_group_name_H-M "C 2/C"
_symmetry_group_IT_number 15
_symmetry_cell_setting 'monoclinic'
loop_
_space_group_symop_operation_xyz
x,y,z
-x,y,1/2-z
-x,-y,-z
x,-y,1/2+z
1/2+x,1/2+y,z
1/2-x,1/2+y,1/2-z
1/2-x,1/2-y,-z
1/2+x,1/2-y,1/2+z
loop_
_atom_site_type_symbol
_atom_site_label
_atom_site_fract_x
_atom_site_fract_y
_atom_site_fract_z
Si Si1 0.112093 0.831580 0.174142
Si Si2 0.073338 0.157402 0.108089
Si Si3 0.600806 0.420222 0.922802
Si Si4 0.960755 0.388519 0.361566
Si Si5 0.921052 0.996019 0.251704
Si Si6 0.694262 0.498295 0.671031
Si Si7 0.622813 0.920182 0.650670
Si Si8 0.500000 0.789316 0.250000
O O1 0.100225 0.869229 0.245968
O O2 0.137044 0.701598 0.204545
O O3 0.185875 0.907121 0.224949
O O4 0.025615 0.863410 0.027396
O O5 0.084080 0.288710 0.143348
O O6 0.134226 0.113355 0.113139
O O7 0.102637 0.085208 0.213004
O O8 0.635891 0.474136 0.887693
O O9 0.520245 0.493855 0.851858
O O10 0.572963 0.289504 0.874410
O O11 0.673165 0.434517 0.069722
O O12 0.905708 0.499576 0.314865
O O13 0.055676 0.411482 0.503904
O O14 0.962804 0.364616 0.274545
O O15 0.791019 0.460428 0.784993
#
# Coordination Sequence:
#
# PCOD8129784 Si02
#       8
#     8   8   8   8   8   8   8   4
#     4  10  18  35  52  78 108 146 189 233 278 341
#     4  10  16  32  59  81 110 143 183 240 289 333
#     4  10  16  29  54  91 105 130 188 240 292 316
#     4  10  20  41  57  81 114 154 195 224 295 357
#     4   9  15  28  52  82 104 136 174 235 286 327
#     4  11  20  33  56  87 113 142 192 242 291 325
#     4  10  24  36  55  78 117 156 189 230 275 364
#     4  10  18  36  68  84 112 148 190 254 282 348
#
# _framework density 17.994105999999999
#
# number of rings (size 3 to 8) (size 9 to 14) (size 15 to 20)
#    0.000    2.133    5.333    1.600    1.867    0.000 
#    0.000    5.333    0.000    0.000    0.000    0.000 
#    0.000    0.000    0.000    0.000    0.000    0.000 
#
# Total GULP energy -371765.200181 kJ/mol
# GULP energy per Si atom -12392.173339 kJ/mol
# Density = 1.795315 g / cm^3
# Si number density = 17.994106 Si / 1000 Ang^3
#
#
#
# Elastic Constant Matrix: (Units=GPa)
#
#
# Indices 1 2 3 4 5 6 
#
# 1 104.2124 67.8217 39.5267 0.0000 -5.4610 0.0000
# 2 67.8217 130.8542 28.7380 0.0000 2.9859 0.0000
# 3 39.5267 28.7380 44.8833 0.0000 -1.8981 0.0000
# 4 0.0000 0.0000 0.0000 15.8524 0.0000 -0.8127
# 5 -5.4610 2.9859 -1.8981 0.0000 32.7811 0.0000
# 6 0.0000 0.0000 0.0000 -0.8127 0.0000 31.4320
#
#
#
# Elastic Compliance Matrix: (Units=1/GPa)
#
#
# Indices 1 2 3 4 5 6 
#
# 1 0.019069 -0.007327 -0.011969 0.000000 0.003151 0.000000
# 2 -0.007327 0.011751 -0.001171 0.000000 -0.002359 0.000000
# 3 -0.011969 -0.001171 0.033572 0.000000 0.000057 0.000000
# 4 0.000000 0.000000 0.000000 0.063166 0.000000 0.001633
# 5 0.003151 -0.002359 0.000057 0.000000 0.031248 0.000000
# 6 0.000000 0.000000 0.000000 0.001633 0.000000 0.031857
#
#
# Mechanical properties :
#
#
# Convention : Reuss Voigt Hill
#
# Bulk Modulus (GPa) = 42.62769 61.34698 51.98733
# Shear Modulus (GPa) = 20.88426 25.60402 23.24414
#
# Velocity S-wave (km/s) = 3.41048 3.77624 3.59801
# Velocity P-wave (km/s) = 6.26496 7.29247 6.79816
#
# Compressibility (1/GPa) = 0.02345893
#
# Stress axis : x y z
#
# Youngs Moduli (GPa) = 52.44204 85.10252 29.78640
#
# Poissons Ratio (x) = 0.62352 0.35650
# Poissons Ratio (y) = 0.38423 0.03488
# Poissons Ratio (z) = 0.62765 0.09967
#
# Static dielectric constant tensor:
#      x y z
#    x 3.539370 0.000000 -0.314130 
#    y 0.000000 3.477190 0.000000 
#    z -0.314130 0.000000 3.143880 
# 
# 
# High freq. dielectric constant tensor:
#      x y z
#    x 1.694330 0.000000 -0.014840 
#    y 0.000000 1.693890 0.000000 
#    z -0.014840 0.000000 1.663160 
# 
# From -- ./inp_files/222322.got.cif
#   From: 2010.06.25/outbox.cif.g09.slc.cpg/sg15_112_cif.got.tgz:222322.got - 2010.06.28 07:06:18.
