data_PCOD8129629
_publ_section_title
;
Structure prediction by ZEFSAII (Michael W. Deem and Ramdas Pophale) SiO2 
 PCOD8129629
Probable space group: C 2/C
;
_chemical_formula_sum "Si O2"
_cell_formula_units_Z 60
_cell_length_a 8.749462
_cell_length_b 15.819264
_cell_length_c 26.037065
_cell_angle_alpha 90.000000
_cell_angle_beta 119.773003
_cell_angle_gamma 90.000000
_cell_volume 3128.089264
_symmetry_space_group_name_H-M "C 2/C"
_symmetry_group_IT_number 15
_symmetry_cell_setting 'monoclinic'
loop_
_space_group_symop_operation_xyz
x,y,z
-x,y,1/2-z
-x,-y,-z
x,-y,1/2+z
1/2+x,1/2+y,z
1/2-x,1/2+y,1/2-z
1/2-x,1/2-y,-z
1/2+x,1/2-y,1/2+z
loop_
_atom_site_type_symbol
_atom_site_label
_atom_site_fract_x
_atom_site_fract_y
_atom_site_fract_z
Si Si1 0.375593 0.583169 0.051507
Si Si2 0.360124 0.264695 0.619711
Si Si3 0.887100 0.422414 0.083850
Si Si4 0.884414 0.337625 0.847694
Si Si5 0.751846 0.009118 0.627095
Si Si6 0.500000 0.498358 0.250000
Si Si7 0.188448 0.862648 0.716868
Si Si8 0.776885 0.582161 0.121653
O O1 0.319359 0.674050 0.064756
O O2 0.348950 0.508059 0.088967
O O3 0.578701 0.588072 0.067669
O O4 0.262079 0.561972 0.983092
O O5 0.387850 0.170922 0.605278
O O6 0.188761 0.261939 0.628778
O O7 0.535475 0.295306 0.678472
O O8 0.855391 0.488471 0.124908
O O9 0.075709 0.437558 0.088196
O O10 0.784043 0.418972 0.853068
O O11 0.827206 0.320557 0.779204
O O12 0.095774 0.350297 0.886622
O O13 0.874853 0.057032 0.690640
O O14 0.392350 0.554222 0.272156
O O15 0.289713 0.894791 0.683452
#
# Coordination Sequence:
#
# PCOD8129629 Si02
#       8
#     8   8   8   8   8   4   8   8
#     4  10  19  38  58  76 111 156 189 221 280 347
#     4  10  19  35  56  79 108 148 190 225 281 337
#     4  11  22  34  53  89 115 138 188 244 278 325
#     4   9  17  33  55  79 104 148 189 224 269 352
#     4   9  18  33  59  80 106 145 190 230 276 331
#     4  10  14  34  62  76 102 140 196 220 272 348
#     4  10  16  34  59  75 104 146 186 223 272 347
#     4  10  20  33  55  83 108 141 194 231 280 327
#
# _framework density 19.181037
#
# number of rings (size 3 to 8) (size 9 to 14) (size 15 to 20)
#    0.000    2.133    5.333    1.600    0.000    0.000 
#    0.000   11.333    5.867    0.000    0.000    0.000 
#    0.000    0.000    0.000    0.000    0.000    0.000 
#
# Total GULP energy -371777.839126 kJ/mol
# GULP energy per Si atom -12392.594638 kJ/mol
# Density = 1.913738 g / cm^3
# Si number density = 19.181037 Si / 1000 Ang^3
#
#
#
# Elastic Constant Matrix: (Units=GPa)
#
#
# Indices 1 2 3 4 5 6 
#
# 1 130.3764 36.3479 45.1106 0.0000 10.1002 0.0000
# 2 36.3479 65.7629 23.7357 0.0000 -6.4477 0.0000
# 3 45.1106 23.7357 91.1468 0.0000 15.4606 0.0000
# 4 0.0000 0.0000 0.0000 -11.3884 0.0000 -25.7263
# 5 10.1002 -6.4477 15.4606 0.0000 28.7006 0.0000
# 6 0.0000 0.0000 0.0000 -25.7263 0.0000 -6.4659
#
#
#
# Elastic Compliance Matrix: (Units=1/GPa)
#
#
# Indices 1 2 3 4 5 6 
#
# 1 0.010417 -0.004813 -0.003408 0.000000 -0.002911 0.000000
# 2 -0.004813 0.020282 -0.004358 0.000000 0.008598 0.000000
# 3 -0.003408 -0.004358 0.015139 0.000000 -0.007935 0.000000
# 4 0.000000 0.000000 0.000000 0.010993 0.000000 -0.043737
# 5 -0.002911 0.008598 -0.007935 0.000000 0.042073 0.000000
# 6 0.000000 0.000000 0.000000 -0.043737 0.000000 0.019361
#
#
# Mechanical properties :
#
#
# Convention : Reuss Voigt Hill
#
# Bulk Modulus (GPa) = 48.35747 55.29718 51.82732
# Shear Modulus (GPa) = 33.26326 14.30872 23.78599
#
# Velocity S-wave (km/s) = 4.16886 2.73423 3.52529
# Velocity P-wave (km/s) = 6.95977 6.23375 6.60674
#
# Compressibility (1/GPa) = 0.02067933
#
# Stress axis : x y z
#
# Youngs Moduli (GPa) = 96.00031 49.30460 66.05422
#
# Poissons Ratio (x) = 0.23728 0.22514
# Poissons Ratio (y) = 0.46201 0.28788
# Poissons Ratio (z) = 0.32721 0.21488
#
# Static dielectric constant tensor:
#      x y z
#    x 3.800640 0.000000 0.066280 
#    y 0.000000 3.034910 0.000000 
#    z 0.066280 0.000000 3.746770 
# 
# 
# High freq. dielectric constant tensor:
#      x y z
#    x 1.759190 0.000000 0.001900 
#    y 0.000000 1.693480 0.000000 
#    z 0.001900 0.000000 1.750340 
# 
# From -- ./inp_files/289433.got.cif
#   From: 2010.06.25/outbox.cif.g09.slc.cpg/sg15_145_cif.got.tgz:289433.got - 2010.06.28 07:06:18.
