data_PCOD8129747
_publ_section_title
;
Structure prediction by ZEFSAII (Michael W. Deem and Ramdas Pophale) SiO2 
 PCOD8129747
Probable space group: C 2/C
;
_chemical_formula_sum "Si O2"
_cell_formula_units_Z 52
_cell_length_a 10.354479
_cell_length_b 22.452383
_cell_length_c 12.212057
_cell_angle_alpha 90.000000
_cell_angle_beta 79.867838
_cell_angle_gamma 90.000000
_cell_volume 2794.815508
_symmetry_space_group_name_H-M "C 2/C"
_symmetry_group_IT_number 15
_symmetry_cell_setting 'monoclinic'
loop_
_space_group_symop_operation_xyz
x,y,z
-x,y,1/2-z
-x,-y,-z
x,-y,1/2+z
1/2+x,1/2+y,z
1/2-x,1/2+y,1/2-z
1/2-x,1/2-y,-z
1/2+x,1/2-y,1/2+z
loop_
_atom_site_type_symbol
_atom_site_label
_atom_site_fract_x
_atom_site_fract_y
_atom_site_fract_z
Si Si1 0.359629 0.939916 0.586112
Si Si2 0.700128 0.772022 0.754446
Si Si3 0.918673 0.693785 0.651306
Si Si4 0.543581 0.061586 0.863200
Si Si5 0.394490 0.732761 0.514686
Si Si6 0.000000 0.365342 0.750000
Si Si7 0.615236 0.360945 0.651472
O O1 0.413014 0.930999 0.455955
O O2 0.457932 0.905957 0.654286
O O3 0.211001 0.916610 0.615160
O O4 0.358172 0.010599 0.608888
O O5 0.777762 0.726364 0.665957
O O6 0.619223 0.821209 0.697365
O O7 0.811294 0.806500 0.804324
O O8 0.605459 0.734796 0.852370
O O9 0.000000 0.706890 0.750000
O O10 0.882096 0.624421 0.647495
O O11 0.005557 0.715646 0.537007
O O12 0.500000 0.042148 0.750000
O O13 0.250000 0.750000 0.500000
O O14 0.435630 0.667967 0.456887
O O15 0.500000 0.382963 0.750000
#
# Coordination Sequence:
#
# PCOD8129747 Si02
#       7
#     8   8   8   8   8   4   8
#     4  10  21  37  56  81 106 143 183 219 271 314
#     4  10  19  30  50  75 114 137 173 213 268 323
#     4  11  17  29  51  81 103 133 176 226 266 303
#     4  10  21  35  56  82 105 139 183 231 261 305
#     4  10  16  28  47  80 107 131 168 224 265 310
#     4  10  20  36  52  78 114 152 166 214 266 342
#     4  10  17  31  55  81 104 135 178 230 265 315
#
# _framework density 18.605879000000002
#
# number of rings (size 3 to 8) (size 9 to 14) (size 15 to 20)
#    0.000    1.846    5.385    2.769    2.154    0.000 
#    0.000    3.077    1.692    0.923    0.000    0.000 
#    0.000    0.000    0.000    0.000    0.000    0.000 
#
# Total GULP energy -322218.939802 kJ/mol
# GULP energy per Si atom -12393.036146 kJ/mol
# Density = 1.856353 g / cm^3
# Si number density = 18.605879 Si / 1000 Ang^3
#
#
#
# Elastic Constant Matrix: (Units=GPa)
#
#
# Indices 1 2 3 4 5 6 
#
# 1 40.8540 34.5476 29.2108 0.0000 -12.2735 0.0000
# 2 34.5476 97.5197 24.7685 0.0000 -20.4556 0.0000
# 3 29.2108 24.7685 101.3117 0.0000 -21.3078 0.0000
# 4 0.0000 0.0000 0.0000 21.6583 0.0000 -9.6071
# 5 -12.2735 -20.4556 -21.3078 0.0000 25.5641 0.0000
# 6 0.0000 0.0000 0.0000 -9.6071 0.0000 24.2757
#
#
#
# Elastic Compliance Matrix: (Units=1/GPa)
#
#
# Indices 1 2 3 4 5 6 
#
# 1 0.041514 -0.011856 -0.008336 0.000000 0.003496 0.000000
# 2 -0.011856 0.015818 0.001232 0.000000 0.007992 0.000000
# 3 -0.008336 0.001232 0.013748 0.000000 0.008443 0.000000
# 4 0.000000 0.000000 0.000000 0.056003 0.000000 0.022163
# 5 0.003496 0.007992 0.008443 0.000000 0.054228 0.000000
# 6 0.000000 0.000000 0.000000 0.022163 0.000000 0.049965
#
#
# Mechanical properties :
#
#
# Convention : Reuss Voigt Hill
#
# Bulk Modulus (GPa) = 30.15601 46.30434 38.23018
# Shear Modulus (GPa) = 17.84126 24.37684 21.10905
#
# Velocity S-wave (km/s) = 3.09998 3.62355 3.37194
# Velocity P-wave (km/s) = 5.39037 6.51520 5.97929
#
# Compressibility (1/GPa) = 0.03316089
#
# Stress axis : x y z
#
# Youngs Moduli (GPa) = 24.08831 63.21908 72.73543
#
# Poissons Ratio (x) = 0.74955 0.60629
# Poissons Ratio (y) = 0.28560 -0.08962
# Poissons Ratio (z) = 0.20079 -0.07790
#
# Static dielectric constant tensor:
#      x y z
#    x 3.154980 0.000000 -0.046340 
#    y 0.000000 3.461040 0.000000 
#    z -0.046340 0.000000 3.912240 
# 
# 
# High freq. dielectric constant tensor:
#      x y z
#    x 1.679420 0.000000 -0.012090 
#    y 0.000000 1.716820 0.000000 
#    z -0.012090 0.000000 1.729340 
# 
# From -- ./inp_files/146639.got.cif
#   From: 2010.06.25/outbox.cif.g09.slc.cpg/sg15_74_cif.got.tgz:146639.got - 2010.06.28 07:06:18.
