data_PCOD8129423
_publ_section_title
;
Structure prediction by ZEFSAII (Michael W. Deem and Ramdas Pophale) SiO2 
 PCOD8129423
Probable space group: P 21/C
;
_chemical_formula_sum "Si O2"
_cell_formula_units_Z 28
_cell_length_a 31.023675
_cell_length_b 7.968050
_cell_length_c 31.412637
_cell_angle_alpha 90.000000
_cell_angle_beta 170.966926
_cell_angle_gamma 90.000000
_cell_volume 1219.163680
_symmetry_space_group_name_H-M "P 21/C"
_symmetry_group_IT_number 14
_symmetry_cell_setting 'monoclinic'
loop_
_space_group_symop_operation_xyz
x,y,z
-x,1/2+y,1/2-z
-x,-y,-z
x,1/2-y,1/2+z
loop_
_atom_site_type_symbol
_atom_site_label
_atom_site_fract_x
_atom_site_fract_y
_atom_site_fract_z
Si Si1 0.643537 0.808884 0.418380
Si Si2 0.193306 0.808736 0.418402
Si Si3 0.753711 0.878218 0.253697
Si Si4 0.021638 0.185960 0.106079
Si Si5 0.273018 0.810937 0.904792
Si Si6 0.536240 0.810768 0.904409
Si Si7 0.190078 0.185992 0.105683
O O1 0.494623 0.732061 0.314373
O O2 0.914035 0.700281 0.672811
O O3 0.719220 0.000072 0.499908
O O4 0.431636 0.799976 0.172785
O O5 0.134246 0.732122 0.314406
O O6 0.718969 0.758793 0.260315
O O7 0.801626 0.758919 0.260233
O O8 0.000000 0.000000 0.500000
O O9 0.500000 0.000000 0.000000
O O10 0.229075 0.186036 0.348490
O O11 0.923969 0.000063 0.999907
O O12 0.753239 0.295904 0.853950
O O13 0.532939 0.686490 0.152373
O O14 0.372764 0.000167 0.999812
O O15 0.046344 0.795802 0.646899
#
# Coordination Sequence:
#
# PCOD8129423 Si02
#       7
#     4   4   4   4   4   4   4
#     4  12  25  44  67  97 133 174 220 272 328 390
#     4  12  25  44  67  97 133 174 220 272 328 390
#     4  12  25  44  69  98 133 174 219 270 329 394
#     4  12  25  44  68  99 133 172 219 273 329 390
#     4  12  25  44  68  97 132 175 220 270 328 393
#     4  12  25  44  68  97 132 175 220 270 328 393
#     4  12  25  44  68  99 133 172 219 273 329 390
#
# _framework density 22.966562
#
# number of rings (size 3 to 8) (size 9 to 14) (size 15 to 20)
#    0.000    0.000    0.000   12.429    0.000    0.000 
#    0.000    4.286    0.000    0.000    0.000    0.000 
#    0.000    0.000    0.000    0.000    0.000    0.000 
#
# Total GULP energy -347453.443713 kJ/mol
# GULP energy per Si atom -12409.051561 kJ/mol
# Density = 2.291429 g / cm^3
# Si number density = 22.966562 Si / 1000 Ang^3
#
#
#
# Elastic Constant Matrix: (Units=GPa)
#
#
# Indices 1 2 3 4 5 6 
#
# 1 130.2156 63.9552 48.7622 0.0000 -0.9496 0.0000
# 2 63.9552 107.7054 35.2151 0.0000 -1.1609 0.0000
# 3 48.7622 35.2151 137.7618 0.0000 1.6089 0.0000
# 4 0.0000 0.0000 0.0000 43.3779 0.0000 0.3363
# 5 -0.9496 -1.1609 1.6089 0.0000 28.3630 0.0000
# 6 0.0000 0.0000 0.0000 0.3363 0.0000 35.7471
#
#
#
# Elastic Compliance Matrix: (Units=1/GPa)
#
#
# Indices 1 2 3 4 5 6 
#
# 1 0.011617 -0.006056 -0.002567 0.000000 0.000287 0.000000
# 2 -0.006056 0.013297 -0.001260 0.000000 0.000413 0.000000
# 3 -0.002567 -0.001260 0.008497 0.000000 -0.000620 0.000000
# 4 0.000000 0.000000 0.000000 0.023055 0.000000 -0.000217
# 5 0.000287 0.000413 -0.000620 0.000000 0.035319 0.000000
# 6 0.000000 0.000000 0.000000 -0.000217 0.000000 0.027976
#
#
# Mechanical properties :
#
#
# Convention : Reuss Voigt Hill
#
# Bulk Modulus (GPa) = 73.29059 74.61644 73.95351
# Shear Modulus (GPa) = 34.70364 36.68094 35.69229
#
# Velocity S-wave (km/s) = 3.89144 4.00077 3.94648
# Velocity P-wave (km/s) = 7.22303 7.34174 7.28263
#
# Compressibility (1/GPa) = 0.01364432
#
# Stress axis : x y z
#
# Youngs Moduli (GPa) = 86.07759 75.20457 117.68747
#
# Poissons Ratio (x) = 0.45543 0.30216
# Poissons Ratio (y) = 0.52127 0.14832
# Poissons Ratio (z) = 0.22100 0.09478
#
# Static dielectric constant tensor:
#      x y z
#    x 3.503460 0.000000 0.040090 
#    y 0.000000 4.097970 0.000000 
#    z 0.040090 0.000000 4.309800 
# 
# 
# High freq. dielectric constant tensor:
#      x y z
#    x 1.918350 0.000000 0.000280 
#    y 0.000000 1.920170 0.000000 
#    z 0.000280 0.000000 1.924180 
# 
# From -- ./inp_files/80905.got.cif
#   From: 2010.03.12/outbox.cif.g09.slc.cpg/sg14_41_cif.got.tgz:80905.got - 2010.03.31 13:35:05.
