data_PCOD8129357
_publ_section_title
;
Structure prediction by ZEFSAII (Michael W. Deem and Ramdas Pophale) SiO2 
 PCOD8129357
Probable space group: P 21/C
;
_chemical_formula_sum "Si O2"
_cell_formula_units_Z 24
_cell_length_a 8.479090
_cell_length_b 16.345599
_cell_length_c 8.646571
_cell_angle_alpha 90.000000
_cell_angle_beta 88.384996
_cell_angle_gamma 90.000000
_cell_volume 1197.902435
_symmetry_space_group_name_H-M "P 21/C"
_symmetry_group_IT_number 14
_symmetry_cell_setting 'monoclinic'
loop_
_space_group_symop_operation_xyz
x,y,z
-x,1/2+y,1/2-z
-x,-y,-z
x,1/2-y,1/2+z
loop_
_atom_site_type_symbol
_atom_site_label
_atom_site_fract_x
_atom_site_fract_y
_atom_site_fract_z
Si Si1 0.459162 0.419836 0.905256
Si Si2 0.337255 0.487297 0.595087
Si Si3 0.180917 0.342182 0.440305
Si Si4 0.817474 0.157101 0.922511
Si Si5 0.340850 0.797699 0.769479
Si Si6 0.656535 0.715276 0.867697
O O1 0.359898 0.442799 0.757379
O O2 0.616906 0.372452 0.846517
O O3 0.500000 0.500000 0.000000
O O4 0.355561 0.359441 0.012600
O O5 0.500000 0.500000 0.500000
O O6 0.220828 0.433368 0.494284
O O7 0.254223 0.572483 0.634593
O O8 0.208743 0.276917 0.576361
O O9 0.298999 0.319825 0.299253
O O10 0.002935 0.340461 0.386553
O O11 0.737372 0.227094 0.826007
O O12 0.784642 0.168282 0.104793
O O13 0.493687 0.765244 0.857575
#
# Coordination Sequence:
#
# PCOD8129357 Si02
#       6
#     4   4   4   4   4   4
#     4  12  24  40  69 100 125 166 232 277 312 382
#     4  12  23  44  68  97 130 179 225 271 323 403
#     4  12  24  43  65  99 137 176 213 282 340 381
#     4  12  26  41  66 100 136 166 220 281 339 386
#     4  12  22  43  68  95 127 175 226 269 317 406
#     4  12  22  44  69  94 129 179 227 264 322 409
#
# _framework density 20.035021
#
# number of rings (size 3 to 8) (size 9 to 14) (size 15 to 20)
#    0.000    0.000    6.667    4.500    0.000    0.000 
#    0.000    0.833    0.000    0.000    0.000    0.000 
#    0.000    0.000    0.000    0.000    0.000    0.000 
#
# Total GULP energy -297777.208307 kJ/mol
# GULP energy per Si atom -12407.383679 kJ/mol
# Density = 1.998942 g / cm^3
# Si number density = 20.035021 Si / 1000 Ang^3
#
#
#
# Elastic Constant Matrix: (Units=GPa)
#
#
# Indices 1 2 3 4 5 6 
#
# 1 91.4562 37.0206 12.1218 0.0000 8.3064 0.0000
# 2 37.0206 138.8013 35.4948 0.0000 8.8536 0.0000
# 3 12.1218 35.4948 87.7681 0.0000 3.2634 0.0000
# 4 0.0000 0.0000 0.0000 48.3957 0.0000 7.3244
# 5 8.3064 8.8536 3.2634 0.0000 27.3325 0.0000
# 6 0.0000 0.0000 0.0000 7.3244 0.0000 32.2745
#
#
#
# Elastic Compliance Matrix: (Units=1/GPa)
#
#
# Indices 1 2 3 4 5 6 
#
# 1 0.012471 -0.003052 -0.000386 0.000000 -0.002755 0.000000
# 2 -0.003052 0.008919 -0.003127 0.000000 -0.001588 0.000000
# 3 -0.000386 -0.003127 0.012726 0.000000 -0.000389 0.000000
# 4 0.000000 0.000000 0.000000 0.021398 0.000000 -0.004856
# 5 -0.002755 -0.001588 -0.000389 0.000000 0.037985 0.000000
# 6 0.000000 0.000000 0.000000 -0.004856 0.000000 0.032086
#
#
# Mechanical properties :
#
#
# Convention : Reuss Voigt Hill
#
# Bulk Modulus (GPa) = 47.64651 54.14446 50.89548
# Shear Modulus (GPa) = 34.31487 37.15976 35.73732
#
# Velocity S-wave (km/s) = 4.14302 4.31134 4.22802
# Velocity P-wave (km/s) = 6.83516 7.20188 7.02092
#
# Compressibility (1/GPa) = 0.02098790
#
# Stress axis : x y z
#
# Youngs Moduli (GPa) = 80.18651 112.11546 78.58015
#
# Poissons Ratio (x) = 0.34216 0.03031
# Poissons Ratio (y) = 0.24471 0.24569
# Poissons Ratio (z) = 0.03093 0.35054
#
# Static dielectric constant tensor:
#      x y z
#    x 3.504580 0.000000 -0.008770 
#    y 0.000000 3.989170 0.000000 
#    z -0.008770 0.000000 3.856380 
# 
# 
# High freq. dielectric constant tensor:
#      x y z
#    x 1.765890 0.000000 0.002780 
#    y 0.000000 1.805080 0.000000 
#    z 0.002780 0.000000 1.797210 
# 
# From -- ./inp_files/8403.got.cif
#   From: 2010.03.12/outbox.cif.g09.slc.cpg/sg14_5_cif.got.tgz:8403.got - 2010.03.31 13:35:05.
