data_PCOD8129707
_publ_section_title
;
Structure prediction by ZEFSAII (Michael W. Deem and Ramdas Pophale) SiO2 
 PCOD8129707
Probable space group: C 2/C
;
_chemical_formula_sum "Si O2"
_cell_formula_units_Z 60
_cell_length_a 20.824627
_cell_length_b 25.247429
_cell_length_c 15.103649
_cell_angle_alpha 90.000000
_cell_angle_beta 149.560232
_cell_angle_gamma 90.000000
_cell_volume 4023.177074
_symmetry_space_group_name_H-M "C 2/C"
_symmetry_group_IT_number 15
_symmetry_cell_setting 'monoclinic'
loop_
_space_group_symop_operation_xyz
x,y,z
-x,y,1/2-z
-x,-y,-z
x,-y,1/2+z
1/2+x,1/2+y,z
1/2-x,1/2+y,1/2-z
1/2-x,1/2-y,-z
1/2+x,1/2-y,1/2+z
loop_
_atom_site_type_symbol
_atom_site_label
_atom_site_fract_x
_atom_site_fract_y
_atom_site_fract_z
Si Si1 0.866175 0.728987 0.543357
Si Si2 0.954043 0.636780 0.542227
Si Si3 0.500000 0.951643 0.750000
Si Si4 0.187455 0.461007 0.543175
Si Si5 0.355181 0.438092 0.573453
Si Si6 0.978375 0.575241 0.408567
Si Si7 0.263861 0.169493 0.582333
Si Si8 0.697991 0.987201 0.233444
O O1 0.888335 0.692878 0.483317
O O2 0.792035 0.782096 0.424383
O O3 0.776253 0.694121 0.499445
O O4 0.000000 0.742380 0.750000
O O5 0.904116 0.590020 0.548384
O O6 0.923315 0.622534 0.403618
O O7 0.104580 0.643459 0.731539
O O8 0.537422 0.911874 0.714351
O O9 0.390050 0.989093 0.583620
O O10 0.290992 0.449155 0.592055
O O11 0.251749 0.478831 0.713296
O O12 0.500000 0.454450 0.750000
O O13 0.341573 0.375807 0.539416
O O14 0.305194 0.471458 0.430445
O O15 0.902773 0.520941 0.331211
O O16 0.124524 0.565092 0.611164
#
# Coordination Sequence:
#
# PCOD8129707 Si02
#       8
#     8   8   4   8   8   8   8   8
#     4   9  18  28  43  63  90 122 149 188 221 274
#     4  10  17  29  50  65  91 122 149 192 232 269
#     4  10  16  26  50  72  94 108 148 206 230 262
#     4  10  19  30  46  68  94 125 153 190 234 262
#     4  12  21  30  45  63  96 136 157 180 225 282
#     4   9  16  27  48  71  91 112 150 200 234 261
#     4  10  18  29  42  66  91 116 159 181 224 267
#     4   9  18  30  43  68  94 118 160 191 222 274
#
# _framework density 14.913586
#
# number of rings (size 3 to 8) (size 9 to 14) (size 15 to 20)
#    0.000    2.133    4.000    2.000    0.933    0.533 
#    0.000    0.000    0.000    0.000    0.000    0.933 
#    0.000    0.000    0.000    0.000    0.000    0.000 
#
# Total GULP energy -371684.988015 kJ/mol
# GULP energy per Si atom -12389.499601 kJ/mol
# Density = 1.487964 g / cm^3
# Si number density = 14.913586 Si / 1000 Ang^3
#
#
#
# Elastic Constant Matrix: (Units=GPa)
#
#
# Indices 1 2 3 4 5 6 
#
# 1 102.8542 44.4378 46.0871 0.0000 -17.1272 0.0000
# 2 44.4378 70.2457 36.2767 0.0000 -4.2054 0.0000
# 3 46.0871 36.2767 78.8466 0.0000 -2.5176 0.0000
# 4 0.0000 0.0000 0.0000 13.7797 0.0000 2.4238
# 5 -17.1272 -4.2054 -2.5176 0.0000 22.4904 0.0000
# 6 0.0000 0.0000 0.0000 2.4238 0.0000 23.0269
#
#
#
# Elastic Compliance Matrix: (Units=1/GPa)
#
#
# Indices 1 2 3 4 5 6 
#
# 1 0.017669 -0.007017 -0.006735 0.000000 0.011389 0.000000
# 2 -0.007017 0.021605 -0.005901 0.000000 -0.001965 0.000000
# 3 -0.006735 -0.005901 0.019205 0.000000 -0.004083 0.000000
# 4 0.000000 0.000000 0.000000 0.073939 0.000000 -0.007783
# 5 0.011389 -0.001965 -0.004083 0.000000 0.052312 0.000000
# 6 0.000000 0.000000 0.000000 -0.007783 0.000000 0.044247
#
#
# Mechanical properties :
#
#
# Convention : Reuss Voigt Hill
#
# Bulk Modulus (GPa) = 52.16389 56.17218 54.16803
# Shear Modulus (GPa) = 18.20336 20.20241 19.20289
#
# Velocity S-wave (km/s) = 3.49748 3.68452 3.59222
# Velocity P-wave (km/s) = 7.16681 7.47314 7.32158
#
# Compressibility (1/GPa) = 0.01917035
#
# Stress axis : x y z
#
# Youngs Moduli (GPa) = 56.59690 46.28601 52.07078
#
# Poissons Ratio (x) = 0.32480 0.35072
# Poissons Ratio (y) = 0.39715 0.30729
# Poissons Ratio (z) = 0.38121 0.27315
#
# Static dielectric constant tensor:
#      x y z
#    x 3.074590 0.000000 -0.083560 
#    y 0.000000 2.905500 0.000000 
#    z -0.083560 0.000000 2.693940 
# 
# 
# High freq. dielectric constant tensor:
#      x y z
#    x 1.571370 0.000000 0.001460 
#    y 0.000000 1.555560 0.000000 
#    z 0.001460 0.000000 1.539380 
# 
# From -- ./inp_files/100861.got.cif
#   From: 2010.06.25/outbox.cif.g09.slc.cpg/sg15_51_cif.got.tgz:100861.got - 2010.06.28 07:06:18.
