data_PCOD8129396
_publ_section_title
;
Structure prediction by ZEFSAII (Michael W. Deem and Ramdas Pophale) SiO2 
 PCOD8129396
Probable space group: P 21/C
;
_chemical_formula_sum "Si O2"
_cell_formula_units_Z 24
_cell_length_a 8.359668
_cell_length_b 15.391914
_cell_length_c 7.902085
_cell_angle_alpha 90.000000
_cell_angle_beta 99.770429
_cell_angle_gamma 90.000000
_cell_volume 1002.023832
_symmetry_space_group_name_H-M "P 21/C"
_symmetry_group_IT_number 14
_symmetry_cell_setting 'monoclinic'
loop_
_space_group_symop_operation_xyz
x,y,z
-x,1/2+y,1/2-z
-x,-y,-z
x,1/2-y,1/2+z
loop_
_atom_site_type_symbol
_atom_site_label
_atom_site_fract_x
_atom_site_fract_y
_atom_site_fract_z
Si Si1 0.893223 0.926111 0.555733
Si Si2 0.102149 0.789757 0.780249
Si Si3 0.215165 0.188025 0.739278
Si Si4 0.396435 0.005798 0.308613
Si Si5 0.314849 0.670333 0.604537
Si Si6 0.597057 0.666760 0.411520
O O1 0.766837 0.889141 0.393567
O O2 0.787038 0.963473 0.688955
O O3 0.016716 0.852726 0.634562
O O4 0.000000 0.000000 0.500000
O O5 0.262862 0.745155 0.727462
O O6 0.971713 0.717091 0.808128
O O7 0.157801 0.844737 0.955417
O O8 0.344474 0.264131 0.718584
O O9 0.250807 0.151260 0.933238
O O10 0.465852 0.078343 0.191071
O O11 0.500000 0.000000 0.500000
O O12 0.384149 0.913630 0.213238
O O13 0.455552 0.704726 0.505273
#
# Coordination Sequence:
#
# PCOD8129396 Si02
#       6
#     4   4   4   4   4   4
#     4  12  27  46  76 107 156 193 248 311 376 444
#     4  12  25  48  73 113 149 196 249 309 377 445
#     4  12  23  49  74 110 145 202 247 300 377 454
#     4  12  29  51  73 111 152 202 251 311 376 442
#     4  12  28  45  76 111 153 190 258 312 369 447
#     4  12  25  47  76 106 151 200 249 305 372 447
#
# _framework density 23.951523999999999
#
# number of rings (size 3 to 8) (size 9 to 14) (size 15 to 20)
#    0.000    0.000    5.000    3.500    4.667    2.000 
#    0.000    0.000    0.000    0.000    0.000    0.000 
#    0.000    0.000    0.000    0.000    0.000    0.000 
#
# Total GULP energy -297576.114771 kJ/mol
# GULP energy per Si atom -12399.004782 kJ/mol
# Density = 2.389701 g / cm^3
# Si number density = 23.951524 Si / 1000 Ang^3
#
#
#
# Elastic Constant Matrix: (Units=GPa)
#
#
# Indices 1 2 3 4 5 6 
#
# 1 107.4755 21.7634 27.1578 0.0000 -13.8384 0.0000
# 2 21.7634 94.3066 54.2963 0.0000 5.0361 0.0000
# 3 27.1578 54.2963 166.2440 0.0000 26.7886 0.0000
# 4 0.0000 0.0000 0.0000 50.9828 0.0000 -0.3825
# 5 -13.8384 5.0361 26.7886 0.0000 47.8366 0.0000
# 6 0.0000 0.0000 0.0000 -0.3825 0.0000 28.6124
#
#
#
# Elastic Compliance Matrix: (Units=1/GPa)
#
#
# Indices 1 2 3 4 5 6 
#
# 1 0.010669 -0.001586 -0.001922 0.000000 0.004330 0.000000
# 2 -0.001586 0.013350 -0.004177 0.000000 0.000475 0.000000
# 3 -0.001922 -0.004177 0.008477 0.000000 -0.004864 0.000000
# 4 0.000000 0.000000 0.000000 0.019616 0.000000 0.000262
# 5 0.004330 0.000475 -0.004864 0.000000 0.024831 0.000000
# 6 0.000000 0.000000 0.000000 0.000262 0.000000 0.034953
#
#
# Mechanical properties :
#
#
# Convention : Reuss Voigt Hill
#
# Bulk Modulus (GPa) = 58.40019 63.82899 61.11459
# Shear Modulus (GPa) = 37.60044 43.14026 40.37035
#
# Velocity S-wave (km/s) = 3.96644 4.24860 4.10994
# Velocity P-wave (km/s) = 6.73888 7.12563 6.93495
#
# Compressibility (1/GPa) = 0.01712323
#
# Stress axis : x y z
#
# Youngs Moduli (GPa) = 93.72938 74.90868 117.96033
#
# Poissons Ratio (x) = 0.11884 0.22678
# Poissons Ratio (y) = 0.14870 0.49277
# Poissons Ratio (z) = 0.18019 0.31293
#
# Static dielectric constant tensor:
#      x y z
#    x 4.356490 0.000000 0.071410 
#    y 0.000000 4.046700 0.000000 
#    z 0.071410 0.000000 4.447120 
# 
# 
# High freq. dielectric constant tensor:
#      x y z
#    x 1.960160 0.000000 0.002690 
#    y 0.000000 1.932600 0.000000 
#    z 0.002690 0.000000 1.977490 
# 
# From -- ./inp_files/8604.got.cif
#   From: 2010.03.12/outbox.cif.g09.slc.cpg/sg14_5_cif.got.tgz:8604.got - 2010.03.31 13:35:05.
