data_PCOD8129882
_publ_section_title
;
Structure prediction by ZEFSAII (Michael W. Deem and Ramdas Pophale) SiO2 
 PCOD8129882
Probable space group: C 2/C
;
_chemical_formula_sum "Si O2"
_cell_formula_units_Z 52
_cell_length_a 14.402801
_cell_length_b 18.293780
_cell_length_c 30.112913
_cell_angle_alpha 90.000000
_cell_angle_beta 159.963534
_cell_angle_gamma 90.000000
_cell_volume 2718.401108
_symmetry_space_group_name_H-M "C 2/C"
_symmetry_group_IT_number 15
_symmetry_cell_setting 'monoclinic'
loop_
_space_group_symop_operation_xyz
x,y,z
-x,y,1/2-z
-x,-y,-z
x,-y,1/2+z
1/2+x,1/2+y,z
1/2-x,1/2+y,1/2-z
1/2-x,1/2-y,-z
1/2+x,1/2-y,1/2+z
loop_
_atom_site_type_symbol
_atom_site_label
_atom_site_fract_x
_atom_site_fract_y
_atom_site_fract_z
Si Si1 0.000000 0.574144 0.250000
Si Si2 0.425815 0.444483 0.626055
Si Si3 0.451979 0.450729 0.537351
Si Si4 0.802889 0.170999 0.902229
Si Si5 0.998931 0.426432 0.575708
Si Si6 0.766944 0.607791 0.059968
Si Si7 0.717951 0.167079 0.098933
O O1 0.264786 0.524632 0.358988
O O2 0.045593 0.627324 0.313167
O O3 0.507098 0.424900 0.612399
O O4 0.704839 0.460638 0.778870
O O5 0.261819 0.376106 0.572689
O O6 0.225261 0.513425 0.536982
O O7 0.330640 0.382852 0.456217
O O8 0.252986 0.519240 0.447361
O O9 0.500000 0.169798 0.750000
O O10 0.894398 0.251441 0.960291
O O11 0.981575 0.148100 0.939333
O O12 0.011755 0.376514 0.537935
O O13 0.897855 0.374092 0.571097
O O14 0.000000 0.175150 0.250000
#
# Coordination Sequence:
#
# PCOD8129882 Si02
#       7
#     4   8   8   8   8   8   8
#     4  10  16  32  44  72 110 134 168 210 276 312
#     4  10  20  37  60  85 111 144 188 232 280 327
#     4  10  21  30  55  80 107 143 177 230 271 332
#     4  10  21  35  54  82 112 149 186 222 280 336
#     4  10  20  37  60  85 111 144 188 232 280 327
#     4  10  21  30  55  80 107 143 177 230 271 332
#     4   9  20  38  58  78 112 151 185 229 276 329
#
# _framework density 19.128892
#
# number of rings (size 3 to 8) (size 9 to 14) (size 15 to 20)
#    0.000    2.154    1.538    2.308    4.308    2.462 
#    0.000    0.000   13.538    0.000    0.000    0.000 
#    0.000    0.000    0.000    0.000    0.000    0.000 
#
# Total GULP energy -322236.712832 kJ/mol
# GULP energy per Si atom -12393.719724 kJ/mol
# Density = 1.908535 g / cm^3
# Si number density = 19.128892 Si / 1000 Ang^3
#
#
#
# Elastic Constant Matrix: (Units=GPa)
#
#
# Indices 1 2 3 4 5 6 
#
# 1 109.1411 34.1609 16.0913 -0.1595 5.8434 -0.0553
# 2 34.1609 87.0583 25.5858 -0.0007 4.2736 -0.0094
# 3 16.0913 25.5858 77.6598 -0.1665 8.6894 -0.0224
# 4 -0.1595 -0.0007 -0.1665 16.3783 0.1107 -1.8313
# 5 5.8434 4.2736 8.6894 0.1107 26.7128 0.0173
# 6 -0.0553 -0.0094 -0.0224 -1.8313 0.0173 15.6265
#
#
#
# Elastic Compliance Matrix: (Units=1/GPa)
#
#
# Indices 1 2 3 4 5 6 
#
# 1 0.010556 -0.003849 -0.000757 0.000110 -0.001448 0.000048
# 2 -0.003849 0.014134 -0.003840 -0.000077 -0.000170 -0.000020
# 3 -0.000757 -0.003840 0.014749 0.000174 -0.004018 0.000041
# 4 0.000110 -0.000077 0.000174 0.061872 -0.000330 0.007252
# 5 -0.001448 -0.000170 -0.004018 -0.000330 0.039088 -0.000093
# 6 0.000048 -0.000020 0.000041 0.007252 -0.000093 0.064844
#
#
# Mechanical properties :
#
#
# Convention : Reuss Voigt Hill
#
# Bulk Modulus (GPa) = 44.35204 47.28169 45.81687
# Shear Modulus (GPa) = 21.77221 24.94492 23.35857
#
# Velocity S-wave (km/s) = 3.37736 3.61507 3.49824
# Velocity P-wave (km/s) = 6.20040 6.49585 6.34984
#
# Compressibility (1/GPa) = 0.02254688
#
# Stress axis : x y z
#
# Youngs Moduli (GPa) = 94.72935 70.75306 67.80244
#
# Poissons Ratio (x) = 0.27230 0.05133
# Poissons Ratio (y) = 0.36458 0.26037
# Poissons Ratio (z) = 0.07172 0.27171
#
# Static dielectric constant tensor:
#      x y z
#    x 3.953280 0.000010 0.008940 
#    y 0.000010 3.442260 -0.000080 
#    z 0.008940 -0.000080 3.499330 
# 
# 
# High freq. dielectric constant tensor:
#      x y z
#    x 1.763060 0.000000 0.006050 
#    y 0.000000 1.710700 -0.000010 
#    z 0.006050 -0.000010 1.738590 
# 
# From -- ./inp_files/127180.got.cif
#   From: 2010.06.25/outbox.cif.g09.slc.cpg/sg15_64_cif.got.tgz:127180.got - 2010.06.28 07:06:18.
