data_PCOD8129871
_publ_section_title
;
Structure prediction by ZEFSAII (Michael W. Deem and Ramdas Pophale) SiO2 
 PCOD8129871
Probable space group: C 2/C
;
_chemical_formula_sum "Si O2"
_cell_formula_units_Z 48
_cell_length_a 10.342631
_cell_length_b 16.360994
_cell_length_c 21.538107
_cell_angle_alpha 90.000000
_cell_angle_beta 46.119198
_cell_angle_gamma 90.000000
_cell_volume 2626.957381
_symmetry_space_group_name_H-M "C 2/C"
_symmetry_group_IT_number 15
_symmetry_cell_setting 'monoclinic'
loop_
_space_group_symop_operation_xyz
x,y,z
-x,y,1/2-z
-x,-y,-z
x,-y,1/2+z
1/2+x,1/2+y,z
1/2-x,1/2+y,1/2-z
1/2-x,1/2-y,-z
1/2+x,1/2-y,1/2+z
loop_
_atom_site_type_symbol
_atom_site_label
_atom_site_fract_x
_atom_site_fract_y
_atom_site_fract_z
Si Si1 0.780541 0.548646 0.233332
Si Si2 0.500000 0.069060 0.750000
Si Si3 0.347753 0.585149 0.582996
Si Si4 0.418792 0.832568 0.903252
Si Si5 0.500000 0.554622 0.750000
Si Si6 0.102449 0.851683 0.097607
Si Si7 0.350875 0.599810 0.099348
O O1 0.651742 0.502634 0.228842
O O2 0.662738 0.601939 0.321685
O O3 0.899785 0.485654 0.232467
O O4 0.907438 0.609828 0.152877
O O5 0.651114 0.124188 0.664157
O O6 0.476629 0.588901 0.599668
O O7 0.447286 0.626392 0.490471
O O8 0.311607 0.489349 0.582753
O O9 0.482290 0.738735 0.880132
O O10 0.298549 0.842115 0.881152
O O11 0.304854 0.851634 0.003432
O O12 0.399445 0.613492 0.832273
#
# Coordination Sequence:
#
# PCOD8129871 Si02
#       7
#     8   4   8   8   4   8   8
#     4  11  20  34  56  84 109 149 190 225 277 342
#     4  10  16  31  55  80  98 144 198 216 250 335
#     4   9  16  31  53  79 109 134 188 232 267 310
#     4  10  20  37  60  80 110 152 198 219 274 343
#     4  12  24  35  53  86 126 140 176 240 298 313
#     4  10  22  36  54  87 117 144 179 245 282 322
#     4   9  16  30  54  81 102 141 188 232 254 323
#
# _framework density 18.272089999999999
#
# number of rings (size 3 to 8) (size 9 to 14) (size 15 to 20)
#    0.000    2.000    6.667    0.000    2.333    0.667 
#    0.000    0.833    0.000    0.000    0.000    8.167 
#    0.000    0.000    0.000    0.000    0.000    0.000 
#
# Total GULP energy -297417.502603 kJ/mol
# GULP energy per Si atom -12392.395942 kJ/mol
# Density = 1.823050 g / cm^3
# Si number density = 18.272090 Si / 1000 Ang^3
#
#
#
# Elastic Constant Matrix: (Units=GPa)
#
#
# Indices 1 2 3 4 5 6 
#
# 1 81.9723 30.8561 54.8772 -0.0002 -5.6078 0.0005
# 2 30.8561 57.1786 42.0824 -0.0003 -1.4683 0.0004
# 3 54.8772 42.0824 169.1169 -0.0004 -13.5493 0.0005
# 4 -0.0002 -0.0003 -0.0004 21.8305 0.0003 -1.9549
# 5 -5.6078 -1.4683 -13.5493 0.0003 34.5252 -0.0006
# 6 0.0005 0.0004 0.0005 -1.9549 -0.0006 17.3111
#
#
#
# Elastic Compliance Matrix: (Units=1/GPa)
#
#
# Indices 1 2 3 4 5 6 
#
# 1 0.017325 -0.006421 -0.003945 0.000000 0.000993 0.000000
# 2 -0.006421 0.023839 -0.003976 0.000000 -0.001589 0.000000
# 3 -0.003945 -0.003976 0.008381 0.000000 0.002479 0.000000
# 4 0.000000 0.000000 0.000000 0.046275 0.000000 0.005226
# 5 0.000993 -0.001589 0.002479 0.000000 0.030031 0.000001
# 6 0.000000 0.000000 0.000000 0.005226 0.000001 0.058357
#
#
# Mechanical properties :
#
#
# Convention : Reuss Voigt Hill
#
# Bulk Modulus (GPa) = 47.93198 62.65546 55.29372
# Shear Modulus (GPa) = 22.74334 26.76350 24.75342
#
# Velocity S-wave (km/s) = 3.53186 3.83132 3.68463
# Velocity P-wave (km/s) = 6.55144 7.34416 6.95910
#
# Compressibility (1/GPa) = 0.02086290
#
# Stress axis : x y z
#
# Youngs Moduli (GPa) = 57.72101 41.94751 119.31682
#
# Poissons Ratio (x) = 0.26933 0.47065
# Poissons Ratio (y) = 0.37060 0.47440
# Poissons Ratio (z) = 0.22768 0.16678
#
# Static dielectric constant tensor:
#      x y z
#    x 3.255490 0.000000 -0.306500 
#    y 0.000000 3.108110 0.000000 
#    z -0.306500 0.000000 4.084640 
# 
# 
# High freq. dielectric constant tensor:
#      x y z
#    x 1.674050 0.000000 -0.016280 
#    y 0.000000 1.675720 0.000000 
#    z -0.016280 0.000000 1.735830 
# 
# From -- ./inp_files/190288.got.cif
#   From: 2010.06.25/outbox.cif.g09.slc.cpg/sg15_96_cif.got.tgz:190288.got - 2010.06.28 07:06:18.
