data_PCOD8129328
_publ_section_title
;
Structure prediction by ZEFSAII (Michael W. Deem and Ramdas Pophale) SiO2 
 PCOD8129328
Probable space group: P 21/C
;
_chemical_formula_sum "Si O2"
_cell_formula_units_Z 32
_cell_length_a 8.422526
_cell_length_b 7.515356
_cell_length_c 25.721853
_cell_angle_alpha 90.000000
_cell_angle_beta 127.065765
_cell_angle_gamma 90.000000
_cell_volume 1299.172139
_symmetry_space_group_name_H-M "P 21/C"
_symmetry_group_IT_number 14
_symmetry_cell_setting 'monoclinic'
loop_
_space_group_symop_operation_xyz
x,y,z
-x,1/2+y,1/2-z
-x,-y,-z
x,1/2-y,1/2+z
loop_
_atom_site_type_symbol
_atom_site_label
_atom_site_fract_x
_atom_site_fract_y
_atom_site_fract_z
Si Si1 0.380063 0.289849 0.833195
Si Si2 0.264054 0.595434 0.164664
Si Si3 0.299665 0.195754 0.502641
Si Si4 0.385871 0.906833 0.804436
Si Si5 0.710983 0.455677 0.093190
Si Si6 0.034856 0.685750 0.304269
Si Si7 0.798423 0.761622 0.403217
Si Si8 0.983047 0.561577 0.605870
O O1 0.559800 0.392643 0.842201
O O2 0.344923 0.372522 0.883078
O O3 0.188254 0.303399 0.758843
O O4 0.436935 0.082442 0.848154
O O5 0.360593 0.549665 0.238937
O O6 0.133987 0.427114 0.119409
O O7 0.131555 0.771933 0.139686
O O8 0.537307 0.195464 0.560511
O O9 0.172068 0.187753 0.530532
O O10 0.228494 0.374325 0.458999
O O11 0.253825 0.021253 0.458688
O O12 0.181932 0.820336 0.784362
O O13 0.565369 0.771066 0.846662
O O14 0.912772 0.365852 0.153806
O O15 0.056802 0.511587 0.344372
O O16 0.928293 0.590082 0.413949
#
# Coordination Sequence:
#
# PCOD8129328 Si02
#       8
#     4   4   4   4   4   4   4   4
#     4  12  25  46  78 112 154 197 246 321 390 450
#     4  12  27  48  75 113 159 192 250 313 394 448
#     4  11  26  51  75 106 156 206 255 310 372 452
#     4  12  25  44  76 112 154 193 251 319 381 459
#     4  11  26  51  75 115 150 202 254 316 384 442
#     4  12  27  47  78 116 150 192 261 317 385 453
#     4  12  26  53  74 111 151 205 250 310 383 450
#     4  12  29  48  76 114 149 204 260 306 372 457
#
# _framework density 24.631067999999999
#
# number of rings (size 3 to 8) (size 9 to 14) (size 15 to 20)
#    0.000    0.250    3.750    4.125   10.500    1.000 
#    6.750    0.000    0.000    0.000    0.000    0.000 
#    0.000    0.000    0.000    0.000    0.000    0.000 
#
# Total GULP energy -396947.303462 kJ/mol
# GULP energy per Si atom -12404.603233 kJ/mol
# Density = 2.457501 g / cm^3
# Si number density = 24.631068 Si / 1000 Ang^3
#
#
#
# Elastic Constant Matrix: (Units=GPa)
#
#
# Indices 1 2 3 4 5 6 
#
# 1 66.0432 22.5491 15.9299 0.0000 -8.5763 0.0000
# 2 22.5491 127.0050 24.3973 0.0000 -7.7479 0.0000
# 3 15.9299 24.3973 95.7240 0.0000 -15.6403 0.0000
# 4 0.0000 0.0000 0.0000 25.7479 0.0000 -11.2337
# 5 -8.5763 -7.7479 -15.6403 0.0000 30.0959 0.0000
# 6 0.0000 0.0000 0.0000 -11.2337 0.0000 40.4649
#
#
#
# Elastic Compliance Matrix: (Units=1/GPa)
#
#
# Indices 1 2 3 4 5 6 
#
# 1 0.016807 -0.002470 -0.001627 0.000000 0.003308 0.000000
# 2 -0.002470 0.008677 -0.001694 0.000000 0.000650 0.000000
# 3 -0.001627 -0.001694 0.012023 0.000000 0.005348 0.000000
# 4 0.000000 0.000000 0.000000 0.044191 0.000000 0.012268
# 5 0.003308 0.000650 0.005348 0.000000 0.037117 0.000000
# 6 0.000000 0.000000 0.000000 0.012268 0.000000 0.028119
#
#
# Mechanical properties :
#
#
# Convention : Reuss Voigt Hill
#
# Bulk Modulus (GPa) = 38.57252 46.05831 42.31542
# Shear Modulus (GPa) = 29.91203 34.32148 32.11675
#
# Velocity S-wave (km/s) = 3.48861 3.73691 3.61489
# Velocity P-wave (km/s) = 5.64989 6.11221 5.88559
#
# Compressibility (1/GPa) = 0.02592519
#
# Stress axis : x y z
#
# Youngs Moduli (GPa) = 59.49967 115.24319 83.17255
#
# Poissons Ratio (x) = 0.28461 0.13532
# Poissons Ratio (y) = 0.14694 0.14093
# Poissons Ratio (z) = 0.09680 0.19528
#
# Static dielectric constant tensor:
#      x y z
#    x 4.545790 0.000000 -0.069200 
#    y 0.000000 4.519680 0.000000 
#    z -0.069200 0.000000 4.484260 
# 
# 
# High freq. dielectric constant tensor:
#      x y z
#    x 1.993750 0.000000 -0.008530 
#    y 0.000000 1.985690 0.000000 
#    z -0.008530 0.000000 1.981070 
# 
# From -- ./inp_files/72079.got.cif
#   From: 2010.03.12/outbox.cif.g09.slc.cpg/sg14_37_cif.got.tgz:72079.got - 2010.03.31 13:35:05.
