data_PCOD8129606
_publ_section_title
;
Structure prediction by ZEFSAII (Michael W. Deem and Ramdas Pophale) SiO2 
 PCOD8129606
Probable space group: C 2/C
;
_chemical_formula_sum "Si O2"
_cell_formula_units_Z 20
_cell_length_a 18.000000
_cell_length_b 15.000000
_cell_length_c 21.000000
_cell_angle_alpha 90.000000
_cell_angle_beta 160.000000
_cell_angle_gamma 90.000000
_cell_volume 1939.254213
_symmetry_space_group_name_H-M "C 2/C"
_symmetry_group_IT_number 15
_symmetry_cell_setting 'monoclinic'
loop_
_space_group_symop_operation_xyz
x,y,z
-x,y,1/2-z
-x,-y,-z
x,-y,1/2+z
1/2+x,1/2+y,z
1/2-x,1/2+y,1/2-z
1/2-x,1/2-y,-z
1/2+x,1/2-y,1/2+z
loop_
_atom_site_type_symbol
_atom_site_label
_atom_site_fract_x
_atom_site_fract_y
_atom_site_fract_z
Si Si1 0.265208 0.540606 0.093397
Si Si2 0.260974 0.156704 0.246854
Si Si3 0.073852 0.652687 0.610339
Si Si4 0.912914 0.414368 0.746073
Si Si5 0.070966 0.018298 0.640798
O O1 0.500000 0.566945 0.250000
O O2 0.317992 0.490701 0.201193
O O3 0.108428 0.625829 0.983287
O O4 0.112864 0.477790 0.927809
O O5 0.134532 0.243931 0.168598
O O6 0.469461 0.138238 0.457547
O O7 0.358967 0.163470 0.253968
O O8 0.098885 0.071664 0.121083
O O9 0.297899 0.595860 0.791816
O O10 0.685043 0.466548 0.554326
O O11 0.000000 0.371443 0.750000
#
# Coordination Sequence:
#
# PCOD8129606 Si02
#       5
#     8   8   8   8   8
#     4  11  22  43  64  98 135 170 221 274 334 384
#     4  11  23  41  64 100 131 174 229 265 325 394
#     4  11  23  42  68  96 135 177 223 275 319 399
#     4  12  23  39  69  98 131 174 220 275 333 388
#     4  11  22  42  68  93 130 178 225 275 322 395
#
# _framework density 10.313243
#
# number of rings (size 3 to 8) (size 9 to 14) (size 15 to 20)
#    0.000    0.800    6.000    3.000    2.800    0.000 
#    0.000   10.000    0.000    0.000    0.000    0.000 
#    0.000    0.000    0.000    0.000    0.000    0.000 
#
# Total GULP energy -247842.481036 kJ/mol
# GULP energy per Si atom -12392.124052 kJ/mol
# Density = 1.028977 g / cm^3
# Si number density = 10.313243 Si / 1000 Ang^3
#
#
#
# Elastic Constant Matrix: (Units=GPa)
#
#
# Indices 1 2 3 4 5 6 
#
# 1 127.3408 23.6952 33.1566 -0.2311 30.4947 0.0103
# 2 23.6952 105.9780 19.5405 -0.2506 25.7884 0.1326
# 3 33.1566 19.5405 119.2316 -0.3992 33.7511 0.0701
# 4 -0.2311 -0.2506 -0.3992 31.6911 0.0578 8.5403
# 5 30.4947 25.7884 33.7511 0.0578 49.2032 0.0503
# 6 0.0103 0.1326 0.0701 8.5403 0.0503 24.9208
#
#
#
# Elastic Compliance Matrix: (Units=1/GPa)
#
#
# Indices 1 2 3 4 5 6 
#
# 1 0.009409 -0.000761 -0.001184 0.000058 -0.004621 -0.000007
# 2 -0.000761 0.010881 -0.000112 0.000111 -0.005155 -0.000085
# 3 -0.001184 -0.000112 0.010562 0.000154 -0.006453 -0.000068
# 4 0.000058 0.000111 0.000154 0.034769 -0.000228 -0.011916
# 5 -0.004621 -0.005155 -0.006453 -0.000228 0.030316 0.000065
# 6 -0.000007 -0.000085 -0.000068 -0.011916 0.000065 0.044211
#
#
# Mechanical properties :
#
#
# Convention : Reuss Voigt Hill
#
# Bulk Modulus (GPa) = 37.39852 56.14832 46.77342
# Shear Modulus (GPa) = 32.64227 39.57356 36.10792
#
# Velocity S-wave (km/s) = 3.98243 4.38491 4.18851
# Velocity P-wave (km/s) = 6.27033 7.27442 6.79096
#
# Compressibility (1/GPa) = 0.02673902
#
# Stress axis : x y z
#
# Youngs Moduli (GPa) = 106.27613 91.89969 94.68207
#
# Poissons Ratio (x) = 0.06993 0.11207
# Poissons Ratio (y) = 0.08087 0.01062
# Poissons Ratio (z) = 0.12579 0.01031
#
# Static dielectric constant tensor:
#      x y z
#    x 4.072470 -0.000080 0.114840 
#    y -0.000080 3.570230 -0.000670 
#    z 0.114840 -0.000670 4.219680 
# 
# 
# High freq. dielectric constant tensor:
#      x y z
#    x 1.818810 -0.000010 0.005150 
#    y -0.000010 1.778270 -0.000060 
#    z 0.005150 -0.000060 1.853970 
# 
# From -- ./inp_files/46914.got.cif
#   From: 2010.06.25/outbox.ucp.g09.slc.cvg/sg15_24_cif.got.tgz:46914.got - 2010.06.28 14:40:10.
