data_PCOD8129609
_publ_section_title
;
Structure prediction by ZEFSAII (Michael W. Deem and Ramdas Pophale) SiO2 
 PCOD8129609
Probable space group: C 2/C
;
_chemical_formula_sum "Si O2"
_cell_formula_units_Z 24
_cell_length_a 9.000000
_cell_length_b 15.000000
_cell_length_c 27.000000
_cell_angle_alpha 90.000000
_cell_angle_beta 40.000000
_cell_angle_gamma 90.000000
_cell_volume 2342.960837
_symmetry_space_group_name_H-M "C 2/C"
_symmetry_group_IT_number 15
_symmetry_cell_setting 'monoclinic'
loop_
_space_group_symop_operation_xyz
x,y,z
-x,y,1/2-z
-x,-y,-z
x,-y,1/2+z
1/2+x,1/2+y,z
1/2-x,1/2+y,1/2-z
1/2-x,1/2-y,-z
1/2+x,1/2-y,1/2+z
loop_
_atom_site_type_symbol
_atom_site_label
_atom_site_fract_x
_atom_site_fract_y
_atom_site_fract_z
Si Si1 0.188032 0.725663 0.095732
Si Si2 0.890351 0.960936 0.577238
Si Si3 0.889245 0.284426 0.574292
Si Si4 0.043666 0.887628 0.293454
Si Si5 0.566230 0.124622 0.679500
Si Si6 0.761981 0.966339 0.925606
O O1 0.251318 0.631118 0.104354
O O2 0.012722 0.710283 0.095542
O O3 0.057392 0.789465 0.168247
O O4 0.420306 0.774272 0.017534
O O5 0.112463 0.943391 0.555003
O O6 0.712854 0.033114 0.645210
O O7 0.000000 0.000000 0.500000
O O8 0.716324 0.200592 0.613937
O O9 0.746207 0.375535 0.603958
O O10 0.320053 0.891770 0.218374
O O11 0.000000 0.918526 0.250000
O O12 0.924867 0.959198 0.359612
O O13 0.500000 0.161437 0.750000
O O14 0.500000 0.000000 0.000000
#
# Coordination Sequence:
#
# PCOD8129609 Si02
#       6
#     8   8   8   8   8   8
#     4  11  24  46  71 105 136 186 234 282 349 421
#     4  12  26  44  75 104 139 188 238 288 348 423
#     4  11  24  44  76  99 141 184 232 284 348 423
#     4  12  29  47  71 105 148 182 230 299 352 411
#     4  12  25  49  69 103 147 184 227 290 360 413
#     4  12  26  46  72 105 141 186 240 286 348 426
#
# _framework density 10.243449
#
# number of rings (size 3 to 8) (size 9 to 14) (size 15 to 20)
#    0.000    0.333    6.667    1.000    7.000    3.333 
#    0.000    0.000    0.000    0.000    0.000    0.000 
#    0.000    0.000    0.000    0.000    0.000    0.000 
#
# Total GULP energy -297558.682985 kJ/mol
# GULP energy per Si atom -12398.278458 kJ/mol
# Density = 1.022013 g / cm^3
# Si number density = 10.243449 Si / 1000 Ang^3
#
#
#
# Elastic Constant Matrix: (Units=GPa)
#
#
# Indices 1 2 3 4 5 6 
#
# 1 125.4971 37.5312 41.0273 0.0013 -26.1676 0.0000
# 2 37.5312 151.8162 25.8603 0.0011 -18.5710 -0.0004
# 3 41.0273 25.8603 91.8937 0.0056 -23.1448 -0.0016
# 4 0.0013 0.0011 0.0056 32.6551 -0.0025 -5.8258
# 5 -26.1676 -18.5710 -23.1448 -0.0025 43.4176 0.0008
# 6 0.0000 -0.0004 -0.0016 -5.8258 0.0008 37.6950
#
#
#
# Elastic Compliance Matrix: (Units=1/GPa)
#
#
# Indices 1 2 3 4 5 6 
#
# 1 0.010267 -0.001526 -0.003188 0.000000 0.003835 0.000000
# 2 -0.001526 0.007336 -0.000952 0.000000 0.001710 0.000000
# 3 -0.003188 -0.000952 0.013846 -0.000002 0.005052 0.000000
# 4 0.000000 0.000000 -0.000002 0.031491 0.000001 0.004867
# 5 0.003835 0.001710 0.005052 0.000001 0.028768 0.000000
# 6 0.000000 0.000000 0.000000 0.004867 0.000000 0.027281
#
#
# Mechanical properties :
#
#
# Convention : Reuss Voigt Hill
#
# Bulk Modulus (GPa) = 49.71323 64.22718 56.97021
# Shear Modulus (GPa) = 36.48914 40.40607 38.44761
#
# Velocity S-wave (km/s) = 4.22488 4.44586 4.33678
# Velocity P-wave (km/s) = 6.93672 7.60084 7.27636
#
# Compressibility (1/GPa) = 0.02011537
#
# Stress axis : x y z
#
# Youngs Moduli (GPa) = 97.40260 136.32231 72.22283
#
# Poissons Ratio (x) = 0.20800 0.23027
# Poissons Ratio (y) = 0.14862 0.06878
# Poissons Ratio (z) = 0.31055 0.12983
#
# Static dielectric constant tensor:
#      x y z
#    x 3.772540 -0.000010 -0.086980 
#    y -0.000010 3.969700 0.000010 
#    z -0.086980 0.000010 3.767760 
# 
# 
# High freq. dielectric constant tensor:
#      x y z
#    x 1.814440 0.000000 -0.017330 
#    y 0.000000 1.821700 0.000000 
#    z -0.017330 0.000000 1.815500 
# 
# From -- ./inp_files/288984.got.cif
#   From: 2010.06.25/outbox.ucp.g09.slc.cvg/sg15_145_cif.got.tgz:288984.got - 2010.06.28 14:40:10.
