data_PCOD8129070
_publ_section_title
;
Structure prediction by ZEFSAII (Michael W. Deem and Ramdas Pophale) SiO2 
 PCOD8129070
Probable space group: P 21/C
;
_chemical_formula_sum "Si O2"
_cell_formula_units_Z 20
_cell_length_a 7.158653
_cell_length_b 16.757017
_cell_length_c 7.683699
_cell_angle_alpha 90.000000
_cell_angle_beta 77.026721
_cell_angle_gamma 90.000000
_cell_volume 898.191641
_symmetry_space_group_name_H-M "P 21/C"
_symmetry_group_IT_number 14
_symmetry_cell_setting 'monoclinic'
loop_
_space_group_symop_operation_xyz
x,y,z
-x,1/2+y,1/2-z
-x,-y,-z
x,1/2-y,1/2+z
loop_
_atom_site_type_symbol
_atom_site_label
_atom_site_fract_x
_atom_site_fract_y
_atom_site_fract_z
Si Si1 0.935595 0.311980 0.845118
Si Si2 0.204933 0.290569 0.082724
Si Si3 0.434307 0.407320 0.204148
Si Si4 0.621334 0.414497 0.789482
Si Si5 0.583128 0.194190 0.967473
O O1 0.837816 0.393159 0.798889
O O2 0.775897 0.246405 0.936631
O O3 0.061368 0.279351 0.662238
O O4 0.088741 0.337733 0.958788
O O5 0.243636 0.351440 0.236502
O O6 0.406237 0.253937 0.975039
O O7 0.386056 0.495493 0.282747
O O8 0.590154 0.366742 0.300748
O O9 0.493581 0.407708 0.988870
O O10 0.552121 0.354084 0.653292
#
# Coordination Sequence:
#
# PCOD8129070 Si02
#       5
#     4   4   4   4   4
#     4  12  23  41  70  98 128 177 229 266 324 402
#     4  12  23  41  70  98 128 177 229 266 324 402
#     4  11  24  43  68 100 135 174 219 276 337 388
#     4  11  24  43  68 100 135 174 219 276 337 388
#     4  12  23  46  69  94 138 178 222 272 329 398
#
# _framework density 22.266963000000001
#
# number of rings (size 3 to 8) (size 9 to 14) (size 15 to 20)
#    0.000    0.400    6.000    4.200    0.000    0.800 
#    0.000    6.000    0.000    0.000    0.000    0.000 
#    0.000    0.000    0.000    0.000    0.000    0.000 
#
# Total GULP energy -247876.787097 kJ/mol
# GULP energy per Si atom -12393.839355 kJ/mol
# Density = 2.221628 g / cm^3
# Si number density = 22.266963 Si / 1000 Ang^3
#
#
#
# Elastic Constant Matrix: (Units=GPa)
#
#
# Indices 1 2 3 4 5 6 
#
# 1 111.9767 18.5765 18.3136 0.0000 20.4943 0.0000
# 2 18.5765 91.2586 9.6668 0.0000 10.1048 0.0000
# 3 18.3136 9.6668 69.3570 0.0000 18.7469 0.0000
# 4 0.0000 0.0000 0.0000 31.2701 0.0000 8.5880
# 5 20.4943 10.1048 18.7469 0.0000 42.2387 0.0000
# 6 0.0000 0.0000 0.0000 8.5880 0.0000 24.9234
#
#
#
# Elastic Compliance Matrix: (Units=1/GPa)
#
#
# Indices 1 2 3 4 5 6 
#
# 1 0.010125 -0.001477 -0.001404 0.000000 -0.003937 0.000000
# 2 -0.001477 0.011527 -0.000756 0.000000 -0.001706 0.000000
# 3 -0.001404 -0.000756 0.016660 0.000000 -0.006532 0.000000
# 4 0.000000 0.000000 0.000000 0.035322 0.000000 -0.012171
# 5 -0.003937 -0.001706 -0.006532 0.000000 0.028892 0.000000
# 6 0.000000 0.000000 0.000000 -0.012171 0.000000 0.044317
#
#
# Mechanical properties :
#
#
# Convention : Reuss Voigt Hill
#
# Bulk Modulus (GPa) = 32.21583 40.63402 36.42493
# Shear Modulus (GPa) = 30.40200 34.75545 32.57872
#
# Velocity S-wave (km/s) = 3.69906 3.95505 3.82919
# Velocity P-wave (km/s) = 5.72219 6.25658 5.99534
#
# Compressibility (1/GPa) = 0.03104064
#
# Stress axis : x y z
#
# Youngs Moduli (GPa) = 98.76098 86.75013 60.02478
#
# Poissons Ratio (x) = 0.12809 0.08426
# Poissons Ratio (y) = 0.14582 0.04536
# Poissons Ratio (z) = 0.13864 0.06556
#
# Static dielectric constant tensor:
#      x y z
#    x 4.352130 0.000000 0.334860 
#    y 0.000000 4.361830 0.000000 
#    z 0.334860 0.000000 4.044490 
# 
# 
# High freq. dielectric constant tensor:
#      x y z
#    x 1.879520 0.000000 0.020980 
#    y 0.000000 1.869090 0.000000 
#    z 0.020980 0.000000 1.879060 
# 
# From -- ./inp_files/5343.got.cif
#   From: 2010.03.12/outbox.cif.g09.slc.cpg/sg14_3_cif.got.tgz:5343.got - 2010.03.31 13:35:05.
