data_PCOD8129576
_publ_section_title
;
Structure prediction by ZEFSAII (Michael W. Deem and Ramdas Pophale) SiO2 
 PCOD8129576
Probable space group: C 2/C
;
_chemical_formula_sum "Si O2"
_cell_formula_units_Z 30
_cell_length_a 9.000000
_cell_length_b 27.000000
_cell_length_c 24.000000
_cell_angle_alpha 90.000000
_cell_angle_beta 150.000000
_cell_angle_gamma 90.000000
_cell_volume 2916.000000
_symmetry_space_group_name_H-M "C 2/C"
_symmetry_group_IT_number 15
_symmetry_cell_setting 'monoclinic'
loop_
_space_group_symop_operation_xyz
x,y,z
-x,y,1/2-z
-x,-y,-z
x,-y,1/2+z
1/2+x,1/2+y,z
1/2-x,1/2+y,1/2-z
1/2-x,1/2-y,-z
1/2+x,1/2-y,1/2+z
loop_
_atom_site_type_symbol
_atom_site_label
_atom_site_fract_x
_atom_site_fract_y
_atom_site_fract_z
Si Si1 0.068142 0.087971 0.900739
Si Si2 0.900665 0.010741 0.281922
Si Si3 0.183358 0.626315 0.623765
Si Si4 0.648125 0.697573 0.146255
Si Si5 0.000000 0.350701 0.250000
Si Si6 0.733843 0.543319 0.070755
Si Si7 0.901200 0.293350 0.105638
Si Si8 0.053221 0.909014 0.918099
O O1 0.763551 0.114790 0.815291
O O2 0.281410 0.124376 0.932678
O O3 0.005684 0.040455 0.842421
O O4 0.220988 0.073416 0.008682
O O5 0.551182 0.017513 0.177298
O O6 0.000000 0.014264 0.250000
O O7 0.056965 0.053706 0.367950
O O8 0.500000 0.606162 0.750000
O O9 0.110128 0.679959 0.626403
O O10 0.899720 0.592819 0.550696
O O11 0.539935 0.738431 0.155991
O O12 0.563453 0.643651 0.142980
O O13 0.000000 0.702140 0.250000
O O14 0.446327 0.706844 0.025268
O O15 0.095536 0.317345 0.332779
O O16 0.666008 0.578476 0.101511
O O17 0.500000 0.500000 0.000000
#
# Coordination Sequence:
#
# PCOD8129576 Si02
#       8
#     8   8   8   8   4   8   8   8
#     4  12  25  38  68  94 132 171 221 272 336 386
#     4  12  27  42  63  94 136 178 224 271 325 401
#     4  11  22  40  67  96 129 167 214 272 334 389
#     4  10  21  42  75  93 127 180 218 267 338 402
#     4  12  24  42  64 106 128 168 218 290 328 402
#     4  12  25  42  64  94 134 176 222 274 324 391
#     4  10  23  43  69 102 131 165 223 277 339 402
#     4  11  25  45  66  95 132 178 224 267 332 402
#
# _framework density 10.288066000000001
#
# number of rings (size 3 to 8) (size 9 to 14) (size 15 to 20)
#    0.000    0.800    2.667    5.200    3.733    1.067 
#    1.200    0.667    5.867    0.000    0.000    0.000 
#    0.000    0.000    0.000    0.000    0.000    0.000 
#
# Total GULP energy -371881.273195 kJ/mol
# GULP energy per Si atom -12396.042440 kJ/mol
# Density = 1.026465 g / cm^3
# Si number density = 10.288066 Si / 1000 Ang^3
#
#
#
# Elastic Constant Matrix: (Units=GPa)
#
#
# Indices 1 2 3 4 5 6 
#
# 1 153.3503 58.2148 33.6211 0.0002 -6.7403 0.0016
# 2 58.2148 129.2718 33.7590 -0.0005 -7.5861 0.0015
# 3 33.6211 33.7590 110.6931 0.0461 15.5779 -0.0387
# 4 0.0002 -0.0005 0.0461 9.4800 0.0096 15.6088
# 5 -6.7403 -7.5861 15.5779 0.0096 50.2931 -0.0080
# 6 0.0016 0.0015 -0.0387 15.6088 -0.0080 8.6036
#
#
#
# Elastic Compliance Matrix: (Units=1/GPa)
#
#
# Indices 1 2 3 4 5 6 
#
# 1 0.008137 -0.003163 -0.001666 -0.000010 0.001129 0.000010
# 2 -0.003163 0.009864 -0.002298 -0.000013 0.001776 0.000014
# 3 -0.001666 -0.002298 0.010791 0.000062 -0.003912 -0.000067
# 4 -0.000010 -0.000013 0.000062 -0.053084 0.000003 0.096307
# 5 0.001129 0.001776 -0.003912 0.000003 0.021514 -0.000003
# 6 0.000010 0.000014 -0.000067 0.096307 -0.000003 -0.058491
#
#
# Mechanical properties :
#
#
# Convention : Reuss Voigt Hill
#
# Bulk Modulus (GPa) = 68.77729 71.61163 70.19446
# Shear Modulus (GPa) = -118.56579 31.52335 -43.52122
#
# Velocity S-wave (km/s) = -7.59922 3.91837 -4.60405
# Velocity P-wave (km/s) = 6.59538 7.43978 2.43425
#
# Compressibility (1/GPa) = 0.01453968
#
# Stress axis : x y z
#
# Youngs Moduli (GPa) = 122.90265 101.37699 92.66861
#
# Poissons Ratio (x) = 0.32064 0.15435
# Poissons Ratio (y) = 0.38872 0.21291
# Poissons Ratio (z) = 0.20471 0.23292
#
# Static dielectric constant tensor:
#      x y z
#    x 4.182850 0.000000 0.006300 
#    y 0.000000 3.976280 -0.000020 
#    z 0.006300 -0.000020 4.033220 
# 
# 
# High freq. dielectric constant tensor:
#      x y z
#    x 1.818300 0.000000 0.012090 
#    y 0.000000 1.812610 0.000000 
#    z 0.012090 0.000000 1.817910 
# 
# From -- ./inp_files/266666.got.cif
#   From: 2010.06.25/outbox.ucp.g09.slc.cvg/sg15_134_cif.got.tgz:266666.got - 2010.06.28 14:40:10.
