data_PCOD8129573
_publ_section_title
;
Structure prediction by ZEFSAII (Michael W. Deem and Ramdas Pophale) SiO2 
 PCOD8129573
Probable space group: C 2/C
;
_chemical_formula_sum "Si O2"
_cell_formula_units_Z 24
_cell_length_a 9.000000
_cell_length_b 18.000000
_cell_length_c 30.000000
_cell_angle_alpha 90.000000
_cell_angle_beta 30.000000
_cell_angle_gamma 90.000000
_cell_volume 2430.000000
_symmetry_space_group_name_H-M "C 2/C"
_symmetry_group_IT_number 15
_symmetry_cell_setting 'monoclinic'
loop_
_space_group_symop_operation_xyz
x,y,z
-x,y,1/2-z
-x,-y,-z
x,-y,1/2+z
1/2+x,1/2+y,z
1/2-x,1/2+y,1/2-z
1/2-x,1/2-y,-z
1/2+x,1/2-y,1/2+z
loop_
_atom_site_type_symbol
_atom_site_label
_atom_site_fract_x
_atom_site_fract_y
_atom_site_fract_z
Si Si1 0.161682 0.549435 0.160153
Si Si2 0.875971 0.703334 0.731425
Si Si3 0.154549 0.561272 0.826837
Si Si4 0.743747 0.280916 0.886524
Si Si5 0.327979 0.946992 0.508252
Si Si6 0.202761 0.218190 0.074108
O O1 0.162996 0.633374 0.141238
O O2 0.000000 0.544448 0.250000
O O3 0.988058 0.504123 0.166586
O O4 0.500641 0.520456 0.080753
O O5 0.889174 0.633314 0.693822
O O6 0.534054 0.731196 0.821643
O O7 0.000000 0.685953 0.750000
O O8 0.090088 0.766874 0.654070
O O9 0.500000 0.547008 0.750000
O O10 0.994796 0.565052 0.917227
O O11 0.575979 0.256053 0.884570
O O12 0.497508 0.268187 0.989278
O O13 0.284061 0.867949 0.544473
O O14 0.500000 0.000000 0.500000
#
# Coordination Sequence:
#
# PCOD8129573 Si02
#       6
#     8   8   8   8   8   8
#     4  11  23  40  64  95 130 168 210 257 312 376
#     4  12  25  40  64  96 126 160 207 261 314 373
#     4  12  25  43  65  89 127 170 210 260 314 374
#     4  10  21  41  66  91 124 165 208 253 309 370
#     4  11  24  42  67  94 126 167 211 259 313 373
#     4  10  21  41  66  91 122 165 207 251 311 371
#
# _framework density 9.8765429999999999
#
# number of rings (size 3 to 8) (size 9 to 14) (size 15 to 20)
#    0.000    1.000    0.000    9.500    0.000    4.000 
#    0.000    0.000    0.000    0.000    0.000    0.000 
#    0.000    0.000    0.000    0.000    0.000    0.000 
#
# Total GULP energy -297379.721578 kJ/mol
# GULP energy per Si atom -12390.821732 kJ/mol
# Density = 0.985406 g / cm^3
# Si number density = 9.876543 Si / 1000 Ang^3
#
#
#
# Elastic Constant Matrix: (Units=GPa)
#
#
# Indices 1 2 3 4 5 6 
#
# 1 182.3975 70.5326 83.3461 -0.2064 -2.5252 -0.0009
# 2 70.5326 115.5084 50.0637 0.2101 -1.4475 -0.0708
# 3 83.3461 50.0637 172.1015 -0.1285 -2.4154 0.0379
# 4 -0.2064 0.2101 -0.1285 36.7971 0.3208 -2.8422
# 5 -2.5252 -1.4475 -2.4154 0.3208 50.5840 -0.0380
# 6 -0.0009 -0.0708 0.0379 -2.8422 -0.0380 48.3379
#
#
#
# Elastic Compliance Matrix: (Units=1/GPa)
#
#
# Indices 1 2 3 4 5 6 
#
# 1 0.008279 -0.003795 -0.002903 0.000057 0.000166 0.000000
# 2 -0.003795 0.011647 -0.001549 -0.000093 0.000070 0.000013
# 3 -0.002903 -0.001549 0.007670 0.000017 0.000177 -0.000007
# 4 0.000057 -0.000093 0.000017 0.027302 -0.000171 0.001605
# 5 0.000166 0.000070 0.000177 -0.000171 0.019789 0.000005
# 6 0.000000 0.000013 -0.000007 0.001605 0.000005 0.020782
#
#
# Mechanical properties :
#
#
# Convention : Reuss Voigt Hill
#
# Bulk Modulus (GPa) = 90.08239 97.54358 93.81298
# Shear Modulus (GPa) = 43.22835 44.88145 44.05490
#
# Velocity S-wave (km/s) = 4.68315 4.77185 4.72771
# Velocity P-wave (km/s) = 8.65712 8.93585 8.79759
#
# Compressibility (1/GPa) = 0.01110095
#
# Stress axis : x y z
#
# Youngs Moduli (GPa) = 120.78745 85.85615 130.38491
#
# Poissons Ratio (x) = 0.32584 0.37851
# Poissons Ratio (y) = 0.45841 0.20201
# Poissons Ratio (z) = 0.35065 0.13302
#
# Static dielectric constant tensor:
#      x y z
#    x 4.182810 0.000080 -0.030920 
#    y 0.000080 3.863120 -0.000270 
#    z -0.030920 -0.000270 4.229720 
# 
# 
# High freq. dielectric constant tensor:
#      x y z
#    x 1.799860 0.000010 -0.004150 
#    y 0.000010 1.789740 -0.000030 
#    z -0.004150 -0.000030 1.816490 
# 
# From -- ./inp_files/308702.got.cif
#   From: 2010.06.25/outbox.ucp.g09.slc.cvg/sg15_155_cif.got.tgz:308702.got - 2010.06.28 14:40:10.
