data_PCOD8129483
_publ_section_title
;
Structure prediction by ZEFSAII (Michael W. Deem and Ramdas Pophale) SiO2 
 PCOD8129483
Probable space group: P 21/C
;
_chemical_formula_sum "Si O2"
_cell_formula_units_Z 20
_cell_length_a 7.361389
_cell_length_b 10.943265
_cell_length_c 16.575226
_cell_angle_alpha 90.000000
_cell_angle_beta 40.983618
_cell_angle_gamma 90.000000
_cell_volume 875.721824
_symmetry_space_group_name_H-M "P 21/C"
_symmetry_group_IT_number 14
_symmetry_cell_setting 'monoclinic'
loop_
_space_group_symop_operation_xyz
x,y,z
-x,1/2+y,1/2-z
-x,-y,-z
x,1/2-y,1/2+z
loop_
_atom_site_type_symbol
_atom_site_label
_atom_site_fract_x
_atom_site_fract_y
_atom_site_fract_z
Si Si1 0.228068 0.015445 0.040236
Si Si2 0.767328 0.149679 0.294409
Si Si3 0.318590 0.534045 0.905708
Si Si4 0.577768 0.834684 0.175435
Si Si5 0.088183 0.758688 0.579094
O O1 0.141944 0.882125 0.040350
O O2 0.998089 0.068190 0.176266
O O3 0.500000 0.000000 0.000000
O O4 0.264149 0.103292 0.952101
O O5 0.697016 0.266279 0.262910
O O6 0.891647 0.203171 0.334961
O O7 0.486762 0.068603 0.400069
O O8 0.480228 0.558149 0.768163
O O9 0.314389 0.660514 0.956635
O O10 0.000000 0.500000 0.000000
O O11 0.771864 0.729511 0.152089
#
# Coordination Sequence:
#
# PCOD8129483 Si02
#       5
#     4   4   4   4   4
#     4  12  28  50  79 110 150 200 250 308 375 450
#     4  12  28  49  75 114 148 197 253 310 372 446
#     4  12  28  47  79 110 152 196 250 312 374 446
#     4  12  27  50  78 109 151 199 249 310 379 444
#     4  12  27  48  78 107 152 201 246 309 371 445
#
# _framework density 22.838301000000001
#
# number of rings (size 3 to 8) (size 9 to 14) (size 15 to 20)
#    0.000    0.000    6.000    2.400    8.400    0.000 
#    0.000    0.000    0.000    0.000    0.000    0.000 
#    0.000    0.000    0.000    0.000    0.000    0.000 
#
# Total GULP energy -248050.837296 kJ/mol
# GULP energy per Si atom -12402.541865 kJ/mol
# Density = 2.278632 g / cm^3
# Si number density = 22.838301 Si / 1000 Ang^3
#
#
#
# Elastic Constant Matrix: (Units=GPa)
#
#
# Indices 1 2 3 4 5 6 
#
# 1 163.0724 42.2349 54.4218 0.0000 3.2844 0.0000
# 2 42.2349 102.9989 19.2336 0.0000 -0.9564 0.0000
# 3 54.4218 19.2336 69.8661 0.0000 -17.8717 0.0000
# 4 0.0000 0.0000 0.0000 47.3973 0.0000 1.9511
# 5 3.2844 -0.9564 -17.8717 0.0000 27.9592 0.0000
# 6 0.0000 0.0000 0.0000 1.9511 0.0000 30.4691
#
#
#
# Elastic Compliance Matrix: (Units=1/GPa)
#
#
# Indices 1 2 3 4 5 6 
#
# 1 0.009812 -0.002461 -0.008705 0.000000 -0.006801 0.000000
# 2 -0.002461 0.010923 -0.001101 0.000000 -0.000041 0.000000
# 3 -0.008705 -0.001101 0.025880 0.000000 0.017528 0.000000
# 4 0.000000 0.000000 0.000000 0.021154 0.000000 -0.001355
# 5 -0.006801 -0.000041 0.017528 0.000000 0.047768 0.000000
# 6 0.000000 0.000000 0.000000 -0.001355 0.000000 0.032907
#
#
# Mechanical properties :
#
#
# Convention : Reuss Voigt Hill
#
# Bulk Modulus (GPa) = 45.28529 63.07978 54.18254
# Shear Modulus (GPa) = 27.72579 35.83492 31.78035
#
# Velocity S-wave (km/s) = 3.48804 3.96545 3.73438
# Velocity P-wave (km/s) = 6.00779 6.97470 6.50923
#
# Compressibility (1/GPa) = 0.02208223
#
# Stress axis : x y z
#
# Youngs Moduli (GPa) = 101.91922 91.54926 38.63933
#
# Poissons Ratio (x) = 0.22530 0.33636
# Poissons Ratio (y) = 0.25081 0.04252
# Poissons Ratio (z) = 0.88721 0.10075
#
# Static dielectric constant tensor:
#      x y z
#    x 4.394480 0.000000 -0.094950 
#    y 0.000000 4.377670 0.000000 
#    z -0.094950 0.000000 4.072840 
# 
# 
# High freq. dielectric constant tensor:
#      x y z
#    x 1.923550 0.000000 -0.007490 
#    y 0.000000 1.917530 0.000000 
#    z -0.007490 0.000000 1.896010 
# 
# From -- ./inp_files/55556.got.cif
#   From: 2010.03.12/outbox.cif.g09.slc.cpg/sg14_28_cif.got.tgz:55556.got - 2010.03.31 13:35:05.
