data_PCOD8129909
_publ_section_title
;
Structure prediction by ZEFSAII (Michael W. Deem and Ramdas Pophale) SiO2 
 PCOD8129909
Probable space group: C 2/C
;
_chemical_formula_sum "Si O2"
_cell_formula_units_Z 56
_cell_length_a 9.793107
_cell_length_b 16.366620
_cell_length_c 24.783272
_cell_angle_alpha 90.000000
_cell_angle_beta 135.365131
_cell_angle_gamma 90.000000
_cell_volume 2790.858298
_symmetry_space_group_name_H-M "C 2/C"
_symmetry_group_IT_number 15
_symmetry_cell_setting 'monoclinic'
loop_
_space_group_symop_operation_xyz
x,y,z
-x,y,1/2-z
-x,-y,-z
x,-y,1/2+z
1/2+x,1/2+y,z
1/2-x,1/2+y,1/2-z
1/2-x,1/2-y,-z
1/2+x,1/2-y,1/2+z
loop_
_atom_site_type_symbol
_atom_site_label
_atom_site_fract_x
_atom_site_fract_y
_atom_site_fract_z
Si Si1 0.899059 0.186285 0.569039
Si Si2 0.596227 0.045101 0.607936
Si Si3 0.041857 0.150863 0.139672
Si Si4 0.281486 0.593354 0.208730
Si Si5 0.341145 0.786389 0.405129
Si Si6 0.209269 0.004524 0.950742
Si Si7 0.335298 0.209941 0.413863
O O1 0.750000 0.250000 0.500000
O O2 0.869807 0.205764 0.624790
O O3 0.865045 0.090978 0.546991
O O4 0.112070 0.206244 0.603711
O O5 0.638899 0.140427 0.632505
O O6 0.709558 0.014111 0.586536
O O7 0.681564 0.995919 0.683398
O O8 0.367958 0.029561 0.536951
O O9 0.877042 0.210581 0.118817
O O10 0.214448 0.136283 0.231571
O O11 0.133036 0.197889 0.114203
O O12 0.961237 0.063123 0.098391
O O13 0.500000 0.585361 0.250000
O O14 0.150947 0.641002 0.128344
O O15 0.507465 0.808659 0.495850
#
# Coordination Sequence:
#
# PCOD8129909 Si02
#       7
#     8   8   8   8   8   8   8
#     4   9  19  34  55  86 113 144 189 232 282 339
#     4  10  16  32  56  84 106 147 194 233 272 341
#     4  11  21  36  58  89 116 145 193 248 285 331
#     4  10  19  34  55  83 116 150 189 233 293 340
#     4  10  20  34  60  91 112 139 201 246 277 330
#     4  10  18  32  60  82 110 146 194 236 274 337
#     4  10  18  36  59  80 115 153 188 228 284 350
#
# _framework density 20.065511999999998
#
# number of rings (size 3 to 8) (size 9 to 14) (size 15 to 20)
#    0.000    2.000    4.286    3.000    0.000    0.000 
#    2.571    3.571    3.143    0.000    0.000    0.000 
#    0.000    0.000    0.000    0.000    0.000    0.000 
#
# Total GULP energy -346916.921786 kJ/mol
# GULP energy per Si atom -12389.890064 kJ/mol
# Density = 2.001984 g / cm^3
# Si number density = 20.065512 Si / 1000 Ang^3
#
#
#
# Elastic Constant Matrix: (Units=GPa)
#
#
# Indices 1 2 3 4 5 6 
#
# 1 55.0645 42.7757 5.9130 0.0000 -5.6931 0.0000
# 2 42.7757 142.4867 30.6781 0.0000 -11.4862 0.0000
# 3 5.9130 30.6781 82.7560 0.0000 -14.1750 0.0000
# 4 0.0000 0.0000 0.0000 25.2181 0.0000 -1.2717
# 5 -5.6931 -11.4862 -14.1750 0.0000 8.3267 0.0000
# 6 0.0000 0.0000 0.0000 -1.2717 0.0000 34.7466
#
#
#
# Elastic Compliance Matrix: (Units=1/GPa)
#
#
# Indices 1 2 3 4 5 6 
#
# 1 0.024553 -0.007027 0.002916 0.000000 0.012058 0.000000
# 2 -0.007027 0.010041 -0.002358 0.000000 0.005032 0.000000
# 3 0.002916 -0.002358 0.017693 0.000000 0.028860 0.000000
# 4 0.000000 0.000000 0.000000 0.039727 0.000000 0.001454
# 5 0.012058 0.005032 0.028860 0.000000 0.184412 0.000000
# 6 0.000000 0.000000 0.000000 0.001454 0.000000 0.028833
#
#
# Mechanical properties :
#
#
# Convention : Reuss Voigt Hill
#
# Bulk Modulus (GPa) = 25.41386 48.78230 37.09808
# Shear Modulus (GPa) = 15.09144 27.05429 21.07287
#
# Velocity S-wave (km/s) = 2.74543 3.67590 3.24420
# Velocity P-wave (km/s) = 4.76894 6.51004 5.70629
#
# Compressibility (1/GPa) = 0.03934861
#
# Stress axis : x y z
#
# Youngs Moduli (GPa) = 40.72884 99.59091 56.51948
#
# Poissons Ratio (x) = 0.69980 -0.16481
# Poissons Ratio (y) = 0.28619 0.13329
# Poissons Ratio (z) = -0.11876 0.23486
#
# Static dielectric constant tensor:
#      x y z
#    x 3.652840 0.000000 0.001480 
#    y 0.000000 3.859940 0.000000 
#    z 0.001480 0.000000 3.641450 
# 
# 
# High freq. dielectric constant tensor:
#      x y z
#    x 1.743200 0.000000 0.001610 
#    y 0.000000 1.790360 0.000000 
#    z 0.001610 0.000000 1.761680 
# 
# From -- ./inp_files/292878.got.cif
#   From: 2010.06.25/outbox.cif.g09.slc.cpg/sg15_147_cif.got.tgz:292878.got - 2010.06.28 07:06:18.
