data_PCOD8129337
_publ_section_title
;
Structure prediction by ZEFSAII (Michael W. Deem and Ramdas Pophale) SiO2 
 PCOD8129337
Probable space group: P 21/C
;
_chemical_formula_sum "Si O2"
_cell_formula_units_Z 20
_cell_length_a 17.417721
_cell_length_b 8.660008
_cell_length_c 11.459020
_cell_angle_alpha 90.000000
_cell_angle_beta 29.623979
_cell_angle_gamma 90.000000
_cell_volume 854.383268
_symmetry_space_group_name_H-M "P 21/C"
_symmetry_group_IT_number 14
_symmetry_cell_setting 'monoclinic'
loop_
_space_group_symop_operation_xyz
x,y,z
-x,1/2+y,1/2-z
-x,-y,-z
x,1/2-y,1/2+z
loop_
_atom_site_type_symbol
_atom_site_label
_atom_site_fract_x
_atom_site_fract_y
_atom_site_fract_z
Si Si1 0.684985 0.462107 0.766458
Si Si2 0.612698 0.830313 0.547447
Si Si3 0.180781 0.428729 0.644073
Si Si4 0.413757 0.568478 0.723977
Si Si5 0.828664 0.139876 0.619371
O O1 0.785009 0.473132 0.516548
O O2 0.734798 0.300618 0.761610
O O3 0.500000 0.500000 0.000000
O O4 0.733404 0.597677 0.793665
O O5 0.699480 0.711273 0.515346
O O6 0.466596 0.746294 0.676850
O O7 0.548034 0.969059 0.712433
O O8 0.210809 0.532087 0.718216
O O9 0.012593 0.348886 0.863753
O O10 0.500000 0.500000 0.500000
O O11 0.233663 0.568197 0.921149
#
# Coordination Sequence:
#
# PCOD8129337 Si02
#       5
#     4   4   4   4   4
#     4  12  27  46  78 109 147 201 253 307 375 450
#     4  12  27  44  74 108 144 192 253 301 372 443
#     4  11  28  50  71 113 152 192 251 309 375 447
#     4  12  26  47  73 106 147 194 245 310 368 451
#     4  11  28  49  75 104 152 197 244 310 379 443
#
# _framework density 23.408698000000001
#
# number of rings (size 3 to 8) (size 9 to 14) (size 15 to 20)
#    0.000    0.400    4.000    2.400    8.400    2.400 
#    0.000    0.000    0.000    0.000    0.000    0.000 
#    0.000    0.000    0.000    0.000    0.000    0.000 
#
# Total GULP energy -247921.539291 kJ/mol
# GULP energy per Si atom -12396.076965 kJ/mol
# Density = 2.335542 g / cm^3
# Si number density = 23.408698 Si / 1000 Ang^3
#
#
#
# Elastic Constant Matrix: (Units=GPa)
#
#
# Indices 1 2 3 4 5 6 
#
# 1 135.5248 59.9810 45.5468 0.0000 -0.3204 0.0000
# 2 59.9810 140.1529 46.7520 0.0000 -2.2886 0.0000
# 3 45.5468 46.7520 94.6761 0.0000 -0.0829 0.0000
# 4 0.0000 0.0000 0.0000 41.4479 0.0000 4.0302
# 5 -0.3204 -2.2886 -0.0829 0.0000 46.0327 0.0000
# 6 0.0000 0.0000 0.0000 4.0302 0.0000 36.0896
#
#
#
# Elastic Compliance Matrix: (Units=1/GPa)
#
#
# Indices 1 2 3 4 5 6 
#
# 1 0.009842 -0.003154 -0.003178 0.000000 -0.000094 0.000000
# 2 -0.003154 0.009561 -0.003204 0.000000 0.000448 0.000000
# 3 -0.003178 -0.003204 0.013673 0.000000 -0.000157 0.000000
# 4 0.000000 0.000000 0.000000 0.024392 0.000000 -0.002724
# 5 -0.000094 0.000448 -0.000157 0.000000 0.021745 0.000000
# 6 0.000000 0.000000 0.000000 -0.002724 0.000000 0.028013
#
#
# Mechanical properties :
#
#
# Convention : Reuss Voigt Hill
#
# Bulk Modulus (GPa) = 71.39851 74.99038 73.19445
# Shear Modulus (GPa) = 38.17848 39.25231 38.71540
#
# Velocity S-wave (km/s) = 4.04289 4.09935 4.07122
# Velocity P-wave (km/s) = 7.23604 7.38316 7.30997
#
# Compressibility (1/GPa) = 0.01400589
#
# Stress axis : x y z
#
# Youngs Moduli (GPa) = 101.60322 104.59478 73.13750
#
# Poissons Ratio (x) = 0.32986 0.23241
# Poissons Ratio (y) = 0.32042 0.23430
# Poissons Ratio (z) = 0.32286 0.33508
#
# Static dielectric constant tensor:
#      x y z
#    x 5.087110 0.000000 -0.058780 
#    y 0.000000 4.730490 0.000000 
#    z -0.058780 0.000000 4.014230 
# 
# 
# High freq. dielectric constant tensor:
#      x y z
#    x 1.948360 0.000000 0.002460 
#    y 0.000000 1.943490 0.000000 
#    z 0.002460 0.000000 1.908990 
# 
# From -- ./inp_files/33654.got.cif
#   From: 2010.03.12/outbox.cif.g09.slc.cpg/sg14_17_cif.got.tgz:33654.got - 2010.03.31 13:35:05.
