data_PCOD8129676
_publ_section_title
;
Structure prediction by ZEFSAII (Michael W. Deem and Ramdas Pophale) SiO2 
 PCOD8129676
Probable space group: C 2/C
;
_chemical_formula_sum "Si O2"
_cell_formula_units_Z 36
_cell_length_a 11.099414
_cell_length_b 8.021360
_cell_length_c 30.372178
_cell_angle_alpha 90.000000
_cell_angle_beta 141.133613
_cell_angle_gamma 90.000000
_cell_volume 1696.844894
_symmetry_space_group_name_H-M "C 2/C"
_symmetry_group_IT_number 15
_symmetry_cell_setting 'monoclinic'
loop_
_space_group_symop_operation_xyz
x,y,z
-x,y,1/2-z
-x,-y,-z
x,-y,1/2+z
1/2+x,1/2+y,z
1/2-x,1/2+y,1/2-z
1/2-x,1/2-y,-z
1/2+x,1/2-y,1/2+z
loop_
_atom_site_type_symbol
_atom_site_label
_atom_site_fract_x
_atom_site_fract_y
_atom_site_fract_z
Si Si1 0.617712 0.293836 0.638697
Si Si2 0.041673 0.528771 0.062957
Si Si3 0.500000 0.961647 0.750000
Si Si4 0.682633 0.183501 0.876127
Si Si5 0.821159 0.929901 0.501361
O O1 0.638623 0.129628 0.614344
O O2 0.825195 0.344896 0.715819
O O3 0.481360 0.272967 0.641833
O O4 0.532676 0.447280 0.583528
O O5 0.184462 0.682926 0.111104
O O6 0.834117 0.567173 0.026573
O O7 0.000000 0.500000 0.000000
O O8 0.567678 0.071035 0.809804
O O9 0.821764 0.075815 0.948306
O O10 0.750000 0.750000 0.500000
#
# Coordination Sequence:
#
# PCOD8129676 Si02
#       5
#     8   8   4   8   8
#     4  10  22  40  61  86 123 154 194 249 293 346
#     4  10  15  36  70  88 103 154 202 246 297 330
#     4  12  28  38  52  92 128 164 188 230 304 372
#     4  10  21  40  61  86 122 150 201 246 289 353
#     4   8  16  34  63  89 112 142 197 256 281 328
#
# _framework density 21.215845000000002
#
# number of rings (size 3 to 8) (size 9 to 14) (size 15 to 20)
#    0.000    2.667    6.667    0.000    0.000    7.111 
#    0.000    1.111    0.000    0.000    0.000    0.000 
#    0.000    0.000    0.000    0.000    0.000    0.000 
#
# Total GULP energy -223036.903719 kJ/mol
# GULP energy per Si atom -12390.939096 kJ/mol
# Density = 2.116756 g / cm^3
# Si number density = 21.215845 Si / 1000 Ang^3
#
#
#
# Elastic Constant Matrix: (Units=GPa)
#
#
# Indices 1 2 3 4 5 6 
#
# 1 62.2633 32.5589 25.8272 0.0000 9.6111 0.0000
# 2 32.5589 62.7626 36.8023 0.0000 7.7612 0.0000
# 3 25.8272 36.8023 134.1796 0.0000 15.7358 0.0000
# 4 0.0000 0.0000 0.0000 46.8678 0.0000 2.5998
# 5 9.6111 7.7612 15.7358 0.0000 43.3350 0.0000
# 6 0.0000 0.0000 0.0000 2.5998 0.0000 28.1644
#
#
#
# Elastic Compliance Matrix: (Units=1/GPa)
#
#
# Indices 1 2 3 4 5 6 
#
# 1 0.022530 -0.010722 -0.001081 0.000000 -0.002684 0.000000
# 2 -0.010722 0.024193 -0.004536 0.000000 -0.000308 0.000000
# 3 -0.001081 -0.004536 0.009172 0.000000 -0.002278 0.000000
# 4 0.000000 0.000000 0.000000 0.021446 0.000000 -0.001980
# 5 -0.002684 -0.000308 -0.002278 0.000000 0.024554 0.000000
# 6 0.000000 0.000000 0.000000 -0.001980 0.000000 0.035689
#
#
# Mechanical properties :
#
#
# Convention : Reuss Voigt Hill
#
# Bulk Modulus (GPa) = 43.07064 49.95360 46.51212
# Shear Modulus (GPa) = 28.08972 34.60791 31.34881
#
# Velocity S-wave (km/s) = 3.64262 4.04323 3.84814
# Velocity P-wave (km/s) = 6.16740 6.73747 6.45873
#
# Compressibility (1/GPa) = 0.02321767
#
# Stress axis : x y z
#
# Youngs Moduli (GPa) = 44.38444 41.33439 109.02731
#
# Poissons Ratio (x) = 0.44319 0.11787
# Poissons Ratio (y) = 0.47589 0.49451
# Poissons Ratio (z) = 0.04798 0.18748
#
# Static dielectric constant tensor:
#      x y z
#    x 4.109240 0.000000 0.283980 
#    y 0.000000 3.596490 0.000000 
#    z 0.283980 0.000000 4.419390 
# 
# 
# High freq. dielectric constant tensor:
#      x y z
#    x 1.841840 0.000000 0.007200 
#    y 0.000000 1.804360 0.000000 
#    z 0.007200 0.000000 1.838220 
# 
# From -- ./inp_files/309747.got.cif
#   From: 2010.06.25/outbox.cif.g09.slc.cpg/sg15_155_cif.got.tgz:309747.got - 2010.06.28 07:06:18.
