data_PCOD8129432
_publ_section_title
;
Structure prediction by ZEFSAII (Michael W. Deem and Ramdas Pophale) SiO2 
 PCOD8129432
Probable space group: P 21/C
;
_chemical_formula_sum "Si O2"
_cell_formula_units_Z 20
_cell_length_a 18.963048
_cell_length_b 6.562238
_cell_length_c 10.229139
_cell_angle_alpha 90.000000
_cell_angle_beta 136.730447
_cell_angle_gamma 90.000000
_cell_volume 872.495653
_symmetry_space_group_name_H-M "P 21/C"
_symmetry_group_IT_number 14
_symmetry_cell_setting 'monoclinic'
loop_
_space_group_symop_operation_xyz
x,y,z
-x,1/2+y,1/2-z
-x,-y,-z
x,1/2-y,1/2+z
loop_
_atom_site_type_symbol
_atom_site_label
_atom_site_fract_x
_atom_site_fract_y
_atom_site_fract_z
Si Si1 0.119793 0.039216 0.162383
Si Si2 0.202832 0.311341 0.042403
Si Si3 0.428991 0.952297 0.523407
Si Si4 0.631721 0.823458 0.903943
Si Si5 0.746379 0.339527 0.710114
O O1 0.148228 0.152777 0.065416
O O2 0.147164 0.177916 0.325576
O O3 0.173809 0.818586 0.244858
O O4 0.000000 0.000000 0.000000
O O5 0.322142 0.242625 0.175799
O O6 0.201400 0.537763 0.101123
O O7 0.510690 0.878502 0.743718
O O8 0.354132 0.776029 0.372604
O O9 0.500000 0.000000 0.500000
O O10 0.357085 0.134142 0.480621
O O11 0.706592 0.005237 0.046817
#
# Coordination Sequence:
#
# PCOD8129432 Si02
#       5
#     4   4   4   4   4
#     4  12  31  51  83 113 148 202 257 328 395 462
#     4  12  28  52  76 114 156 197 264 320 386 461
#     4  12  26  41  71 110 152 206 253 305 379 454
#     4  12  25  46  71 113 153 201 255 312 374 460
#     4  12  26  48  76 105 155 203 253 318 381 451
#
# _framework density 22.922749
#
# number of rings (size 3 to 8) (size 9 to 14) (size 15 to 20)
#    0.000    0.000    6.000    2.400   11.200    2.400 
#    0.000    0.000    0.000    0.000    0.000    0.000 
#    0.000    0.000    0.000    0.000    0.000    0.000 
#
# Total GULP energy -248020.426929 kJ/mol
# GULP energy per Si atom -12401.021346 kJ/mol
# Density = 2.287058 g / cm^3
# Si number density = 22.922749 Si / 1000 Ang^3
#
#
#
# Elastic Constant Matrix: (Units=GPa)
#
#
# Indices 1 2 3 4 5 6 
#
# 1 142.9795 61.2427 40.1619 0.0000 5.7912 0.0000
# 2 61.2427 137.7075 31.1758 0.0000 9.8162 0.0000
# 3 40.1619 31.1758 80.5808 0.0000 14.7721 0.0000
# 4 0.0000 0.0000 0.0000 35.2061 0.0000 -3.0886
# 5 5.7912 9.8162 14.7721 0.0000 45.0383 0.0000
# 6 0.0000 0.0000 0.0000 -3.0886 0.0000 40.6651
#
#
#
# Elastic Compliance Matrix: (Units=1/GPa)
#
#
# Indices 1 2 3 4 5 6 
#
# 1 0.009424 -0.003450 -0.003487 0.000000 0.000684 0.000000
# 2 -0.003450 0.009247 -0.001670 0.000000 -0.001024 0.000000
# 3 -0.003487 -0.001670 0.015582 0.000000 -0.004298 0.000000
# 4 0.000000 0.000000 0.000000 0.028595 0.000000 0.002172
# 5 0.000684 -0.001024 -0.004298 0.000000 0.023748 0.000000
# 6 0.000000 0.000000 0.000000 0.002172 0.000000 0.024756
#
#
# Mechanical properties :
#
#
# Convention : Reuss Voigt Hill
#
# Bulk Modulus (GPa) = 58.69457 69.60316 64.14886
# Shear Modulus (GPa) = 37.24461 39.42773 38.33617
#
# Velocity S-wave (km/s) = 4.03524 4.15182 4.09394
# Velocity P-wave (km/s) = 6.88272 7.30846 7.09878
#
# Compressibility (1/GPa) = 0.01703735
#
# Stress axis : x y z
#
# Youngs Moduli (GPa) = 106.11488 108.13902 64.17557
#
# Poissons Ratio (x) = 0.37311 0.22380
# Poissons Ratio (y) = 0.36613 0.10720
# Poissons Ratio (z) = 0.37006 0.18063
#
# Static dielectric constant tensor:
#      x y z
#    x 8.429320 0.000000 16.525200 
#    y 0.000000 4.631640 0.000000 
#    z 16.525200 0.000000 66.693550 
# 
# 
# High freq. dielectric constant tensor:
#      x y z
#    x 1.907870 0.000000 0.000220 
#    y 0.000000 1.917820 0.000000 
#    z 0.000220 0.000000 1.907230 
# 
# From -- ./inp_files/33314.got.cif
#   From: 2010.03.12/outbox.cif.g09.slc.cpg/sg14_17_cif.got.tgz:33314.got - 2010.03.31 13:35:05.
