data_PCOD8129919
_publ_section_title
;
Structure prediction by ZEFSAII (Michael W. Deem and Ramdas Pophale) SiO2 
 PCOD8129919
Probable space group: C 2/C
;
_chemical_formula_sum "Si O2"
_cell_formula_units_Z 28
_cell_length_a 19.067982
_cell_length_b 12.897444
_cell_length_c 10.052864
_cell_angle_alpha 90.000000
_cell_angle_beta 24.727332
_cell_angle_gamma 90.000000
_cell_volume 1034.157026
_symmetry_space_group_name_H-M "C 2/C"
_symmetry_group_IT_number 15
_symmetry_cell_setting 'monoclinic'
loop_
_space_group_symop_operation_xyz
x,y,z
-x,y,1/2-z
-x,-y,-z
x,-y,1/2+z
1/2+x,1/2+y,z
1/2-x,1/2+y,1/2-z
1/2-x,1/2-y,-z
1/2+x,1/2-y,1/2+z
loop_
_atom_site_type_symbol
_atom_site_label
_atom_site_fract_x
_atom_site_fract_y
_atom_site_fract_z
Si Si1 0.232141 0.964401 0.803858
Si Si2 0.510008 0.808047 0.019726
Si Si3 0.853681 0.901119 0.820937
Si Si4 0.500000 0.872766 0.750000
O O1 0.337850 0.862971 0.665343
O O2 0.108915 0.937741 0.893984
O O3 0.345381 0.057095 0.555952
O O4 0.119317 0.006907 0.119757
O O5 0.342518 0.872556 0.335854
O O6 0.482341 0.693246 0.128059
O O7 0.547863 0.802071 0.795514
#
# Coordination Sequence:
#
# PCOD8129919 Si02
#       4
#     8   8   8   4
#     4  11  17  36  61  89 120 162 198 259 306 366
#     4  10  19  32  57  95 117 157 210 249 302 380
#     4  10  20  32  61  92 119 156 212 247 310 370
#     4  10  16  32  58  86 118 154 198 254 306 350
#
# _framework density 27.075191
#
# number of rings (size 3 to 8) (size 9 to 14) (size 15 to 20)
#    0.000    1.714    5.714    1.714    0.000    0.000 
#    0.000    1.429   12.571    1.714    7.429    0.000 
#    0.000    0.000    0.000    0.000    0.000    0.000 
#
# Total GULP energy -173592.156087 kJ/mol
# GULP energy per Si atom -12399.439720 kJ/mol
# Density = 2.701357 g / cm^3
# Si number density = 27.075191 Si / 1000 Ang^3
#
#
#
# Elastic Constant Matrix: (Units=GPa)
#
#
# Indices 1 2 3 4 5 6 
#
# 1 163.9038 64.4126 61.8777 0.0000 47.5639 0.0000
# 2 64.4126 141.2124 66.8863 0.0000 20.3481 0.0000
# 3 61.8777 66.8863 115.6668 0.0000 28.3212 0.0001
# 4 0.0000 0.0000 0.0000 42.2815 0.0000 11.5870
# 5 47.5639 20.3481 28.3212 0.0000 42.8170 0.0000
# 6 0.0000 0.0000 0.0001 11.5870 0.0000 10.9750
#
#
#
# Elastic Compliance Matrix: (Units=1/GPa)
#
#
# Indices 1 2 3 4 5 6 
#
# 1 0.010484 -0.002572 -0.001872 0.000000 -0.009186 0.000000
# 2 -0.002572 0.010426 -0.004939 0.000000 0.001169 0.000000
# 3 -0.001872 -0.004939 0.013626 0.000000 -0.004586 0.000000
# 4 0.000000 0.000000 0.000000 0.033280 0.000000 -0.035136
# 5 -0.009186 0.001169 -0.004586 0.000000 0.036037 0.000000
# 6 0.000000 0.000000 0.000000 -0.035136 0.000000 0.128211
#
#
# Mechanical properties :
#
#
# Convention : Reuss Voigt Hill
#
# Bulk Modulus (GPa) = 63.41421 89.68178 76.54800
# Shear Modulus (GPa) = 19.52453 34.38847 26.95650
#
# Velocity S-wave (km/s) = 2.68829 3.56773 3.15876
# Velocity P-wave (km/s) = 5.75397 7.08285 6.45271
#
# Compressibility (1/GPa) = 0.01576934
#
# Stress axis : x y z
#
# Youngs Moduli (GPa) = 95.37923 95.91701 73.38776
#
# Poissons Ratio (x) = 0.24668 0.13741
# Poissons Ratio (y) = 0.24530 0.36249
# Poissons Ratio (z) = 0.17859 0.47376
#
# Static dielectric constant tensor:
#      x y z
#    x 4.949880 0.000000 0.714510 
#    y 0.000000 4.882150 0.000000 
#    z 0.714510 0.000000 5.320210 
# 
# 
# High freq. dielectric constant tensor:
#      x y z
#    x 2.089570 0.000000 0.016820 
#    y 0.000000 2.074750 0.000000 
#    z 0.016820 0.000000 2.114010 
# 
# From -- ./inp_files/27363.got.cif
#   From: 2010.06.25/outbox.cif.g09.slc.cpg/sg15_14_cif.got.tgz:27363.got - 2010.06.28 07:06:18.
