data_PCOD8129126
_publ_section_title
;
Structure prediction by ZEFSAII (Michael W. Deem and Ramdas Pophale) SiO2 
 PCOD8129126
Probable space group: P 21/C
;
_chemical_formula_sum "Si O2"
_cell_formula_units_Z 20
_cell_length_a 6.627999
_cell_length_b 8.467840
_cell_length_c 17.450272
_cell_angle_alpha 90.000000
_cell_angle_beta 67.660226
_cell_angle_gamma 90.000000
_cell_volume 905.886308
_symmetry_space_group_name_H-M "P 21/C"
_symmetry_group_IT_number 14
_symmetry_cell_setting 'monoclinic'
loop_
_space_group_symop_operation_xyz
x,y,z
-x,1/2+y,1/2-z
-x,-y,-z
x,1/2-y,1/2+z
loop_
_atom_site_type_symbol
_atom_site_label
_atom_site_fract_x
_atom_site_fract_y
_atom_site_fract_z
Si Si1 0.696743 0.112454 0.940335
Si Si2 0.669081 0.297936 0.795549
Si Si3 0.104704 0.181606 0.147258
Si Si4 0.458395 0.352238 0.187504
Si Si5 0.897090 0.162889 0.540443
O O1 0.613561 0.236956 0.888619
O O2 0.876960 0.006058 0.870329
O O3 0.821002 0.214277 0.986435
O O4 0.500000 0.000000 0.000000
O O5 0.669365 0.485586 0.790166
O O6 0.483528 0.224005 0.767872
O O7 0.913847 0.260504 0.731543
O O8 0.334261 0.232288 0.149968
O O9 0.078898 0.255273 0.066713
O O10 0.694202 0.387102 0.120467
O O11 0.000000 0.000000 0.500000
#
# Coordination Sequence:
#
# PCOD8129126 Si02
#       5
#     4   4   4   4   4
#     4  12  25  45  72 103 143 186 233 301 364 421
#     4  11  26  42  71  99 137 187 233 291 357 432
#     4  11  24  46  68  99 138 182 238 285 359 431
#     4  11  24  45  68  99 141 182 238 295 352 435
#     4  11  26  43  69 103 137 184 235 294 361 425
#
# _framework density 22.077828
#
# number of rings (size 3 to 8) (size 9 to 14) (size 15 to 20)
#    0.000    0.800    2.000    4.200    5.600    8.000 
#    0.000    0.000    0.000    0.000    0.000    0.000 
#    0.000    0.000    0.000    0.000    0.000    0.000 
#
# Total GULP energy -247983.400215 kJ/mol
# GULP energy per Si atom -12399.170011 kJ/mol
# Density = 2.202758 g / cm^3
# Si number density = 22.077828 Si / 1000 Ang^3
#
#
#
# Elastic Constant Matrix: (Units=GPa)
#
#
# Indices 1 2 3 4 5 6 
#
# 1 81.8794 8.1837 25.3696 0.0000 15.4864 0.0000
# 2 8.1837 96.5254 20.3817 0.0000 0.4532 0.0000
# 3 25.3696 20.3817 94.8488 0.0000 17.8195 0.0000
# 4 0.0000 0.0000 0.0000 46.4307 0.0000 1.8957
# 5 15.4864 0.4532 17.8195 0.0000 32.5957 0.0000
# 6 0.0000 0.0000 0.0000 1.8957 0.0000 45.4352
#
#
#
# Elastic Compliance Matrix: (Units=1/GPa)
#
#
# Indices 1 2 3 4 5 6 
#
# 1 0.014086 -0.000609 -0.002654 0.000000 -0.005233 0.000000
# 2 -0.000609 0.010925 -0.002463 0.000000 0.001484 0.000000
# 3 -0.002654 -0.002463 0.012860 0.000000 -0.005735 0.000000
# 4 0.000000 0.000000 0.000000 0.021574 0.000000 -0.000900
# 5 -0.005233 0.001484 -0.005735 0.000000 0.036280 0.000000
# 6 0.000000 0.000000 0.000000 -0.000900 0.000000 0.022047
#
#
# Mechanical properties :
#
#
# Convention : Reuss Voigt Hill
#
# Bulk Modulus (GPa) = 37.85331 42.34706 40.10018
# Shear Modulus (GPa) = 36.22394 39.51354 37.86874
#
# Velocity S-wave (km/s) = 4.05500 4.23512 4.14604
# Velocity P-wave (km/s) = 6.25353 6.56791 6.41265
#
# Compressibility (1/GPa) = 0.02641777
#
# Stress axis : x y z
#
# Youngs Moduli (GPa) = 70.99272 91.53453 77.76235
#
# Poissons Ratio (x) = 0.05578 0.20634
# Poissons Ratio (y) = 0.04326 0.19157
# Poissons Ratio (z) = 0.18838 0.22549
#
# Static dielectric constant tensor:
#      x y z
#    x 4.053180 0.000000 0.212460 
#    y 0.000000 4.012240 0.000000 
#    z 0.212460 0.000000 4.052560 
# 
# 
# High freq. dielectric constant tensor:
#      x y z
#    x 1.875410 0.000000 0.008940 
#    y 0.000000 1.882200 0.000000 
#    z 0.008940 0.000000 1.875970 
# 
# From -- ./inp_files/52656.got.cif
#   From: 2010.03.12/outbox.cif.g09.slc.cpg/sg14_27_cif.got.tgz:52656.got - 2010.03.31 13:35:05.
