data_PCOD8129268
_publ_section_title
;
Structure prediction by ZEFSAII (Michael W. Deem and Ramdas Pophale) SiO2 
 PCOD8129268
Probable space group: P 21/C
;
_chemical_formula_sum "Si O2"
_cell_formula_units_Z 20
_cell_length_a 9.453014
_cell_length_b 10.260186
_cell_length_c 9.304140
_cell_angle_alpha 90.000000
_cell_angle_beta 80.002304
_cell_angle_gamma 90.000000
_cell_volume 888.702311
_symmetry_space_group_name_H-M "P 21/C"
_symmetry_group_IT_number 14
_symmetry_cell_setting 'monoclinic'
loop_
_space_group_symop_operation_xyz
x,y,z
-x,1/2+y,1/2-z
-x,-y,-z
x,1/2-y,1/2+z
loop_
_atom_site_type_symbol
_atom_site_label
_atom_site_fract_x
_atom_site_fract_y
_atom_site_fract_z
Si Si1 0.725624 0.835512 0.977124
Si Si2 0.804251 0.410845 0.950682
Si Si3 0.456259 0.725583 0.878729
Si Si4 0.620321 0.491488 0.728630
Si Si5 0.121834 0.134352 0.349499
O O1 0.581411 0.755196 0.970063
O O2 0.815722 0.867550 0.820811
O O3 0.687762 0.971380 0.062590
O O4 0.818104 0.755675 0.074342
O O5 0.738054 0.498202 0.834426
O O6 0.950572 0.346249 0.868213
O O7 0.694332 0.296309 0.013634
O O8 0.837591 0.499115 0.082668
O O9 0.493399 0.593148 0.786789
O O10 0.444946 0.846532 0.770522
#
# Coordination Sequence:
#
# PCOD8129268 Si02
#       5
#     4   4   4   4   4
#     4  12  24  48  74 104 148 192 248 302 371 430
#     4  11  26  46  72 106 148 196 248 299 371 433
#     4  12  25  46  79 110 146 194 247 305 360 447
#     4  12  26  47  77 111 145 195 248 307 364 434
#     4  11  25  47  72 104 150 197 238 308 368 438
#
# _framework density 22.504725000000001
#
# number of rings (size 3 to 8) (size 9 to 14) (size 15 to 20)
#    0.000    0.400    4.000    3.600    2.800    2.400 
#    3.600    0.000    0.000    0.000    0.000    0.000 
#    0.000    0.000    0.000    0.000    0.000    0.000 
#
# Total GULP energy -248118.787565 kJ/mol
# GULP energy per Si atom -12405.939378 kJ/mol
# Density = 2.245350 g / cm^3
# Si number density = 22.504725 Si / 1000 Ang^3
#
#
#
# Elastic Constant Matrix: (Units=GPa)
#
#
# Indices 1 2 3 4 5 6 
#
# 1 154.8915 54.6558 56.4508 0.0000 -22.0063 0.0000
# 2 54.6558 108.2881 40.4206 0.0000 -7.9559 0.0000
# 3 56.4508 40.4206 148.0869 0.0000 -13.7454 0.0000
# 4 0.0000 0.0000 0.0000 42.5634 0.0000 -1.6019
# 5 -22.0063 -7.9559 -13.7454 0.0000 28.6149 0.0000
# 6 0.0000 0.0000 0.0000 -1.6019 0.0000 24.2997
#
#
#
# Elastic Compliance Matrix: (Units=1/GPa)
#
#
# Indices 1 2 3 4 5 6 
#
# 1 0.009160 -0.003477 -0.002071 0.000000 0.005083 0.000000
# 2 -0.003477 0.011671 -0.001892 0.000000 -0.000338 0.000000
# 3 -0.002071 -0.001892 0.008229 0.000000 0.001834 0.000000
# 4 0.000000 0.000000 0.000000 0.023553 0.000000 0.001553
# 5 0.005083 -0.000338 0.001834 0.000000 0.039643 0.000000
# 6 0.000000 0.000000 0.000000 0.001553 0.000000 0.041255
#
#
# Mechanical properties :
#
#
# Convention : Reuss Voigt Hill
#
# Bulk Modulus (GPa) = 70.51759 79.36900 74.94329
# Shear Modulus (GPa) = 32.65501 36.41154 34.53328
#
# Velocity S-wave (km/s) = 3.81337 4.02674 3.92151
# Velocity P-wave (km/s) = 7.12683 7.54744 7.34014
#
# Compressibility (1/GPa) = 0.01418086
#
# Stress axis : x y z
#
# Youngs Moduli (GPa) = 109.17148 85.68480 121.52448
#
# Poissons Ratio (x) = 0.29791 0.25167
# Poissons Ratio (y) = 0.37956 0.22987
# Poissons Ratio (z) = 0.22609 0.16207
#
# Static dielectric constant tensor:
#      x y z
#    x 4.269260 0.000000 -0.041570 
#    y 0.000000 3.927380 0.000000 
#    z -0.041570 0.000000 4.200880 
# 
# 
# High freq. dielectric constant tensor:
#      x y z
#    x 1.894630 0.000000 0.000680 
#    y 0.000000 1.884450 0.000000 
#    z 0.000680 0.000000 1.898950 
# 
# From -- ./inp_files/7876.got.cif
#   From: 2010.03.12/outbox.cif.g09.slc.cpg/sg14_4_cif.got.tgz:7876.got - 2010.03.31 13:35:05.
