data_PCOD8129386
_publ_section_title
;
Structure prediction by ZEFSAII (Michael W. Deem and Ramdas Pophale) SiO2 
 PCOD8129386
Probable space group: P 21/C
;
_chemical_formula_sum "Si O2"
_cell_formula_units_Z 20
_cell_length_a 8.789156
_cell_length_b 4.778308
_cell_length_c 19.897204
_cell_angle_alpha 90.000000
_cell_angle_beta 104.541248
_cell_angle_gamma 90.000000
_cell_volume 808.861154
_symmetry_space_group_name_H-M "P 21/C"
_symmetry_group_IT_number 14
_symmetry_cell_setting 'monoclinic'
loop_
_space_group_symop_operation_xyz
x,y,z
-x,1/2+y,1/2-z
-x,-y,-z
x,1/2-y,1/2+z
loop_
_atom_site_type_symbol
_atom_site_label
_atom_site_fract_x
_atom_site_fract_y
_atom_site_fract_z
Si Si1 0.601969 0.518742 0.656736
Si Si2 0.097657 0.702327 0.236693
Si Si3 0.745716 0.382106 0.378805
Si Si4 0.171920 0.393309 0.025087
Si Si5 0.631513 0.018091 0.570111
O O1 0.733523 0.427180 0.724490
O O2 0.422787 0.493546 0.665799
O O3 0.618048 0.840975 0.637123
O O4 0.630437 0.340270 0.592433
O O5 0.127821 0.835573 0.166811
O O6 0.968581 0.450374 0.222229
O O7 0.822414 0.586685 0.442259
O O8 0.718781 0.091380 0.415547
O O9 0.216700 0.405446 0.951676
O O10 0.000000 0.500000 0.000000
O O11 0.500000 0.000000 0.500000
#
# Coordination Sequence:
#
# PCOD8129386 Si02
#       5
#     4   4   4   4   4
#     4  12  26  47  78 103 145 195 240 300 357 444
#     4  12  30  50  74 107 147 196 251 311 365 424
#     4  12  26  50  73 105 146 193 247 291 364 440
#     4  12  27  43  74 111 147 186 232 307 365 431
#     4  12  23  45  75 110 143 181 243 294 368 436
#
# _framework density 24.726123000000001
#
# number of rings (size 3 to 8) (size 9 to 14) (size 15 to 20)
#    0.000    0.000    4.000    4.800    8.400    4.800 
#    0.000    0.000    0.000    0.000    0.000    0.000 
#    0.000    0.000    0.000    0.000    0.000    0.000 
#
# Total GULP energy -247909.836703 kJ/mol
# GULP energy per Si atom -12395.491835 kJ/mol
# Density = 2.466984 g / cm^3
# Si number density = 24.726123 Si / 1000 Ang^3
#
#
#
# Elastic Constant Matrix: (Units=GPa)
#
#
# Indices 1 2 3 4 5 6 
#
# 1 133.1312 26.9569 23.5129 0.0000 -8.7305 0.0000
# 2 26.9569 101.8064 13.2948 0.0000 -13.1553 0.0000
# 3 23.5129 13.2948 50.9184 0.0000 -14.2882 0.0000
# 4 0.0000 0.0000 0.0000 43.7251 0.0000 -3.1531
# 5 -8.7305 -13.1553 -14.2882 0.0000 44.9827 0.0000
# 6 0.0000 0.0000 0.0000 -3.1531 0.0000 40.7149
#
#
#
# Elastic Compliance Matrix: (Units=1/GPa)
#
#
# Indices 1 2 3 4 5 6 
#
# 1 0.008484 -0.001793 -0.003441 0.000000 0.000029 0.000000
# 2 -0.001793 0.010778 -0.001316 0.000000 0.002386 0.000000
# 3 -0.003441 -0.001316 0.023359 0.000000 0.006367 0.000000
# 4 0.000000 0.000000 0.000000 0.022999 0.000000 0.001781
# 5 0.000029 0.002386 0.006367 0.000000 0.024956 0.000000
# 6 0.000000 0.000000 0.000000 0.001781 0.000000 0.024699
#
#
# Mechanical properties :
#
#
# Convention : Reuss Voigt Hill
#
# Bulk Modulus (GPa) = 33.87751 45.93170 39.90460
# Shear Modulus (GPa) = 36.17516 40.69061 38.43289
#
# Velocity S-wave (km/s) = 3.82911 4.06107 3.94679
# Velocity P-wave (km/s) = 5.76891 6.37230 6.07810
#
# Compressibility (1/GPa) = 0.02951811
#
# Stress axis : x y z
#
# Youngs Moduli (GPa) = 117.86587 92.78500 42.81057
#
# Poissons Ratio (x) = 0.16639 0.14733
# Poissons Ratio (y) = 0.21137 0.05636
# Poissons Ratio (z) = 0.40563 0.12215
#
# Static dielectric constant tensor:
#      x y z
#    x 4.575690 0.000000 0.121160 
#    y 0.000000 4.913560 0.000000 
#    z 0.121160 0.000000 3.922070 
# 
# 
# High freq. dielectric constant tensor:
#      x y z
#    x 2.002080 0.000000 -0.002010 
#    y 0.000000 1.997390 0.000000 
#    z -0.002010 0.000000 1.966890 
# 
# From -- ./inp_files/54020.got.cif
#   From: 2010.03.12/outbox.cif.g09.slc.cpg/sg14_28_cif.got.tgz:54020.got - 2010.03.31 13:35:05.
