data_PCOD8129236
_publ_section_title
;
Structure prediction by ZEFSAII (Michael W. Deem and Ramdas Pophale) SiO2 
 PCOD8129236
Probable space group: P 21/C
;
_chemical_formula_sum "Si O2"
_cell_formula_units_Z 20
_cell_length_a 7.096467
_cell_length_b 6.683611
_cell_length_c 21.234155
_cell_angle_alpha 90.000000
_cell_angle_beta 98.637595
_cell_angle_gamma 90.000000
_cell_volume 995.713608
_symmetry_space_group_name_H-M "P 21/C"
_symmetry_group_IT_number 14
_symmetry_cell_setting 'monoclinic'
loop_
_space_group_symop_operation_xyz
x,y,z
-x,1/2+y,1/2-z
-x,-y,-z
x,1/2-y,1/2+z
loop_
_atom_site_type_symbol
_atom_site_label
_atom_site_fract_x
_atom_site_fract_y
_atom_site_fract_z
Si Si1 0.343634 0.185305 0.665194
Si Si2 0.697583 0.528597 0.975274
Si Si3 0.059727 0.525126 0.680771
Si Si4 0.718543 0.143352 0.237854
Si Si5 0.983468 0.197005 0.957854
O O1 0.532342 0.311980 0.687805
O O2 0.157984 0.313403 0.672947
O O3 0.338963 0.139321 0.591713
O O4 0.342377 0.980570 0.703920
O O5 0.793961 0.312875 0.970160
O O6 0.500000 0.500000 0.000000
O O7 0.831609 0.664892 0.025457
O O8 0.853919 0.487838 0.700409
O O9 0.032040 0.649824 0.616199
O O10 0.183936 0.650837 0.736349
O O11 0.000000 0.000000 0.000000
#
# Coordination Sequence:
#
# PCOD8129236 Si02
#       5
#     4   4   4   4   4
#     4  12  25  44  66 103 138 171 224 284 324 403
#     4  11  27  44  69 101 136 174 229 277 331 394
#     4  12  25  44  69 100 138 174 225 276 337 397
#     4  12  26  42  71 100 134 178 221 274 342 394
#     4  11  25  45  69  99 137 178 220 278 332 395
#
# _framework density 20.086095
#
# number of rings (size 3 to 8) (size 9 to 14) (size 15 to 20)
#    0.000    0.400    8.000    0.000    2.800    5.600 
#    0.000    0.000    0.000    0.000    0.000    0.000 
#    0.000    0.000    0.000    0.000    0.000    0.000 
#
# Total GULP energy -248168.820661 kJ/mol
# GULP energy per Si atom -12408.441033 kJ/mol
# Density = 2.004038 g / cm^3
# Si number density = 20.086095 Si / 1000 Ang^3
#
#
#
# Elastic Constant Matrix: (Units=GPa)
#
#
# Indices 1 2 3 4 5 6 
#
# 1 126.7634 27.3134 36.4364 0.0000 -5.8502 0.0000
# 2 27.3134 84.4723 30.1385 0.0000 -3.5221 0.0000
# 3 36.4364 30.1385 85.2158 0.0000 10.4238 0.0000
# 4 0.0000 0.0000 0.0000 50.7873 0.0000 3.4813
# 5 -5.8502 -3.5221 10.4238 0.0000 28.4524 0.0000
# 6 0.0000 0.0000 0.0000 3.4813 0.0000 36.5886
#
#
#
# Elastic Compliance Matrix: (Units=1/GPa)
#
#
# Indices 1 2 3 4 5 6 
#
# 1 0.009490 -0.001543 -0.003902 0.000000 0.003190 0.000000
# 2 -0.001543 0.014159 -0.004736 0.000000 0.003170 0.000000
# 3 -0.003902 -0.004736 0.015963 0.000000 -0.007237 0.000000
# 4 0.000000 0.000000 0.000000 0.019819 0.000000 -0.001886
# 5 0.003190 0.003170 -0.007237 0.000000 0.038846 0.000000
# 6 0.000000 0.000000 0.000000 -0.001886 0.000000 0.027510
#
#
# Mechanical properties :
#
#
# Convention : Reuss Voigt Hill
#
# Bulk Modulus (GPa) = 51.94661 53.80313 52.87487
# Shear Modulus (GPa) = 32.77250 36.66987 34.72118
#
# Velocity S-wave (km/s) = 4.04369 4.27738 4.16218
# Velocity P-wave (km/s) = 6.90797 7.15815 7.03417
#
# Compressibility (1/GPa) = 0.01925053
#
# Stress axis : x y z
#
# Youngs Moduli (GPa) = 105.37335 70.62650 62.64309
#
# Poissons Ratio (x) = 0.10900 0.24444
# Poissons Ratio (y) = 0.16262 0.29665
# Poissons Ratio (z) = 0.41118 0.33446
#
# Static dielectric constant tensor:
#      x y z
#    x 2.543780 0.000000 1.735250 
#    y 0.000000 3.769300 0.000000 
#    z 1.735250 0.000000 1.512940 
# 
# 
# High freq. dielectric constant tensor:
#      x y z
#    x 1.792160 0.000000 0.005710 
#    y 0.000000 1.799050 0.000000 
#    z 0.005710 0.000000 1.797230 
# 
# From -- ./inp_files/70814.got.cif
#   From: 2010.03.12/outbox.cif.g09.slc.cpg/sg14_36_cif.got.tgz:70814.got - 2010.03.31 13:35:05.
