data_PCOD8129767
_publ_section_title
;
Structure prediction by ZEFSAII (Michael W. Deem and Ramdas Pophale) SiO2 
 PCOD8129767
Probable space group: C 2/C
;
_chemical_formula_sum "Si O2"
_cell_formula_units_Z 32
_cell_length_a 12.880760
_cell_length_b 20.971600
_cell_length_c 13.286384
_cell_angle_alpha 90.000000
_cell_angle_beta 157.432322
_cell_angle_gamma 90.000000
_cell_volume 1377.386804
_symmetry_space_group_name_H-M "C 2/C"
_symmetry_group_IT_number 15
_symmetry_cell_setting 'monoclinic'
loop_
_space_group_symop_operation_xyz
x,y,z
-x,y,1/2-z
-x,-y,-z
x,-y,1/2+z
1/2+x,1/2+y,z
1/2-x,1/2+y,1/2-z
1/2-x,1/2-y,-z
1/2+x,1/2-y,1/2+z
loop_
_atom_site_type_symbol
_atom_site_label
_atom_site_fract_x
_atom_site_fract_y
_atom_site_fract_z
Si Si1 0.219790 0.179812 0.016332
Si Si2 0.416733 0.709299 0.379262
Si Si3 0.698892 0.571737 0.270224
Si Si4 0.655020 0.000568 0.791176
O O1 0.000000 0.142767 0.750000
O O2 0.500000 0.142106 0.250000
O O3 0.250000 0.250000 0.000000
O O4 0.151591 0.186115 0.070848
O O5 0.718401 0.737815 0.653467
O O6 0.386346 0.645145 0.286743
O O7 0.778095 0.557854 0.224283
O O8 0.966307 0.555065 0.572926
O O9 0.443870 0.530620 0.079185
O O10 0.500000 0.973526 0.750000
#
# Coordination Sequence:
#
# PCOD8129767 Si02
#       4
#     8   8   8   8
#     4  10  16  29  43  68 109 160 188 215 268 368
#     4  12  21  34  55  83 129 163 182 242 308 365
#     4  10  23  39  64  97 119 158 214 247 304 382
#     4  10  21  44  67  88 120 158 211 268 307 340
#
# _framework density 23.232399000000001
#
# number of rings (size 3 to 8) (size 9 to 14) (size 15 to 20)
#    0.000    1.500    5.000    2.250    0.000    1.000 
#    0.000    5.000    0.000   15.000    0.000    0.000 
#    0.000    0.000    0.000    0.000    0.000    0.000 
#
# Total GULP energy -198275.123857 kJ/mol
# GULP energy per Si atom -12392.195241 kJ/mol
# Density = 2.317952 g / cm^3
# Si number density = 23.232399 Si / 1000 Ang^3
#
#
#
# Elastic Constant Matrix: (Units=GPa)
#
#
# Indices 1 2 3 4 5 6 
#
# 1 71.2664 2.1444 1.2087 -0.0004 20.5497 -0.0003
# 2 2.1444 97.2651 17.9453 0.0041 -9.6854 0.0021
# 3 1.2087 17.9453 155.5256 0.0007 12.9886 0.0015
# 4 -0.0004 0.0041 0.0007 67.1087 -0.0021 18.5600
# 5 20.5497 -9.6854 12.9886 -0.0021 27.3063 -0.0011
# 6 -0.0003 0.0021 0.0015 18.5600 -0.0011 11.4638
#
#
#
# Elastic Compliance Matrix: (Units=1/GPa)
#
#
# Indices 1 2 3 4 5 6 
#
# 1 0.018506 -0.002195 0.001393 0.000000 -0.015368 -0.000001
# 2 -0.002195 0.011319 -0.001835 0.000000 0.006540 -0.000001
# 3 0.001393 -0.001835 0.007053 0.000000 -0.005054 -0.000002
# 4 0.000000 0.000000 0.000000 0.026983 0.000000 -0.043686
# 5 -0.015368 0.006540 -0.005054 0.000000 0.052911 0.000004
# 6 -0.000001 -0.000001 -0.000002 -0.043686 0.000004 0.157960
#
#
# Mechanical properties :
#
#
# Convention : Reuss Voigt Hill
#
# Bulk Modulus (GPa) = 31.64283 40.73931 36.19107
# Shear Modulus (GPa) = 17.20927 41.35967 29.28447
#
# Velocity S-wave (km/s) = 2.72461 4.22389 3.55421
# Velocity P-wave (km/s) = 4.85260 6.43132 5.69691
#
# Compressibility (1/GPa) = 0.03160273
#
# Stress axis : x y z
#
# Youngs Moduli (GPa) = 54.03764 88.34396 141.78727
#
# Poissons Ratio (x) = 0.19394 -0.19750
# Poissons Ratio (y) = 0.11863 0.26021
# Poissons Ratio (z) = -0.07527 0.16213
#
# Static dielectric constant tensor:
#      x y z
#    x 3.808670 -0.000010 0.189980 
#    y -0.000010 3.610900 -0.000090 
#    z 0.189980 -0.000090 4.526880 
# 
# 
# High freq. dielectric constant tensor:
#      x y z
#    x 1.889130 0.000000 0.006740 
#    y 0.000000 1.903260 0.000000 
#    z 0.006740 0.000000 1.944250 
# 
# From -- ./inp_files/156399.got.cif
#   From: 2010.06.25/outbox.cif.g09.slc.cpg/sg15_79_cif.got.tgz:156399.got - 2010.06.28 07:06:18.
