data_PCOD8129644
_publ_section_title
;
Structure prediction by ZEFSAII (Michael W. Deem and Ramdas Pophale) SiO2 
 PCOD8129644
Probable space group: C 2/C
;
_chemical_formula_sum "Si O2"
_cell_formula_units_Z 48
_cell_length_a 10.630911
_cell_length_b 28.911956
_cell_length_c 17.444496
_cell_angle_alpha 90.000000
_cell_angle_beta 154.830387
_cell_angle_gamma 90.000000
_cell_volume 2280.347879
_symmetry_space_group_name_H-M "C 2/C"
_symmetry_group_IT_number 15
_symmetry_cell_setting 'monoclinic'
loop_
_space_group_symop_operation_xyz
x,y,z
-x,y,1/2-z
-x,-y,-z
x,-y,1/2+z
1/2+x,1/2+y,z
1/2-x,1/2+y,1/2-z
1/2-x,1/2-y,-z
1/2+x,1/2-y,1/2+z
loop_
_atom_site_type_symbol
_atom_site_label
_atom_site_fract_x
_atom_site_fract_y
_atom_site_fract_z
Si Si1 0.158579 0.342073 0.757514
Si Si2 0.602620 0.578404 0.192085
Si Si3 0.214333 0.982144 0.300727
Si Si4 0.685580 0.727978 0.545795
Si Si5 0.656926 0.809254 0.066418
Si Si6 0.539240 0.103133 0.958943
O O1 0.240953 0.396603 0.793766
O O2 0.000000 0.333089 0.750000
O O3 0.935363 0.327717 0.567379
O O4 0.462925 0.314490 0.917211
O O5 0.582051 0.522337 0.171437
O O6 0.796978 0.587362 0.374077
O O7 0.281151 0.602620 0.024602
O O8 0.287458 0.934488 0.296088
O O9 0.000000 0.967558 0.250000
O O10 0.500000 0.000000 0.500000
O O11 0.750000 0.750000 0.500000
O O12 0.543417 0.765260 0.525052
O O13 0.000000 0.709875 0.750000
O O14 0.608569 0.846946 0.107833
O O15 0.000000 0.794855 0.250000
#
# Coordination Sequence:
#
# PCOD8129644 Si02
#       6
#     8   8   8   8   8   8
#     4  11  25  43  63  90 132 176 211 261 323 382
#     4   9  17  33  55  84 124 160 201 251 318 376
#     4  10  15  27  52  89 119 152 195 260 318 364
#     4  12  25  43  69  94 126 168 213 266 325 387
#     4  11  24  40  63  96 128 164 216 267 311 381
#     4   9  17  31  57  91 122 154 202 264 315 367
#
# _framework density 21.049419
#
# number of rings (size 3 to 8) (size 9 to 14) (size 15 to 20)
#    0.000    1.667    5.000    2.000    4.667    1.333 
#    0.000    0.000    0.000    1.000    0.000    0.000 
#    0.000    0.000    0.000    0.000    0.000    0.000 
#
# Total GULP energy -297431.338581 kJ/mol
# GULP energy per Si atom -12392.972441 kJ/mol
# Density = 2.100151 g / cm^3
# Si number density = 21.049419 Si / 1000 Ang^3
#
#
#
# Elastic Constant Matrix: (Units=GPa)
#
#
# Indices 1 2 3 4 5 6 
#
# 1 87.9284 22.0612 35.4906 -0.0014 15.5580 0.0003
# 2 22.0612 94.7310 20.4595 0.0000 10.4843 0.0005
# 3 35.4906 20.4595 100.9441 0.0148 24.5903 0.0002
# 4 -0.0014 0.0000 0.0148 25.2648 0.0004 8.4705
# 5 15.5580 10.4843 24.5903 0.0004 30.5825 -0.0003
# 6 0.0003 0.0005 0.0002 8.4705 -0.0003 25.4060
#
#
#
# Elastic Compliance Matrix: (Units=1/GPa)
#
#
# Indices 1 2 3 4 5 6 
#
# 1 0.013982 -0.002085 -0.003650 0.000003 -0.003464 -0.000001
# 2 -0.002085 0.011502 -0.001114 0.000001 -0.001987 0.000000
# 3 -0.003650 -0.001114 0.013518 -0.000009 -0.008631 0.000003
# 4 0.000003 0.000001 -0.000009 0.044562 0.000004 -0.014857
# 5 -0.003464 -0.001987 -0.008631 0.000004 0.042081 -0.000001
# 6 -0.000001 0.000000 0.000003 -0.014857 -0.000001 0.044314
#
#
# Mechanical properties :
#
#
# Convention : Reuss Voigt Hill
#
# Bulk Modulus (GPa) = 39.51799 48.84733 44.18266
# Shear Modulus (GPa) = 26.02929 29.95682 27.99305
#
# Velocity S-wave (km/s) = 3.52032 3.77658 3.65070
# Velocity P-wave (km/s) = 5.94459 6.50178 6.22942
#
# Compressibility (1/GPa) = 0.02530493
#
# Stress axis : x y z
#
# Youngs Moduli (GPa) = 71.52129 86.93967 73.97584
#
# Poissons Ratio (x) = 0.18123 0.26998
# Poissons Ratio (y) = 0.14909 0.08244
# Poissons Ratio (z) = 0.26102 0.09689
#
# Static dielectric constant tensor:
#      x y z
#    x 3.631960 0.000000 0.133070 
#    y 0.000000 5.877690 0.000090 
#    z 0.133070 0.000090 4.537330 
# 
# 
# High freq. dielectric constant tensor:
#      x y z
#    x 1.795640 0.000000 0.040500 
#    y 0.000000 1.834640 0.000000 
#    z 0.040500 0.000000 1.814440 
# 
# From -- ./inp_files/241124.got.cif
#   From: 2010.06.25/outbox.cif.g09.slc.cpg/sg15_121_cif.got.tgz:241124.got - 2010.06.28 07:06:18.
