data_PCOD8129912
_publ_section_title
;
Structure prediction by ZEFSAII (Michael W. Deem and Ramdas Pophale) SiO2 
 PCOD8129912
Probable space group: C 2/C
;
_chemical_formula_sum "Si O2"
_cell_formula_units_Z 52
_cell_length_a 12.065909
_cell_length_b 15.569459
_cell_length_c 20.634996
_cell_angle_alpha 90.000000
_cell_angle_beta 46.479762
_cell_angle_gamma 90.000000
_cell_volume 2810.959186
_symmetry_space_group_name_H-M "C 2/C"
_symmetry_group_IT_number 15
_symmetry_cell_setting 'monoclinic'
loop_
_space_group_symop_operation_xyz
x,y,z
-x,y,1/2-z
-x,-y,-z
x,-y,1/2+z
1/2+x,1/2+y,z
1/2-x,1/2+y,1/2-z
1/2-x,1/2-y,-z
1/2+x,1/2-y,1/2+z
loop_
_atom_site_type_symbol
_atom_site_label
_atom_site_fract_x
_atom_site_fract_y
_atom_site_fract_z
Si Si1 0.111357 0.939051 0.495658
Si Si2 0.517311 0.864440 0.974063
Si Si3 0.863846 0.323515 0.347352
Si Si4 0.225965 0.819886 0.712487
Si Si5 0.761149 0.496335 0.057450
Si Si6 0.975317 0.765947 0.600808
Si Si7 0.500000 0.547670 0.250000
O O1 0.235272 0.896216 0.398535
O O2 0.202981 0.999558 0.507760
O O3 0.028380 0.863446 0.568689
O O4 0.000000 0.000000 0.500000
O O5 0.597225 0.847119 0.871003
O O6 0.635821 0.920829 0.967956
O O7 0.469207 0.779569 0.033499
O O8 0.358717 0.910716 0.024795
O O9 0.801639 0.239105 0.338488
O O10 0.000000 0.363869 0.250000
O O11 0.912617 0.291173 0.399184
O O12 0.190762 0.772232 0.795259
O O13 0.102548 0.896340 0.757985
O O14 0.614391 0.488037 0.163150
#
# Coordination Sequence:
#
# PCOD8129912 Si02
#       7
#     8   8   8   8   8   8   4
#     4  12  23  38  56  86 121 151 190 247 296 334
#     4  10  20  35  62  86 117 147 197 236 291 348
#     4  10  19  35  61  88 107 146 203 244 281 340
#     4  10  17  31  60  90 108 148 193 248 283 333
#     4  10  21  37  54  90 118 153 185 242 293 347
#     4  11  18  36  62  83 111 152 198 238 281 343
#     4  10  16  32  56  86 116 144 194 240 292 326
#
# _framework density 18.499023999999999
#
# number of rings (size 3 to 8) (size 9 to 14) (size 15 to 20)
#    0.000    1.538    6.923    1.385    0.000    0.000 
#    8.308    0.769    0.000    0.000    0.000    0.000 
#    0.000    0.000    0.000    0.000    0.000    0.000 
#
# Total GULP energy -322196.553283 kJ/mol
# GULP energy per Si atom -12392.175126 kJ/mol
# Density = 1.845692 g / cm^3
# Si number density = 18.499024 Si / 1000 Ang^3
#
#
#
# Elastic Constant Matrix: (Units=GPa)
#
#
# Indices 1 2 3 4 5 6 
#
# 1 74.3748 38.4600 44.2509 0.0007 -9.2058 0.0006
# 2 38.4600 68.0867 56.9656 0.0010 -14.1222 0.0008
# 3 44.2509 56.9656 155.8439 0.0044 -21.5648 0.0037
# 4 0.0007 0.0010 0.0044 418.1489 -0.0018 311.4712
# 5 -9.2058 -14.1222 -21.5648 -0.0018 21.0985 -0.0014
# 6 0.0006 0.0008 0.0037 311.4712 -0.0014 290.9849
#
#
#
# Elastic Compliance Matrix: (Units=1/GPa)
#
#
# Indices 1 2 3 4 5 6 
#
# 1 0.019493 -0.009170 -0.002161 0.000000 0.000158 0.000000
# 2 -0.009170 0.026479 -0.006029 0.000000 0.007561 0.000000
# 3 -0.002161 -0.006029 0.009953 0.000000 0.005194 0.000000
# 4 0.000000 0.000000 0.000000 0.011800 0.000000 -0.012630
# 5 0.000158 0.007561 0.005194 0.000000 0.057836 0.000000
# 6 0.000000 0.000000 0.000000 -0.012630 0.000000 0.016956
#
#
# Mechanical properties :
#
#
# Convention : Reuss Voigt Hill
#
# Bulk Modulus (GPa) = 47.15882 64.18428 55.67155
# Shear Modulus (GPa) = 27.12902 156.62170 91.87536
#
# Velocity S-wave (km/s) = 3.83366 9.21133 7.05498
# Velocity P-wave (km/s) = 6.71892 12.16153 9.82463
#
# Compressibility (1/GPa) = 0.02120494
#
# Stress axis : x y z
#
# Youngs Moduli (GPa) = 51.30156 37.76521 100.47342
#
# Poissons Ratio (x) = 0.34630 0.21713
# Poissons Ratio (y) = 0.47043 0.60577
# Poissons Ratio (z) = 0.11086 0.22769
#
# Static dielectric constant tensor:
#      x y z
#    x 3.059610 0.000000 -0.218160 
#    y 0.000000 3.203240 0.000000 
#    z -0.218160 0.000000 3.845060 
# 
# 
# High freq. dielectric constant tensor:
#      x y z
#    x 1.667460 0.000000 -0.006470 
#    y 0.000000 1.695900 0.000000 
#    z -0.006470 0.000000 1.746470 
# 
# From -- ./inp_files/238638.got.cif
#   From: 2010.06.25/outbox.cif.g09.slc.cpg/sg15_120_cif.got.tgz:238638.got - 2010.06.28 07:06:18.
