data_PCOD8129515
_publ_section_title
;
Structure prediction by ZEFSAII (Michael W. Deem and Ramdas Pophale) SiO2 
 PCOD8129515
Probable space group: P 21/C
;
_chemical_formula_sum "Si O2"
_cell_formula_units_Z 24
_cell_length_a 8.984266
_cell_length_b 11.839174
_cell_length_c 25.369228
_cell_angle_alpha 90.000000
_cell_angle_beta 28.612532
_cell_angle_gamma 90.000000
_cell_volume 1292.234935
_symmetry_space_group_name_H-M "P 21/C"
_symmetry_group_IT_number 14
_symmetry_cell_setting 'monoclinic'
loop_
_space_group_symop_operation_xyz
x,y,z
-x,1/2+y,1/2-z
-x,-y,-z
x,1/2-y,1/2+z
loop_
_atom_site_type_symbol
_atom_site_label
_atom_site_fract_x
_atom_site_fract_y
_atom_site_fract_z
Si Si1 0.029923 0.266568 0.067864
Si Si2 0.440480 0.568472 0.272841
Si Si3 0.291642 0.607211 0.743300
Si Si4 0.108247 0.909783 0.078143
Si Si5 0.415103 0.605705 0.592021
Si Si6 0.852671 0.775913 0.583621
O O1 0.760736 0.175199 0.150465
O O2 0.971933 0.357748 0.132401
O O3 0.363065 0.214208 0.976873
O O4 0.002327 0.316567 0.017274
O O5 0.585350 0.517311 0.280946
O O6 0.729807 0.607929 0.147166
O O7 0.225489 0.471992 0.313113
O O8 0.188140 0.603504 0.714098
O O9 0.571179 0.694508 0.657494
O O10 0.194092 0.878539 0.110973
O O11 0.085820 0.796039 0.049249
O O12 0.375818 0.991903 0.972201
#
# Coordination Sequence:
#
# PCOD8129515 Si02
#       6
#     4   4   4   4   4   4
#     4   9  17  30  48  69  94 124 155 191 234 274
#     4   9  17  30  48  70  91 120 158 193 231 270
#     4   9  17  30  47  68  95 124 155 192 232 274
#     4   9  17  31  51  72  91 120 159 193 228 272
#     4   9  17  31  50  70  94 123 156 191 229 277
#     4   9  17  30  48  69  93 120 157 196 228 271
#
# _framework density 18.572474
#
# number of rings (size 3 to 8) (size 9 to 14) (size 15 to 20)
#    0.000    3.000    0.000    1.000    0.000    4.667 
#    0.000   13.333    0.000    2.000    0.000    0.000 
#    0.000    0.000    0.000    0.000    0.000    0.000 
#
# Total GULP energy -297324.053861 kJ/mol
# GULP energy per Si atom -12388.502244 kJ/mol
# Density = 1.853020 g / cm^3
# Si number density = 18.572474 Si / 1000 Ang^3
#
#
#
# Elastic Constant Matrix: (Units=GPa)
#
#
# Indices 1 2 3 4 5 6 
#
# 1 131.8266 29.4600 58.0575 0.0000 34.9405 0.0000
# 2 29.4600 41.4716 25.2961 0.0000 10.2261 0.0000
# 3 58.0575 25.2961 85.1755 0.0000 31.4338 0.0000
# 4 0.0000 0.0000 0.0000 13.2424 0.0000 3.0410
# 5 34.9405 10.2261 31.4338 0.0000 33.7658 0.0000
# 6 0.0000 0.0000 0.0000 3.0410 0.0000 17.1245
#
#
#
# Elastic Compliance Matrix: (Units=1/GPa)
#
#
# Indices 1 2 3 4 5 6 
#
# 1 0.012501 -0.004302 -0.004494 0.000000 -0.007449 0.000000
# 2 -0.004302 0.030959 -0.006771 0.000000 0.001379 0.000000
# 3 -0.004494 -0.006771 0.021848 0.000000 -0.013638 0.000000
# 4 0.000000 0.000000 0.000000 0.078726 0.000000 -0.013980
# 5 -0.007449 0.001379 -0.013638 0.000000 0.049602 0.000000
# 6 0.000000 0.000000 0.000000 -0.013980 0.000000 0.060878
#
#
# Mechanical properties :
#
#
# Convention : Reuss Voigt Hill
#
# Bulk Modulus (GPa) = 29.26292 53.78900 41.52596
# Shear Modulus (GPa) = 16.83283 22.53721 19.68502
#
# Velocity S-wave (km/s) = 3.01380 3.48727 3.25915
# Velocity P-wave (km/s) = 5.28213 6.72602 6.04732
#
# Compressibility (1/GPa) = 0.03417294
#
# Stress axis : x y z
#
# Youngs Moduli (GPa) = 79.99547 32.30083 45.77163
#
# Poissons Ratio (x) = 0.13896 0.20570
# Poissons Ratio (y) = 0.34415 0.30992
# Poissons Ratio (z) = 0.35950 0.21871
#
# Static dielectric constant tensor:
#      x y z
#    x 3.426240 0.000000 0.329040 
#    y 0.000000 3.390400 0.000000 
#    z 0.329040 0.000000 3.597950 
# 
# 
# High freq. dielectric constant tensor:
#      x y z
#    x 1.712350 0.000000 0.024480 
#    y 0.000000 1.704150 0.000000 
#    z 0.024480 0.000000 1.706660 
# 
# From -- ./inp_files/24066.got.cif
#   From: 2010.03.12/outbox.cif.g09.slc.cpg/sg14_13_cif.got.tgz:24066.got - 2010.03.31 13:35:05.
