data_PCOD8129511
_publ_section_title
;
Structure prediction by ZEFSAII (Michael W. Deem and Ramdas Pophale) SiO2 
 PCOD8129511
Probable space group: P 21/C
;
_chemical_formula_sum "Si O2"
_cell_formula_units_Z 32
_cell_length_a 14.314453
_cell_length_b 19.107551
_cell_length_c 23.082980
_cell_angle_alpha 90.000000
_cell_angle_beta 161.985097
_cell_angle_gamma 90.000000
_cell_volume 1952.547166
_symmetry_space_group_name_H-M "P 21/C"
_symmetry_group_IT_number 14
_symmetry_cell_setting 'monoclinic'
loop_
_space_group_symop_operation_xyz
x,y,z
-x,1/2+y,1/2-z
-x,-y,-z
x,1/2-y,1/2+z
loop_
_atom_site_type_symbol
_atom_site_label
_atom_site_fract_x
_atom_site_fract_y
_atom_site_fract_z
Si Si1 0.804063 0.465684 0.966588
Si Si2 0.206047 0.187126 0.861598
Si Si3 0.298619 0.040234 0.959713
Si Si4 0.462160 0.815563 0.120912
Si Si5 0.904713 0.184664 0.562520
Si Si6 0.056253 0.539974 0.217690
Si Si7 0.830742 0.313137 0.673948
Si Si8 0.545555 0.534072 0.708188
O O1 0.552768 0.499828 0.776346
O O2 0.733136 0.383941 0.936947
O O3 0.798873 0.509813 0.023352
O O4 0.129742 0.471981 0.129702
O O5 0.219500 0.122148 0.913473
O O6 0.004617 0.167277 0.687022
O O7 0.065620 0.250222 0.814746
O O8 0.537927 0.209945 0.037229
O O9 0.045374 0.000206 0.772660
O O10 0.620865 0.026180 0.120741
O O11 0.303395 0.010139 0.027718
O O12 0.450486 0.884239 0.154849
O O13 0.804404 0.796703 0.304920
O O14 0.323479 0.750183 0.074119
O O15 0.263871 0.833016 0.947225
O O16 0.002846 0.621824 0.197702
#
# Coordination Sequence:
#
# PCOD8129511 Si02
#       8
#     4   4   4   4   4   4   4   4
#     4   9  16  26  42  65  88 110 144 185 216 247
#     4   9  16  26  43  65  88 113 142 178 218 258
#     4   9  14  24  42  62  83 109 142 178 214 250
#     4   9  16  27  44  65  87 112 143 178 215 258
#     4   9  16  27  44  65  87 112 143 178 215 258
#     4   9  14  24  42  62  83 109 142 178 214 250
#     4   9  16  26  43  65  88 113 142 178 218 258
#     4   9  16  26  42  65  88 110 144 185 216 247
#
# _framework density 16.388849
#
# number of rings (size 3 to 8) (size 9 to 14) (size 15 to 20)
#    0.000    3.000    2.500    0.000    0.000    0.000 
#    0.000    1.250    0.000    3.000    0.000    0.000 
#    0.000    0.000    0.000    0.000    0.000    0.000 
#
# Total GULP energy -396667.779861 kJ/mol
# GULP energy per Si atom -12395.868121 kJ/mol
# Density = 1.635155 g / cm^3
# Si number density = 16.388849 Si / 1000 Ang^3
#
#
#
# Elastic Constant Matrix: (Units=GPa)
#
#
# Indices 1 2 3 4 5 6 
#
# 1 72.1306 56.9152 15.9532 0.0000 -18.5572 0.0000
# 2 56.9152 146.7386 73.2609 0.0000 -16.0834 0.0000
# 3 15.9532 73.2609 87.4224 0.0000 -19.4434 0.0000
# 4 0.0000 0.0000 0.0000 25.9843 0.0000 0.3889
# 5 -18.5572 -16.0834 -19.4434 0.0000 25.4017 0.0000
# 6 0.0000 0.0000 0.0000 0.3889 0.0000 25.9844
#
#
#
# Elastic Compliance Matrix: (Units=1/GPa)
#
#
# Indices 1 2 3 4 5 6 
#
# 1 0.027656 -0.014160 0.011231 0.000000 0.019835 0.000000
# 2 -0.014160 0.018967 -0.015596 0.000000 -0.010273 0.000000
# 3 0.011231 -0.015596 0.026619 0.000000 0.018705 0.000000
# 4 0.000000 0.000000 0.000000 0.038493 0.000000 -0.000576
# 5 0.019835 -0.010273 0.018705 0.000000 0.061671 0.000000
# 6 0.000000 0.000000 0.000000 -0.000576 0.000000 0.038493
#
#
# Mechanical properties :
#
#
# Convention : Reuss Voigt Hill
#
# Bulk Modulus (GPa) = 27.62995 66.50559 47.06777
# Shear Modulus (GPa) = 19.15611 26.15157 22.65384
#
# Velocity S-wave (km/s) = 3.42255 3.99895 3.72192
# Velocity P-wave (km/s) = 5.70211 7.87337 6.87401
#
# Compressibility (1/GPa) = 0.03619261
#
# Stress axis : x y z
#
# Youngs Moduli (GPa) = 36.15877 52.72213 37.56757
#
# Poissons Ratio (x) = 0.74654 -0.42192
# Poissons Ratio (y) = 0.51201 0.58589
# Poissons Ratio (z) = -0.40609 0.82223
#
# Static dielectric constant tensor:
#      x y z
#    x 2.905610 0.000000 -0.277750 
#    y 0.000000 3.175450 0.000000 
#    z -0.277750 0.000000 2.899570 
# 
# 
# High freq. dielectric constant tensor:
#      x y z
#    x 1.593050 0.000000 -0.020930 
#    y 0.000000 1.642860 0.000000 
#    z -0.020930 0.000000 1.592560 
# 
# From -- ./inp_files/29564.got.cif
#   From: 2010.03.12/outbox.cif.g09.slc.cpg/sg14_15_cif.got.tgz:29564.got - 2010.03.31 13:35:05.
