data_PCOD8129923
_publ_section_title
;
Structure prediction by ZEFSAII (Michael W. Deem and Ramdas Pophale) SiO2 
 PCOD8129923
Probable space group: C 2/C
;
_chemical_formula_sum "Si O2"
_cell_formula_units_Z 56
_cell_length_a 24.143925
_cell_length_b 9.382656
_cell_length_c 16.534647
_cell_angle_alpha 90.000000
_cell_angle_beta 45.828499
_cell_angle_gamma 90.000000
_cell_volume 2686.603435
_symmetry_space_group_name_H-M "C 2/C"
_symmetry_group_IT_number 15
_symmetry_cell_setting 'monoclinic'
loop_
_space_group_symop_operation_xyz
x,y,z
-x,y,1/2-z
-x,-y,-z
x,-y,1/2+z
1/2+x,1/2+y,z
1/2-x,1/2+y,1/2-z
1/2-x,1/2-y,-z
1/2+x,1/2-y,1/2+z
loop_
_atom_site_type_symbol
_atom_site_label
_atom_site_fract_x
_atom_site_fract_y
_atom_site_fract_z
Si Si1 0.968522 0.432680 0.112581
Si Si2 0.121287 0.469150 0.513825
Si Si3 0.868091 0.759386 0.636182
Si Si4 0.660009 0.847203 0.740743
Si Si5 0.407665 0.277868 0.339220
Si Si6 0.297666 0.772383 0.625999
Si Si7 0.169785 0.961156 0.956632
O O1 0.941617 0.268784 0.121091
O O2 0.892843 0.515233 0.220388
O O3 0.000000 0.500000 0.000000
O O4 0.038298 0.449146 0.104813
O O5 0.136440 0.380066 0.416608
O O6 0.128109 0.363634 0.582445
O O7 0.185499 0.593729 0.450249
O O8 0.792944 0.766132 0.768010
O O9 0.878042 0.901257 0.572512
O O10 0.625000 0.722421 0.718982
O O11 0.655799 0.791157 0.837075
O O12 0.747247 0.884573 0.628305
O O13 0.500000 0.277182 0.250000
O O14 0.375750 0.419129 0.415749
O O15 0.326199 0.630287 0.552496
#
# Coordination Sequence:
#
# PCOD8129923 Si02
#       7
#     8   8   8   8   8   8   8
#     4  10  16  32  59  89 107 142 206 244 263 328
#     4  10  20  35  61  85 110 151 201 239 275 343
#     4   9  17  33  57  85 113 148 189 237 279 341
#     4  11  20  37  64  86 112 156 201 236 277 354
#     4  11  23  40  61  81 117 158 199 232 290 351
#     4  11  19  35  60  89 116 143 193 245 290 331
#     4  10  22  36  57  89 123 151 182 242 302 345
#
# _framework density 20.844163000000002
#
# number of rings (size 3 to 8) (size 9 to 14) (size 15 to 20)
#    0.000    1.714    5.714    1.286    0.000    0.000 
#    0.000    4.286    3.143    0.000    0.000    0.000 
#    0.000    0.000    0.000    0.000    0.000    0.000 
#
# Total GULP energy -347036.230993 kJ/mol
# GULP energy per Si atom -12394.151107 kJ/mol
# Density = 2.079672 g / cm^3
# Si number density = 20.844163 Si / 1000 Ang^3
#
#
#
# Elastic Constant Matrix: (Units=GPa)
#
#
# Indices 1 2 3 4 5 6 
#
# 1 39.5079 -9.0446 7.9931 0.0014 -6.0309 -0.0030
# 2 -9.0446 72.7941 22.2490 0.0061 2.0140 -0.0070
# 3 7.9931 22.2490 84.8896 0.0013 -6.4976 -0.0016
# 4 0.0014 0.0061 0.0013 30.2735 -0.0007 -7.6698
# 5 -6.0309 2.0140 -6.4976 -0.0007 26.8752 0.0003
# 6 -0.0030 -0.0070 -0.0016 -7.6698 0.0003 24.4056
#
#
#
# Elastic Compliance Matrix: (Units=1/GPa)
#
#
# Indices 1 2 3 4 5 6 
#
# 1 0.027761 0.004336 -0.003360 -0.000001 0.005092 0.000004
# 2 0.004336 0.015728 -0.004632 -0.000002 -0.001326 0.000004
# 3 -0.003360 -0.004632 0.013530 0.000000 0.002864 -0.000001
# 4 -0.000001 -0.000002 0.000000 0.035890 0.000001 0.011279
# 5 0.005092 -0.001326 0.002864 0.000001 0.039144 0.000000
# 6 0.000004 0.000004 -0.000001 0.011279 0.000000 0.044519
#
#
# Mechanical properties :
#
#
# Convention : Reuss Voigt Hill
#
# Bulk Modulus (GPa) = 20.11857 26.62073 23.36965
# Shear Modulus (GPa) = 24.94342 28.04381 26.49361
#
# Velocity S-wave (km/s) = 3.46303 3.67195 3.56902
# Velocity P-wave (km/s) = 5.06586 5.54767 5.31223
#
# Compressibility (1/GPa) = 0.04970533
#
# Stress axis : x y z
#
# Youngs Moduli (GPa) = 36.02157 63.57892 73.91171
#
# Poissons Ratio (x) = -0.27565 0.24838
# Poissons Ratio (y) = -0.15617 0.34236
# Poissons Ratio (z) = 0.12105 0.29450
#
# Static dielectric constant tensor:
#      x y z
#    x 4.020000 0.000000 -0.238950 
#    y 0.000000 3.756690 0.000000 
#    z -0.238950 0.000000 3.871440 
# 
# 
# High freq. dielectric constant tensor:
#      x y z
#    x 1.794580 0.000000 -0.015060 
#    y 0.000000 1.791830 0.000000 
#    z -0.015060 0.000000 1.819790 
# 
# From -- ./inp_files/218642.got.cif
#   From: 2010.06.25/outbox.cif.g09.slc.cpg/sg15_110_cif.got.tgz:218642.got - 2010.06.28 07:06:18.
