data_PCOD8129272
_publ_section_title
;
Structure prediction by ZEFSAII (Michael W. Deem and Ramdas Pophale) SiO2 
 PCOD8129272
Probable space group: P 21/C
;
_chemical_formula_sum "Si O2"
_cell_formula_units_Z 20
_cell_length_a 9.432663
_cell_length_b 9.737018
_cell_length_c 21.200950
_cell_angle_alpha 90.000000
_cell_angle_beta 153.777202
_cell_angle_gamma 90.000000
_cell_volume 860.405326
_symmetry_space_group_name_H-M "P 21/C"
_symmetry_group_IT_number 14
_symmetry_cell_setting 'monoclinic'
loop_
_space_group_symop_operation_xyz
x,y,z
-x,1/2+y,1/2-z
-x,-y,-z
x,1/2-y,1/2+z
loop_
_atom_site_type_symbol
_atom_site_label
_atom_site_fract_x
_atom_site_fract_y
_atom_site_fract_z
Si Si1 0.888226 0.847682 0.892002
Si Si2 0.805004 0.870006 0.004857
Si Si3 0.901020 0.223126 0.262346
Si Si4 0.740280 0.401938 0.928721
Si Si5 0.699471 0.504790 0.141207
O O1 0.513456 0.836308 0.722949
O O2 0.928574 0.844950 0.983745
O O3 0.061689 0.976444 0.925813
O O4 0.086529 0.709002 0.956142
O O5 0.933786 0.751319 0.103531
O O6 0.423029 0.860877 0.853954
O O7 0.899478 0.366897 0.226272
O O8 0.080419 0.137118 0.279968
O O9 0.526017 0.495520 0.887946
O O10 0.000000 0.500000 0.000000
O O11 0.500000 0.500000 0.000000
#
# Coordination Sequence:
#
# PCOD8129272 Si02
#       5
#     4   4   4   4   4
#     4  11  27  45  78 112 147 200 252 316 381 447
#     4  11  25  47  75 112 150 196 249 318 383 449
#     4  12  26  49  76 108 156 198 256 310 388 452
#     4  12  29  51  77 111 153 196 266 309 380 455
#     4  12  29  47  76 111 153 205 246 318 382 453
#
# _framework density 23.244859999999999
#
# number of rings (size 3 to 8) (size 9 to 14) (size 15 to 20)
#    0.000    0.400    4.000    2.400   14.000    0.800 
#    0.000    0.000    0.000    0.000    0.000    0.000 
#    0.000    0.000    0.000    0.000    0.000    0.000 
#
# Total GULP energy -247890.501101 kJ/mol
# GULP energy per Si atom -12394.525055 kJ/mol
# Density = 2.319195 g / cm^3
# Si number density = 23.244860 Si / 1000 Ang^3
#
#
#
# Elastic Constant Matrix: (Units=GPa)
#
#
# Indices 1 2 3 4 5 6 
#
# 1 105.3193 43.6926 33.4715 0.0000 16.5703 0.0000
# 2 43.6926 142.0926 57.3465 0.0000 23.6532 0.0000
# 3 33.4715 57.3465 143.1746 0.0000 4.7226 0.0000
# 4 0.0000 0.0000 0.0000 50.6305 0.0000 3.7438
# 5 16.5703 23.6532 4.7226 0.0000 37.4688 0.0000
# 6 0.0000 0.0000 0.0000 3.7438 0.0000 45.3431
#
#
#
# Elastic Compliance Matrix: (Units=1/GPa)
#
#
# Indices 1 2 3 4 5 6 
#
# 1 0.011516 -0.002301 -0.001657 0.000000 -0.003431 0.000000
# 2 -0.002301 0.009855 -0.003251 0.000000 -0.004794 0.000000
# 3 -0.001657 -0.003251 0.008618 0.000000 0.001699 0.000000
# 4 0.000000 0.000000 0.000000 0.019872 0.000000 -0.001641
# 5 -0.003431 -0.004794 0.001699 0.000000 0.031019 0.000000
# 6 0.000000 0.000000 0.000000 -0.001641 0.000000 0.022190
#
#
# Mechanical properties :
#
#
# Convention : Reuss Voigt Hill
#
# Bulk Modulus (GPa) = 64.22548 73.28973 68.75761
# Shear Modulus (GPa) = 40.75642 43.76022 42.25832
#
# Velocity S-wave (km/s) = 4.19185 4.34357 4.26838
# Velocity P-wave (km/s) = 7.14974 7.53348 7.34412
#
# Compressibility (1/GPa) = 0.01557014
#
# Stress axis : x y z
#
# Youngs Moduli (GPa) = 86.83443 101.46642 116.03344
#
# Poissons Ratio (x) = 0.23348 0.19232
# Poissons Ratio (y) = 0.19981 0.37727
# Poissons Ratio (z) = 0.14392 0.32991
#
# Static dielectric constant tensor:
#      x y z
#    x 3.551140 0.000000 -0.060860 
#    y 0.000000 4.289500 0.000000 
#    z -0.060860 0.000000 4.392060 
# 
# 
# High freq. dielectric constant tensor:
#      x y z
#    x 1.916980 0.000000 -0.005050 
#    y 0.000000 1.929770 0.000000 
#    z -0.005050 0.000000 1.933790 
# 
# From -- ./inp_files/77179.got.cif
#   From: 2010.03.12/outbox.cif.g09.slc.cpg/sg14_39_cif.got.tgz:77179.got - 2010.03.31 13:35:05.
