data_PCOD8129686
_publ_section_title
;
Structure prediction by ZEFSAII (Michael W. Deem and Ramdas Pophale) SiO2 
 PCOD8129686
Probable space group: C 2/C
;
_chemical_formula_sum "Si O2"
_cell_formula_units_Z 40
_cell_length_a 9.492079
_cell_length_b 27.010767
_cell_length_c 8.822386
_cell_angle_alpha 90.000000
_cell_angle_beta 86.024646
_cell_angle_gamma 90.000000
_cell_volume 2256.514501
_symmetry_space_group_name_H-M "C 2/C"
_symmetry_group_IT_number 15
_symmetry_cell_setting 'monoclinic'
loop_
_space_group_symop_operation_xyz
x,y,z
-x,y,1/2-z
-x,-y,-z
x,-y,1/2+z
1/2+x,1/2+y,z
1/2-x,1/2+y,1/2-z
1/2-x,1/2-y,-z
1/2+x,1/2-y,1/2+z
loop_
_atom_site_type_symbol
_atom_site_label
_atom_site_fract_x
_atom_site_fract_y
_atom_site_fract_z
Si Si1 0.000000 0.895757 0.750000
Si Si2 0.642359 0.524314 0.052713
Si Si3 0.781261 0.828250 0.259991
Si Si4 0.000000 0.733118 0.750000
Si Si5 0.329345 0.563322 0.757154
Si Si6 0.012964 0.814962 0.995966
O O1 0.878712 0.932286 0.821199
O O2 0.054506 0.861314 0.884341
O O3 0.726028 0.479136 0.124707
O O4 0.500000 0.500000 0.000000
O O5 0.724998 0.547701 0.905697
O O6 0.635464 0.801263 0.246041
O O7 0.754891 0.885436 0.306232
O O8 0.862456 0.803247 0.394871
O O9 0.870241 0.826970 0.097740
O O10 0.988105 0.765997 0.900700
O O11 0.500000 0.570338 0.750000
#
# Coordination Sequence:
#
# PCOD8129686 Si02
#       6
#     4   8   8   4   8   8
#     4  11  16  28  50  84 108 126 172 223 266 302
#     4  10  16  24  44  79 109 128 165 214 264 296
#     4  11  20  37  55  76 108 137 176 214 263 308
#     4  11  24  36  54  78 104 142 176 217 260 310
#     4  10  17  28  49  76 106 136 164 216 258 303
#     4  10  21  35  56  78 103 136 175 220 261 307
#
# _framework density 17.726452999999999
#
# number of rings (size 3 to 8) (size 9 to 14) (size 15 to 20)
#    0.000    1.600    7.000    2.400    0.000    0.000 
#    0.000    0.000    0.000    1.200    0.000    0.000 
#    0.000    0.000    0.000    0.000    0.000    0.000 
#
# Total GULP energy -247890.572175 kJ/mol
# GULP energy per Si atom -12394.528609 kJ/mol
# Density = 1.768611 g / cm^3
# Si number density = 17.726453 Si / 1000 Ang^3
#
#
#
# Elastic Constant Matrix: (Units=GPa)
#
#
# Indices 1 2 3 4 5 6 
#
# 1 63.7239 47.9675 35.4528 0.0000 8.9381 0.0000
# 2 47.9675 139.3808 57.2972 0.0000 12.8089 0.0000
# 3 35.4528 57.2972 116.8546 0.0000 10.0747 0.0000
# 4 0.0000 0.0000 0.0000 10.1480 0.0000 55.1402
# 5 8.9381 12.8089 10.0747 0.0000 9.8794 0.0000
# 6 0.0000 0.0000 0.0000 55.1402 0.0000 -116.0489
#
#
#
# Elastic Compliance Matrix: (Units=1/GPa)
#
#
# Indices 1 2 3 4 5 6 
#
# 1 0.023295 -0.005678 -0.003400 0.000000 -0.010247 0.000000
# 2 -0.005678 0.010961 -0.003146 0.000000 -0.005866 0.000000
# 3 -0.003400 -0.003146 0.011529 0.000000 -0.004601 0.000000
# 4 0.000000 0.000000 0.000000 0.027512 0.000000 0.013072
# 5 -0.010247 -0.005866 -0.004601 0.000000 0.122789 0.000000
# 6 0.000000 0.000000 0.000000 0.013072 0.000000 -0.002406
#
#
# Mechanical properties :
#
#
# Convention : Reuss Voigt Hill
#
# Bulk Modulus (GPa) = 46.86711 66.82160 56.84435
# Shear Modulus (GPa) = 22.19844 -7.25484 7.47180
#
# Velocity S-wave (km/s) = 3.54259 -2.02523 2.05529
# Velocity P-wave (km/s) = 6.57493 5.68411 6.14568
#
# Compressibility (1/GPa) = 0.02133693
#
# Stress axis : x y z
#
# Youngs Moduli (GPa) = 42.92678 91.23312 86.74060
#
# Poissons Ratio (x) = 0.51798 0.29495
# Poissons Ratio (y) = 0.24372 0.27290
# Poissons Ratio (z) = 0.14597 0.28704
#
# Static dielectric constant tensor:
#      x y z
#    x 2.639160 0.000000 0.079220 
#    y 0.000000 3.635200 0.000000 
#    z 0.079220 0.000000 3.792060 
# 
# 
# High freq. dielectric constant tensor:
#      x y z
#    x 1.600530 0.000000 0.008780 
#    y 0.000000 1.708130 0.000000 
#    z 0.008780 0.000000 1.711430 
# 
# From -- ./inp_files/24479.got.cif
#   From: 2010.06.25/outbox.cif.g09.slc.cpg/sg15_13_cif.got.tgz:24479.got - 2010.06.28 07:06:18.
