data_PCOD8129584
_publ_section_title
;
Structure prediction by ZEFSAII (Michael W. Deem and Ramdas Pophale) SiO2 
 PCOD8129584
Probable space group: C 2/C
;
_chemical_formula_sum "Si O2"
_cell_formula_units_Z 28
_cell_length_a 12.000000
_cell_length_b 15.000000
_cell_length_c 30.000000
_cell_angle_alpha 90.000000
_cell_angle_beta 30.000000
_cell_angle_gamma 90.000000
_cell_volume 2700.000000
_symmetry_space_group_name_H-M "C 2/C"
_symmetry_group_IT_number 15
_symmetry_cell_setting 'monoclinic'
loop_
_space_group_symop_operation_xyz
x,y,z
-x,y,1/2-z
-x,-y,-z
x,-y,1/2+z
1/2+x,1/2+y,z
1/2-x,1/2+y,1/2-z
1/2-x,1/2-y,-z
1/2+x,1/2-y,1/2+z
loop_
_atom_site_type_symbol
_atom_site_label
_atom_site_fract_x
_atom_site_fract_y
_atom_site_fract_z
Si Si1 0.952946 0.051707 0.348213
Si Si2 0.847965 0.683348 0.343744
Si Si3 0.120324 0.433978 0.040484
Si Si4 0.931435 0.395548 0.649675
Si Si5 0.213384 0.204873 0.151414
Si Si6 0.332932 0.615932 0.844967
Si Si7 0.334647 0.299420 0.015994
O O1 0.846290 0.077715 0.432685
O O2 0.845128 0.105888 0.344856
O O3 0.217540 0.068402 0.251894
O O4 0.873715 0.949137 0.372240
O O5 0.909301 0.785974 0.332452
O O6 0.590368 0.674011 0.420764
O O7 0.000000 0.648222 0.250000
O O8 0.892050 0.630523 0.373880
O O9 0.181111 0.388232 0.066946
O O10 0.040215 0.532369 0.079198
O O11 0.924414 0.381628 0.081772
O O12 0.887804 0.311119 0.631604
O O13 0.297164 0.257492 0.078367
O O14 0.000000 0.250958 0.250000
O O15 0.500000 0.577339 0.750000
O O16 0.250000 0.250000 0.000000
#
# Coordination Sequence:
#
# PCOD8129584 Si02
#       7
#     8   8   8   8   8   8   8
#     4  11  20  40  67  98 129 173 222 275 334 386
#     4  11  26  43  69  97 139 178 223 273 339 400
#     4  12  23  39  70  92 134 177 222 274 326 400
#     4  11  25  44  65  99 136 171 222 279 336 396
#     4  10  22  40  69  98 134 172 220 277 340 387
#     4  11  20  37  65 102 122 163 233 278 315 380
#     4  12  24  43  67 101 134 180 225 270 333 405
#
# _framework density 10.370369999999999
#
# number of rings (size 3 to 8) (size 9 to 14) (size 15 to 20)
#    0.000    0.857    5.714    1.714    4.000    1.143 
#    0.000    0.714    0.000    0.000    0.000    0.000 
#    0.000    0.000    0.000    0.000    0.000    0.000 
#
# Total GULP energy -346904.609610 kJ/mol
# GULP energy per Si atom -12389.450343 kJ/mol
# Density = 1.034677 g / cm^3
# Si number density = 10.370370 Si / 1000 Ang^3
#
#
#
# Elastic Constant Matrix: (Units=GPa)
#
#
# Indices 1 2 3 4 5 6 
#
# 1 121.0664 21.8964 49.9972 0.0182 -4.1772 -0.0005
# 2 21.8964 36.7974 18.0164 0.0095 -1.5141 -0.0010
# 3 49.9972 18.0164 147.9896 0.0301 7.3668 -0.0192
# 4 0.0182 0.0095 0.0301 18.7110 -0.0178 1.0255
# 5 -4.1772 -1.5141 7.3668 -0.0178 38.2436 0.0024
# 6 -0.0005 -0.0010 -0.0192 1.0255 0.0024 34.0719
#
#
#
# Elastic Compliance Matrix: (Units=1/GPa)
#
#
# Indices 1 2 3 4 5 6 
#
# 1 0.010402 -0.004646 -0.003025 -0.000001 0.001535 -0.000002
# 2 -0.004646 0.031102 -0.002275 -0.000007 0.001162 0.000000
# 3 -0.003025 -0.002275 0.008155 -0.000011 -0.001991 0.000005
# 4 -0.000001 -0.000007 -0.000011 0.053533 0.000027 -0.001611
# 5 0.001535 0.001162 -0.001991 0.000027 0.026745 -0.000004
# 6 -0.000002 0.000000 0.000005 -0.001611 -0.000004 0.029398
#
#
# Mechanical properties :
#
#
# Convention : Reuss Voigt Hill
#
# Bulk Modulus (GPa) = 33.59271 53.96373 43.77822
# Shear Modulus (GPa) = 26.43404 32.60154 29.51779
#
# Velocity S-wave (km/s) = 3.57388 3.96897 3.77660
# Velocity P-wave (km/s) = 5.76731 6.86137 6.33799
#
# Compressibility (1/GPa) = 0.02976836
#
# Stress axis : x y z
#
# Youngs Moduli (GPa) = 96.13106 32.15248 122.61894
#
# Poissons Ratio (x) = 0.14937 0.37095
# Poissons Ratio (y) = 0.44659 0.27892
# Poissons Ratio (z) = 0.29082 0.07314
#
# Static dielectric constant tensor:
#      x y z
#    x 3.736990 0.000000 0.030110 
#    y 0.000000 3.670450 0.000020 
#    z 0.030110 0.000020 3.963410 
# 
# 
# High freq. dielectric constant tensor:
#      x y z
#    x 1.806890 0.000000 0.006010 
#    y 0.000000 1.791200 0.000000 
#    z 0.006010 0.000000 1.832010 
# 
# From -- ./inp_files/199587.got.cif
#   From: 2010.06.25/outbox.ucp.g09.slc.cvg/sg15_100_cif.got.tgz:199587.got - 2010.06.28 14:40:10.
