data_PCOD8129535
_publ_section_title
;
Structure prediction by ZEFSAII (Michael W. Deem and Ramdas Pophale) SiO2 
 PCOD8129535
Probable space group: C 2/C
;
_chemical_formula_sum "Si O2"
_cell_formula_units_Z 24
_cell_length_a 24.000000
_cell_length_b 15.000000
_cell_length_c 24.000000
_cell_angle_alpha 90.000000
_cell_angle_beta 160.000000
_cell_angle_gamma 90.000000
_cell_volume 2955.054038
_symmetry_space_group_name_H-M "C 2/C"
_symmetry_group_IT_number 15
_symmetry_cell_setting 'monoclinic'
loop_
_space_group_symop_operation_xyz
x,y,z
-x,y,1/2-z
-x,-y,-z
x,-y,1/2+z
1/2+x,1/2+y,z
1/2-x,1/2+y,1/2-z
1/2-x,1/2-y,-z
1/2+x,1/2-y,1/2+z
loop_
_atom_site_type_symbol
_atom_site_label
_atom_site_fract_x
_atom_site_fract_y
_atom_site_fract_z
Si Si1 0.060680 0.033715 0.980558
Si Si2 0.608481 0.210218 0.595748
Si Si3 0.470916 0.379578 0.164728
Si Si4 0.651640 0.151489 0.227836
Si Si5 0.112861 0.868484 0.089199
Si Si6 0.872748 0.297381 0.676306
O O1 0.031517 0.053246 0.888624
O O2 0.917596 0.077742 0.881861
O O3 0.229045 0.067969 0.166049
O O4 0.068814 0.927432 0.994123
O O5 0.499555 0.143757 0.456181
O O6 0.745303 0.257669 0.685889
O O7 0.696259 0.156133 0.727804
O O8 0.494655 0.281199 0.518918
O O9 0.500000 0.434044 0.250000
O O10 0.616649 0.307858 0.299368
O O11 0.308772 0.318990 0.014808
O O12 0.584355 0.150047 0.227076
O O13 0.000000 0.330629 0.750000
#
# Coordination Sequence:
#
# PCOD8129535 Si02
#       6
#     8   8   8   8   8   8
#     4   9  18  29  41  61  87 109 134 168 206 238
#     4   9  16  27  44  59  79 109 140 165 200 243
#     4  10  18  27  40  58  82 112 140 165 193 231
#     4   9  16  26  39  59  85 113 136 166 196 230
#     4   9  17  29  44  62  83 107 135 169 204 245
#     4  10  17  24  37  57  82 112 144 161 179 227
#
# _framework density 8.1216790000000003
#
# number of rings (size 3 to 8) (size 9 to 14) (size 15 to 20)
#    0.000    2.667    0.000    6.000    0.000    2.000 
#    0.000    0.000    0.000    0.000    0.000    1.167 
#    0.000    0.000    0.000    0.000    0.000    0.000 
#
# Total GULP energy -297347.678279 kJ/mol
# GULP energy per Si atom -12389.486595 kJ/mol
# Density = 0.810319 g / cm^3
# Si number density = 8.121679 Si / 1000 Ang^3
#
#
#
# Elastic Constant Matrix: (Units=GPa)
#
#
# Indices 1 2 3 4 5 6 
#
# 1 61.3360 31.1927 40.8854 -0.0075 -15.2339 -0.0025
# 2 31.1927 49.6814 43.2777 0.0322 -15.9371 0.0082
# 3 40.8854 43.2777 91.6451 0.0127 -21.2028 0.0096
# 4 -0.0075 0.0322 0.0127 8.3915 0.0064 -5.7025
# 5 -15.2339 -15.9371 -21.2028 0.0064 16.3700 -0.0004
# 6 -0.0025 0.0082 0.0096 -5.7025 -0.0004 12.0412
#
#
#
# Elastic Compliance Matrix: (Units=1/GPa)
#
#
# Indices 1 2 3 4 5 6 
#
# 1 0.026910 -0.009149 -0.005643 0.000106 0.008827 0.000067
# 2 -0.009149 0.041304 -0.011551 -0.000259 0.016736 -0.000143
# 3 -0.005643 -0.011551 0.021514 -0.000013 0.011369 -0.000016
# 4 0.000106 -0.000259 -0.000013 0.175722 -0.000237 0.083219
# 5 0.008827 0.016736 0.011369 -0.000237 0.100320 -0.000128
# 6 0.000067 -0.000143 -0.000016 0.083219 -0.000128 0.122460
#
#
# Mechanical properties :
#
#
# Convention : Reuss Voigt Hill
#
# Bulk Modulus (GPa) = 26.99628 48.15270 37.57449
# Shear Modulus (GPa) = 9.03730 13.18097 11.10914
#
# Velocity S-wave (km/s) = 2.36131 2.85172 2.61802
# Velocity P-wave (km/s) = 4.90819 6.36804 5.68517
#
# Compressibility (1/GPa) = 0.03704214
#
# Stress axis : x y z
#
# Youngs Moduli (GPa) = 37.16097 24.21094 46.48088
#
# Poissons Ratio (x) = 0.22150 0.26229
# Poissons Ratio (y) = 0.33997 0.53692
# Poissons Ratio (z) = 0.20969 0.27967
#
# Static dielectric constant tensor:
#      x y z
#    x 2.911290 -0.000010 -0.011960 
#    y -0.000010 2.727660 0.000000 
#    z -0.011960 0.000000 3.210010 
# 
# 
# High freq. dielectric constant tensor:
#      x y z
#    x 1.595200 0.000000 -0.002060 
#    y 0.000000 1.571000 0.000000 
#    z -0.002060 0.000000 1.634590 
# 
# From -- ./inp_files/61180.got.cif
#   From: 2010.06.25/outbox.ucp.g09.slc.cvg/sg15_31_cif.got.tgz:61180.got - 2010.06.28 14:40:10.
