data_PCOD8129175
_publ_section_title
;
Structure prediction by ZEFSAII (Michael W. Deem and Ramdas Pophale) SiO2 
 PCOD8129175
Probable space group: P 21/C
;
_chemical_formula_sum "Si O2"
_cell_formula_units_Z 28
_cell_length_a 8.641993
_cell_length_b 15.811705
_cell_length_c 13.253101
_cell_angle_alpha 90.000000
_cell_angle_beta 44.458528
_cell_angle_gamma 90.000000
_cell_volume 1268.387059
_symmetry_space_group_name_H-M "P 21/C"
_symmetry_group_IT_number 14
_symmetry_cell_setting 'monoclinic'
loop_
_space_group_symop_operation_xyz
x,y,z
-x,1/2+y,1/2-z
-x,-y,-z
x,1/2-y,1/2+z
loop_
_atom_site_type_symbol
_atom_site_label
_atom_site_fract_x
_atom_site_fract_y
_atom_site_fract_z
Si Si1 0.471318 0.143672 0.746423
Si Si2 0.988785 0.570055 0.591384
Si Si3 0.569115 0.322406 0.626424
Si Si4 0.818253 0.476716 0.005075
Si Si5 0.440207 0.132824 0.403003
Si Si6 0.078030 0.583532 0.247833
Si Si7 0.657476 0.688129 0.477533
O O1 0.588254 0.221602 0.634031
O O2 0.611547 0.060970 0.660493
O O3 0.480067 0.153997 0.863083
O O4 0.224657 0.129820 0.819437
O O5 0.193400 0.633742 0.490697
O O6 0.000000 0.500000 0.500000
O O7 0.985773 0.513212 0.693766
O O8 0.426506 0.355363 0.788023
O O9 0.447760 0.343330 0.578047
O O10 0.724531 0.558138 0.989785
O O11 0.915600 0.412883 0.876480
O O12 0.000000 0.500000 0.000000
O O13 0.689833 0.112184 0.315260
O O14 0.344535 0.210688 0.512082
O O15 0.905142 0.652349 0.369337
#
# Coordination Sequence:
#
# PCOD8129175 Si02
#       7
#     4   4   4   4   4   4   4
#     4  11  25  47  69 100 142 183 234 291 354 426
#     4  12  23  46  73  99 139 188 234 282 354 424
#     4  11  25  43  71 105 138 181 238 296 348 417
#     4  12  27  45  69 106 143 182 235 301 357 417
#     4  11  24  47  71 102 145 184 234 291 358 424
#     4  12  25  45  74 101 136 190 233 281 359 427
#     4  11  26  43  73 105 139 183 239 291 351 417
#
# _framework density 22.075278000000001
#
# number of rings (size 3 to 8) (size 9 to 14) (size 15 to 20)
#    0.000    0.571    4.286    2.143    4.000    7.429 
#    0.000    0.000    0.000    0.000    0.000    0.000 
#    0.000    0.000    0.000    0.000    0.000    0.000 
#
# Total GULP energy -347256.944960 kJ/mol
# GULP energy per Si atom -12402.033749 kJ/mol
# Density = 2.202503 g / cm^3
# Si number density = 22.075278 Si / 1000 Ang^3
#
#
#
# Elastic Constant Matrix: (Units=GPa)
#
#
# Indices 1 2 3 4 5 6 
#
# 1 128.1218 43.9097 52.4746 0.0000 -3.5095 0.0000
# 2 43.9097 128.5059 56.1689 0.0000 -22.6960 0.0000
# 3 52.4746 56.1689 100.3872 0.0000 -5.0529 0.0000
# 4 0.0000 0.0000 0.0000 51.3313 0.0000 -7.6217
# 5 -3.5095 -22.6960 -5.0529 0.0000 44.4540 0.0000
# 6 0.0000 0.0000 0.0000 -7.6217 0.0000 30.9349
#
#
#
# Elastic Compliance Matrix: (Units=1/GPa)
#
#
# Indices 1 2 3 4 5 6 
#
# 1 0.010163 -0.001632 -0.004426 0.000000 -0.000534 0.000000
# 2 -0.001632 0.011607 -0.005380 0.000000 0.005186 0.000000
# 3 -0.004426 -0.005380 0.015216 0.000000 -0.001367 0.000000
# 4 0.000000 0.000000 0.000000 0.020221 0.000000 0.004982
# 5 -0.000534 0.005186 -0.001367 0.000000 0.024945 0.000000
# 6 0.000000 0.000000 0.000000 0.004982 0.000000 0.033553
#
#
# Mechanical properties :
#
#
# Convention : Reuss Voigt Hill
#
# Bulk Modulus (GPa) = 70.87424 73.56903 72.22163
# Shear Modulus (GPa) = 34.89555 38.97482 36.93519
#
# Velocity S-wave (km/s) = 3.98018 4.20639 4.09485
# Velocity P-wave (km/s) = 7.30054 7.54920 7.42591
#
# Compressibility (1/GPa) = 0.01410950
#
# Stress axis : x y z
#
# Youngs Moduli (GPa) = 98.40092 86.15534 65.71895
#
# Poissons Ratio (x) = 0.14064 0.29085
# Poissons Ratio (y) = 0.16063 0.35357
# Poissons Ratio (z) = 0.43549 0.46352
#
# Static dielectric constant tensor:
#      x y z
#    x 3.928920 0.000000 0.182720 
#    y 0.000000 4.247010 0.000000 
#    z 0.182720 0.000000 4.209310 
# 
# 
# High freq. dielectric constant tensor:
#      x y z
#    x 1.870170 0.000000 0.011780 
#    y 0.000000 1.876290 0.000000 
#    z 0.011780 0.000000 1.880560 
# 
# From -- ./inp_files/41397.got.cif
#   From: 2010.03.12/outbox.cif.g09.slc.cpg/sg14_21_cif.got.tgz:41397.got - 2010.03.31 13:35:05.
