data_PCOD8129198
_publ_section_title
;
Structure prediction by ZEFSAII (Michael W. Deem and Ramdas Pophale) SiO2 
 PCOD8129198
Probable space group: P 21/C
;
_chemical_formula_sum "Si O2"
_cell_formula_units_Z 28
_cell_length_a 8.526294
_cell_length_b 7.926798
_cell_length_c 20.059896
_cell_angle_alpha 90.000000
_cell_angle_beta 125.249714
_cell_angle_gamma 90.000000
_cell_volume 1107.183945
_symmetry_space_group_name_H-M "P 21/C"
_symmetry_group_IT_number 14
_symmetry_cell_setting 'monoclinic'
loop_
_space_group_symop_operation_xyz
x,y,z
-x,1/2+y,1/2-z
-x,-y,-z
x,1/2-y,1/2+z
loop_
_atom_site_type_symbol
_atom_site_label
_atom_site_fract_x
_atom_site_fract_y
_atom_site_fract_z
Si Si1 0.470909 0.794025 0.404634
Si Si2 0.132695 0.442811 0.815991
Si Si3 0.715446 0.274907 0.372666
Si Si4 0.848609 0.763524 0.052492
Si Si5 0.267388 0.646519 0.477514
Si Si6 0.448751 0.125967 0.210039
Si Si7 0.091704 0.271574 0.179232
O O1 0.331091 0.953036 0.364380
O O2 0.692421 0.851227 0.473206
O O3 0.415178 0.676487 0.453947
O O4 0.451678 0.678864 0.334454
O O5 0.153172 0.284325 0.870241
O O6 0.084509 0.380759 0.730587
O O7 0.948963 0.552229 0.793923
O O8 0.644472 0.283036 0.431639
O O9 0.608530 0.122080 0.308057
O O10 0.661940 0.448721 0.321249
O O11 0.942064 0.240489 0.427384
O O12 0.778951 0.952137 0.024079
O O13 0.070187 0.745281 0.415794
O O14 0.297762 0.272958 0.194322
#
# Coordination Sequence:
#
# PCOD8129198 Si02
#       7
#     4   4   4   4   4   4   4
#     4  11  26  48  76 115 149 197 256 313 384 456
#     4  11  27  46  76 113 153 200 253 318 380 455
#     4  12  28  48  76 112 150 207 250 320 385 455
#     4  12  24  48  77 107 153 195 249 317 373 461
#     4  11  24  48  79 109 143 201 257 310 384 453
#     4  12  27  47  74 109 158 193 258 309 386 456
#     4  11  25  48  75 108 153 200 253 311 383 451
#
# _framework density 25.289380999999999
#
# number of rings (size 3 to 8) (size 9 to 14) (size 15 to 20)
#    0.000    0.571    2.857    3.857    8.000    0.000 
#    5.143    3.571    0.000    0.000    0.000    0.000 
#    0.000    0.000    0.000    0.000    0.000    0.000 
#
# Total GULP energy -347335.141665 kJ/mol
# GULP energy per Si atom -12404.826488 kJ/mol
# Density = 2.523182 g / cm^3
# Si number density = 25.289381 Si / 1000 Ang^3
#
#
#
# Elastic Constant Matrix: (Units=GPa)
#
#
# Indices 1 2 3 4 5 6 
#
# 1 102.2157 3.0642 37.5939 0.0000 1.4646 0.0000
# 2 3.0642 37.6704 15.5645 0.0000 -4.3312 0.0000
# 3 37.5939 15.5645 133.8127 0.0000 -8.9668 0.0000
# 4 0.0000 0.0000 0.0000 36.7151 0.0000 -2.0359
# 5 1.4646 -4.3312 -8.9668 0.0000 49.0953 0.0000
# 6 0.0000 0.0000 0.0000 -2.0359 0.0000 20.7143
#
#
#
# Elastic Compliance Matrix: (Units=1/GPa)
#
#
# Indices 1 2 3 4 5 6 
#
# 1 0.010953 0.000319 -0.003173 0.000000 -0.000878 0.000000
# 2 0.000319 0.028070 -0.003229 0.000000 0.001877 0.000000
# 3 -0.003173 -0.003229 0.008836 0.000000 0.001424 0.000000
# 4 0.000000 0.000000 0.000000 0.027386 0.000000 0.002692
# 5 -0.000878 0.001877 0.001424 0.000000 0.020820 0.000000
# 6 0.000000 0.000000 0.000000 0.002692 0.000000 0.048540
#
#
# Mechanical properties :
#
#
# Convention : Reuss Voigt Hill
#
# Bulk Modulus (GPa) = 28.01665 42.90489 35.46077
# Shear Modulus (GPa) = 29.64383 35.80336 32.72359
#
# Velocity S-wave (km/s) = 3.42743 3.76672 3.60108
# Velocity P-wave (km/s) = 5.17354 5.99333 5.59846
#
# Compressibility (1/GPa) = 0.03569306
#
# Stress axis : x y z
#
# Youngs Moduli (GPa) = 91.29635 35.62521 113.17852
#
# Poissons Ratio (x) = -0.01137 0.35914
# Poissons Ratio (y) = -0.02914 0.36544
# Poissons Ratio (z) = 0.28971 0.11503
#
# Static dielectric constant tensor:
#      x y z
#    x 4.689090 0.000000 0.108850 
#    y 0.000000 4.350600 0.000000 
#    z 0.108850 0.000000 4.886640 
# 
# 
# High freq. dielectric constant tensor:
#      x y z
#    x 2.017270 0.000000 0.002590 
#    y 0.000000 1.996130 0.000000 
#    z 0.002590 0.000000 2.025130 
# 
# From -- ./inp_files/65045.got.cif
#   From: 2010.03.12/outbox.cif.g09.slc.cpg/sg14_33_cif.got.tgz:65045.got - 2010.03.31 13:35:05.
