data_PCOD8129549
_publ_section_title
;
Structure prediction by ZEFSAII (Michael W. Deem and Ramdas Pophale) SiO2 
 PCOD8129549
Probable space group: C 2/C
;
_chemical_formula_sum "Si O2"
_cell_formula_units_Z 30
_cell_length_a 21.000000
_cell_length_b 9.000000
_cell_length_c 18.000000
_cell_angle_alpha 90.000000
_cell_angle_beta 110.000000
_cell_angle_gamma 90.000000
_cell_volume 3196.834296
_symmetry_space_group_name_H-M "C 2/C"
_symmetry_group_IT_number 15
_symmetry_cell_setting 'monoclinic'
loop_
_space_group_symop_operation_xyz
x,y,z
-x,y,1/2-z
-x,-y,-z
x,-y,1/2+z
1/2+x,1/2+y,z
1/2-x,1/2+y,1/2-z
1/2-x,1/2-y,-z
1/2+x,1/2-y,1/2+z
loop_
_atom_site_type_symbol
_atom_site_label
_atom_site_fract_x
_atom_site_fract_y
_atom_site_fract_z
Si Si1 0.634987 0.079930 0.864214
Si Si2 0.178773 0.249986 0.926001
Si Si3 0.500000 0.219905 0.750000
Si Si4 0.177596 0.238239 0.510978
Si Si5 0.253298 0.261175 0.681727
Si Si6 0.454092 0.549318 0.360727
Si Si7 0.824266 0.925952 0.229054
Si Si8 0.409707 0.560558 0.510219
O O1 0.561924 0.110089 0.797007
O O2 0.692743 0.151962 0.835505
O O3 0.655904 0.908172 0.882822
O O4 0.629507 0.153279 0.944269
O O5 0.176334 0.132271 0.856365
O O6 0.123834 0.203986 0.965639
O O7 0.250000 0.250000 0.000000
O O8 0.523520 0.319705 0.687907
O O9 0.250000 0.250000 0.500000
O O10 0.190484 0.293334 0.600357
O O11 0.142703 0.076439 0.500087
O O12 0.221674 0.187076 0.742249
O O13 0.290265 0.412280 0.719015
O O14 0.400462 0.443577 0.294478
O O15 0.420588 0.600096 0.426683
O O16 0.521046 0.462998 0.415398
#
# Coordination Sequence:
#
# PCOD8129549 Si02
#       8
#     8   8   4   8   8   8   8   8
#     4  11  23  39  64  95 131 176 217 271 334 395
#     4  12  26  43  65  98 136 173 216 277 335 395
#     4  12  22  42  68  98 134 178 218 276 336 390
#     4  10  19  38  62  90 124 170 217 265 321 394
#     4  11  22  39  63  97 131 170 226 273 332 389
#     4  11  24  43  71  95 131 177 229 273 327 403
#     4  12  24  41  67  99 132 177 219 282 331 396
#     4  11  23  44  68  96 128 180 227 267 333 403
#
# _framework density 9.3842839999999992
#
# number of rings (size 3 to 8) (size 9 to 14) (size 15 to 20)
#    0.000    0.800    4.000    5.600    1.867    1.067 
#    0.000    0.667    0.000    0.000    0.000    0.000 
#    0.000    0.000    0.000    0.000    0.000    0.000 
#
# Total GULP energy -371738.623252 kJ/mol
# GULP energy per Si atom -12391.287442 kJ/mol
# Density = 0.936292 g / cm^3
# Si number density = 9.384284 Si / 1000 Ang^3
#
#
#
# Elastic Constant Matrix: (Units=GPa)
#
#
# Indices 1 2 3 4 5 6 
#
# 1 120.9665 48.4227 64.9693 0.0000 1.7465 0.0000
# 2 48.4227 116.0442 45.4472 0.0000 -2.1621 0.0000
# 3 64.9693 45.4472 163.2811 0.0000 10.7112 0.0000
# 4 0.0000 0.0000 0.0000 41.0524 0.0000 -0.8789
# 5 1.7465 -2.1621 10.7112 0.0000 54.1189 0.0000
# 6 0.0000 0.0000 0.0000 -0.8789 0.0000 42.3996
#
#
#
# Elastic Compliance Matrix: (Units=1/GPa)
#
#
# Indices 1 2 3 4 5 6 
#
# 1 0.011602 -0.003393 -0.003686 0.000000 0.000220 0.000000
# 2 -0.003393 0.010711 -0.001688 0.000000 0.000872 0.000000
# 3 -0.003686 -0.001688 0.008164 0.000000 -0.001564 0.000000
# 4 0.000000 0.000000 0.000000 0.024370 0.000000 0.000505
# 5 0.000220 0.000872 -0.001564 0.000000 0.018815 0.000000
# 6 0.000000 0.000000 0.000000 0.000505 0.000000 0.023596
#
#
# Mechanical properties :
#
#
# Convention : Reuss Voigt Hill
#
# Bulk Modulus (GPa) = 77.27598 79.77445 78.52521
# Shear Modulus (GPa) = 41.97943 43.61102 42.79523
#
# Velocity S-wave (km/s) = 4.73449 4.82562 4.78028
# Velocity P-wave (km/s) = 8.43503 8.58169 8.50868
#
# Compressibility (1/GPa) = 0.01294063
#
# Stress axis : x y z
#
# Youngs Moduli (GPa) = 86.19380 93.36386 122.49443
#
# Poissons Ratio (x) = 0.31682 0.45154
# Poissons Ratio (y) = 0.29249 0.20679
# Poissons Ratio (z) = 0.31773 0.15761
#
# Static dielectric constant tensor:
#      x y z
#    x 3.788570 0.000000 0.078260 
#    y 0.000000 3.464570 0.000000 
#    z 0.078260 0.000000 4.261900 
# 
# 
# High freq. dielectric constant tensor:
#      x y z
#    x 1.750890 0.000000 0.005410 
#    y 0.000000 1.727410 0.000000 
#    z 0.005410 0.000000 1.779150 
# 
# From -- ./inp_files/213966.got.cif
#   From: 2010.06.25/outbox.ucp.g09.slc.cvg/sg15_107_cif.got.tgz:213966.got - 2010.06.28 14:40:10.
