data_PCOD8129778
_publ_section_title
;
Structure prediction by ZEFSAII (Michael W. Deem and Ramdas Pophale) SiO2 
 PCOD8129778
Probable space group: C 2/C
;
_chemical_formula_sum "Si O2"
_cell_formula_units_Z 56
_cell_length_a 10.299751
_cell_length_b 32.047995
_cell_length_c 8.136045
_cell_angle_alpha 90.000000
_cell_angle_beta 64.387166
_cell_angle_gamma 90.000000
_cell_volume 2421.699235
_symmetry_space_group_name_H-M "C 2/C"
_symmetry_group_IT_number 15
_symmetry_cell_setting 'monoclinic'
loop_
_space_group_symop_operation_xyz
x,y,z
-x,y,1/2-z
-x,-y,-z
x,-y,1/2+z
1/2+x,1/2+y,z
1/2-x,1/2+y,1/2-z
1/2-x,1/2-y,-z
1/2+x,1/2-y,1/2+z
loop_
_atom_site_type_symbol
_atom_site_label
_atom_site_fract_x
_atom_site_fract_y
_atom_site_fract_z
Si Si1 0.253397 0.437139 0.159715
Si Si2 0.575273 0.714026 0.541398
Si Si3 0.779098 0.585208 0.308722
Si Si4 0.103168 0.303501 0.539214
Si Si5 0.167974 0.012288 0.186518
Si Si6 0.494800 0.372162 0.055670
Si Si7 0.041135 0.391597 0.474199
O O1 0.303306 0.463476 0.294487
O O2 0.365789 0.400164 0.058169
O O3 0.099453 0.415590 0.280398
O O4 0.242500 0.469510 0.015919
O O5 0.500000 0.727438 0.750000
O O6 0.734151 0.695588 0.482858
O O7 0.578345 0.759727 0.451451
O O8 0.479571 0.677083 0.511025
O O9 0.721987 0.537880 0.317492
O O10 0.641186 0.614296 0.390417
O O11 0.872706 0.589209 0.419578
O O12 0.872224 0.599380 0.096300
O O13 0.076100 0.342425 0.432190
O O14 0.000000 0.311755 0.750000
O O15 0.000000 0.019820 0.250000
O O16 0.500000 0.374957 0.250000
#
# Coordination Sequence:
#
# PCOD8129778 Si02
#       7
#     8   8   8   8   8   8   8
#     4  12  25  40  65  85 118 155 202 255 299 364
#     4   9  17  26  48  85 127 148 191 238 290 349
#     4  11  22  38  60  86 120 157 198 244 299 356
#     4  10  16  29  50  84 123 157 186 236 297 344
#     4  12  26  42  63  91 113 155 205 255 307 353
#     4  11  18  34  59  90 120 158 195 243 300 349
#     4  11  21  38  61  89 123 161 195 241 307 355
#
# _framework density 23.124257
#
# number of rings (size 3 to 8) (size 9 to 14) (size 15 to 20)
#    0.000    1.143    5.714    2.571    0.000    1.143 
#    0.000    0.000    0.000    0.000    0.000    6.000 
#    0.000    0.000    0.000    0.000    0.000    0.000 
#
# Total GULP energy -346968.146539 kJ/mol
# GULP energy per Si atom -12391.719519 kJ/mol
# Density = 2.307162 g / cm^3
# Si number density = 23.124257 Si / 1000 Ang^3
#
#
#
# Elastic Constant Matrix: (Units=GPa)
#
#
# Indices 1 2 3 4 5 6 
#
# 1 63.6733 38.4394 21.8050 0.0000 -25.6952 0.0000
# 2 38.4394 194.5644 29.4371 0.0000 -13.2362 0.0000
# 3 21.8050 29.4371 96.2010 0.0000 -37.6714 0.0000
# 4 0.0000 0.0000 0.0000 27.2444 0.0000 -9.6501
# 5 -25.6952 -13.2362 -37.6714 0.0000 33.3336 0.0000
# 6 0.0000 0.0000 0.0000 -9.6501 0.0000 20.4282
#
#
#
# Elastic Compliance Matrix: (Units=1/GPa)
#
#
# Indices 1 2 3 4 5 6 
#
# 1 0.026333 -0.004288 0.004710 0.000000 0.023919 0.000000
# 2 -0.004288 0.006092 -0.002223 0.000000 -0.003399 0.000000
# 3 0.004710 -0.002223 0.019883 0.000000 0.025218 0.000000
# 4 0.000000 0.000000 0.000000 0.044081 0.000000 0.020823
# 5 0.023919 -0.003399 0.025218 0.000000 0.075588 0.000000
# 6 0.000000 0.000000 0.000000 0.020823 0.000000 0.058789
#
#
# Mechanical properties :
#
#
# Convention : Reuss Voigt Hill
#
# Bulk Modulus (GPa) = 20.53143 59.31128 39.92135
# Shear Modulus (GPa) = 19.95184 33.85171 26.90177
#
# Velocity S-wave (km/s) = 2.94055 3.83025 3.41450
# Velocity P-wave (km/s) = 4.51964 6.72798 5.73118
#
# Compressibility (1/GPa) = 0.04870582
#
# Stress axis : x y z
#
# Youngs Moduli (GPa) = 37.97445 164.15019 50.29477
#
# Poissons Ratio (x) = 0.70387 -0.23688
# Poissons Ratio (y) = 0.16283 0.11181
# Poissons Ratio (z) = -0.17886 0.36493
#
# Static dielectric constant tensor:
#      x y z
#    x 3.827620 0.000000 -0.429390 
#    y 0.000000 4.691860 0.000000 
#    z -0.429390 0.000000 4.269770 
# 
# 
# High freq. dielectric constant tensor:
#      x y z
#    x 1.878680 0.000000 -0.041220 
#    y 0.000000 1.940660 0.000000 
#    z -0.041220 0.000000 1.905740 
# 
# From -- ./inp_files/35602.got.cif
#   From: 2010.06.25/outbox.cif.g09.slc.cpg/sg15_18_cif.got.tgz:35602.got - 2010.06.28 07:06:18.
