data_PCOD8129790
_publ_section_title
;
Structure prediction by ZEFSAII (Michael W. Deem and Ramdas Pophale) SiO2 
 PCOD8129790
Probable space group: C 2/C
;
_chemical_formula_sum "Si O2"
_cell_formula_units_Z 56
_cell_length_a 18.552268
_cell_length_b 15.942524
_cell_length_c 15.779440
_cell_angle_alpha 90.000000
_cell_angle_beta 37.146727
_cell_angle_gamma 90.000000
_cell_volume 2818.257545
_symmetry_space_group_name_H-M "C 2/C"
_symmetry_group_IT_number 15
_symmetry_cell_setting 'monoclinic'
loop_
_space_group_symop_operation_xyz
x,y,z
-x,y,1/2-z
-x,-y,-z
x,-y,1/2+z
1/2+x,1/2+y,z
1/2-x,1/2+y,1/2-z
1/2-x,1/2-y,-z
1/2+x,1/2-y,1/2+z
loop_
_atom_site_type_symbol
_atom_site_label
_atom_site_fract_x
_atom_site_fract_y
_atom_site_fract_z
Si Si1 0.807617 0.535743 0.802989
Si Si2 0.173668 0.411496 0.955017
Si Si3 0.845241 0.359696 0.702506
Si Si4 0.206500 0.210850 0.628889
Si Si5 0.115485 0.591042 0.945729
Si Si6 0.000000 0.419663 0.250000
Si Si7 0.500000 0.616361 0.750000
Si Si8 0.874727 0.955166 0.891821
O O1 0.778692 0.442817 0.797860
O O2 0.841665 0.596550 0.692827
O O3 0.912496 0.523899 0.774340
O O4 0.691673 0.575658 0.960221
O O5 0.193635 0.347172 0.859482
O O6 0.105269 0.493495 0.981553
O O7 0.296455 0.440310 0.881538
O O8 0.085584 0.366594 0.106622
O O9 0.792923 0.281448 0.800627
O O10 0.987857 0.365659 0.576214
O O11 0.250000 0.250000 0.500000
O O12 0.293724 0.137087 0.576672
O O13 0.071477 0.175343 0.748489
O O14 0.400465 0.554647 0.885071
O O15 0.000000 0.908896 0.750000
#
# Coordination Sequence:
#
# PCOD8129790 Si02
#       8
#     8   8   8   8   8   4   4   8
#     4  10  19  33  60  88 114 146 200 246 293 344
#     4  10  18  35  60  88 118 144 204 252 291 345
#     4  11  22  35  55  91 120 151 198 249 297 343
#     4  12  25  37  56  82 126 167 193 233 298 377
#     4  11  20  38  55  87 121 151 196 247 299 350
#     4  10  16  29  62  90 103 144 184 252 302 319
#     4  10  20  39  52  84 119 166 192 228 302 361
#     4   9  19  35  58  84 119 152 198 234 298 357
#
# _framework density 19.870433999999999
#
# number of rings (size 3 to 8) (size 9 to 14) (size 15 to 20)
#    0.429    1.143    4.286    2.571    2.000    0.571 
#    0.000    9.286    0.000    3.429    3.714    0.000 
#    0.000    0.000    0.000    0.000    0.000    0.000 
#
# Total GULP energy -346905.869755 kJ/mol
# GULP energy per Si atom -12389.495348 kJ/mol
# Density = 1.982521 g / cm^3
# Si number density = 19.870434 Si / 1000 Ang^3
#
#
#
# Elastic Constant Matrix: (Units=GPa)
#
#
# Indices 1 2 3 4 5 6 
#
# 1 106.7466 16.1500 53.0517 0.0000 10.0655 0.0000
# 2 16.1500 41.9503 17.5867 0.0000 10.0260 0.0000
# 3 53.0517 17.5867 137.8781 0.0000 13.7133 0.0000
# 4 0.0000 0.0000 0.0000 14.0938 0.0000 3.2609
# 5 10.0655 10.0260 13.7133 0.0000 37.2942 0.0000
# 6 0.0000 0.0000 0.0000 3.2609 0.0000 24.4824
#
#
#
# Elastic Compliance Matrix: (Units=1/GPa)
#
#
# Indices 1 2 3 4 5 6 
#
# 1 0.011922 -0.002611 -0.004156 0.000000 -0.000987 0.000000
# 2 -0.002611 0.027027 -0.001858 0.000000 -0.005878 0.000000
# 3 -0.004156 -0.001858 0.009266 0.000000 -0.001786 0.000000
# 4 0.000000 0.000000 0.000000 0.073209 0.000000 -0.009751
# 5 -0.000987 -0.005878 -0.001786 0.000000 0.029317 0.000000
# 6 0.000000 0.000000 0.000000 -0.009751 0.000000 0.042144
#
#
# Mechanical properties :
#
#
# Convention : Reuss Voigt Hill
#
# Bulk Modulus (GPa) = 32.29499 51.12796 41.71147
# Shear Modulus (GPa) = 22.68012 28.49319 25.58665
#
# Velocity S-wave (km/s) = 3.38213 3.79086 3.59231
# Velocity P-wave (km/s) = 5.61603 6.70428 6.18414
#
# Compressibility (1/GPa) = 0.03096456
#
# Stress axis : x y z
#
# Youngs Moduli (GPa) = 83.88176 37.00046 107.91601
#
# Poissons Ratio (x) = 0.09662 0.44848
# Poissons Ratio (y) = 0.21904 0.20050
# Poissons Ratio (z) = 0.34860 0.06875
#
# Static dielectric constant tensor:
#      x y z
#    x 3.778460 0.000000 0.152520 
#    y 0.000000 3.108160 0.000000 
#    z 0.152520 0.000000 3.830080 
# 
# 
# High freq. dielectric constant tensor:
#      x y z
#    x 1.784080 0.000000 0.004150 
#    y 0.000000 1.718820 0.000000 
#    z 0.004150 0.000000 1.788050 
# 
# From -- ./inp_files/163071.got.cif
#   From: 2010.06.25/outbox.cif.g09.slc.cpg/sg15_82_cif.got.tgz:163071.got - 2010.06.28 07:06:18.
