data_PCOD8129997
_publ_section_title
;
Structure prediction by ZEFSAII (Michael W. Deem and Ramdas Pophale) SiO2 
 PCOD8129997
Probable space group: C 2/C
;
_chemical_formula_sum "Si O2"
_cell_formula_units_Z 44
_cell_length_a 27.120484
_cell_length_b 9.206468
_cell_length_c 16.238547
_cell_angle_alpha 90.000000
_cell_angle_beta 142.714133
_cell_angle_gamma 90.000000
_cell_volume 2456.186286
_symmetry_space_group_name_H-M "C 2/C"
_symmetry_group_IT_number 15
_symmetry_cell_setting 'monoclinic'
loop_
_space_group_symop_operation_xyz
x,y,z
-x,y,1/2-z
-x,-y,-z
x,-y,1/2+z
1/2+x,1/2+y,z
1/2-x,1/2+y,1/2-z
1/2-x,1/2-y,-z
1/2+x,1/2-y,1/2+z
loop_
_atom_site_type_symbol
_atom_site_label
_atom_site_fract_x
_atom_site_fract_y
_atom_site_fract_z
Si Si1 0.723008 0.836528 0.384496
Si Si2 0.599248 0.378469 0.639447
Si Si3 0.844475 0.988987 0.955555
Si Si4 0.784281 0.341237 0.620727
Si Si5 0.500000 0.605111 0.750000
Si Si6 0.439352 0.667162 0.837128
O O1 0.750000 0.750000 0.500000
O O2 0.653503 0.751635 0.243966
O O3 0.797522 0.862075 0.418468
O O4 0.691068 0.994227 0.373199
O O5 0.641321 0.472006 0.622561
O O6 0.583506 0.495412 0.690630
O O7 0.515255 0.303775 0.498366
O O8 0.788684 0.850865 0.909267
O O9 0.929977 0.994196 0.117183
O O10 0.750000 0.250000 0.500000
O O11 0.863737 0.265365 0.765056
O O12 0.462608 0.704962 0.773332
#
# Coordination Sequence:
#
# PCOD8129997 Si02
#       6
#     8   8   8   8   4   8
#     4  10  21  37  56  84 114 149 191 239 282 340
#     4  10  21  37  56  87 115 151 189 239 290 338
#     4   9  21  31  59  82 110 150 188 236 282 341
#     4  10  19  34  57  85 107 154 189 234 279 342
#     4  10  16  36  54  82 106 152 194 226 274 348
#     4  10  20  35  60  81 116 152 193 232 286 342
#
# _framework density 17.913951000000001
#
# number of rings (size 3 to 8) (size 9 to 14) (size 15 to 20)
#    1.091    1.091    1.818    2.182    2.545    0.727 
#    0.000    0.000    0.000    8.727    0.000    0.000 
#    0.000    0.000    0.000    0.000    0.000    0.000 
#
# Total GULP energy -272611.135860 kJ/mol
# GULP energy per Si atom -12391.415266 kJ/mol
# Density = 1.787318 g / cm^3
# Si number density = 17.913951 Si / 1000 Ang^3
#
#
#
# Elastic Constant Matrix: (Units=GPa)
#
#
# Indices 1 2 3 4 5 6 
#
# 1 78.4337 23.8960 40.2331 0.0000 6.3531 0.0000
# 2 23.8960 93.6862 68.2657 0.0000 1.1167 0.0000
# 3 40.2331 68.2657 127.6412 0.0000 12.4831 0.0000
# 4 0.0000 0.0000 0.0000 33.8341 0.0000 2.8731
# 5 6.3531 1.1167 12.4831 0.0000 28.7303 0.0000
# 6 0.0000 0.0000 0.0000 2.8731 0.0000 29.5085
#
#
#
# Elastic Compliance Matrix: (Units=1/GPa)
#
#
# Indices 1 2 3 4 5 6 
#
# 1 0.015292 -0.000782 -0.004255 0.000000 -0.001502 0.000000
# 2 -0.000782 0.017880 -0.009677 0.000000 0.003682 0.000000
# 3 -0.004255 -0.009677 0.014853 0.000000 -0.005137 0.000000
# 4 0.000000 0.000000 0.000000 0.029802 0.000000 -0.002902
# 5 -0.001502 0.003682 -0.005137 0.000000 0.037227 0.000000
# 6 0.000000 0.000000 0.000000 -0.002902 0.000000 0.034171
#
#
# Mechanical properties :
#
#
# Convention : Reuss Voigt Hill
#
# Bulk Modulus (GPa) = 53.76720 62.72785 58.24752
# Shear Modulus (GPa) = 27.04845 29.57234 28.31039
#
# Velocity S-wave (km/s) = 3.88997 4.06741 3.97968
# Velocity P-wave (km/s) = 7.08909 7.55981 7.32823
#
# Compressibility (1/GPa) = 0.01859870
#
# Stress axis : x y z
#
# Youngs Moduli (GPa) = 65.39278 55.92694 67.32543
#
# Poissons Ratio (x) = 0.04374 0.28646
# Poissons Ratio (y) = 0.05115 0.65148
# Poissons Ratio (z) = 0.27824 0.54118
#
# Static dielectric constant tensor:
#      x y z
#    x 3.437760 0.000000 0.179650 
#    y 0.000000 3.064960 0.000000 
#    z 0.179650 0.000000 3.390940 
# 
# 
# High freq. dielectric constant tensor:
#      x y z
#    x 1.695130 0.000000 0.006300 
#    y 0.000000 1.660360 0.000000 
#    z 0.006300 0.000000 1.706410 
# 
# From -- ./inp_files/224466.got.cif
#   From: 2010.06.25/outbox.cif.g09.slc.cpg/sg15_113_cif.got.tgz:224466.got - 2010.06.28 07:06:18.
