data_PCOD8129120
_publ_section_title
;
Structure prediction by ZEFSAII (Michael W. Deem and Ramdas Pophale) SiO2 
 PCOD8129120
Probable space group: P 21/C
;
_chemical_formula_sum "Si O2"
_cell_formula_units_Z 16
_cell_length_a 6.634508
_cell_length_b 6.723186
_cell_length_c 15.784213
_cell_angle_alpha 90.000000
_cell_angle_beta 106.294178
_cell_angle_gamma 90.000000
_cell_volume 675.776093
_symmetry_space_group_name_H-M "P 21/C"
_symmetry_group_IT_number 14
_symmetry_cell_setting 'monoclinic'
loop_
_space_group_symop_operation_xyz
x,y,z
-x,1/2+y,1/2-z
-x,-y,-z
x,1/2-y,1/2+z
loop_
_atom_site_type_symbol
_atom_site_label
_atom_site_fract_x
_atom_site_fract_y
_atom_site_fract_z
Si Si1 0.435556 0.040855 0.589120
Si Si2 0.663602 0.405092 0.583427
Si Si3 0.776165 0.787033 0.692218
Si Si4 0.021198 0.124734 0.621636
O O1 0.531240 0.255245 0.627809
O O2 0.183207 0.047881 0.568912
O O3 0.500000 0.000000 0.500000
O O4 0.537594 0.873137 0.661921
O O5 0.500000 0.500000 0.500000
O O6 0.781032 0.570204 0.651167
O O7 0.842675 0.267066 0.558823
O O8 0.853307 0.762723 0.796782
O O9 0.923851 0.933912 0.656314
#
# Coordination Sequence:
#
# PCOD8129120 Si02
#       4
#     4   4   4   4
#     4  11  26  46  68 106 145 186 236 292 356 429
#     4  11  24  47  68 105 141 183 239 287 362 428
#     4  11  24  45  67 105 137 182 245 289 360 421
#     4  11  26  44  75 100 145 187 236 302 354 422
#
# _framework density 23.676482
#
# number of rings (size 3 to 8) (size 9 to 14) (size 15 to 20)
#    0.000    1.000    5.000    0.000    3.500    7.000 
#    0.000    0.000    0.000    0.000    0.000    0.000 
#    0.000    0.000    0.000    0.000    0.000    0.000 
#
# Total GULP energy -198333.565943 kJ/mol
# GULP energy per Si atom -12395.847871 kJ/mol
# Density = 2.362259 g / cm^3
# Si number density = 23.676482 Si / 1000 Ang^3
#
#
#
# Elastic Constant Matrix: (Units=GPa)
#
#
# Indices 1 2 3 4 5 6 
#
# 1 184.6024 47.0227 31.8976 0.0000 3.1899 0.0000
# 2 47.0227 128.9096 17.3189 0.0000 1.5403 0.0000
# 3 31.8976 17.3189 70.8453 0.0000 6.5362 0.0000
# 4 0.0000 0.0000 0.0000 37.2129 0.0000 20.7219
# 5 3.1899 1.5403 6.5362 0.0000 32.4710 0.0000
# 6 0.0000 0.0000 0.0000 20.7219 0.0000 40.5457
#
#
#
# Elastic Compliance Matrix: (Units=1/GPa)
#
#
# Indices 1 2 3 4 5 6 
#
# 1 0.006333 -0.001993 -0.002360 0.000000 -0.000053 0.000000
# 2 -0.001993 0.008648 -0.001220 0.000000 0.000031 0.000000
# 3 -0.002360 -0.001220 0.015741 0.000000 -0.002879 0.000000
# 4 0.000000 0.000000 0.000000 0.037562 0.000000 -0.019197
# 5 -0.000053 0.000031 -0.002879 0.000000 0.031380 0.000000
# 6 0.000000 0.000000 0.000000 -0.019197 0.000000 0.034475
#
#
# Mechanical properties :
#
#
# Convention : Reuss Voigt Hill
#
# Bulk Modulus (GPa) = 51.07600 64.09287 57.58443
# Shear Modulus (GPa) = 32.93607 41.25378 37.09492
#
# Velocity S-wave (km/s) = 3.73378 4.17873 3.96250
# Velocity P-wave (km/s) = 6.34093 7.10010 6.73123
#
# Compressibility (1/GPa) = 0.01957867
#
# Stress axis : x y z
#
# Youngs Moduli (GPa) = 157.89772 115.63759 63.52671
#
# Poissons Ratio (x) = 0.23041 0.14989
# Poissons Ratio (y) = 0.31462 0.07749
# Poissons Ratio (z) = 0.37256 0.14105
#
# Static dielectric constant tensor:
#      x y z
#    x 4.538870 0.000000 0.483880 
#    y 0.000000 4.864280 0.000000 
#    z 0.483880 0.000000 4.097760 
# 
# 
# High freq. dielectric constant tensor:
#      x y z
#    x 1.940610 0.000000 0.037000 
#    y 0.000000 1.962610 0.000000 
#    z 0.037000 0.000000 1.918570 
# 
# From -- ./inp_files/62833.got.cif
#   From: 2010.03.12/outbox.cif.g09.slc.cpg/sg14_32_cif.got.tgz:62833.got - 2010.03.31 13:35:05.
