data_PCOD8129038
_publ_section_title
;
Structure prediction by ZEFSAII (Michael W. Deem and Ramdas Pophale) SiO2 
 PCOD8129038
Probable space group: P 21/C
;
_chemical_formula_sum "Si O2"
_cell_formula_units_Z 32
_cell_length_a 6.025466
_cell_length_b 15.508763
_cell_length_c 17.840681
_cell_angle_alpha 90.000000
_cell_angle_beta 65.222650
_cell_angle_gamma 90.000000
_cell_volume 1513.693407
_symmetry_space_group_name_H-M "P 21/C"
_symmetry_group_IT_number 14
_symmetry_cell_setting 'monoclinic'
loop_
_space_group_symop_operation_xyz
x,y,z
-x,1/2+y,1/2-z
-x,-y,-z
x,1/2-y,1/2+z
loop_
_atom_site_type_symbol
_atom_site_label
_atom_site_fract_x
_atom_site_fract_y
_atom_site_fract_z
Si Si1 0.215935 0.088361 0.577820
Si Si2 0.963701 0.783050 0.514238
Si Si3 0.309922 0.500440 0.454880
Si Si4 0.682823 0.326242 0.625242
Si Si5 0.784338 0.197124 0.277406
Si Si6 0.728498 0.102908 0.429662
Si Si7 0.749320 0.795422 0.288541
Si Si8 0.598823 0.830063 0.148532
O O1 0.498614 0.094012 0.516314
O O2 0.164217 0.131994 0.665276
O O3 0.059577 0.136033 0.537352
O O4 0.130104 0.988772 0.592293
O O5 0.078800 0.703168 0.453726
O O6 0.113927 0.817007 0.563586
O O7 0.713635 0.745681 0.581555
O O8 0.500000 0.500000 0.500000
O O9 0.403364 0.585285 0.399617
O O10 0.396824 0.419922 0.394029
O O11 0.000000 0.500000 0.500000
O O12 0.734340 0.345714 0.704437
O O13 0.494241 0.247614 0.643833
O O14 0.671237 0.128943 0.352182
O O15 0.672712 0.293845 0.299867
O O16 0.071378 0.213686 0.245470
O O17 0.725408 0.841343 0.211487
#
# Coordination Sequence:
#
# PCOD8129038 Si02
#       8
#     4   4   4   4   4   4   4   4
#     4  11  24  41  67  96 132 174 230 286 341 419
#     4  12  21  43  70  94 138 174 236 285 357 432
#     4  12  30  48  78 112 145 190 252 308 365 438
#     4  11  26  44  68 102 138 187 235 296 362 432
#     4  11  24  45  68  97 138 186 231 290 362 431
#     4  11  24  41  67  96 132 174 230 286 341 419
#     4  11  24  45  68  97 138 186 231 290 362 431
#     4  11  26  44  68 102 138 187 235 296 362 432
#
# _framework density 21.140343999999999
#
# number of rings (size 3 to 8) (size 9 to 14) (size 15 to 20)
#    0.000    0.750    6.250    0.375    8.750    0.000 
#    2.250    0.000    0.000    0.000    0.000    0.000 
#    0.000    0.000    0.000    0.000    0.000    0.000 
#
# Total GULP energy -396549.495728 kJ/mol
# GULP energy per Si atom -12392.171741 kJ/mol
# Density = 2.109223 g / cm^3
# Si number density = 21.140344 Si / 1000 Ang^3
#
#
#
# Elastic Constant Matrix: (Units=GPa)
#
#
# Indices 1 2 3 4 5 6 
#
# 1 72.2507 14.1689 26.8830 0.0000 11.8753 0.0000
# 2 14.1689 115.4509 50.5171 0.0000 18.9832 0.0000
# 3 26.8830 50.5171 117.0407 0.0000 23.5381 0.0000
# 4 0.0000 0.0000 0.0000 37.3116 0.0000 8.8048
# 5 11.8753 18.9832 23.5381 0.0000 30.3563 0.0000
# 6 0.0000 0.0000 0.0000 8.8048 0.0000 27.0294
#
#
#
# Elastic Compliance Matrix: (Units=1/GPa)
#
#
# Indices 1 2 3 4 5 6 
#
# 1 0.015518 -0.000058 -0.002755 0.000000 -0.003898 0.000000
# 2 -0.000058 0.011037 -0.003989 0.000000 -0.003786 0.000000
# 3 -0.002755 -0.003989 0.012061 0.000000 -0.005780 0.000000
# 4 0.000000 0.000000 0.000000 0.029033 0.000000 -0.009458
# 5 -0.003898 -0.003786 -0.005780 0.000000 0.041316 0.000000
# 6 0.000000 0.000000 0.000000 -0.009458 0.000000 0.040077
#
#
# Mechanical properties :
#
#
# Convention : Reuss Voigt Hill
#
# Bulk Modulus (GPa) = 39.98216 54.20892 47.09554
# Shear Modulus (GPa) = 29.24250 33.15100 31.19675
#
# Velocity S-wave (km/s) = 3.72325 3.96427 3.84565
# Velocity P-wave (km/s) = 6.11860 6.83023 6.48418
#
# Compressibility (1/GPa) = 0.02501115
#
# Stress axis : x y z
#
# Youngs Moduli (GPa) = 64.44147 90.60634 82.91200
#
# Poissons Ratio (x) = 0.00524 0.22846
# Poissons Ratio (y) = 0.00373 0.33073
# Poissons Ratio (z) = 0.17756 0.36142
#
# Static dielectric constant tensor:
#      x y z
#    x 4.059710 0.000000 0.020520 
#    y 0.000000 3.923580 0.000000 
#    z 0.020520 0.000000 3.922100 
# 
# 
# High freq. dielectric constant tensor:
#      x y z
#    x 1.824250 0.000000 0.006420 
#    y 0.000000 1.829280 0.000000 
#    z 0.006420 0.000000 1.844260 
# 
# From -- ./inp_files/53468.got.cif
#   From: 2010.03.12/outbox.cif.g09.slc.cpg/sg14_27_cif.got.tgz:53468.got - 2010.03.31 13:35:05.
