data_PCOD8129454
_publ_section_title
;
Structure prediction by ZEFSAII (Michael W. Deem and Ramdas Pophale) SiO2 
 PCOD8129454
Probable space group: P 21/C
;
_chemical_formula_sum "Si O2"
_cell_formula_units_Z 20
_cell_length_a 8.104191
_cell_length_b 15.462157
_cell_length_c 11.005462
_cell_angle_alpha 90.000000
_cell_angle_beta 34.297523
_cell_angle_gamma 90.000000
_cell_volume 777.095683
_symmetry_space_group_name_H-M "P 21/C"
_symmetry_group_IT_number 14
_symmetry_cell_setting 'monoclinic'
loop_
_space_group_symop_operation_xyz
x,y,z
-x,1/2+y,1/2-z
-x,-y,-z
x,1/2-y,1/2+z
loop_
_atom_site_type_symbol
_atom_site_label
_atom_site_fract_x
_atom_site_fract_y
_atom_site_fract_z
Si Si1 0.624443 0.946548 0.535550
Si Si2 0.743193 0.246548 0.983134
Si Si3 0.128873 0.816813 0.844811
Si Si4 0.455041 0.103725 0.780215
Si Si5 0.308807 0.586357 0.616771
O O1 0.457709 0.855209 0.649470
O O2 0.967360 0.933291 0.308613
O O3 0.500000 0.000000 0.500000
O O4 0.561810 0.006312 0.690890
O O5 0.929313 0.263348 0.745384
O O6 0.590216 0.152728 0.051741
O O7 0.925462 0.239428 0.998721
O O8 0.523378 0.327604 0.131042
O O9 0.894117 0.895121 0.986311
O O10 0.627688 0.135367 0.795114
O O11 0.500000 0.500000 0.500000
#
# Coordination Sequence:
#
# PCOD8129454 Si02
#       5
#     4   4   4   4   4
#     4  12  25  51  78 117 155 212 263 330 396 479
#     4  12  28  48  78 116 159 204 265 325 397 469
#     4  12  28  49  82 111 161 203 266 324 403 464
#     4  12  27  49  82 112 160 205 270 327 402 472
#     4  12  28  50  80 116 163 211 268 327 398 475
#
# _framework density 25.736856
#
# number of rings (size 3 to 8) (size 9 to 14) (size 15 to 20)
#    0.000    0.000    4.000    4.800    5.600    0.000 
#    0.000    0.000    0.000    0.000    0.000    0.000 
#    0.000    0.000    0.000    0.000    0.000    0.000 
#
# Total GULP energy -247908.292885 kJ/mol
# GULP energy per Si atom -12395.414644 kJ/mol
# Density = 2.567828 g / cm^3
# Si number density = 25.736856 Si / 1000 Ang^3
#
#
#
# Elastic Constant Matrix: (Units=GPa)
#
#
# Indices 1 2 3 4 5 6 
#
# 1 144.3975 28.6639 64.9737 0.0000 21.6972 0.0000
# 2 28.6639 122.6148 43.0345 0.0000 4.7560 0.0000
# 3 64.9737 43.0345 98.8383 0.0000 -6.9498 0.0000
# 4 0.0000 0.0000 0.0000 45.1590 0.0000 10.0434
# 5 21.6972 4.7560 -6.9498 0.0000 59.1854 0.0000
# 6 0.0000 0.0000 0.0000 10.0434 0.0000 44.1511
#
#
#
# Elastic Compliance Matrix: (Units=1/GPa)
#
#
# Indices 1 2 3 4 5 6 
#
# 1 0.011131 0.000336 -0.007817 0.000000 -0.005026 0.000000
# 2 0.000336 0.009733 -0.004560 0.000000 -0.001441 0.000000
# 3 -0.007817 -0.004560 0.017615 0.000000 0.005301 0.000000
# 4 0.000000 0.000000 0.000000 0.023324 0.000000 -0.005306
# 5 -0.005026 -0.001441 0.005301 0.000000 0.019477 0.000000
# 6 0.000000 0.000000 0.000000 -0.005306 0.000000 0.023856
#
#
# Mechanical properties :
#
#
# Convention : Reuss Voigt Hill
#
# Bulk Modulus (GPa) = 69.45957 71.02166 70.24061
# Shear Modulus (GPa) = 37.30850 44.97767 41.14308
#
# Velocity S-wave (km/s) = 3.81151 4.18496 4.00259
# Velocity P-wave (km/s) = 6.81301 7.14193 6.97941
#
# Compressibility (1/GPa) = 0.01439686
#
# Stress axis : x y z
#
# Youngs Moduli (GPa) = 89.83803 102.73831 56.77080
#
# Poissons Ratio (x) = -0.03456 0.44379
# Poissons Ratio (y) = -0.03022 0.25890
# Poissons Ratio (z) = 0.70228 0.46853
#
# Static dielectric constant tensor:
#      x y z
#    x 4.936880 0.000000 0.486240 
#    y 0.000000 4.917170 0.000000 
#    z 0.486240 0.000000 4.514370 
# 
# 
# High freq. dielectric constant tensor:
#      x y z
#    x 2.045690 0.000000 0.024240 
#    y 0.000000 2.040810 0.000000 
#    z 0.024240 0.000000 2.011970 
# 
# From -- ./inp_files/26222.got.cif
#   From: 2010.03.12/outbox.cif.g09.slc.cpg/sg14_14_cif.got.tgz:26222.got - 2010.03.31 13:35:05.
