data_PCOD8129319
_publ_section_title
;
Structure prediction by ZEFSAII (Michael W. Deem and Ramdas Pophale) SiO2 
 PCOD8129319
Probable space group: P 21/C
;
_chemical_formula_sum "Si O2"
_cell_formula_units_Z 28
_cell_length_a 20.388295
_cell_length_b 9.099266
_cell_length_c 9.070903
_cell_angle_alpha 90.000000
_cell_angle_beta 132.803065
_cell_angle_gamma 90.000000
_cell_volume 1234.674488
_symmetry_space_group_name_H-M "P 21/C"
_symmetry_group_IT_number 14
_symmetry_cell_setting 'monoclinic'
loop_
_space_group_symop_operation_xyz
x,y,z
-x,1/2+y,1/2-z
-x,-y,-z
x,1/2-y,1/2+z
loop_
_atom_site_type_symbol
_atom_site_label
_atom_site_fract_x
_atom_site_fract_y
_atom_site_fract_z
Si Si1 0.073159 0.461052 0.491913
Si Si2 0.901511 0.435127 0.878399
Si Si3 0.273410 0.408805 0.475223
Si Si4 0.271873 0.104863 0.322024
Si Si5 0.065103 0.758620 0.308962
Si Si6 0.585128 0.107003 0.962985
Si Si7 0.587430 0.093500 0.306095
O O1 0.169499 0.428746 0.706999
O O2 0.075202 0.593239 0.381303
O O3 0.000000 0.500000 0.500000
O O4 0.038677 0.310606 0.359892
O O5 0.829716 0.553207 0.715132
O O6 0.892989 0.271065 0.789115
O O7 0.884404 0.387608 0.023037
O O8 0.000000 0.500000 0.000000
O O9 0.300887 0.259906 0.435032
O O10 0.288347 0.390933 0.672169
O O11 0.333480 0.539075 0.504289
O O12 0.328986 0.977950 0.484049
O O13 0.560932 0.261005 0.852950
O O14 0.497669 0.009908 0.814905
O O15 0.613335 0.127424 0.176441
#
# Coordination Sequence:
#
# PCOD8129319 Si02
#       7
#     4   4   4   4   4   4   4
#     4  12  27  42  70  99 138 191 238 300 358 421
#     4  12  25  43  65  97 137 181 236 293 353 417
#     4  12  27  45  72 103 142 189 241 295 366 423
#     4  12  27  47  70 106 145 186 246 300 359 434
#     4  12  24  43  65  92 134 179 236 286 349 418
#     4  11  26  48  80 109 147 192 230 298 354 438
#     4  11  26  50  76 112 149 185 241 287 366 422
#
# _framework density 22.678042000000001
#
# number of rings (size 3 to 8) (size 9 to 14) (size 15 to 20)
#    0.000    0.286    4.286    3.429    4.000    6.857 
#    0.000    0.000    0.000    0.000    0.000    0.000 
#    0.000    0.000    0.000    0.000    0.000    0.000 
#
# Total GULP energy -347153.254590 kJ/mol
# GULP energy per Si atom -12398.330521 kJ/mol
# Density = 2.262643 g / cm^3
# Si number density = 22.678042 Si / 1000 Ang^3
#
#
#
# Elastic Constant Matrix: (Units=GPa)
#
#
# Indices 1 2 3 4 5 6 
#
# 1 93.4508 28.4260 53.6362 0.0000 -15.0516 0.0000
# 2 28.4260 115.9915 48.0596 0.0000 -11.1068 0.0000
# 3 53.6362 48.0596 140.2853 0.0000 -19.5791 0.0000
# 4 0.0000 0.0000 0.0000 43.0516 0.0000 -5.3944
# 5 -15.0516 -11.1068 -19.5791 0.0000 38.7961 0.0000
# 6 0.0000 0.0000 0.0000 -5.3944 0.0000 35.5098
#
#
#
# Elastic Compliance Matrix: (Units=1/GPa)
#
#
# Indices 1 2 3 4 5 6 
#
# 1 0.014181 -0.001308 -0.004581 0.000000 0.002816 0.000000
# 2 -0.001308 0.010223 -0.002866 0.000000 0.000973 0.000000
# 3 -0.004581 -0.002866 0.010219 0.000000 0.002559 0.000000
# 4 0.000000 0.000000 0.000000 0.023679 0.000000 0.003597
# 5 0.002816 0.000973 0.002559 0.000000 0.028438 0.000000
# 6 0.000000 0.000000 0.000000 0.003597 0.000000 0.028708
#
#
# Mechanical properties :
#
#
# Convention : Reuss Voigt Hill
#
# Bulk Modulus (GPa) = 58.43628 67.77459 63.10543
# Shear Modulus (GPa) = 36.05886 38.11188 37.08537
#
# Velocity S-wave (km/s) = 3.99185 4.10391 4.04827
# Velocity P-wave (km/s) = 6.86077 7.23924 7.05255
#
# Compressibility (1/GPa) = 0.01711266
#
# Stress axis : x y z
#
# Youngs Moduli (GPa) = 70.51471 97.82264 97.85678
#
# Poissons Ratio (x) = 0.12792 0.44829
# Poissons Ratio (y) = 0.09221 0.28049
# Poissons Ratio (z) = 0.32304 0.28039
#
# Static dielectric constant tensor:
#      x y z
#    x 4.529330 0.000000 -0.539740 
#    y 0.000000 4.274380 0.000000 
#    z -0.539740 0.000000 4.729900 
# 
# 
# High freq. dielectric constant tensor:
#      x y z
#    x 1.888240 0.000000 -0.016090 
#    y 0.000000 1.910880 0.000000 
#    z -0.016090 0.000000 1.913960 
# 
# From -- ./inp_files/18770.got.cif
#   From: 2010.03.12/outbox.cif.g09.slc.cpg/sg14_10_cif.got.tgz:18770.got - 2010.03.31 13:35:05.
