data_PCOD8129157
_publ_section_title
;
Structure prediction by ZEFSAII (Michael W. Deem and Ramdas Pophale) SiO2 
 PCOD8129157
Probable space group: P 21/C
;
_chemical_formula_sum "Si O2"
_cell_formula_units_Z 32
_cell_length_a 11.967952
_cell_length_b 8.174667
_cell_length_c 16.246542
_cell_angle_alpha 90.000000
_cell_angle_beta 67.119460
_cell_angle_gamma 90.000000
_cell_volume 1464.401531
_symmetry_space_group_name_H-M "P 21/C"
_symmetry_group_IT_number 14
_symmetry_cell_setting 'monoclinic'
loop_
_space_group_symop_operation_xyz
x,y,z
-x,1/2+y,1/2-z
-x,-y,-z
x,1/2-y,1/2+z
loop_
_atom_site_type_symbol
_atom_site_label
_atom_site_fract_x
_atom_site_fract_y
_atom_site_fract_z
Si Si1 0.410224 0.037676 0.100626
Si Si2 0.441713 0.019831 0.429839
Si Si3 0.992794 0.635906 0.631009
Si Si4 0.384201 0.812763 0.869716
Si Si5 0.095767 0.939275 0.697596
Si Si6 0.761566 0.781829 0.438351
Si Si7 0.662188 0.207353 0.300576
Si Si8 0.163702 0.033222 0.962124
O O1 0.481692 0.109743 0.159439
O O2 0.306519 0.169188 0.109185
O O3 0.350450 0.866832 0.140415
O O4 0.500000 0.000000 0.000000
O O5 0.334618 0.149926 0.467877
O O6 0.551927 0.077661 0.340467
O O7 0.500000 0.000000 0.500000
O O8 0.379600 0.849071 0.425711
O O9 0.020542 0.817138 0.659054
O O10 0.077764 0.605598 0.526813
O O11 0.998278 0.512276 0.707786
O O12 0.862970 0.603879 0.622563
O O13 0.342910 0.748664 0.793241
O O14 0.296640 0.955676 0.926543
O O15 0.205893 0.856258 0.714073
O O16 0.154937 0.083883 0.628102
O O17 0.851583 0.677596 0.467972
#
# Coordination Sequence:
#
# PCOD8129157 Si02
#       8
#     4   4   4   4   4   4   4   4
#     4  12  22  40  70 102 138 184 220 262 339 430
#     4  12  22  40  65 101 135 176 223 261 329 426
#     4  11  26  47  71  94 132 174 237 294 348 392
#     4  12  23  42  66  99 145 176 217 283 338 407
#     4  12  25  47  70  97 134 177 234 296 341 411
#     4  12  24  41  71  98 135 178 225 271 344 416
#     4  12  24  41  66 102 137 182 221 278 344 405
#     4  11  24  46  70  97 133 179 225 290 348 403
#
# _framework density 21.851931
#
# number of rings (size 3 to 8) (size 9 to 14) (size 15 to 20)
#    0.000    0.250    6.250    3.000    0.000    0.500 
#    6.750    0.000    0.000    0.000    0.000    0.000 
#    0.000    0.000    0.000    0.000    0.000    0.000 
#
# Total GULP energy -396600.222266 kJ/mol
# GULP energy per Si atom -12393.756946 kJ/mol
# Density = 2.180219 g / cm^3
# Si number density = 21.851931 Si / 1000 Ang^3
#
#
#
# Elastic Constant Matrix: (Units=GPa)
#
#
# Indices 1 2 3 4 5 6 
#
# 1 86.0176 55.5065 31.4982 0.0000 21.2838 0.0000
# 2 55.5065 137.1875 44.0020 0.0000 19.0604 0.0000
# 3 31.4982 44.0020 93.1335 0.0000 14.9988 0.0000
# 4 0.0000 0.0000 0.0000 40.3470 0.0000 -1.1213
# 5 21.2838 19.0604 14.9988 0.0000 35.6256 0.0000
# 6 0.0000 0.0000 0.0000 -1.1213 0.0000 42.6382
#
#
#
# Elastic Compliance Matrix: (Units=1/GPa)
#
#
# Indices 1 2 3 4 5 6 
#
# 1 0.017649 -0.005477 -0.002312 0.000000 -0.006641 0.000000
# 2 -0.005477 0.010622 -0.002980 0.000000 -0.001156 0.000000
# 3 -0.002312 -0.002980 0.013353 0.000000 -0.002646 0.000000
# 4 0.000000 0.000000 0.000000 0.024803 0.000000 0.000652
# 5 -0.006641 -0.001156 -0.002646 0.000000 0.033770 0.000000
# 6 0.000000 0.000000 0.000000 0.000652 0.000000 0.023470
#
#
# Mechanical properties :
#
#
# Convention : Reuss Voigt Hill
#
# Bulk Modulus (GPa) = 49.78364 64.26131 57.02248
# Shear Modulus (GPa) = 32.91626 36.07762 34.49694
#
# Velocity S-wave (km/s) = 3.88536 4.06766 3.97756
# Velocity P-wave (km/s) = 6.55437 7.17862 6.87359
#
# Compressibility (1/GPa) = 0.02008692
#
# Stress axis : x y z
#
# Youngs Moduli (GPa) = 56.65893 94.14752 74.88805
#
# Poissons Ratio (x) = 0.51563 0.17315
# Poissons Ratio (y) = 0.31031 0.22315
# Poissons Ratio (z) = 0.13100 0.28054
#
# Static dielectric constant tensor:
#      x y z
#    x 4.004150 0.000000 0.193090 
#    y 0.000000 4.110160 0.000000 
#    z 0.193090 0.000000 3.681060 
# 
# 
# High freq. dielectric constant tensor:
#      x y z
#    x 1.863620 0.000000 0.008840 
#    y 0.000000 1.868080 0.000000 
#    z 0.008840 0.000000 1.858060 
# 
# From -- ./inp_files/43676.got.cif
#   From: 2010.03.12/outbox.cif.g09.slc.cpg/sg14_22_cif.got.tgz:43676.got - 2010.03.31 13:35:05.
