data_PCOD8129946
_publ_section_title
;
Structure prediction by ZEFSAII (Michael W. Deem and Ramdas Pophale) SiO2 
 PCOD8129946
Probable space group: C 2/C
;
_chemical_formula_sum "Si O2"
_cell_formula_units_Z 40
_cell_length_a 22.815097
_cell_length_b 11.808044
_cell_length_c 14.201173
_cell_angle_alpha 90.000000
_cell_angle_beta 151.546092
_cell_angle_gamma 90.000000
_cell_volume 1822.818058
_symmetry_space_group_name_H-M "C 2/C"
_symmetry_group_IT_number 15
_symmetry_cell_setting 'monoclinic'
loop_
_space_group_symop_operation_xyz
x,y,z
-x,y,1/2-z
-x,-y,-z
x,-y,1/2+z
1/2+x,1/2+y,z
1/2-x,1/2+y,1/2-z
1/2-x,1/2-y,-z
1/2+x,1/2-y,1/2+z
loop_
_atom_site_type_symbol
_atom_site_label
_atom_site_fract_x
_atom_site_fract_y
_atom_site_fract_z
Si Si1 0.888901 0.469009 0.652944
Si Si2 0.854881 0.399859 0.803889
Si Si3 0.461011 0.327314 0.440485
Si Si4 0.192738 0.034285 0.243036
Si Si5 0.379334 0.292916 0.122803
O O1 0.915181 0.478761 0.804800
O O2 0.761262 0.528964 0.441143
O O3 0.879334 0.340322 0.604334
O O4 0.000000 0.525824 0.750000
O O5 0.947362 0.298151 0.968106
O O6 0.801427 0.465387 0.818293
O O7 0.738695 0.347908 0.587455
O O8 0.396513 0.427914 0.408729
O O9 0.605262 0.354141 0.623735
O O10 0.379104 0.320613 0.231706
O O11 0.500000 0.350796 0.250000
#
# Coordination Sequence:
#
# PCOD8129946 Si02
#       5
#     8   8   8   8   8
#     4  10  21  36  57  85 117 148 191 242 286 338
#     4  11  20  35  59  85 120 151 189 238 296 332
#     4  10  20  34  54  91 120 145 190 246 283 338
#     4  11  21  34  59  87 117 150 195 240 286 345
#     4  10  16  33  58  87 118 146 184 240 294 324
#
# _framework density 21.944044999999999
#
# number of rings (size 3 to 8) (size 9 to 14) (size 15 to 20)
#    0.000    1.600    6.000    1.200    0.000    0.800 
#    0.000    0.000    0.000    4.800    0.000    0.000 
#    0.000    0.000    0.000    0.000    0.000    0.000 
#
# Total GULP energy -247774.541904 kJ/mol
# GULP energy per Si atom -12388.727095 kJ/mol
# Density = 2.189410 g / cm^3
# Si number density = 21.944045 Si / 1000 Ang^3
#
#
#
# Elastic Constant Matrix: (Units=GPa)
#
#
# Indices 1 2 3 4 5 6 
#
# 1 133.2630 25.6858 5.1981 0.0000 24.8016 0.0000
# 2 25.6858 50.4545 10.2291 0.0000 3.8993 0.0000
# 3 5.1981 10.2291 47.7755 0.0000 4.8282 0.0000
# 4 0.0000 0.0000 0.0000 75.4386 0.0000 10.9784
# 5 24.8016 3.8993 4.8282 0.0000 38.9950 0.0000
# 6 0.0000 0.0000 0.0000 10.9784 0.0000 31.6433
#
#
#
# Elastic Compliance Matrix: (Units=1/GPa)
#
#
# Indices 1 2 3 4 5 6 
#
# 1 0.009380 -0.004444 0.000495 0.000000 -0.005583 0.000000
# 2 -0.004444 0.022917 -0.004534 0.000000 0.001096 0.000000
# 3 0.000495 -0.004534 0.022111 0.000000 -0.002599 0.000000
# 4 0.000000 0.000000 0.000000 0.013961 0.000000 -0.004844
# 5 -0.005583 0.001096 -0.002599 0.000000 0.029407 0.000000
# 6 0.000000 0.000000 0.000000 -0.004844 0.000000 0.033283
#
#
# Mechanical properties :
#
#
# Convention : Reuss Voigt Hill
#
# Bulk Modulus (GPa) = 26.70811 34.85766 30.78289
# Shear Modulus (GPa) = 31.15159 41.90739 36.52949
#
# Velocity S-wave (km/s) = 3.77183 4.37480 4.08446
# Velocity P-wave (km/s) = 5.58269 6.43721 6.02512
#
# Compressibility (1/GPa) = 0.03744181
#
# Stress axis : x y z
#
# Youngs Moduli (GPa) = 106.60624 43.63597 45.22683
#
# Poissons Ratio (x) = 0.19393 -0.02240
# Poissons Ratio (y) = 0.47379 0.20505
# Poissons Ratio (z) = -0.05279 0.19784
#
# Static dielectric constant tensor:
#      x y z
#    x 5.412040 0.000000 0.546990 
#    y 0.000000 3.926450 0.000000 
#    z 0.546990 0.000000 3.979340 
# 
# 
# High freq. dielectric constant tensor:
#      x y z
#    x 1.867600 0.000000 0.030640 
#    y 0.000000 1.824450 0.000000 
#    z 0.030640 0.000000 1.865160 
# 
# From -- ./inp_files/173220.got.cif
#   From: 2010.06.25/outbox.cif.g09.slc.cpg/sg15_87_cif.got.tgz:173220.got - 2010.06.28 07:06:18.
