data_PCOD8129990
_publ_section_title
;
Structure prediction by ZEFSAII (Michael W. Deem and Ramdas Pophale) SiO2 
 PCOD8129990
Probable space group: C 2/C
;
_chemical_formula_sum "Si O2"
_cell_formula_units_Z 48
_cell_length_a 10.157092
_cell_length_b 16.717681
_cell_length_c 13.557391
_cell_angle_alpha 90.000000
_cell_angle_beta 95.989834
_cell_angle_gamma 90.000000
_cell_volume 2289.517580
_symmetry_space_group_name_H-M "C 2/C"
_symmetry_group_IT_number 15
_symmetry_cell_setting 'monoclinic'
loop_
_space_group_symop_operation_xyz
x,y,z
-x,y,1/2-z
-x,-y,-z
x,-y,1/2+z
1/2+x,1/2+y,z
1/2-x,1/2+y,1/2-z
1/2-x,1/2-y,-z
1/2+x,1/2-y,1/2+z
loop_
_atom_site_type_symbol
_atom_site_label
_atom_site_fract_x
_atom_site_fract_y
_atom_site_fract_z
Si Si1 0.897590 0.777255 0.327418
Si Si2 0.744145 0.977057 0.850310
Si Si3 0.498011 0.563220 0.632237
Si Si4 0.300537 0.959042 0.438257
Si Si5 0.883386 0.602397 0.319908
Si Si6 0.144838 0.635476 0.738408
O O1 0.956336 0.847573 0.403449
O O2 0.882760 0.688822 0.374458
O O3 0.753920 0.799289 0.273621
O O4 0.000000 0.758805 0.250000
O O5 0.895431 0.996938 0.891553
O O6 0.670232 0.055127 0.802416
O O7 0.743668 0.910109 0.763663
O O8 0.668546 0.946471 0.943305
O O9 0.500000 0.574887 0.750000
O O10 0.357928 0.532671 0.585078
O O11 0.347528 0.883080 0.378349
O O12 0.376222 0.038839 0.408304
O O13 0.000000 0.583911 0.250000
O O14 0.000000 0.670450 0.750000
#
# Coordination Sequence:
#
# PCOD8129990 Si02
#       6
#     8   8   8   8   8   8
#     4   9  17  37  59  72 110 158 184 219 280 345
#     4  10  20  33  56  85 110 141 190 236 276 330
#     4  10  16  35  60  75 107 156 190 216 283 341
#     4  11  19  34  59  83 110 147 187 238 275 329
#     4  10  21  35  56  84 110 146 188 230 281 328
#     4  10  20  35  55  80 112 149 185 226 290 328
#
# _framework density 20.965115999999998
#
# number of rings (size 3 to 8) (size 9 to 14) (size 15 to 20)
#    0.000    2.000    6.667    2.500    0.000    2.667 
#    3.000    4.167    3.667    0.000    0.000    0.000 
#    0.000    0.000    0.000    0.000    0.000    0.000 
#
# Total GULP energy -297328.655267 kJ/mol
# GULP energy per Si atom -12388.693969 kJ/mol
# Density = 2.091740 g / cm^3
# Si number density = 20.965116 Si / 1000 Ang^3
#
#
#
# Elastic Constant Matrix: (Units=GPa)
#
#
# Indices 1 2 3 4 5 6 
#
# 1 98.2345 12.1406 -22.1143 0.0000 -11.4960 0.0000
# 2 12.1406 66.5225 -16.6820 0.0000 -10.1745 0.0000
# 3 -22.1143 -16.6820 63.9808 0.0000 -14.5596 0.0000
# 4 0.0000 0.0000 0.0000 5.6450 0.0000 1.7847
# 5 -11.4960 -10.1745 -14.5596 0.0000 16.0326 0.0000
# 6 0.0000 0.0000 0.0000 1.7847 0.0000 18.2995
#
#
#
# Elastic Compliance Matrix: (Units=1/GPa)
#
#
# Indices 1 2 3 4 5 6 
#
# 1 0.015117 0.003803 0.011637 0.000000 0.023821 0.000000
# 2 0.003803 0.022311 0.013833 0.000000 0.029448 0.000000
# 3 0.011637 0.013833 0.034229 0.000000 0.048207 0.000000
# 4 0.000000 0.000000 0.000000 0.182784 0.000000 -0.017827
# 5 0.023821 0.029448 0.048207 0.000000 0.141919 0.000000
# 6 0.000000 0.000000 0.000000 -0.017827 0.000000 0.056385
#
#
# Mechanical properties :
#
#
# Convention : Reuss Voigt Hill
#
# Bulk Modulus (GPa) = 7.68029 19.49185 13.58607
# Shear Modulus (GPa) = 11.42595 25.02165 18.22380
#
# Velocity S-wave (km/s) = 2.33705 3.45844 2.95149
# Velocity P-wave (km/s) = 3.30964 5.02645 4.25552
#
# Compressibility (1/GPa) = 0.13020338
#
# Stress axis : x y z
#
# Youngs Moduli (GPa) = 66.14976 44.82023 29.21518
#
# Poissons Ratio (x) = -0.17044 -0.33999
# Poissons Ratio (y) = -0.25155 -0.40413
# Poissons Ratio (z) = -0.76981 -0.61999
#
# Static dielectric constant tensor:
#      x y z
#    x 4.100290 0.000000 -0.033300 
#    y 0.000000 3.818100 0.000000 
#    z -0.033300 0.000000 3.651490 
# 
# 
# High freq. dielectric constant tensor:
#      x y z
#    x 1.834330 0.000000 -0.004530 
#    y 0.000000 1.795560 0.000000 
#    z -0.004530 0.000000 1.791750 
# 
# From -- ./inp_files/143616.got.cif
#   From: 2010.06.25/outbox.cif.g09.slc.cpg/sg15_72_cif.got.tgz:143616.got - 2010.06.28 07:06:18.
