data_PCOD8129885
_publ_section_title
;
Structure prediction by ZEFSAII (Michael W. Deem and Ramdas Pophale) SiO2 
 PCOD8129885
Probable space group: C 2/C
;
_chemical_formula_sum "Si O2"
_cell_formula_units_Z 44
_cell_length_a 18.720585
_cell_length_b 21.401877
_cell_length_c 12.850392
_cell_angle_alpha 90.000000
_cell_angle_beta 29.821572
_cell_angle_gamma 90.000000
_cell_volume 2560.393259
_symmetry_space_group_name_H-M "C 2/C"
_symmetry_group_IT_number 15
_symmetry_cell_setting 'monoclinic'
loop_
_space_group_symop_operation_xyz
x,y,z
-x,y,1/2-z
-x,-y,-z
x,-y,1/2+z
1/2+x,1/2+y,z
1/2-x,1/2+y,1/2-z
1/2-x,1/2-y,-z
1/2+x,1/2-y,1/2+z
loop_
_atom_site_type_symbol
_atom_site_label
_atom_site_fract_x
_atom_site_fract_y
_atom_site_fract_z
Si Si1 0.854431 0.989645 0.744335
Si Si2 0.477839 0.702118 0.654267
Si Si3 0.203610 0.110794 0.336559
Si Si4 0.287726 0.117941 0.568816
Si Si5 0.052157 0.656087 0.339210
Si Si6 0.500000 0.532008 0.750000
O O1 0.743799 0.045935 0.867054
O O2 0.897004 0.986756 0.812420
O O3 0.782851 0.926663 0.789420
O O4 0.000000 0.000000 0.500000
O O5 0.500000 0.704061 0.750000
O O6 0.627271 0.678039 0.414774
O O7 0.359279 0.654505 0.761993
O O8 0.428784 0.769593 0.676822
O O9 0.367003 0.122905 0.166971
O O10 0.103736 0.075414 0.548523
O O11 0.381311 0.141719 0.549733
O O12 0.377981 0.126953 0.351136
#
# Coordination Sequence:
#
# PCOD8129885 Si02
#       6
#     8   8   8   8   8   4
#     4  10  19  32  51  68  98 136 176 207 241 296
#     4  12  17  30  48  73 106 140 162 189 248 318
#     4  11  19  32  50  73 102 136 168 206 244 299
#     4  11  19  30  45  72 103 139 167 194 247 304
#     4  11  21  28  47  75 107 134 160 203 259 300
#     4  10  16  32  50  70  94 130 172 204 240 298
#
# _framework density 17.184858999999999
#
# number of rings (size 3 to 8) (size 9 to 14) (size 15 to 20)
#    0.000    1.091   10.000    1.636    0.000    0.727 
#    0.000    0.000    0.000    0.000    0.000    1.273 
#    0.000    0.000    0.000    0.000    0.000    0.000 
#
# Total GULP energy -272579.504586 kJ/mol
# GULP energy per Si atom -12389.977481 kJ/mol
# Density = 1.714575 g / cm^3
# Si number density = 17.184859 Si / 1000 Ang^3
#
#
#
# Elastic Constant Matrix: (Units=GPa)
#
#
# Indices 1 2 3 4 5 6 
#
# 1 119.4436 47.3948 21.4477 0.0015 -31.1727 0.0027
# 2 47.3948 101.4419 17.2212 -0.0005 -0.7819 -0.0020
# 3 21.4477 17.2212 21.5388 -0.0003 -9.3292 0.0007
# 4 0.0015 -0.0005 -0.0003 28.8387 -0.0006 -6.3048
# 5 -31.1727 -0.7819 -9.3292 -0.0006 27.4761 -0.0002
# 6 0.0027 -0.0020 0.0007 -6.3048 -0.0002 31.3979
#
#
#
# Elastic Compliance Matrix: (Units=1/GPa)
#
#
# Indices 1 2 3 4 5 6 
#
# 1 0.016094 -0.006845 -0.003199 -0.000001 0.016978 -0.000002
# 2 -0.006845 0.014571 -0.009400 0.000001 -0.010543 0.000002
# 3 -0.003199 -0.009400 0.065001 0.000001 0.018174 -0.000002
# 4 -0.000001 0.000001 0.000001 0.036268 0.000000 0.007283
# 5 0.016978 -0.010543 0.018174 0.000000 0.061528 -0.000002
# 6 -0.000002 0.000002 -0.000002 0.007283 -0.000002 0.033312
#
#
# Mechanical properties :
#
#
# Convention : Reuss Voigt Hill
#
# Bulk Modulus (GPa) = 17.61295 46.06129 31.83712
# Shear Modulus (GPa) = 17.56938 27.96658 22.76798
#
# Velocity S-wave (km/s) = 3.20093 4.03848 3.64385
# Velocity P-wave (km/s) = 4.89210 6.97190 6.02246
#
# Compressibility (1/GPa) = 0.05677641
#
# Stress axis : x y z
#
# Youngs Moduli (GPa) = 62.13637 68.63149 15.38448
#
# Poissons Ratio (x) = 0.46980 0.04921
# Poissons Ratio (y) = 0.42534 0.14462
# Poissons Ratio (z) = 0.19876 0.64515
#
# Static dielectric constant tensor:
#      x y z
#    x 3.808790 0.000010 -0.244630 
#    y 0.000010 3.519710 -0.000070 
#    z -0.244630 -0.000070 2.975910 
# 
# 
# High freq. dielectric constant tensor:
#      x y z
#    x 1.670520 0.000000 -0.044530 
#    y 0.000000 1.658760 0.000000 
#    z -0.044530 0.000000 1.613260 
# 
# From -- ./inp_files/88730.got.cif
#   From: 2010.06.25/outbox.cif.g09.slc.cpg/sg15_45_cif.got.tgz:88730.got - 2010.06.28 07:06:18.
