data_PCOD8129207
_publ_section_title
;
Structure prediction by ZEFSAII (Michael W. Deem and Ramdas Pophale) SiO2 
 PCOD8129207
Probable space group: P 21/C
;
_chemical_formula_sum "Si O2"
_cell_formula_units_Z 16
_cell_length_a 9.456445
_cell_length_b 4.599613
_cell_length_c 25.782741
_cell_angle_alpha 90.000000
_cell_angle_beta 152.066270
_cell_angle_gamma 90.000000
_cell_volume 525.341280
_symmetry_space_group_name_H-M "P 21/C"
_symmetry_group_IT_number 14
_symmetry_cell_setting 'monoclinic'
loop_
_space_group_symop_operation_xyz
x,y,z
-x,1/2+y,1/2-z
-x,-y,-z
x,1/2-y,1/2+z
loop_
_atom_site_type_symbol
_atom_site_label
_atom_site_fract_x
_atom_site_fract_y
_atom_site_fract_z
Si Si1 0.432729 0.916502 0.263450
Si Si2 0.067273 0.583497 0.236551
Si Si3 0.794236 0.147005 0.073567
Si Si4 0.294234 0.852993 0.073566
O O1 0.453466 0.094400 0.215425
O O2 0.652166 0.058089 0.377044
O O3 0.083872 0.921324 0.170899
O O4 0.416130 0.578676 0.329102
O O5 0.953461 0.905597 0.215423
O O6 0.847836 0.441909 0.122957
O O7 0.750004 0.244990 0.000001
O O8 0.500000 0.000000 0.000000
O O9 0.000000 0.000000 0.000000
#
# Coordination Sequence:
#
# PCOD8129207 Si02
#       4
#     4   4   4   4
#     4  11  26  51  77 112 153 199 254 314 371 455
#     4  11  26  51  77 112 153 199 254 314 371 455
#     4  11  24  50  76 115 150 202 251 313 379 450
#     4  11  24  50  76 115 150 202 251 313 379 450
#
# _framework density 30.456392999999998
#
# number of rings (size 3 to 8) (size 9 to 14) (size 15 to 20)
#    0.000    1.000    5.000    0.000    0.000   10.000 
#    9.000    0.000    0.000    0.000    0.000    0.000 
#    0.000    0.000    0.000    0.000    0.000    0.000 
#
# Total GULP energy -198649.629036 kJ/mol
# GULP energy per Si atom -12415.601815 kJ/mol
# Density = 3.038707 g / cm^3
# Si number density = 30.456393 Si / 1000 Ang^3
#
#
#
# Elastic Constant Matrix: (Units=GPa)
#
#
# Indices 1 2 3 4 5 6 
#
# 1 252.6757 40.6125 76.0341 0.0000 29.2421 0.0000
# 2 40.6125 112.2310 19.6773 0.0000 22.9094 0.0000
# 3 76.0341 19.6773 179.6462 0.0000 17.4785 0.0001
# 4 0.0000 0.0000 0.0000 44.6823 0.0000 7.3950
# 5 29.2421 22.9094 17.4785 0.0000 66.1249 0.0000
# 6 0.0000 0.0000 0.0001 7.3950 0.0000 44.0724
#
#
#
# Elastic Compliance Matrix: (Units=1/GPa)
#
#
# Indices 1 2 3 4 5 6 
#
# 1 0.004832 -0.001178 -0.001794 0.000000 -0.001255 0.000000
# 2 -0.001178 0.009974 -0.000317 0.000000 -0.002851 0.000000
# 3 -0.001794 -0.000317 0.006438 0.000000 -0.000799 0.000000
# 4 0.000000 0.000000 0.000000 0.023019 0.000000 -0.003863
# 5 -0.001255 -0.002851 -0.000799 0.000000 0.016877 0.000000
# 6 0.000000 0.000000 0.000000 -0.003863 0.000000 0.023338
#
#
# Mechanical properties :
#
#
# Convention : Reuss Voigt Hill
#
# Bulk Modulus (GPa) = 68.17981 90.80007 79.48994
# Shear Modulus (GPa) = 52.11363 58.19118 55.15241
#
# Velocity S-wave (km/s) = 4.14102 4.37583 4.26004
# Velocity P-wave (km/s) = 6.73043 7.44368 7.09602
#
# Compressibility (1/GPa) = 0.01466710
#
# Stress axis : x y z
#
# Youngs Moduli (GPa) = 206.95328 100.26181 155.32301
#
# Poissons Ratio (x) = 0.11810 0.27866
# Poissons Ratio (y) = 0.24377 0.04917
# Poissons Ratio (z) = 0.37128 0.03174
#
# Static dielectric constant tensor:
#      x y z
#    x 6.660550 0.000000 -0.270870 
#    y 0.000000 5.627490 0.000000 
#    z -0.270870 0.000000 6.136230 
# 
# 
# High freq. dielectric constant tensor:
#      x y z
#    x 2.325720 0.000000 -0.017040 
#    y 0.000000 2.250980 0.000000 
#    z -0.017040 0.000000 2.259510 
# 
# From -- ./inp_files/11426.got.cif
#   From: 2010.03.12/outbox.cif.g09.slc.cpg/sg14_6_cif.got.tgz:11426.got - 2010.03.31 13:35:05.
