data_PCOD8129936
_publ_section_title
;
Structure prediction by ZEFSAII (Michael W. Deem and Ramdas Pophale) SiO2 
 PCOD8129936
Probable space group: C 2/C
;
_chemical_formula_sum "Si O2"
_cell_formula_units_Z 44
_cell_length_a 20.188949
_cell_length_b 12.129562
_cell_length_c 14.171119
_cell_angle_alpha 90.000000
_cell_angle_beta 44.827502
_cell_angle_gamma 90.000000
_cell_volume 2446.450992
_symmetry_space_group_name_H-M "C 2/C"
_symmetry_group_IT_number 15
_symmetry_cell_setting 'monoclinic'
loop_
_space_group_symop_operation_xyz
x,y,z
-x,y,1/2-z
-x,-y,-z
x,-y,1/2+z
1/2+x,1/2+y,z
1/2-x,1/2+y,1/2-z
1/2-x,1/2-y,-z
1/2+x,1/2-y,1/2+z
loop_
_atom_site_type_symbol
_atom_site_label
_atom_site_fract_x
_atom_site_fract_y
_atom_site_fract_z
Si Si1 0.500000 0.196687 0.750000
Si Si2 0.031402 0.004722 0.821172
Si Si3 0.240062 0.331078 0.162582
Si Si4 0.825606 0.143514 0.389246
Si Si5 0.564772 0.664841 0.951149
Si Si6 0.031637 0.389012 0.415128
O O1 0.591767 0.273942 0.658899
O O2 0.501567 0.113148 0.659861
O O3 0.027313 0.105407 0.895919
O O4 0.000000 0.044728 0.750000
O O5 0.137809 0.963618 0.701989
O O6 0.970554 0.900302 0.919921
O O7 0.234854 0.205702 0.129168
O O8 0.322027 0.333229 0.158407
O O9 0.145044 0.376601 0.306171
O O10 0.266188 0.398541 0.040125
O O11 0.518927 0.784472 0.986146
O O12 0.000000 0.500000 0.500000
#
# Coordination Sequence:
#
# PCOD8129936 Si02
#       6
#     4   8   8   8   8   8
#     4  10  16  38  60  78 114 152 196 250 276 336
#     4  11  19  37  62  86 123 148 192 256 296 339
#     4  10  19  34  59  89 112 151 199 241 291 342
#     4  10  16  32  64  85 111 147 204 246 282 341
#     4  11  22  37  59  91 116 155 198 242 298 354
#     4  11  23  40  57  85 120 155 197 240 290 356
#
# _framework density 17.985236
#
# number of rings (size 3 to 8) (size 9 to 14) (size 15 to 20)
#    0.000    1.455    8.182    0.000    0.000    1.455 
#    1.636    0.000    0.000    2.182    0.000    0.000 
#    0.000    0.000    0.000    0.000    0.000    0.000 
#
# Total GULP energy -272591.615469 kJ/mol
# GULP energy per Si atom -12390.527976 kJ/mol
# Density = 1.794430 g / cm^3
# Si number density = 17.985236 Si / 1000 Ang^3
#
#
#
# Elastic Constant Matrix: (Units=GPa)
#
#
# Indices 1 2 3 4 5 6 
#
# 1 64.2625 34.5928 28.1207 0.0000 1.1860 0.0000
# 2 34.5928 100.9922 50.0564 0.0000 5.5005 0.0000
# 3 28.1207 50.0564 99.3949 0.0000 -6.4298 0.0000
# 4 0.0000 0.0000 0.0000 35.2343 0.0000 8.2656
# 5 1.1860 5.5005 -6.4298 0.0000 36.1304 0.0000
# 6 0.0000 0.0000 0.0000 8.2656 0.0000 23.5949
#
#
#
# Elastic Compliance Matrix: (Units=1/GPa)
#
#
# Indices 1 2 3 4 5 6 
#
# 1 0.019690 -0.005266 -0.002943 0.000000 -0.000368 0.000000
# 2 -0.005266 0.014987 -0.006266 0.000000 -0.003224 0.000000
# 3 -0.002943 -0.006266 0.014282 0.000000 0.003592 0.000000
# 4 0.000000 0.000000 0.000000 0.030923 0.000000 -0.010833
# 5 -0.000368 -0.003224 0.003592 0.000000 0.028820 0.000000
# 6 0.000000 0.000000 0.000000 -0.010833 0.000000 0.046177
#
#
# Mechanical properties :
#
#
# Convention : Reuss Voigt Hill
#
# Bulk Modulus (GPa) = 49.97730 54.46551 52.22140
# Shear Modulus (GPa) = 26.24705 29.11722 27.68214
#
# Velocity S-wave (km/s) = 3.82431 4.02798 3.92747
# Velocity P-wave (km/s) = 6.88104 7.20986 7.04737
#
# Compressibility (1/GPa) = 0.02000908
#
# Stress axis : x y z
#
# Youngs Moduli (GPa) = 50.78643 66.72464 70.02042
#
# Poissons Ratio (x) = 0.35137 0.20604
# Poissons Ratio (y) = 0.26744 0.43877
# Poissons Ratio (z) = 0.14944 0.41812
#
# Static dielectric constant tensor:
#      x y z
#    x 3.358830 0.000000 -0.185660 
#    y 0.000000 2.996690 0.000000 
#    z -0.185660 0.000000 3.589570 
# 
# 
# High freq. dielectric constant tensor:
#      x y z
#    x 1.696400 0.000000 -0.008740 
#    y 0.000000 1.656910 0.000000 
#    z -0.008740 0.000000 1.704070 
# 
# From -- ./inp_files/172886.got.cif
#   From: 2010.06.25/outbox.cif.g09.slc.cpg/sg15_87_cif.got.tgz:172886.got - 2010.06.28 07:06:18.
