data_PCOD8129338
_publ_section_title
;
Structure prediction by ZEFSAII (Michael W. Deem and Ramdas Pophale) SiO2 
 PCOD8129338
Probable space group: P 21/C
;
_chemical_formula_sum "Si O2"
_cell_formula_units_Z 16
_cell_length_a 4.926993
_cell_length_b 5.693816
_cell_length_c 24.212679
_cell_angle_alpha 90.000000
_cell_angle_beta 113.811808
_cell_angle_gamma 90.000000
_cell_volume 621.427806
_symmetry_space_group_name_H-M "P 21/C"
_symmetry_group_IT_number 14
_symmetry_cell_setting 'monoclinic'
loop_
_space_group_symop_operation_xyz
x,y,z
-x,1/2+y,1/2-z
-x,-y,-z
x,1/2-y,1/2+z
loop_
_atom_site_type_symbol
_atom_site_label
_atom_site_fract_x
_atom_site_fract_y
_atom_site_fract_z
Si Si1 0.758730 0.674714 0.000662
Si Si2 0.184702 0.492383 0.596693
Si Si3 0.140277 0.128358 0.683834
Si Si4 0.337292 0.325107 0.812105
O O1 0.675794 0.846013 0.943086
O O2 0.500000 0.500000 0.000000
O O3 0.000000 0.500000 0.000000
O O4 0.906433 0.839924 0.059278
O O5 0.049381 0.326504 0.632790
O O6 0.464358 0.631576 0.642576
O O7 0.143025 0.222007 0.746427
O O8 0.464035 0.035348 0.695106
O O9 0.890282 0.925657 0.660762
#
# Coordination Sequence:
#
# PCOD8129338 Si02
#       4
#     4   4   4   4
#     4  11  28  55  81 116 153 209 272 323 391 462
#     4  11  28  52  84 114 162 209 258 334 392 461
#     4  12  27  49  77 119 164 208 259 318 395 475
#     4  12  27  49  77 119 164 208 259 318 395 475
#
# _framework density 25.747156
#
# number of rings (size 3 to 8) (size 9 to 14) (size 15 to 20)
#    0.000    0.500    2.500    3.000    0.000   16.000 
#    0.000    3.750    0.000    0.000    0.000    0.000 
#    0.000    0.000    0.000    0.000    0.000    0.000 
#
# Total GULP energy -198442.206385 kJ/mol
# GULP energy per Si atom -12402.637899 kJ/mol
# Density = 2.568855 g / cm^3
# Si number density = 25.747156 Si / 1000 Ang^3
#
#
#
# Elastic Constant Matrix: (Units=GPa)
#
#
# Indices 1 2 3 4 5 6 
#
# 1 140.7761 58.7477 59.7030 0.0000 8.5352 0.0000
# 2 58.7477 168.4065 113.5782 0.0000 15.9164 0.0000
# 3 59.7030 113.5782 213.2199 0.0000 13.9291 0.0000
# 4 0.0000 0.0000 0.0000 55.2211 0.0000 -2.9390
# 5 8.5352 15.9164 13.9291 0.0000 30.1134 0.0000
# 6 0.0000 0.0000 0.0000 -2.9390 0.0000 74.0335
#
#
#
# Elastic Compliance Matrix: (Units=1/GPa)
#
#
# Indices 1 2 3 4 5 6 
#
# 1 0.008539 -0.002073 -0.001238 0.000000 -0.000752 0.000000
# 2 -0.002073 0.009988 -0.004572 0.000000 -0.002577 0.000000
# 3 -0.001238 -0.004572 0.007518 0.000000 -0.000710 0.000000
# 4 0.000000 0.000000 0.000000 0.018147 0.000000 0.000720
# 5 -0.000752 -0.002577 -0.000710 0.000000 0.035112 0.000000
# 6 0.000000 0.000000 0.000000 0.000720 0.000000 0.013536
#
#
# Mechanical properties :
#
#
# Convention : Reuss Voigt Hill
#
# Bulk Modulus (GPa) = 97.26968 109.60670 103.43819
# Shear Modulus (GPa) = 44.63033 51.23184 47.93108
#
# Velocity S-wave (km/s) = 4.16794 4.46556 4.31932
# Velocity P-wave (km/s) = 7.81173 8.32173 8.07076
#
# Compressibility (1/GPa) = 0.01028070
#
# Stress axis : x y z
#
# Youngs Moduli (GPa) = 117.10905 100.12071 133.01179
#
# Poissons Ratio (x) = 0.20756 0.16461
# Poissons Ratio (y) = 0.24277 0.60807
# Poissons Ratio (z) = 0.14493 0.45771
#
# Static dielectric constant tensor:
#      x y z
#    x 4.293810 0.000000 0.025410 
#    y 0.000000 5.063400 0.000000 
#    z 0.025410 0.000000 4.832480 
# 
# 
# High freq. dielectric constant tensor:
#      x y z
#    x 2.032750 0.000000 -0.001040 
#    y 0.000000 2.053570 0.000000 
#    z -0.001040 0.000000 2.044610 
# 
# From -- ./inp_files/70872.got.cif
#   From: 2010.03.12/outbox.cif.g09.slc.cpg/sg14_36_cif.got.tgz:70872.got - 2010.03.31 13:35:05.
