data_PCOD8129908
_publ_section_title
;
Structure prediction by ZEFSAII (Michael W. Deem and Ramdas Pophale) SiO2 
 PCOD8129908
Probable space group: C 2/C
;
_chemical_formula_sum "Si O2"
_cell_formula_units_Z 40
_cell_length_a 14.399800
_cell_length_b 25.350126
_cell_length_c 5.128205
_cell_angle_alpha 90.000000
_cell_angle_beta 72.815835
_cell_angle_gamma 90.000000
_cell_volume 1788.418021
_symmetry_space_group_name_H-M "C 2/C"
_symmetry_group_IT_number 15
_symmetry_cell_setting 'monoclinic'
loop_
_space_group_symop_operation_xyz
x,y,z
-x,y,1/2-z
-x,-y,-z
x,-y,1/2+z
1/2+x,1/2+y,z
1/2-x,1/2+y,1/2-z
1/2-x,1/2-y,-z
1/2+x,1/2-y,1/2+z
loop_
_atom_site_type_symbol
_atom_site_label
_atom_site_fract_x
_atom_site_fract_y
_atom_site_fract_z
Si Si1 0.266140 0.966746 0.342146
Si Si2 0.000000 0.291578 0.250000
Si Si3 0.288579 0.309361 0.483310
Si Si4 0.192320 0.354950 0.066762
Si Si5 0.043372 0.941571 0.467840
Si Si6 0.000000 0.779208 0.250000
O O1 0.328349 0.917706 0.399986
O O2 0.157407 0.944582 0.412849
O O3 0.287799 0.013260 0.531769
O O4 0.909383 0.327335 0.403695
O O5 0.022424 0.255968 0.479393
O O6 0.250000 0.250000 0.500000
O O7 0.231477 0.342279 0.318690
O O8 0.402228 0.313957 0.307875
O O9 0.268176 0.335950 0.781577
O O10 0.000000 0.911770 0.250000
O O11 0.000000 0.000000 0.500000
O O12 0.000000 0.909761 0.750000
#
# Coordination Sequence:
#
# PCOD8129908 Si02
#       6
#     8   4   8   8   8   4
#     4  12  23  41  62  90 132 179 223 277 324 380
#     4  12  22  44  70  99 126 187 224 268 352 420
#     4  12  23  46  68 103 134 173 219 282 341 408
#     4  12  26  43  69 102 135 176 236 277 332 411
#     4  10  16  32  56  80 105 160 222 238 317 392
#     4  12  24  40  76  97 140 175 214 272 360 406
#
# _framework density 22.366133000000001
#
# number of rings (size 3 to 8) (size 9 to 14) (size 15 to 20)
#    0.000    0.400    8.000    3.000    0.000    0.000 
#    5.400    1.000    0.000    0.000    0.000    0.000 
#    0.000    0.000    0.000    0.000    0.000    0.000 
#
# Total GULP energy -247899.484251 kJ/mol
# GULP energy per Si atom -12394.974213 kJ/mol
# Density = 2.231523 g / cm^3
# Si number density = 22.366133 Si / 1000 Ang^3
#
#
#
# Elastic Constant Matrix: (Units=GPa)
#
#
# Indices 1 2 3 4 5 6 
#
# 1 64.9891 4.5108 9.0941 0.0000 -10.0454 0.0000
# 2 4.5108 68.8373 11.1554 0.0000 5.5819 0.0000
# 3 9.0941 11.1554 130.3175 0.0000 21.3412 0.0000
# 4 0.0000 0.0000 0.0000 11.2687 0.0000 -5.8103
# 5 -10.0454 5.5819 21.3412 0.0000 44.3521 0.0000
# 6 0.0000 0.0000 0.0000 -5.8103 0.0000 5.9956
#
#
#
# Elastic Compliance Matrix: (Units=1/GPa)
#
#
# Indices 1 2 3 4 5 6 
#
# 1 0.016459 -0.001168 -0.001827 0.000000 0.004754 0.000000
# 2 -0.001168 0.014890 -0.000915 0.000000 -0.001698 0.000000
# 3 -0.001827 -0.000915 0.008606 0.000000 -0.004440 0.000000
# 4 0.000000 0.000000 0.000000 0.177367 0.000000 0.171886
# 5 0.004754 -0.001698 -0.004440 0.000000 0.025974 0.000000
# 6 0.000000 0.000000 0.000000 0.171886 0.000000 0.333363
#
#
# Mechanical properties :
#
#
# Convention : Reuss Voigt Hill
#
# Bulk Modulus (GPa) = 31.11892 34.85160 32.98526
# Shear Modulus (GPa) = 8.40068 28.28219 18.34143
#
# Velocity S-wave (km/s) = 1.94014 3.55985 2.86677
# Velocity P-wave (km/s) = 4.35459 5.70201 5.07323
#
# Compressibility (1/GPa) = 0.03213479
#
# Stress axis : x y z
#
# Youngs Moduli (GPa) = 60.75801 67.16140 116.19146
#
# Poissons Ratio (x) = 0.07844 0.21229
# Poissons Ratio (y) = 0.07096 0.10631
# Poissons Ratio (z) = 0.11101 0.06145
#
# Static dielectric constant tensor:
#      x y z
#    x 3.787390 0.000000 0.168680 
#    y 0.000000 3.990780 0.000000 
#    z 0.168680 0.000000 3.995210 
# 
# 
# High freq. dielectric constant tensor:
#      x y z
#    x 1.870730 0.000000 0.018290 
#    y 0.000000 1.874060 0.000000 
#    z 0.018290 0.000000 1.900480 
# 
# From -- ./inp_files/7508.got.cif
#   From: 2010.06.25/outbox.cif.g09.slc.cpg/sg15_4_cif.got.tgz:7508.got - 2010.06.28 07:06:18.
