data_PCOD8129873
_publ_section_title
;
Structure prediction by ZEFSAII (Michael W. Deem and Ramdas Pophale) SiO2 
 PCOD8129873
Probable space group: C 2/C
;
_chemical_formula_sum "Si O2"
_cell_formula_units_Z 60
_cell_length_a 16.676164
_cell_length_b 12.067779
_cell_length_c 18.616075
_cell_angle_alpha 90.000000
_cell_angle_beta 123.183537
_cell_angle_gamma 90.000000
_cell_volume 3135.424941
_symmetry_space_group_name_H-M "C 2/C"
_symmetry_group_IT_number 15
_symmetry_cell_setting 'monoclinic'
loop_
_space_group_symop_operation_xyz
x,y,z
-x,y,1/2-z
-x,-y,-z
x,-y,1/2+z
1/2+x,1/2+y,z
1/2-x,1/2+y,1/2-z
1/2-x,1/2-y,-z
1/2+x,1/2-y,1/2+z
loop_
_atom_site_type_symbol
_atom_site_label
_atom_site_fract_x
_atom_site_fract_y
_atom_site_fract_z
Si Si1 0.707645 0.371430 0.324729
Si Si2 0.260835 0.013894 0.988868
Si Si3 0.000000 0.044510 0.750000
Si Si4 0.701029 0.413179 0.159314
Si Si5 0.506131 0.629940 0.509652
Si Si6 0.296796 0.352070 0.915677
Si Si7 0.071187 0.124235 0.391487
Si Si8 0.316612 0.183426 0.587686
O O1 0.767061 0.451541 0.408578
O O2 0.594750 0.380570 0.289099
O O3 0.734554 0.410698 0.258278
O O4 0.740198 0.245162 0.348423
O O5 0.164526 0.945533 0.961389
O O6 0.258722 0.123864 0.037025
O O7 0.345149 0.930857 0.058422
O O8 0.999152 0.962733 0.681136
O O9 0.597756 0.349443 0.105976
O O10 0.699741 0.541367 0.134801
O O11 0.772523 0.343723 0.143816
O O12 0.500000 0.500000 0.500000
O O13 0.406821 0.682849 0.489669
O O14 0.523302 0.677209 0.438328
O O15 0.095419 0.231956 0.353892
O O16 0.250000 0.250000 0.500000
#
# Coordination Sequence:
#
# PCOD8129873 Si02
#       8
#     8   8   4   8   8   8   8   8
#     4  11  23  34  55  84 113 144 187 240 281 327
#     4   9  18  34  52  78 110 145 189 220 268 343
#     4  10  22  34  52  86 112 130 194 244 272 326
#     4  10  20  34  54  84 113 142 186 238 277 325
#     4  10  16  31  56  78 113 139 182 223 271 326
#     4  10  20  35  56  79 111 157 183 220 285 341
#     4  10  17  32  58  86 106 142 183 236 280 319
#     4   9  16  32  56  81 106 145 181 221 283 333
#
# _framework density 19.136163
#
# number of rings (size 3 to 8) (size 9 to 14) (size 15 to 20)
#    0.000    2.133    5.333    2.000    1.867    4.267 
#    0.000    0.000    0.000    7.200    0.000    0.000 
#    0.000    0.000    0.000    0.000    0.000    0.000 
#
# Total GULP energy -371643.933405 kJ/mol
# GULP energy per Si atom -12388.131113 kJ/mol
# Density = 1.909261 g / cm^3
# Si number density = 19.136163 Si / 1000 Ang^3
#
#
#
# Elastic Constant Matrix: (Units=GPa)
#
#
# Indices 1 2 3 4 5 6 
#
# 1 59.4773 45.6471 34.4225 0.0000 -9.3466 0.0000
# 2 45.6471 89.9762 40.3433 0.0000 0.6568 0.0000
# 3 34.4225 40.3433 97.9752 0.0000 -24.6466 0.0000
# 4 0.0000 0.0000 0.0000 30.0361 0.0000 0.0638
# 5 -9.3466 0.6568 -24.6466 0.0000 34.2458 0.0000
# 6 0.0000 0.0000 0.0000 0.0638 0.0000 27.4976
#
#
#
# Elastic Compliance Matrix: (Units=1/GPa)
#
#
# Indices 1 2 3 4 5 6 
#
# 1 0.030478 -0.013978 -0.003410 0.000000 0.006132 0.000000
# 2 -0.013978 0.020862 -0.005787 0.000000 -0.008380 0.000000
# 3 -0.003410 -0.005787 0.016584 0.000000 0.011116 0.000000
# 4 0.000000 0.000000 0.000000 0.033293 0.000000 -0.000077
# 5 0.006132 -0.008380 0.011116 0.000000 0.039035 0.000000
# 6 0.000000 0.000000 0.000000 -0.000077 0.000000 0.036367
#
#
# Mechanical properties :
#
#
# Convention : Reuss Voigt Hill
#
# Bulk Modulus (GPa) = 46.35336 54.25049 50.30193
# Shear Modulus (GPa) = 21.72399 26.82361 24.27380
#
# Velocity S-wave (km/s) = 3.37298 3.74802 3.56543
# Velocity P-wave (km/s) = 6.28051 6.86597 6.57975
#
# Compressibility (1/GPa) = 0.02157341
#
# Stress axis : x y z
#
# Youngs Moduli (GPa) = 32.81055 47.93501 60.29941
#
# Poissons Ratio (x) = 0.67005 0.20560
# Poissons Ratio (y) = 0.45863 0.34897
# Poissons Ratio (z) = 0.11187 0.27741
#
# Static dielectric constant tensor:
#      x y z
#    x 3.961470 0.000000 0.027290 
#    y 0.000000 3.701190 0.000000 
#    z 0.027290 0.000000 3.676460 
# 
# 
# High freq. dielectric constant tensor:
#      x y z
#    x 1.716850 0.000000 -0.019740 
#    y 0.000000 1.729330 0.000000 
#    z -0.019740 0.000000 1.739300 
# 
# From -- ./inp_files/210661.got.cif
#   From: 2010.06.25/outbox.cif.g09.slc.cpg/sg15_106_cif.got.tgz:210661.got - 2010.06.28 07:06:18.
