data_PCOD8129880
_publ_section_title
;
Structure prediction by ZEFSAII (Michael W. Deem and Ramdas Pophale) SiO2 
 PCOD8129880
Probable space group: C 2/C
;
_chemical_formula_sum "Si O2"
_cell_formula_units_Z 60
_cell_length_a 13.934773
_cell_length_b 12.027419
_cell_length_c 27.918241
_cell_angle_alpha 90.000000
_cell_angle_beta 140.206414
_cell_angle_gamma 90.000000
_cell_volume 2994.721498
_symmetry_space_group_name_H-M "C 2/C"
_symmetry_group_IT_number 15
_symmetry_cell_setting 'monoclinic'
loop_
_space_group_symop_operation_xyz
x,y,z
-x,y,1/2-z
-x,-y,-z
x,-y,1/2+z
1/2+x,1/2+y,z
1/2-x,1/2+y,1/2-z
1/2-x,1/2-y,-z
1/2+x,1/2-y,1/2+z
loop_
_atom_site_type_symbol
_atom_site_label
_atom_site_fract_x
_atom_site_fract_y
_atom_site_fract_z
Si Si1 0.817007 0.312771 0.891905
Si Si2 0.953360 0.937602 0.554041
Si Si3 0.670489 0.917059 0.501269
Si Si4 0.500000 0.644483 0.250000
Si Si5 0.224611 0.865110 0.408491
Si Si6 0.928091 0.975067 0.306231
Si Si7 0.573709 0.338640 0.507879
Si Si8 0.653821 0.953691 0.142227
O O1 0.838687 0.340436 0.955857
O O2 0.645840 0.278134 0.813689
O O3 0.860535 0.416555 0.875610
O O4 0.928141 0.210658 0.924285
O O5 0.806814 0.876479 0.519831
O O6 0.038305 0.855131 0.550701
O O7 0.887550 0.044557 0.501071
O O8 0.070214 0.971599 0.640339
O O9 0.512691 0.906343 0.412351
O O10 0.695705 0.044732 0.526851
O O11 0.487019 0.566751 0.291458
O O12 0.284305 0.742597 0.444452
O O13 0.263997 0.889315 0.368822
O O14 0.045077 0.871556 0.348003
O O15 0.758665 0.936321 0.229279
#
# Coordination Sequence:
#
# PCOD8129880 Si02
#       8
#     8   8   8   4   8   8   8   8
#     4  10  17  32  58  85 109 144 181 233 278 332
#     4  10  24  39  52  78 115 160 180 234 273 331
#     4  10  17  33  58  85 107 137 194 229 277 324
#     4  10  16  32  60  86 114 136 172 244 288 320
#     4  10  16  32  59  85 104 143 184 230 274 330
#     4  10  18  34  59  82 118 140 176 227 298 322
#     4  11  22  38  56  76 119 150 194 221 277 329
#     4  10  16  31  58  89 113 132 177 244 286 322
#
# _framework density 20.035252
#
# number of rings (size 3 to 8) (size 9 to 14) (size 15 to 20)
#    0.000    1.867    8.000    0.800    0.000    2.667 
#    0.000    4.000    2.933    1.600    0.000    0.000 
#    0.000    0.000    0.000    0.000    0.000    0.000 
#
# Total GULP energy -371905.391435 kJ/mol
# GULP energy per Si atom -12396.846381 kJ/mol
# Density = 1.998965 g / cm^3
# Si number density = 20.035252 Si / 1000 Ang^3
#
#
#
# Elastic Constant Matrix: (Units=GPa)
#
#
# Indices 1 2 3 4 5 6 
#
# 1 46.7716 -3.3469 30.7851 0.0000 2.8305 0.0000
# 2 -3.3469 35.8951 0.4250 0.0000 0.0171 0.0000
# 3 30.7851 0.4250 148.3082 0.0000 24.7190 0.0000
# 4 0.0000 0.0000 0.0000 14.4107 0.0000 1.5315
# 5 2.8305 0.0171 24.7190 0.0000 33.2317 0.0000
# 6 0.0000 0.0000 0.0000 1.5315 0.0000 11.1719
#
#
#
# Elastic Compliance Matrix: (Units=1/GPa)
#
#
# Indices 1 2 3 4 5 6 
#
# 1 0.025082 0.002403 -0.005544 0.000000 0.001987 0.000000
# 2 0.002403 0.028090 -0.000620 0.000000 0.000242 0.000000
# 3 -0.005544 -0.000620 0.008923 0.000000 -0.006165 0.000000
# 4 0.000000 0.000000 0.000000 0.070419 0.000000 -0.009654
# 5 0.001987 0.000242 -0.006165 0.000000 0.034508 0.000000
# 6 0.000000 0.000000 0.000000 -0.009654 0.000000 0.090834
#
#
# Mechanical properties :
#
#
# Convention : Reuss Voigt Hill
#
# Bulk Modulus (GPa) = 18.32395 31.85571 25.08983
# Shear Modulus (GPa) = 17.63245 25.30360 21.46803
#
# Velocity S-wave (km/s) = 2.96982 3.55766 3.27695
# Velocity P-wave (km/s) = 4.57444 5.72803 5.18342
#
# Compressibility (1/GPa) = 0.05457339
#
# Stress axis : x y z
#
# Youngs Moduli (GPa) = 39.86996 35.59948 112.07211
#
# Poissons Ratio (x) = -0.08556 0.62136
# Poissons Ratio (y) = -0.09582 0.06945
# Poissons Ratio (z) = 0.22105 0.02206
#
# Static dielectric constant tensor:
#      x y z
#    x 3.611530 0.000000 0.165240 
#    y 0.000000 3.292580 0.000000 
#    z 0.165240 0.000000 3.937620 
# 
# 
# High freq. dielectric constant tensor:
#      x y z
#    x 1.765030 0.000000 0.006400 
#    y 0.000000 1.747840 0.000000 
#    z 0.006400 0.000000 1.784710 
# 
# From -- ./inp_files/313801.got.cif
#   From: 2010.06.25/outbox.cif.g09.slc.cpg/sg15_157_cif.got.tgz:313801.got - 2010.06.28 07:06:18.
