data_PCOD8129013
_publ_section_title
;
Structure prediction by ZEFSAII (Michael W. Deem and Ramdas Pophale) SiO2 
 PCOD8129013
Probable space group: P 21/C
;
_chemical_formula_sum "Si O2"
_cell_formula_units_Z 20
_cell_length_a 9.838669
_cell_length_b 13.448336
_cell_length_c 12.490286
_cell_angle_alpha 90.000000
_cell_angle_beta 149.951567
_cell_angle_gamma 90.000000
_cell_volume 827.527684
_symmetry_space_group_name_H-M "P 21/C"
_symmetry_group_IT_number 14
_symmetry_cell_setting 'monoclinic'
loop_
_space_group_symop_operation_xyz
x,y,z
-x,1/2+y,1/2-z
-x,-y,-z
x,1/2-y,1/2+z
loop_
_atom_site_type_symbol
_atom_site_label
_atom_site_fract_x
_atom_site_fract_y
_atom_site_fract_z
Si Si1 0.500750 0.834653 0.986666
Si Si2 0.946625 0.257768 0.676189
Si Si3 0.900546 0.945867 0.826644
Si Si4 0.684671 0.983787 0.278962
Si Si5 0.673767 0.436804 0.988432
O O1 0.729123 0.737282 0.588238
O O2 0.614073 0.878971 0.176465
O O3 0.457074 0.924706 0.876631
O O4 0.215606 0.778371 0.821799
O O5 0.908722 0.352208 0.571498
O O6 0.807515 0.161464 0.527077
O O7 0.594183 0.905934 0.629981
O O8 0.901746 0.018732 0.724351
O O9 0.000000 0.000000 0.000000
O O10 0.586521 0.985547 0.336032
O O11 0.000000 0.000000 0.500000
#
# Coordination Sequence:
#
# PCOD8129013 Si02
#       5
#     4   4   4   4   4
#     4  11  26  45  74 105 148 189 245 303 362 445
#     4  12  24  48  70 111 140 193 246 294 373 435
#     4  11  26  49  72 102 152 193 240 306 373 430
#     4  11  23  47  74 103 146 194 245 302 366 433
#     4  11  25  46  69 107 142 190 246 297 363 444
#
# _framework density 24.168375000000001
#
# number of rings (size 3 to 8) (size 9 to 14) (size 15 to 20)
#    0.000    0.800    4.000    2.400    5.600    1.600 
#   10.800    0.000    0.000    0.000    0.000    0.000 
#    0.000    0.000    0.000    0.000    0.000    0.000 
#
# Total GULP energy -247927.979542 kJ/mol
# GULP energy per Si atom -12396.398977 kJ/mol
# Density = 2.411337 g / cm^3
# Si number density = 24.168375 Si / 1000 Ang^3
#
#
#
# Elastic Constant Matrix: (Units=GPa)
#
#
# Indices 1 2 3 4 5 6 
#
# 1 133.2905 40.4018 36.7869 0.0000 20.1377 0.0000
# 2 40.4018 110.2636 41.3268 0.0000 2.2990 0.0000
# 3 36.7869 41.3268 97.2043 0.0000 -15.0520 0.0000
# 4 0.0000 0.0000 0.0000 29.0961 0.0000 5.9131
# 5 20.1377 2.2990 -15.0520 0.0000 50.5515 0.0000
# 6 0.0000 0.0000 0.0000 5.9131 0.0000 44.5480
#
#
#
# Elastic Compliance Matrix: (Units=1/GPa)
#
#
# Indices 1 2 3 4 5 6 
#
# 1 0.009892 -0.002182 -0.003576 0.000000 -0.004906 0.000000
# 2 -0.002182 0.011455 -0.004183 0.000000 -0.000897 0.000000
# 3 -0.003576 -0.004183 0.014330 0.000000 0.005881 0.000000
# 4 0.000000 0.000000 0.000000 0.035322 0.000000 -0.004688
# 5 -0.004906 -0.000897 0.005881 0.000000 0.023528 0.000000
# 6 0.000000 0.000000 0.000000 -0.004688 0.000000 0.023070
#
#
# Mechanical properties :
#
#
# Convention : Reuss Voigt Hill
#
# Bulk Modulus (GPa) = 63.31023 64.19882 63.75452
# Shear Modulus (GPa) = 35.02766 39.65532 37.34149
#
# Velocity S-wave (km/s) = 3.81112 4.05507 3.93498
# Velocity P-wave (km/s) = 6.75415 6.96746 6.86164
#
# Compressibility (1/GPa) = 0.01579524
#
# Stress axis : x y z
#
# Youngs Moduli (GPa) = 101.09365 87.29528 69.78312
#
# Poissons Ratio (x) = 0.19049 0.24951
# Poissons Ratio (y) = 0.22060 0.29193
# Poissons Ratio (z) = 0.36146 0.36519
#
# Static dielectric constant tensor:
#      x y z
#    x 3.518840 0.000000 0.675480 
#    y 0.000000 4.185260 0.000000 
#    z 0.675480 0.000000 3.945710 
# 
# 
# High freq. dielectric constant tensor:
#      x y z
#    x 1.982060 0.000000 0.021010 
#    y 0.000000 1.956920 0.000000 
#    z 0.021010 0.000000 1.935610 
# 
# From -- ./inp_files/30075.got.cif
#   From: 2010.03.12/outbox.cif.g09.slc.cpg/sg14_16_cif.got.tgz:30075.got - 2010.03.31 13:35:05.
