data_PCOD8129193
_publ_section_title
;
Structure prediction by ZEFSAII (Michael W. Deem and Ramdas Pophale) SiO2 
 PCOD8129193
Probable space group: P 21/C
;
_chemical_formula_sum "Si O2"
_cell_formula_units_Z 24
_cell_length_a 11.277869
_cell_length_b 11.583066
_cell_length_c 8.431424
_cell_angle_alpha 90.000000
_cell_angle_beta 72.649393
_cell_angle_gamma 90.000000
_cell_volume 1051.299417
_symmetry_space_group_name_H-M "P 21/C"
_symmetry_group_IT_number 14
_symmetry_cell_setting 'monoclinic'
loop_
_space_group_symop_operation_xyz
x,y,z
-x,1/2+y,1/2-z
-x,-y,-z
x,1/2-y,1/2+z
loop_
_atom_site_type_symbol
_atom_site_label
_atom_site_fract_x
_atom_site_fract_y
_atom_site_fract_z
Si Si1 0.391439 0.894882 0.707980
Si Si2 0.050182 0.925189 0.623894
Si Si3 0.599702 0.978850 0.824724
Si Si4 0.816466 0.675127 0.375978
Si Si5 0.696095 0.319921 0.082447
Si Si6 0.798180 0.907936 0.232054
O O1 0.533791 0.909230 0.707327
O O2 0.393971 0.842336 0.531060
O O3 0.315581 0.812150 0.858293
O O4 0.328696 0.020776 0.736981
O O5 0.162118 0.843950 0.521185
O O6 0.945109 0.841528 0.732187
O O7 0.093629 0.008536 0.748439
O O8 0.000000 0.000000 0.500000
O O9 0.713173 0.906649 0.844372
O O10 0.653595 0.100158 0.744499
O O11 0.500000 0.000000 0.000000
O O12 0.775406 0.807946 0.371324
O O13 0.837810 0.649974 0.551726
#
# Coordination Sequence:
#
# PCOD8129193 Si02
#       6
#     4   4   4   4   4   4
#     4  11  26  46  74 108 147 194 245 303 364 435
#     4  11  24  48  74 105 141 187 246 298 368 434
#     4  12  25  47  74 105 147 195 246 302 364 437
#     4  12  26  46  75 106 151 191 245 304 369 425
#     4  11  26  47  73 104 144 191 245 303 366 432
#     4  11  27  46  73 111 146 194 243 303 364 437
#
# _framework density 22.828893999999998
#
# number of rings (size 3 to 8) (size 9 to 14) (size 15 to 20)
#    0.000    0.667    3.333    3.000    4.667    8.000 
#    0.000    0.000    0.000    0.000    0.000    0.000 
#    0.000    0.000    0.000    0.000    0.000    0.000 
#
# Total GULP energy -297779.357369 kJ/mol
# GULP energy per Si atom -12407.473224 kJ/mol
# Density = 2.277693 g / cm^3
# Si number density = 22.828894 Si / 1000 Ang^3
#
#
#
# Elastic Constant Matrix: (Units=GPa)
#
#
# Indices 1 2 3 4 5 6 
#
# 1 117.7103 29.1489 37.5568 0.0000 4.0045 0.0000
# 2 29.1489 121.9136 47.9110 0.0000 -1.8130 0.0000
# 3 37.5568 47.9110 102.7903 0.0000 -8.0816 0.0000
# 4 0.0000 0.0000 0.0000 43.7742 0.0000 11.7814
# 5 4.0045 -1.8130 -8.0816 0.0000 38.8678 0.0000
# 6 0.0000 0.0000 0.0000 11.7814 0.0000 24.2050
#
#
#
# Elastic Compliance Matrix: (Units=1/GPa)
#
#
# Indices 1 2 3 4 5 6 
#
# 1 0.009858 -0.001119 -0.003217 0.000000 -0.001737 0.000000
# 2 -0.001119 0.010179 -0.004361 0.000000 -0.000317 0.000000
# 3 -0.003217 -0.004361 0.013162 0.000000 0.002865 0.000000
# 4 0.000000 0.000000 0.000000 0.026288 0.000000 -0.012795
# 5 -0.001737 -0.000317 0.002865 0.000000 0.026488 0.000000
# 6 0.000000 0.000000 0.000000 -0.012795 0.000000 0.047542
#
#
# Mechanical properties :
#
#
# Convention : Reuss Voigt Hill
#
# Bulk Modulus (GPa) = 63.26647 63.51637 63.39142
# Shear Modulus (GPa) = 32.01483 36.55592 34.28537
#
# Velocity S-wave (km/s) = 3.74890 4.00597 3.87956
# Velocity P-wave (km/s) = 6.82001 7.01999 6.92072
#
# Compressibility (1/GPa) = 0.01580616
#
# Stress axis : x y z
#
# Youngs Moduli (GPa) = 101.44121 98.24181 75.97801
#
# Poissons Ratio (x) = 0.10989 0.24442
# Poissons Ratio (y) = 0.11347 0.33131
# Poissons Ratio (z) = 0.32634 0.42840
#
# Static dielectric constant tensor:
#      x y z
#    x 4.424570 0.000000 0.215290 
#    y 0.000000 4.170600 0.000000 
#    z 0.215290 0.000000 4.294320 
# 
# 
# High freq. dielectric constant tensor:
#      x y z
#    x 1.911350 0.000000 0.016000 
#    y 0.000000 1.907620 0.000000 
#    z 0.016000 0.000000 1.911320 
# 
# From -- ./inp_files/12352.got.cif
#   From: 2010.03.12/outbox.cif.g09.slc.cpg/sg14_7_cif.got.tgz:12352.got - 2010.03.31 13:35:05.
