data_PCOD8129896
_publ_section_title
;
Structure prediction by ZEFSAII (Michael W. Deem and Ramdas Pophale) SiO2 
 PCOD8129896
Probable space group: C 2/C
;
_chemical_formula_sum "Si O2"
_cell_formula_units_Z 56
_cell_length_a 19.978010
_cell_length_b 9.304079
_cell_length_c 19.799681
_cell_angle_alpha 90.000000
_cell_angle_beta 57.100764
_cell_angle_gamma 90.000000
_cell_volume 3090.083820
_symmetry_space_group_name_H-M "C 2/C"
_symmetry_group_IT_number 15
_symmetry_cell_setting 'monoclinic'
loop_
_space_group_symop_operation_xyz
x,y,z
-x,y,1/2-z
-x,-y,-z
x,-y,1/2+z
1/2+x,1/2+y,z
1/2-x,1/2+y,1/2-z
1/2-x,1/2-y,-z
1/2+x,1/2-y,1/2+z
loop_
_atom_site_type_symbol
_atom_site_label
_atom_site_fract_x
_atom_site_fract_y
_atom_site_fract_z
Si Si1 0.231821 0.447952 0.452355
Si Si2 0.527190 0.330040 0.808459
Si Si3 0.841411 0.135194 0.590006
Si Si4 0.192621 0.197311 0.161252
Si Si5 0.490353 0.578291 0.576042
Si Si6 0.663114 0.647005 0.480293
Si Si7 0.622972 0.191638 0.562174
O O1 0.276945 0.533944 0.367643
O O2 0.293893 0.417449 0.477775
O O3 0.200693 0.298867 0.438034
O O4 0.154074 0.535306 0.522384
O O5 0.500000 0.382448 0.750000
O O6 0.619424 0.285055 0.752853
O O7 0.519565 0.466989 0.858906
O O8 0.471003 0.197162 0.864702
O O9 0.761266 0.210147 0.659533
O O10 0.908542 0.168961 0.610662
O O11 0.868100 0.194930 0.502721
O O12 0.827367 0.963900 0.587391
O O13 0.176728 0.259596 0.095504
O O14 0.500000 0.500000 0.500000
O O15 0.568925 0.673119 0.547990
#
# Coordination Sequence:
#
# PCOD8129896 Si02
#       7
#     8   8   8   8   8   8   8
#     4  10  18  29  54  81 111 130 183 225 267 312
#     4  10  19  32  58  78 104 137 191 231 271 311
#     4  10  17  33  58  75 105 142 186 212 266 328
#     4  10  18  32  53  81 105 139 181 229 267 315
#     4  10  19  34  55  78 105 145 182 214 266 341
#     4  10  17  30  52  81 104 140 173 223 264 319
#     4  10  16  32  53  82 100 139 186 225 252 323
#
# _framework density 18.122487
#
# number of rings (size 3 to 8) (size 9 to 14) (size 15 to 20)
#    0.000    2.000    5.714    1.714    0.000    0.000 
#    0.000    5.714    6.286    0.857    0.000    0.000 
#    0.000    0.000    0.000    0.000    0.000    0.000 
#
# Total GULP energy -346977.863621 kJ/mol
# GULP energy per Si atom -12392.066558 kJ/mol
# Density = 1.808124 g / cm^3
# Si number density = 18.122487 Si / 1000 Ang^3
#
#
#
# Elastic Constant Matrix: (Units=GPa)
#
#
# Indices 1 2 3 4 5 6 
#
# 1 129.9730 46.8646 34.7738 0.0000 -37.8672 -0.0001
# 2 46.8646 92.2588 16.8924 0.0000 -16.9140 0.0001
# 3 34.7738 16.8924 62.9353 0.0000 -24.1556 0.0000
# 4 0.0000 0.0000 0.0000 15.6908 0.0000 -4.0894
# 5 -37.8672 -16.9140 -24.1556 0.0000 31.4902 -0.0001
# 6 -0.0001 0.0001 0.0000 -4.0894 -0.0001 24.8508
#
#
#
# Elastic Compliance Matrix: (Units=1/GPa)
#
#
# Indices 1 2 3 4 5 6 
#
# 1 0.013241 -0.004159 -0.001341 0.000000 0.012660 0.000000
# 2 -0.004159 0.013380 -0.000644 0.000000 0.001691 0.000000
# 3 -0.001341 -0.000644 0.022749 0.000000 0.015493 0.000000
# 4 0.000000 0.000000 0.000000 0.066587 0.000000 0.010957
# 5 0.012660 0.001691 0.015493 0.000000 0.059772 0.000000
# 6 0.000000 0.000000 0.000000 0.010957 0.000000 0.042043
#
#
# Mechanical properties :
#
#
# Convention : Reuss Voigt Hill
#
# Bulk Modulus (GPa) = 26.96757 53.58096 40.27426
# Shear Modulus (GPa) = 20.62531 26.84878 23.73704
#
# Velocity S-wave (km/s) = 3.37724 3.85322 3.62306
# Velocity P-wave (km/s) = 5.48823 7.03041 6.30664
#
# Compressibility (1/GPa) = 0.03708158
#
# Stress axis : x y z
#
# Youngs Moduli (GPa) = 75.52480 74.73925 43.95755
#
# Poissons Ratio (x) = 0.31088 0.05893
# Poissons Ratio (y) = 0.31414 0.02831
# Poissons Ratio (z) = 0.10124 0.04814
#
# Static dielectric constant tensor:
#      x y z
#    x 3.582600 0.000000 -0.546540 
#    y 0.000000 3.228710 0.000000 
#    z -0.546540 0.000000 3.044750 
# 
# 
# High freq. dielectric constant tensor:
#      x y z
#    x 1.721510 0.000000 -0.016460 
#    y 0.000000 1.674460 0.000000 
#    z -0.016460 0.000000 1.674970 
# 
# From -- ./inp_files/213775.got.cif
#   From: 2010.06.25/outbox.cif.g09.slc.cpg/sg15_107_cif.got.tgz:213775.got - 2010.06.28 07:06:18.
