data_PCOD8129488
_publ_section_title
;
Structure prediction by ZEFSAII (Michael W. Deem and Ramdas Pophale) SiO2 
 PCOD8129488
Probable space group: P 21/C
;
_chemical_formula_sum "Si O2"
_cell_formula_units_Z 20
_cell_length_a 17.792534
_cell_length_b 5.265371
_cell_length_c 25.368463
_cell_angle_alpha 90.000000
_cell_angle_beta 160.172880
_cell_angle_gamma 90.000000
_cell_volume 806.111862
_symmetry_space_group_name_H-M "P 21/C"
_symmetry_group_IT_number 14
_symmetry_cell_setting 'monoclinic'
loop_
_space_group_symop_operation_xyz
x,y,z
-x,1/2+y,1/2-z
-x,-y,-z
x,1/2-y,1/2+z
loop_
_atom_site_type_symbol
_atom_site_label
_atom_site_fract_x
_atom_site_fract_y
_atom_site_fract_z
Si Si1 0.064455 0.898586 0.599222
Si Si2 0.401339 0.452278 0.162432
Si Si3 0.127344 0.210850 0.821038
Si Si4 0.353729 0.192675 0.869285
Si Si5 0.528136 0.418824 0.131712
O O1 0.210447 0.642679 0.689574
O O2 0.847171 0.853096 0.491028
O O3 0.231112 0.087936 0.737215
O O4 0.000000 0.000000 0.500000
O O5 0.445396 0.704017 0.226325
O O6 0.441920 0.542941 0.129180
O O7 0.166152 0.292494 0.785709
O O8 0.982235 0.433929 0.750914
O O9 0.361224 0.185269 0.007744
O O10 0.506697 0.409698 0.944066
O O11 0.500000 0.000000 0.000000
#
# Coordination Sequence:
#
# PCOD8129488 Si02
#       5
#     4   4   4   4   4
#     4  12  27  51  81 113 160 215 268 335 412 490
#     4  12  29  50  78 118 164 214 273 337 410 495
#     4  12  28  49  79 119 160 212 269 336 410 492
#     4  12  27  50  81 117 162 213 274 340 414 497
#     4  12  28  48  82 115 167 209 281 338 415 491
#
# _framework density 24.810452999999999
#
# number of rings (size 3 to 8) (size 9 to 14) (size 15 to 20)
#    0.000    0.000    4.000    4.200    8.400    1.600 
#    0.000    0.000    0.000    0.000    0.000    0.000 
#    0.000    0.000    0.000    0.000    0.000    0.000 
#
# Total GULP energy -247926.508216 kJ/mol
# GULP energy per Si atom -12396.325411 kJ/mol
# Density = 2.475398 g / cm^3
# Si number density = 24.810453 Si / 1000 Ang^3
#
#
#
# Elastic Constant Matrix: (Units=GPa)
#
#
# Indices 1 2 3 4 5 6 
#
# 1 182.0674 30.2372 46.9721 0.0000 13.0450 0.0000
# 2 30.2372 97.7606 37.9075 0.0000 2.8298 0.0000
# 3 46.9721 37.9075 142.6540 0.0000 4.7620 0.0000
# 4 0.0000 0.0000 0.0000 39.5865 0.0000 -4.1510
# 5 13.0450 2.8298 4.7620 0.0000 51.7639 0.0000
# 6 0.0000 0.0000 0.0000 -4.1510 0.0000 35.2297
#
#
#
# Elastic Compliance Matrix: (Units=1/GPa)
#
#
# Indices 1 2 3 4 5 6 
#
# 1 0.006227 -0.001237 -0.001677 0.000000 -0.001347 0.000000
# 2 -0.001237 0.011656 -0.002687 0.000000 -0.000078 0.000000
# 3 -0.001677 -0.002687 0.008283 0.000000 -0.000192 0.000000
# 4 0.000000 0.000000 0.000000 0.025577 0.000000 0.003014
# 5 -0.001347 -0.000078 -0.000192 0.000000 0.019680 0.000000
# 6 0.000000 0.000000 0.000000 0.003014 0.000000 0.028740
#
#
# Mechanical properties :
#
#
# Convention : Reuss Voigt Hill
#
# Bulk Modulus (GPa) = 66.82918 72.52396 69.67657
# Shear Modulus (GPa) = 42.97267 45.80702 44.38984
#
# Velocity S-wave (km/s) = 4.16629 4.30150 4.23443
# Velocity P-wave (km/s) = 7.08084 7.34610 7.21469
#
# Compressibility (1/GPa) = 0.01496352
#
# Stress axis : x y z
#
# Youngs Moduli (GPa) = 160.59080 85.79289 120.73433
#
# Poissons Ratio (x) = 0.10611 0.20244
# Poissons Ratio (y) = 0.19862 0.32447
# Poissons Ratio (z) = 0.26927 0.23057
#
# Static dielectric constant tensor:
#      x y z
#    x 4.932070 0.000000 0.243330 
#    y 0.000000 4.219190 0.000000 
#    z 0.243330 0.000000 5.262630 
# 
# 
# High freq. dielectric constant tensor:
#      x y z
#    x 2.014550 0.000000 0.006850 
#    y 0.000000 1.969450 0.000000 
#    z 0.006850 0.000000 1.999580 
# 
# From -- ./inp_files/77733.got.cif
#   From: 2010.03.12/outbox.cif.g09.slc.cpg/sg14_39_cif.got.tgz:77733.got - 2010.03.31 13:35:05.
