data_PCOD8129788
_publ_section_title
;
Structure prediction by ZEFSAII (Michael W. Deem and Ramdas Pophale) SiO2 
 PCOD8129788
Probable space group: C 2/C
;
_chemical_formula_sum "Si O2"
_cell_formula_units_Z 56
_cell_length_a 20.414549
_cell_length_b 9.327487
_cell_length_c 29.309862
_cell_angle_alpha 90.000000
_cell_angle_beta 146.935910
_cell_angle_gamma 90.000000
_cell_volume 3044.907630
_symmetry_space_group_name_H-M "C 2/C"
_symmetry_group_IT_number 15
_symmetry_cell_setting 'monoclinic'
loop_
_space_group_symop_operation_xyz
x,y,z
-x,y,1/2-z
-x,-y,-z
x,-y,1/2+z
1/2+x,1/2+y,z
1/2-x,1/2+y,1/2-z
1/2-x,1/2-y,-z
1/2+x,1/2-y,1/2+z
loop_
_atom_site_type_symbol
_atom_site_label
_atom_site_fract_x
_atom_site_fract_y
_atom_site_fract_z
Si Si1 0.867604 0.225967 0.178784
Si Si2 0.225532 0.904968 0.963998
Si Si3 0.410284 0.785772 0.878167
Si Si4 0.532757 0.474754 0.417981
Si Si5 0.116233 0.173562 0.537728
Si Si6 0.977249 0.578053 0.581874
Si Si7 0.639056 0.698769 0.222055
O O1 0.844050 0.108988 0.125117
O O2 0.760614 0.342000 0.115080
O O3 0.860588 0.154037 0.224585
O O4 0.000000 0.296052 0.250000
O O5 0.144320 0.001348 0.949383
O O6 0.250000 0.750000 0.000000
O O7 0.355637 0.980673 0.034961
O O8 0.494666 0.691579 0.894133
O O9 0.420589 0.705970 0.932467
O O10 0.273300 0.782168 0.781239
O O11 0.456633 0.948511 0.905329
O O12 0.565443 0.524152 0.488792
O O13 0.417396 0.566259 0.336983
O O14 0.064440 0.305499 0.478827
O O15 0.064992 0.653797 0.669972
#
# Coordination Sequence:
#
# PCOD8129788 Si02
#       7
#     8   8   8   8   8   8   8
#     4  10  16  29  56  85  94 127 184 228 249 302
#     4  11  18  35  59  81 101 137 182 222 262 310
#     4  11  22  34  52  84 112 141 176 218 272 313
#     4  11  20  35  56  80 109 142 178 222 261 317
#     4   9  20  34  55  78 105 144 180 215 260 318
#     4  10  20  36  56  79 110 140 179 222 263 317
#     4  10  20  34  55  79 106 143 177 217 260 319
#
# _framework density 18.391363999999999
#
# number of rings (size 3 to 8) (size 9 to 14) (size 15 to 20)
#    0.000    1.714    5.714    1.714    0.000    0.571 
#    0.000    0.000    0.000    0.000    3.714    0.000 
#    0.000    0.000    0.000    0.000    0.000    0.000 
#
# Total GULP energy -347000.429766 kJ/mol
# GULP energy per Si atom -12392.872492 kJ/mol
# Density = 1.834950 g / cm^3
# Si number density = 18.391364 Si / 1000 Ang^3
#
#
#
# Elastic Constant Matrix: (Units=GPa)
#
#
# Indices 1 2 3 4 5 6 
#
# 1 73.5640 19.0959 37.7065 0.0000 19.0545 0.0001
# 2 19.0959 58.5710 29.7436 0.0000 15.2337 0.0000
# 3 37.7065 29.7436 116.2627 0.0000 17.4476 0.0000
# 4 0.0000 0.0000 0.0000 12.4613 0.0000 6.1457
# 5 19.0545 15.2337 17.4476 0.0000 37.9791 0.0000
# 6 0.0001 0.0000 0.0000 6.1457 0.0000 21.1356
#
#
#
# Elastic Compliance Matrix: (Units=1/GPa)
#
#
# Indices 1 2 3 4 5 6 
#
# 1 0.017968 -0.002023 -0.004381 0.000000 -0.006191 0.000000
# 2 -0.002023 0.021200 -0.003914 0.000000 -0.005691 0.000000
# 3 -0.004381 -0.003914 0.011232 0.000000 -0.001392 0.000000
# 4 0.000000 0.000000 0.000000 0.093683 0.000000 -0.027241
# 5 -0.006191 -0.005691 -0.001392 0.000000 0.032358 0.000000
# 6 0.000000 0.000000 0.000000 -0.027241 0.000000 0.055234
#
#
# Mechanical properties :
#
#
# Convention : Reuss Voigt Hill
#
# Bulk Modulus (GPa) = 33.59627 46.83219 40.21423
# Shear Modulus (GPa) = 19.06703 25.10531 22.08617
#
# Velocity S-wave (km/s) = 3.22334 3.69868 3.46916
# Velocity P-wave (km/s) = 5.67100 6.61512 6.16117
#
# Compressibility (1/GPa) = 0.02976521
#
# Stress axis : x y z
#
# Youngs Moduli (GPa) = 55.65550 47.16892 89.03042
#
# Poissons Ratio (x) = 0.09544 0.39001
# Poissons Ratio (y) = 0.11261 0.34842
# Poissons Ratio (z) = 0.24381 0.18460
#
# Static dielectric constant tensor:
#      x y z
#    x 3.557640 0.000000 0.085260 
#    y 0.000000 2.947800 0.000000 
#    z 0.085260 0.000000 3.872050 
# 
# 
# High freq. dielectric constant tensor:
#      x y z
#    x 1.720880 0.000000 0.007470 
#    y 0.000000 1.663380 0.000000 
#    z 0.007470 0.000000 1.734900 
# 
# From -- ./inp_files/279412.got.cif
#   From: 2010.06.25/outbox.cif.g09.slc.cpg/sg15_140_cif.got.tgz:279412.got - 2010.06.28 07:06:18.
