data_PCOD8129992
_publ_section_title
;
Structure prediction by ZEFSAII (Michael W. Deem and Ramdas Pophale) SiO2 
 PCOD8129992
Probable space group: C 2/C
;
_chemical_formula_sum "Si O2"
_cell_formula_units_Z 32
_cell_length_a 20.187234
_cell_length_b 9.710410
_cell_length_c 11.563351
_cell_angle_alpha 90.000000
_cell_angle_beta 134.623528
_cell_angle_gamma 90.000000
_cell_volume 1613.310778
_symmetry_space_group_name_H-M "C 2/C"
_symmetry_group_IT_number 15
_symmetry_cell_setting 'monoclinic'
loop_
_space_group_symop_operation_xyz
x,y,z
-x,y,1/2-z
-x,-y,-z
x,-y,1/2+z
1/2+x,1/2+y,z
1/2-x,1/2+y,1/2-z
1/2-x,1/2-y,-z
1/2+x,1/2-y,1/2+z
loop_
_atom_site_type_symbol
_atom_site_label
_atom_site_fract_x
_atom_site_fract_y
_atom_site_fract_z
Si Si1 0.098476 0.345633 0.844411
Si Si2 0.661181 0.147687 0.183555
Si Si3 0.032220 0.359263 0.175274
Si Si4 0.309458 0.155662 0.798206
O O1 0.149795 0.280068 0.795611
O O2 0.078676 0.503862 0.785165
O O3 0.000000 0.270765 0.750000
O O4 0.162591 0.329324 0.034071
O O5 0.717468 0.250610 0.168310
O O6 0.716241 0.002624 0.260856
O O7 0.558999 0.107311 0.011879
O O8 0.109352 0.286989 0.188282
O O9 0.000000 0.270396 0.250000
#
# Coordination Sequence:
#
# PCOD8129992 Si02
#       4
#     8   8   8   8
#     4  10  16  35  62  77 103 149 199 215 258 332
#     4  11  21  35  58  87 110 145 187 232 274 327
#     4  10  19  35  59  78 109 151 191 215 269 337
#     4  11  21  36  58  85 111 145 188 233 271 328
#
# _framework density 19.834987000000002
#
# number of rings (size 3 to 8) (size 9 to 14) (size 15 to 20)
#    0.000    1.500    7.500    2.250    0.000    1.000 
#    0.000    1.250    0.000    0.000    0.000    0.000 
#    0.000    0.000    0.000    0.000    0.000    0.000 
#
# Total GULP energy -198219.624634 kJ/mol
# GULP energy per Si atom -12388.726540 kJ/mol
# Density = 1.978984 g / cm^3
# Si number density = 19.834987 Si / 1000 Ang^3
#
#
#
# Elastic Constant Matrix: (Units=GPa)
#
#
# Indices 1 2 3 4 5 6 
#
# 1 182.5117 48.0190 25.8102 0.0000 -8.9831 0.0000
# 2 48.0190 46.3123 -1.4855 0.0000 11.6290 0.0000
# 3 25.8102 -1.4855 46.4272 0.0000 -11.4682 0.0000
# 4 0.0000 0.0000 0.0000 11.2602 0.0000 2.5600
# 5 -8.9831 11.6290 -11.4682 0.0000 40.1096 0.0000
# 6 0.0000 0.0000 0.0000 2.5600 0.0000 25.1812
#
#
#
# Elastic Compliance Matrix: (Units=1/GPa)
#
#
# Indices 1 2 3 4 5 6 
#
# 1 0.009049 -0.010478 -0.004428 0.000000 0.003799 0.000000
# 2 -0.010478 0.035464 0.004132 0.000000 -0.011447 0.000000
# 3 -0.004428 0.004132 0.025385 0.000000 0.005068 0.000000
# 4 0.000000 0.000000 0.000000 0.090909 0.000000 -0.009242
# 5 0.003799 -0.011447 0.005068 0.000000 0.030551 0.000000
# 6 0.000000 0.000000 0.000000 -0.009242 0.000000 0.040652
#
#
# Mechanical properties :
#
#
# Convention : Reuss Voigt Hill
#
# Bulk Modulus (GPa) = 20.68231 46.65987 33.67109
# Shear Modulus (GPa) = 18.54090 28.83736 23.68913
#
# Velocity S-wave (km/s) = 3.06070 3.81709 3.45963
# Velocity P-wave (km/s) = 4.78960 6.55759 5.74205
#
# Compressibility (1/GPa) = 0.04835049
#
# Stress axis : x y z
#
# Youngs Moduli (GPa) = 110.50808 28.19745 39.39382
#
# Poissons Ratio (x) = 0.29547 0.17442
# Poissons Ratio (y) = 1.15796 -0.16279
# Poissons Ratio (z) = 0.48928 -0.11652
#
# Static dielectric constant tensor:
#      x y z
#    x 4.721440 0.000000 -0.500560 
#    y 0.000000 2.940060 0.000000 
#    z -0.500560 0.000000 3.561600 
# 
# 
# High freq. dielectric constant tensor:
#      x y z
#    x 1.812340 0.000000 -0.018080 
#    y 0.000000 1.692500 0.000000 
#    z -0.018080 0.000000 1.768850 
# 
# From -- ./inp_files/93939.got.cif
#   From: 2010.06.25/outbox.cif.g09.slc.cpg/sg15_47_cif.got.tgz:93939.got - 2010.06.28 07:06:18.
