data_PCOD8129772
_publ_section_title
;
Structure prediction by ZEFSAII (Michael W. Deem and Ramdas Pophale) SiO2 
 PCOD8129772
Probable space group: C 2/C
;
_chemical_formula_sum "Si O2"
_cell_formula_units_Z 56
_cell_length_a 12.896833
_cell_length_b 25.996127
_cell_length_c 10.602716
_cell_angle_alpha 90.000000
_cell_angle_beta 72.210445
_cell_angle_gamma 90.000000
_cell_volume 3384.778382
_symmetry_space_group_name_H-M "C 2/C"
_symmetry_group_IT_number 15
_symmetry_cell_setting 'monoclinic'
loop_
_space_group_symop_operation_xyz
x,y,z
-x,y,1/2-z
-x,-y,-z
x,-y,1/2+z
1/2+x,1/2+y,z
1/2-x,1/2+y,1/2-z
1/2-x,1/2-y,-z
1/2+x,1/2-y,1/2+z
loop_
_atom_site_type_symbol
_atom_site_label
_atom_site_fract_x
_atom_site_fract_y
_atom_site_fract_z
Si Si1 0.608314 0.029766 0.485557
Si Si2 0.237466 0.355058 0.691022
Si Si3 0.909589 0.646376 0.021410
Si Si4 0.918406 0.783660 0.614096
Si Si5 0.075460 0.710374 0.110619
Si Si6 0.362502 0.757882 0.389195
Si Si7 0.131566 0.459612 0.700726
O O1 0.666179 0.002823 0.585027
O O2 0.500000 0.000000 0.500000
O O3 0.579571 0.088344 0.533258
O O4 0.672152 0.025301 0.327765
O O5 0.197518 0.350918 0.850425
O O6 0.367427 0.341792 0.637639
O O7 0.187366 0.309768 0.625595
O O8 0.201437 0.408872 0.641485
O O9 0.014498 0.662854 0.063681
O O10 0.900555 0.684011 0.905096
O O11 0.896852 0.758093 0.487998
O O12 0.854286 0.748965 0.742410
O O13 0.048051 0.783603 0.593363
O O14 0.000000 0.732126 0.250000
O O15 0.250000 0.750000 0.500000
O O16 0.000000 0.448497 0.750000
#
# Coordination Sequence:
#
# PCOD8129772 Si02
#       7
#     8   8   8   8   8   8   8
#     4   9  16  29  43  68  95 129 166 197 246 301
#     4  10  16  29  47  66  95 130 167 192 239 298
#     4   9  17  30  49  65  97 139 156 197 251 285
#     4  10  20  30  48  72  93 131 170 196 244 292
#     4   9  17  29  45  67  97 130 165 195 237 296
#     4  10  19  35  48  70 102 126 166 207 235 292
#     4   9  17  29  46  67 100 132 165 206 250 296
#
# _framework density 16.544657000000001
#
# number of rings (size 3 to 8) (size 9 to 14) (size 15 to 20)
#    0.000    2.571    1.429    3.429    0.000    0.000 
#   18.000    0.000    0.000    0.000    0.000    1.000 
#    0.000    0.000    0.000    0.000    0.000    0.000 
#
# Total GULP energy -346875.589335 kJ/mol
# GULP energy per Si atom -12388.413905 kJ/mol
# Density = 1.650700 g / cm^3
# Si number density = 16.544657 Si / 1000 Ang^3
#
#
#
# Elastic Constant Matrix: (Units=GPa)
#
#
# Indices 1 2 3 4 5 6 
#
# 1 57.1737 37.1010 26.9424 0.0000 -13.6511 0.0000
# 2 37.1010 98.9659 39.8672 0.0000 0.8503 0.0000
# 3 26.9424 39.8672 86.3899 0.0000 7.0078 0.0000
# 4 0.0000 0.0000 0.0000 24.4531 0.0000 2.4908
# 5 -13.6511 0.8503 7.0078 0.0000 24.7442 0.0000
# 6 0.0000 0.0000 0.0000 2.4908 0.0000 25.3155
#
#
#
# Elastic Compliance Matrix: (Units=1/GPa)
#
#
# Indices 1 2 3 4 5 6 
#
# 1 0.031495 -0.009059 -0.007243 0.000000 0.019738 0.000000
# 2 -0.009059 0.015054 -0.003761 0.000000 -0.004450 0.000000
# 3 -0.007243 -0.003761 0.016257 0.000000 -0.008471 0.000000
# 4 0.000000 0.000000 0.000000 0.041309 0.000000 -0.004064
# 5 0.019738 -0.004450 -0.008471 0.000000 0.053855 0.000000
# 6 0.000000 0.000000 0.000000 -0.004064 0.000000 0.039901
#
#
# Mechanical properties :
#
#
# Convention : Reuss Voigt Hill
#
# Bulk Modulus (GPa) = 44.09106 50.03897 47.06501
# Shear Modulus (GPa) = 20.36197 24.14383 22.25290
#
# Velocity S-wave (km/s) = 3.51198 3.82424 3.67143
# Velocity P-wave (km/s) = 6.56909 7.05763 6.81774
#
# Compressibility (1/GPa) = 0.02268034
#
# Stress axis : x y z
#
# Youngs Moduli (GPa) = 31.75112 66.42836 61.51208
#
# Poissons Ratio (x) = 0.60177 0.44553
# Poissons Ratio (y) = 0.28763 0.23134
# Poissons Ratio (z) = 0.22997 0.24983
#
# Static dielectric constant tensor:
#      x y z
#    x 3.001290 0.000000 0.302820 
#    y 0.000000 3.310240 0.000000 
#    z 0.302820 0.000000 3.590470 
# 
# 
# High freq. dielectric constant tensor:
#      x y z
#    x 1.604570 0.000000 0.016950 
#    y 0.000000 1.617870 0.000000 
#    z 0.016950 0.000000 1.641830 
# 
# From -- ./inp_files/91531.got.cif
#   From: 2010.06.25/outbox.cif.g09.slc.cpg/sg15_46_cif.got.tgz:91531.got - 2010.06.28 07:06:18.
