data_PCOD8129331
_publ_section_title
;
Structure prediction by ZEFSAII (Michael W. Deem and Ramdas Pophale) SiO2 
 PCOD8129331
Probable space group: P 21/C
;
_chemical_formula_sum "Si O2"
_cell_formula_units_Z 20
_cell_length_a 11.962070
_cell_length_b 4.983035
_cell_length_c 21.256597
_cell_angle_alpha 90.000000
_cell_angle_beta 38.469579
_cell_angle_gamma 90.000000
_cell_volume 788.231047
_symmetry_space_group_name_H-M "P 21/C"
_symmetry_group_IT_number 14
_symmetry_cell_setting 'monoclinic'
loop_
_space_group_symop_operation_xyz
x,y,z
-x,1/2+y,1/2-z
-x,-y,-z
x,1/2-y,1/2+z
loop_
_atom_site_type_symbol
_atom_site_label
_atom_site_fract_x
_atom_site_fract_y
_atom_site_fract_z
Si Si1 0.997661 0.164026 0.371158
Si Si2 0.356466 0.489923 0.658830
Si Si3 0.525462 0.735330 0.196123
Si Si4 0.644824 0.303560 0.964247
Si Si5 0.919819 0.828926 0.978876
O O1 0.828902 0.049367 0.404642
O O2 0.935580 0.466115 0.413906
O O3 0.185433 0.193368 0.252006
O O4 0.025274 0.950417 0.416695
O O5 0.383574 0.707037 0.702775
O O6 0.303859 0.601486 0.613899
O O7 0.544681 0.328845 0.569019
O O8 0.483342 0.442858 0.242065
O O9 0.720083 0.736664 0.080322
O O10 0.500000 0.500000 0.000000
O O11 0.000000 0.000000 0.000000
#
# Coordination Sequence:
#
# PCOD8129331 Si02
#       5
#     4   4   4   4   4
#     4  12  27  46  76 107 148 189 247 301 366 435
#     4  11  27  47  72 109 142 196 244 298 376 427
#     4  12  25  45  74 104 145 190 239 300 366 434
#     4  11  27  47  75 103 151 190 248 307 356 448
#     4  12  25  47  71 109 149 188 245 300 360 439
#
# _framework density 25.373269000000001
#
# number of rings (size 3 to 8) (size 9 to 14) (size 15 to 20)
#    0.000    0.400    2.000    5.400   11.200    0.000 
#    0.000    0.000    0.000    0.000    0.000    0.000 
#    0.000    0.000    0.000    0.000    0.000    0.000 
#
# Total GULP energy -247974.616936 kJ/mol
# GULP energy per Si atom -12398.730847 kJ/mol
# Density = 2.531552 g / cm^3
# Si number density = 25.373269 Si / 1000 Ang^3
#
#
#
# Elastic Constant Matrix: (Units=GPa)
#
#
# Indices 1 2 3 4 5 6 
#
# 1 72.4298 -35.9955 19.7089 0.0000 -6.3442 0.0000
# 2 -35.9955 65.8615 22.5175 0.0000 3.4659 0.0000
# 3 19.7089 22.5175 176.1448 0.0000 -7.9197 0.0000
# 4 0.0000 0.0000 0.0000 24.7767 0.0000 -5.3674
# 5 -6.3442 3.4659 -7.9197 0.0000 36.7036 0.0000
# 6 0.0000 0.0000 0.0000 -5.3674 0.0000 30.4789
#
#
#
# Elastic Compliance Matrix: (Units=1/GPa)
#
#
# Indices 1 2 3 4 5 6 
#
# 1 0.021521 0.013045 -0.004003 0.000000 0.001624 0.000000
# 2 0.013045 0.023925 -0.004562 0.000000 -0.000989 0.000000
# 3 -0.004003 -0.004562 0.006762 0.000000 0.001198 0.000000
# 4 0.000000 0.000000 0.000000 0.041961 0.000000 0.007389
# 5 0.001624 -0.000989 0.001198 0.000000 0.027878 0.000000
# 6 0.000000 0.000000 0.000000 0.007389 0.000000 0.034111
#
#
# Mechanical properties :
#
#
# Convention : Reuss Voigt Hill
#
# Bulk Modulus (GPa) = 16.34867 36.32200 26.33533
# Shear Modulus (GPa) = 29.83524 38.93885 34.38704
#
# Velocity S-wave (km/s) = 3.43279 3.92170 3.68536
# Velocity P-wave (km/s) = 4.70843 5.90360 5.33956
#
# Compressibility (1/GPa) = 0.06116707
#
# Stress axis : x y z
#
# Youngs Moduli (GPa) = 46.46681 41.79784 147.88306
#
# Poissons Ratio (x) = -0.54524 0.59190
# Poissons Ratio (y) = -0.60615 0.67471
# Poissons Ratio (z) = 0.18598 0.19070
#
# Static dielectric constant tensor:
#      x y z
#    x 3.877240 0.000000 -0.334110 
#    y 0.000000 4.374330 0.000000 
#    z -0.334110 0.000000 4.707850 
# 
# 
# High freq. dielectric constant tensor:
#      x y z
#    x 2.014170 0.000000 -0.000500 
#    y 0.000000 2.005690 0.000000 
#    z -0.000500 0.000000 2.032710 
# 
# From -- ./inp_files/66208.got.cif
#   From: 2010.03.12/outbox.cif.g09.slc.cpg/sg14_34_cif.got.tgz:66208.got - 2010.03.31 13:35:05.
