data_PCOD8129766
_publ_section_title
;
Structure prediction by ZEFSAII (Michael W. Deem and Ramdas Pophale) SiO2 
 PCOD8129766
Probable space group: C 2/C
;
_chemical_formula_sum "Si O2"
_cell_formula_units_Z 32
_cell_length_a 11.792042
_cell_length_b 30.568474
_cell_length_c 13.568312
_cell_angle_alpha 90.000000
_cell_angle_beta 21.979035
_cell_angle_gamma 90.000000
_cell_volume 1830.503176
_symmetry_space_group_name_H-M "C 2/C"
_symmetry_group_IT_number 15
_symmetry_cell_setting 'monoclinic'
loop_
_space_group_symop_operation_xyz
x,y,z
-x,y,1/2-z
-x,-y,-z
x,-y,1/2+z
1/2+x,1/2+y,z
1/2-x,1/2+y,1/2-z
1/2-x,1/2-y,-z
1/2+x,1/2-y,1/2+z
loop_
_atom_site_type_symbol
_atom_site_label
_atom_site_fract_x
_atom_site_fract_y
_atom_site_fract_z
Si Si1 0.653928 0.866647 0.021759
Si Si2 0.103935 0.269203 0.018035
Si Si3 0.595693 0.965082 0.784189
Si Si4 0.731534 0.057268 0.760176
O O1 0.500000 0.857987 0.250000
O O2 0.657992 0.820743 0.961006
O O3 0.445295 0.900264 0.132095
O O4 0.000000 0.884482 0.750000
O O5 0.750616 0.255912 0.306230
O O6 0.250000 0.250000 0.000000
O O7 0.500000 0.956894 0.750000
O O8 0.908873 0.938520 0.547106
O O9 0.625234 0.016682 0.779402
O O10 0.341608 0.948165 0.064940
#
# Coordination Sequence:
#
# PCOD8129766 Si02
#       4
#     8   8   8   8
#     4  12  20  30  49  73 109 138 163 205 240 301
#     4  10  16  29  43  66  99 144 156 180 249 310
#     4  10  20  38  53  67 102 133 163 216 261 282
#     4  10  22  33  51  79  94 128 182 202 241 315
#
# _framework density 17.481532000000001
#
# number of rings (size 3 to 8) (size 9 to 14) (size 15 to 20)
#    0.000    1.500    5.000    3.000    0.000    4.000 
#    0.000    0.000    0.000    0.000    0.000    0.000 
#    0.000   20.000    0.000    0.000    0.000    0.000 
#
# Total GULP energy -198319.019767 kJ/mol
# GULP energy per Si atom -12394.938735 kJ/mol
# Density = 1.744174 g / cm^3
# Si number density = 17.481532 Si / 1000 Ang^3
#
#
#
# Elastic Constant Matrix: (Units=GPa)
#
#
# Indices 1 2 3 4 5 6 
#
# 1 48.2623 25.5401 14.0551 -0.0001 -0.0131 -0.0002
# 2 25.5401 100.6776 27.3531 0.0003 -15.8690 0.0006
# 3 14.0551 27.3531 114.1857 0.0044 15.0331 0.0025
# 4 -0.0001 0.0003 0.0044 31.0718 -0.0007 -4.7439
# 5 -0.0131 -15.8690 15.0331 -0.0007 20.4957 -0.0002
# 6 -0.0002 0.0006 0.0025 -4.7439 -0.0002 9.7085
#
#
#
# Elastic Compliance Matrix: (Units=1/GPa)
#
#
# Indices 1 2 3 4 5 6 
#
# 1 0.024512 -0.006727 -0.000799 0.000000 -0.004607 0.000001
# 2 -0.006727 0.015424 -0.004913 0.000001 0.015541 0.000001
# 3 -0.000799 -0.004913 0.011660 -0.000003 -0.012356 -0.000004
# 4 0.000000 0.000001 -0.000003 0.034778 0.000004 0.016994
# 5 -0.004607 0.015541 -0.012356 0.000004 0.069883 0.000005
# 6 0.000001 0.000001 -0.000004 0.016994 0.000005 0.111307
#
#
# Mechanical properties :
#
#
# Convention : Reuss Voigt Hill
#
# Bulk Modulus (GPa) = 37.42967 44.11359 40.77163
# Shear Modulus (GPa) = 16.59221 25.33369 20.96295
#
# Velocity S-wave (km/s) = 3.08413 3.81092 3.46663
# Velocity P-wave (km/s) = 5.84294 6.68232 6.27668
#
# Compressibility (1/GPa) = 0.02671678
#
# Stress axis : x y z
#
# Youngs Moduli (GPa) = 40.79709 64.83586 85.76604
#
# Poissons Ratio (x) = 0.43616 0.06854
# Poissons Ratio (y) = 0.27445 0.42134
# Poissons Ratio (z) = 0.03260 0.31852
#
# Static dielectric constant tensor:
#      x y z
#    x 2.595550 0.000000 -0.498820 
#    y 0.000000 3.175450 -0.000010 
#    z -0.498820 -0.000010 1.000130 
# 
# 
# High freq. dielectric constant tensor:
#      x y z
#    x 1.621720 0.000000 0.027090 
#    y 0.000000 1.667720 0.000000 
#    z 0.027090 0.000000 1.707240 
# 
# From -- ./inp_files/2561.got.cif
#   From: 2010.06.25/outbox.cif.g09.slc.cpg/sg15_2_cif.got.tgz:2561.got - 2010.06.28 07:06:18.
