data_PCOD8129667
_publ_section_title
;
Structure prediction by ZEFSAII (Michael W. Deem and Ramdas Pophale) SiO2 
 PCOD8129667
Probable space group: C 2/C
;
_chemical_formula_sum "Si O2"
_cell_formula_units_Z 44
_cell_length_a 25.678147
_cell_length_b 17.385362
_cell_length_c 10.854852
_cell_angle_alpha 90.000000
_cell_angle_beta 157.230805
_cell_angle_gamma 90.000000
_cell_volume 1875.446210
_symmetry_space_group_name_H-M "C 2/C"
_symmetry_group_IT_number 15
_symmetry_cell_setting 'monoclinic'
loop_
_space_group_symop_operation_xyz
x,y,z
-x,y,1/2-z
-x,-y,-z
x,-y,1/2+z
1/2+x,1/2+y,z
1/2-x,1/2+y,1/2-z
1/2-x,1/2-y,-z
1/2+x,1/2-y,1/2+z
loop_
_atom_site_type_symbol
_atom_site_label
_atom_site_fract_x
_atom_site_fract_y
_atom_site_fract_z
Si Si1 0.434856 0.342295 0.882155
Si Si2 0.500000 0.564310 0.750000
Si Si3 0.989714 0.678511 0.463137
Si Si4 0.500000 0.929857 0.750000
Si Si5 0.000000 0.302346 0.250000
Si Si6 0.314376 0.319403 0.231670
Si Si7 0.709335 0.555338 0.623582
O O1 0.323670 0.384524 0.556719
O O2 0.420435 0.381686 0.982953
O O3 0.409873 0.250461 0.842337
O O4 0.584660 0.348935 0.153891
O O5 0.395491 0.513965 0.601203
O O6 0.003492 0.620111 0.382651
O O7 0.024769 0.646803 0.678978
O O8 0.833786 0.709123 0.137955
O O9 0.362172 0.978644 0.441549
O O10 0.125025 0.244368 0.544072
O O11 0.290314 0.399219 0.248974
#
# Coordination Sequence:
#
# PCOD8129667 Si02
#       7
#     8   4   8   4   4   8   8
#     4  11  20  38  63  94 115 156 211 259 296 356
#     4  12  24  38  68  90 115 160 227 256 278 364
#     4  10  21  37  61  97 128 158 192 254 319 374
#     4  10  25  42  60  90 131 164 198 250 326 376
#     4  10  15  32  56  90 120 162 187 238 300 376
#     4  10  18  36  63  87 128 158 192 246 320 369
#     4  11  21  41  62  86 120 172 198 250 312 357
#
# _framework density 23.461082000000001
#
# number of rings (size 3 to 8) (size 9 to 14) (size 15 to 20)
#    0.000    1.455    5.455    3.273    0.000    0.727 
#    6.545    0.909    0.000    1.091    0.000    0.000 
#    0.000    0.000    0.000    0.000    0.000    0.000 
#
# Total GULP energy -272572.971721 kJ/mol
# GULP energy per Si atom -12389.680533 kJ/mol
# Density = 2.340768 g / cm^3
# Si number density = 23.461082 Si / 1000 Ang^3
#
#
#
# Elastic Constant Matrix: (Units=GPa)
#
#
# Indices 1 2 3 4 5 6 
#
# 1 84.7006 8.3142 25.8841 0.0000 -23.6357 0.0000
# 2 8.3142 23.5372 7.3661 0.0000 -11.7624 0.0000
# 3 25.8841 7.3661 100.2930 0.0000 -4.0752 0.0000
# 4 0.0000 0.0000 0.0000 -9.3239 0.0000 5.5773
# 5 -23.6357 -11.7624 -4.0752 0.0000 46.5083 0.0000
# 6 0.0000 0.0000 0.0000 5.5773 0.0000 12.1687
#
#
#
# Elastic Compliance Matrix: (Units=1/GPa)
#
#
# Indices 1 2 3 4 5 6 
#
# 1 0.014930 -0.000612 -0.003519 0.000000 0.007124 0.000000
# 2 -0.000612 0.049626 -0.003000 0.000000 0.011977 0.000000
# 3 -0.003519 -0.003000 0.011035 0.000000 -0.001580 0.000000
# 4 0.000000 0.000000 0.000000 -0.084175 0.000000 0.038580
# 5 0.007124 0.011977 -0.001580 0.000000 0.028013 0.000000
# 6 0.000000 0.000000 0.000000 0.038580 0.000000 0.064496
#
#
# Mechanical properties :
#
#
# Convention : Reuss Voigt Hill
#
# Bulk Modulus (GPa) = 16.30553 32.40661 24.35607
# Shear Modulus (GPa) = 42.14779 21.00173 31.57476
#
# Velocity S-wave (km/s) = 4.24311 2.99519 3.67254
# Velocity P-wave (km/s) = 5.56511 5.07981 5.32799
#
# Compressibility (1/GPa) = 0.06132888
#
# Stress axis : x y z
#
# Youngs Moduli (GPa) = 66.98073 20.15056 90.62037
#
# Poissons Ratio (x) = 0.01234 0.31886
# Poissons Ratio (y) = 0.04101 0.27188
# Poissons Ratio (z) = 0.23568 0.06045
#
# Static dielectric constant tensor:
#      x y z
#    x 4.309270 0.000000 -0.007390 
#    y 0.000000 3.807080 0.000000 
#    z -0.007390 0.000000 4.590360 
# 
# 
# High freq. dielectric constant tensor:
#      x y z
#    x 1.933940 0.000000 -0.010930 
#    y 0.000000 1.893480 0.000000 
#    z -0.010930 0.000000 1.939310 
# 
# From -- ./inp_files/127335.got.cif
#   From: 2010.06.25/outbox.cif.g09.slc.cpg/sg15_64_cif.got.tgz:127335.got - 2010.06.28 07:06:18.
