data_PCOD8129228
_publ_section_title
;
Structure prediction by ZEFSAII (Michael W. Deem and Ramdas Pophale) SiO2 
 PCOD8129228
Probable space group: P 21/C
;
_chemical_formula_sum "Si O2"
_cell_formula_units_Z 16
_cell_length_a 12.426657
_cell_length_b 5.421502
_cell_length_c 10.217164
_cell_angle_alpha 90.000000
_cell_angle_beta 117.506170
_cell_angle_gamma 90.000000
_cell_volume 610.532620
_symmetry_space_group_name_H-M "P 21/C"
_symmetry_group_IT_number 14
_symmetry_cell_setting 'monoclinic'
loop_
_space_group_symop_operation_xyz
x,y,z
-x,1/2+y,1/2-z
-x,-y,-z
x,1/2-y,1/2+z
loop_
_atom_site_type_symbol
_atom_site_label
_atom_site_fract_x
_atom_site_fract_y
_atom_site_fract_z
Si Si1 0.193449 0.388230 0.580041
Si Si2 0.652068 0.506002 0.935820
Si Si3 0.387226 0.814786 0.324543
Si Si4 0.990508 0.181658 0.164859
O O1 0.316716 0.448110 0.727396
O O2 0.093602 0.261552 0.616475
O O3 0.138278 0.634705 0.481009
O O4 0.231339 0.187780 0.490220
O O5 0.648183 0.417779 0.783275
O O6 0.531153 0.658113 0.902094
O O7 0.658630 0.287988 0.049548
O O8 0.976328 0.419062 0.248106
#
# Coordination Sequence:
#
# PCOD8129228 Si02
#       4
#     4   4   4   4
#     4  11  26  46  75 107 151 203 258 311 392 459
#     4  11  25  46  71 115 151 206 247 318 383 470
#     4  11  25  44  73 109 157 197 257 310 390 467
#     4  11  28  49  75 109 152 204 265 324 381 448
#
# _framework density 26.206627999999998
#
# number of rings (size 3 to 8) (size 9 to 14) (size 15 to 20)
#    0.000    1.000    2.500    1.500   10.500    5.000 
#    0.000    0.000    0.000    0.000    0.000    0.000 
#    0.000    0.000    0.000    0.000    0.000    0.000 
#
# Total GULP energy -198362.182378 kJ/mol
# GULP energy per Si atom -12397.636399 kJ/mol
# Density = 2.614698 g / cm^3
# Si number density = 26.206628 Si / 1000 Ang^3
#
#
#
# Elastic Constant Matrix: (Units=GPa)
#
#
# Indices 1 2 3 4 5 6 
#
# 1 180.7403 52.6534 44.0439 0.0000 -8.6078 0.0000
# 2 52.6534 88.5387 19.7758 0.0000 -8.3257 0.0000
# 3 44.0439 19.7758 91.2481 0.0000 -12.3029 0.0000
# 4 0.0000 0.0000 0.0000 47.8467 0.0000 -6.2783
# 5 -8.6078 -8.3257 -12.3029 0.0000 22.6729 0.0000
# 6 0.0000 0.0000 0.0000 -6.2783 0.0000 38.4452
#
#
#
# Elastic Compliance Matrix: (Units=1/GPa)
#
#
# Indices 1 2 3 4 5 6 
#
# 1 0.007277 -0.003729 -0.002715 0.000000 -0.000080 0.000000
# 2 -0.003729 0.013998 -0.000790 0.000000 0.003296 0.000000
# 3 -0.002715 -0.000790 0.013231 0.000000 0.005859 0.000000
# 4 0.000000 0.000000 0.000000 0.021358 0.000000 0.003488
# 5 -0.000080 0.003296 0.005859 0.000000 0.048465 0.000000
# 6 0.000000 0.000000 0.000000 0.003488 0.000000 0.026581
#
#
# Mechanical properties :
#
#
# Convention : Reuss Voigt Hill
#
# Bulk Modulus (GPa) = 49.90225 65.94148 57.92186
# Shear Modulus (GPa) = 32.88286 38.06323 35.47305
#
# Velocity S-wave (km/s) = 3.54609 3.81521 3.68311
# Velocity P-wave (km/s) = 5.98745 6.68016 6.34327
#
# Compressibility (1/GPa) = 0.02003918
#
# Stress axis : x y z
#
# Youngs Moduli (GPa) = 137.42239 71.43791 75.58178
#
# Poissons Ratio (x) = 0.26636 0.20521
# Poissons Ratio (y) = 0.51239 0.05968
# Poissons Ratio (z) = 0.37311 0.05641
#
# Static dielectric constant tensor:
#      x y z
#    x 4.888350 0.000000 -0.028270 
#    y 0.000000 4.136460 0.000000 
#    z -0.028270 0.000000 5.144260 
# 
# 
# High freq. dielectric constant tensor:
#      x y z
#    x 2.073190 0.000000 0.005380 
#    y 0.000000 2.024140 0.000000 
#    z 0.005380 0.000000 2.058440 
# 
# From -- ./inp_files/17342.got.cif
#   From: 2010.03.12/outbox.cif.g09.slc.cpg/sg14_9_cif.got.tgz:17342.got - 2010.03.31 13:35:05.
