data_PCOD8129023
_publ_section_title
;
Structure prediction by ZEFSAII (Michael W. Deem and Ramdas Pophale) SiO2 
 PCOD8129023
Probable space group: P 21/C
;
_chemical_formula_sum "Si O2"
_cell_formula_units_Z 16
_cell_length_a 7.595072
_cell_length_b 6.782826
_cell_length_c 19.319593
_cell_angle_alpha 90.000000
_cell_angle_beta 135.213498
_cell_angle_gamma 90.000000
_cell_volume 701.134302
_symmetry_space_group_name_H-M "P 21/C"
_symmetry_group_IT_number 14
_symmetry_cell_setting 'monoclinic'
loop_
_space_group_symop_operation_xyz
x,y,z
-x,1/2+y,1/2-z
-x,-y,-z
x,1/2-y,1/2+z
loop_
_atom_site_type_symbol
_atom_site_label
_atom_site_fract_x
_atom_site_fract_y
_atom_site_fract_z
Si Si1 0.155700 0.026110 0.854305
Si Si2 0.704267 0.741243 0.241028
Si Si3 0.733538 0.961701 0.391991
Si Si4 0.552590 0.798132 0.476204
O O1 0.240472 0.098936 0.802527
O O2 0.316121 0.839580 0.923635
O O3 0.197036 0.202162 0.920796
O O4 0.869178 0.956658 0.775475
O O5 0.766834 0.844934 0.330423
O O6 0.416707 0.667780 0.159777
O O7 0.583560 0.823606 0.403223
O O8 0.000000 0.000000 0.500000
O O9 0.500000 0.000000 0.500000
#
# Coordination Sequence:
#
# PCOD8129023 Si02
#       4
#     4   4   4   4
#     4  11  26  45  79 103 145 200 253 301 376 452
#     4  12  27  47  74 111 151 201 249 311 376 448
#     4  12  28  45  74 109 156 189 250 313 374 443
#     4  11  23  48  75 108 145 198 248 311 376 445
#
# _framework density 22.820166
#
# number of rings (size 3 to 8) (size 9 to 14) (size 15 to 20)
#    0.000    0.500    2.500    4.500   10.500    1.000 
#    0.000    0.000    0.000    0.000    0.000    0.000 
#    0.000    0.000    0.000    0.000    0.000    0.000 
#
# Total GULP energy -198478.678827 kJ/mol
# GULP energy per Si atom -12404.917427 kJ/mol
# Density = 2.276823 g / cm^3
# Si number density = 22.820166 Si / 1000 Ang^3
#
#
#
# Elastic Constant Matrix: (Units=GPa)
#
#
# Indices 1 2 3 4 5 6 
#
# 1 99.1587 48.7526 56.1731 0.0000 -18.0165 0.0000
# 2 48.7526 135.7814 65.2448 0.0000 -4.2635 0.0000
# 3 56.1731 65.2448 151.9907 0.0000 -4.7184 0.0000
# 4 0.0000 0.0000 0.0000 58.0124 0.0000 -5.5825
# 5 -18.0165 -4.2635 -4.7184 0.0000 60.0303 0.0000
# 6 0.0000 0.0000 0.0000 -5.5825 0.0000 48.6432
#
#
#
# Elastic Compliance Matrix: (Units=1/GPa)
#
#
# Indices 1 2 3 4 5 6 
#
# 1 0.014574 -0.003252 -0.003871 0.000000 0.003839 0.000000
# 2 -0.003252 0.010012 -0.003112 0.000000 -0.000510 0.000000
# 3 -0.003871 -0.003112 0.009326 0.000000 -0.000650 0.000000
# 4 0.000000 0.000000 0.000000 0.017430 0.000000 0.002000
# 5 0.003839 -0.000510 -0.000650 0.000000 0.017723 0.000000
# 6 0.000000 0.000000 0.000000 0.002000 0.000000 0.020787
#
#
# Mechanical properties :
#
#
# Convention : Reuss Voigt Hill
#
# Bulk Modulus (GPa) = 74.39553 80.80798 77.60175
# Shear Modulus (GPa) = 43.55298 47.78789 45.67044
#
# Velocity S-wave (km/s) = 4.37341 4.58111 4.47846
# Velocity P-wave (km/s) = 7.62718 7.96679 7.79883
#
# Compressibility (1/GPa) = 0.01344167
#
# Stress axis : x y z
#
# Youngs Moduli (GPa) = 68.61369 99.88375 107.23213
#
# Poissons Ratio (x) = 0.32485 0.41511
# Poissons Ratio (y) = 0.22315 0.33365
# Poissons Ratio (z) = 0.26561 0.31079
#
# Static dielectric constant tensor:
#      x y z
#    x 4.274320 0.000000 -0.093600 
#    y 0.000000 4.280230 0.000000 
#    z -0.093600 0.000000 4.493420 
# 
# 
# High freq. dielectric constant tensor:
#      x y z
#    x 1.899010 0.000000 -0.006290 
#    y 0.000000 1.907900 0.000000 
#    z -0.006290 0.000000 1.923060 
# 
# From -- ./inp_files/47780.got.cif
#   From: 2010.03.12/outbox.cif.g09.slc.cpg/sg14_24_cif.got.tgz:47780.got - 2010.03.31 13:35:05.
