data_PCOD8129407
_publ_section_title
;
Structure prediction by ZEFSAII (Michael W. Deem and Ramdas Pophale) SiO2 
 PCOD8129407
Probable space group: P 21/C
;
_chemical_formula_sum "Si O2"
_cell_formula_units_Z 20
_cell_length_a 5.097468
_cell_length_b 27.768582
_cell_length_c 5.791949
_cell_angle_alpha 90.000000
_cell_angle_beta 101.090608
_cell_angle_gamma 90.000000
_cell_volume 804.535947
_symmetry_space_group_name_H-M "P 21/C"
_symmetry_group_IT_number 14
_symmetry_cell_setting 'monoclinic'
loop_
_space_group_symop_operation_xyz
x,y,z
-x,1/2+y,1/2-z
-x,-y,-z
x,1/2-y,1/2+z
loop_
_atom_site_type_symbol
_atom_site_label
_atom_site_fract_x
_atom_site_fract_y
_atom_site_fract_z
Si Si1 0.716450 0.491360 0.345435
Si Si2 0.261623 0.411849 0.878361
Si Si3 0.798283 0.391556 0.135207
Si Si4 0.534651 0.223367 0.157631
Si Si5 0.005252 0.665548 0.441345
O O1 0.500000 0.500000 0.500000
O O2 0.679046 0.531453 0.138949
O O3 0.682973 0.437103 0.256263
O O4 0.000000 0.500000 0.500000
O O5 0.093489 0.388117 0.642419
O O6 0.539653 0.381218 0.930713
O O7 0.079830 0.405572 0.072700
O O8 0.847721 0.342871 0.289286
O O9 0.569143 0.249084 0.413987
O O10 0.776189 0.184632 0.203993
O O11 0.239129 0.202042 0.087967
#
# Coordination Sequence:
#
# PCOD8129407 Si02
#       5
#     4   4   4   4   4
#     4  12  24  44  68 103 155 200 244 301 366 431
#     4  12  26  45  74 106 150 198 251 301 367 444
#     4  12  26  45  74 106 150 198 251 301 367 444
#     4  12  30  54  82 113 154 197 250 322 404 470
#     4  12  28  49  80 110 148 190 250 319 372 462
#
# _framework density 24.85905
#
# number of rings (size 3 to 8) (size 9 to 14) (size 15 to 20)
#    0.000    0.000    2.000    7.200   11.200    0.000 
#    0.000    0.000    0.000    0.000    0.000    0.000 
#    0.000    0.000    0.000    0.000    0.000    0.000 
#
# Total GULP energy -247887.933385 kJ/mol
# GULP energy per Si atom -12394.396669 kJ/mol
# Density = 2.480247 g / cm^3
# Si number density = 24.859050 Si / 1000 Ang^3
#
#
#
# Elastic Constant Matrix: (Units=GPa)
#
#
# Indices 1 2 3 4 5 6 
#
# 1 166.4440 18.3422 16.5196 0.0000 -6.0262 0.0000
# 2 18.3422 47.4251 13.9296 0.0000 -5.0481 0.0000
# 3 16.5196 13.9296 84.9005 0.0000 -8.7901 0.0000
# 4 0.0000 0.0000 0.0000 40.0077 0.0000 1.4508
# 5 -6.0262 -5.0481 -8.7901 0.0000 53.7973 0.0000
# 6 0.0000 0.0000 0.0000 1.4508 0.0000 48.5268
#
#
#
# Elastic Compliance Matrix: (Units=1/GPa)
#
#
# Indices 1 2 3 4 5 6 
#
# 1 0.006344 -0.002167 -0.000840 0.000000 0.000370 0.000000
# 2 -0.002167 0.023015 -0.003210 0.000000 0.001392 0.000000
# 3 -0.000840 -0.003210 0.012642 0.000000 0.001670 0.000000
# 4 0.000000 0.000000 0.000000 0.025022 0.000000 -0.000748
# 5 0.000370 0.001392 0.001670 0.000000 0.019033 0.000000
# 6 0.000000 0.000000 0.000000 -0.000748 0.000000 0.020630
#
#
# Mechanical properties :
#
#
# Convention : Reuss Voigt Hill
#
# Bulk Modulus (GPa) = 33.82421 44.03915 38.93168
# Shear Modulus (GPa) = 38.76678 45.13159 41.94918
#
# Velocity S-wave (km/s) = 3.95329 4.26549 4.11235
# Velocity P-wave (km/s) = 5.87145 6.48176 6.18414
#
# Compressibility (1/GPa) = 0.02956463
#
# Stress axis : x y z
#
# Youngs Moduli (GPa) = 157.63748 43.44953 79.10355
#
# Poissons Ratio (x) = 0.09417 0.06648
# Poissons Ratio (y) = 0.34164 0.25394
# Poissons Ratio (z) = 0.13249 0.13948
#
# Static dielectric constant tensor:
#      x y z
#    x 4.855560 0.000000 0.221120 
#    y 0.000000 4.783770 0.000000 
#    z 0.221120 0.000000 4.542450 
# 
# 
# High freq. dielectric constant tensor:
#      x y z
#    x 2.022150 0.000000 0.008840 
#    y 0.000000 1.991270 0.000000 
#    z 0.008840 0.000000 1.994900 
# 
# From -- ./inp_files/620.got.cif
#   From: 2010.03.12/outbox.cif.g09.slc.cpg/sg14_1_cif.got.tgz:620.got - 2010.03.31 13:35:05.
