data_PCOD8129262
_publ_section_title
;
Structure prediction by ZEFSAII (Michael W. Deem and Ramdas Pophale) SiO2 
 PCOD8129262
Probable space group: P 21/C
;
_chemical_formula_sum "Si O2"
_cell_formula_units_Z 32
_cell_length_a 14.645797
_cell_length_b 8.158190
_cell_length_c 12.038413
_cell_angle_alpha 90.000000
_cell_angle_beta 86.878537
_cell_angle_gamma 90.000000
_cell_volume 1436.253968
_symmetry_space_group_name_H-M "P 21/C"
_symmetry_group_IT_number 14
_symmetry_cell_setting 'monoclinic'
loop_
_space_group_symop_operation_xyz
x,y,z
-x,1/2+y,1/2-z
-x,-y,-z
x,1/2-y,1/2+z
loop_
_atom_site_type_symbol
_atom_site_label
_atom_site_fract_x
_atom_site_fract_y
_atom_site_fract_z
Si Si1 0.115820 0.329528 0.038184
Si Si2 0.550655 0.940969 0.386513
Si Si3 0.104243 0.489004 0.688109
Si Si4 0.037420 0.851747 0.629520
Si Si5 0.304769 0.533932 0.736696
Si Si6 0.314757 0.146602 0.454481
Si Si7 0.415538 0.685883 0.306809
Si Si8 0.607534 0.524492 0.501623
O O1 0.111684 0.500152 0.109831
O O2 0.205661 0.337090 0.956559
O O3 0.122822 0.153417 0.097671
O O4 0.023234 0.327042 0.974969
O O5 0.654884 0.921030 0.425400
O O6 0.506150 0.771969 0.349062
O O7 0.500000 0.000000 0.500000
O O8 0.544270 0.052829 0.279443
O O9 0.081211 0.671636 0.644743
O O10 0.195977 0.517138 0.752602
O O11 0.023053 0.413736 0.764824
O O12 0.341740 0.717807 0.738227
O O13 0.340156 0.461942 0.618327
O O14 0.348291 0.456867 0.845608
O O15 0.369355 0.313568 0.431371
O O16 0.358586 0.618251 0.417149
O O17 0.500000 0.500000 0.500000
#
# Coordination Sequence:
#
# PCOD8129262 Si02
#       8
#     4   4   4   4   4   4   4   4
#     4  11  25  49  74 110 150 192 247 299 378 450
#     4  12  27  47  73 103 143 193 243 308 372 438
#     4  12  24  48  75 110 147 194 243 302 372 457
#     4  11  25  46  79 109 150 191 241 307 379 446
#     4  12  28  48  70 109 149 190 250 310 366 452
#     4  12  27  47  75 103 151 195 245 309 375 444
#     4  12  28  45  72 103 142 189 250 304 372 438
#     4  12  27  46  73 105 143 196 248 300 369 438
#
# _framework density 22.280180999999999
#
# number of rings (size 3 to 8) (size 9 to 14) (size 15 to 20)
#    0.000    0.250    6.250    1.875    5.250    0.000 
#    2.250    0.000    0.000    0.000    0.000    0.000 
#    0.000    0.000    0.000    0.000    0.000    0.000 
#
# Total GULP energy -396479.906889 kJ/mol
# GULP energy per Si atom -12389.997090 kJ/mol
# Density = 2.222947 g / cm^3
# Si number density = 22.280181 Si / 1000 Ang^3
#
#
#
# Elastic Constant Matrix: (Units=GPa)
#
#
# Indices 1 2 3 4 5 6 
#
# 1 91.6331 33.4991 24.2317 0.0000 0.9609 0.0000
# 2 33.4991 149.3983 54.0740 0.0000 -0.3997 0.0000
# 3 24.2317 54.0740 122.9885 0.0000 0.1834 0.0000
# 4 0.0000 0.0000 0.0000 38.5918 0.0000 -0.7218
# 5 0.9609 -0.3997 0.1834 0.0000 36.8300 0.0000
# 6 0.0000 0.0000 0.0000 -0.7218 0.0000 30.4483
#
#
#
# Elastic Compliance Matrix: (Units=1/GPa)
#
#
# Indices 1 2 3 4 5 6 
#
# 1 0.012095 -0.002201 -0.001415 0.000000 -0.000332 0.000000
# 2 -0.002201 0.008361 -0.003243 0.000000 0.000164 0.000000
# 3 -0.001415 -0.003243 0.009835 0.000000 -0.000047 0.000000
# 4 0.000000 0.000000 0.000000 0.025924 0.000000 0.000615
# 5 -0.000332 0.000164 -0.000047 0.000000 0.027162 0.000000
# 6 0.000000 0.000000 0.000000 0.000615 0.000000 0.032857
#
#
# Mechanical properties :
#
#
# Convention : Reuss Voigt Hill
#
# Bulk Modulus (GPa) = 60.33247 65.29217 62.81232
# Shear Modulus (GPa) = 36.90658 37.98836 37.44747
#
# Velocity S-wave (km/s) = 4.07440 4.13368 4.10415
# Velocity P-wave (km/s) = 7.01941 7.22162 7.12123
#
# Compressibility (1/GPa) = 0.01657482
#
# Stress axis : x y z
#
# Youngs Moduli (GPa) = 82.67651 119.60089 101.67340
#
# Poissons Ratio (x) = 0.26322 0.14386
# Poissons Ratio (y) = 0.18196 0.32970
# Poissons Ratio (z) = 0.11698 0.38783
#
# Static dielectric constant tensor:
#      x y z
#    x 4.054940 0.000000 0.109160 
#    y 0.000000 4.377110 0.000000 
#    z 0.109160 0.000000 4.977570 
# 
# 
# High freq. dielectric constant tensor:
#      x y z
#    x 1.875710 0.000000 0.005070 
#    y 0.000000 1.895930 0.000000 
#    z 0.005070 0.000000 1.886890 
# 
# From -- ./inp_files/31824.got.cif
#   From: 2010.03.12/outbox.cif.g09.slc.cpg/sg14_16_cif.got.tgz:31824.got - 2010.03.31 13:35:05.
