data_PCOD8129078
_publ_section_title
;
Structure prediction by ZEFSAII (Michael W. Deem and Ramdas Pophale) SiO2 
 PCOD8129078
Probable space group: P 21/C
;
_chemical_formula_sum "Si O2"
_cell_formula_units_Z 20
_cell_length_a 8.856973
_cell_length_b 16.056833
_cell_length_c 12.286314
_cell_angle_alpha 90.000000
_cell_angle_beta 31.995219
_cell_angle_gamma 90.000000
_cell_volume 925.802883
_symmetry_space_group_name_H-M "P 21/C"
_symmetry_group_IT_number 14
_symmetry_cell_setting 'monoclinic'
loop_
_space_group_symop_operation_xyz
x,y,z
-x,1/2+y,1/2-z
-x,-y,-z
x,1/2-y,1/2+z
loop_
_atom_site_type_symbol
_atom_site_label
_atom_site_fract_x
_atom_site_fract_y
_atom_site_fract_z
Si Si1 0.800822 0.581077 0.627471
Si Si2 0.022041 0.185095 0.183633
Si Si3 0.757386 0.952630 0.788950
Si Si4 0.320895 0.038296 0.399167
Si Si5 0.618535 0.837058 0.455757
O O1 0.898489 0.651639 0.484026
O O2 0.482412 0.550463 0.793776
O O3 0.800256 0.621906 0.747373
O O4 0.000000 0.500000 0.500000
O O5 0.125653 0.121964 0.211560
O O6 0.182643 0.271147 0.105150
O O7 0.681917 0.200679 0.401829
O O8 0.663589 0.916937 0.728209
O O9 0.994909 0.023364 0.629547
O O10 0.500000 0.000000 0.000000
O O11 0.467431 0.094005 0.402118
#
# Coordination Sequence:
#
# PCOD8129078 Si02
#       5
#     4   4   4   4   4
#     4  12  24  47  77 100 136 193 244 289 355 432
#     4  12  28  46  70 107 147 189 234 301 369 422
#     4  11  24  43  71 104 139 181 240 291 351 426
#     4  11  24  44  73 102 135 184 241 291 345 428
#     4  12  29  45  71 105 149 183 242 297 365 426
#
# _framework density 21.602869999999999
#
# number of rings (size 3 to 8) (size 9 to 14) (size 15 to 20)
#    0.000    0.400    6.000    1.800    5.600    1.600 
#    0.000    0.000    0.000    0.000    0.000    0.000 
#    0.000    0.000    0.000    0.000    0.000    0.000 
#
# Total GULP energy -248080.562070 kJ/mol
# GULP energy per Si atom -12404.028103 kJ/mol
# Density = 2.155370 g / cm^3
# Si number density = 21.602870 Si / 1000 Ang^3
#
#
#
# Elastic Constant Matrix: (Units=GPa)
#
#
# Indices 1 2 3 4 5 6 
#
# 1 112.3206 42.4709 49.8821 0.0000 21.1758 0.0000
# 2 42.4709 88.3760 49.4101 0.0000 7.1819 0.0000
# 3 49.8821 49.4101 138.7805 0.0000 2.0972 0.0000
# 4 0.0000 0.0000 0.0000 31.2949 0.0000 -4.5718
# 5 21.1758 7.1819 2.0972 0.0000 47.9853 0.0000
# 6 0.0000 0.0000 0.0000 -4.5718 0.0000 57.2278
#
#
#
# Elastic Compliance Matrix: (Units=1/GPa)
#
#
# Indices 1 2 3 4 5 6 
#
# 1 0.012692 -0.003988 -0.003068 0.000000 -0.004870 0.000000
# 2 -0.003988 0.015555 -0.004099 0.000000 -0.000389 0.000000
# 3 -0.003068 -0.004099 0.009744 0.000000 0.001542 0.000000
# 4 0.000000 0.000000 0.000000 0.032331 0.000000 0.002583
# 5 -0.004870 -0.000389 0.001542 0.000000 0.022980 0.000000
# 6 0.000000 0.000000 0.000000 0.002583 0.000000 0.017680
#
#
# Mechanical properties :
#
#
# Convention : Reuss Voigt Hill
#
# Bulk Modulus (GPa) = 63.77165 69.22260 66.49712
# Shear Modulus (GPa) = 36.09580 40.48252 38.28916
#
# Velocity S-wave (km/s) = 4.09207 4.33360 4.21457
# Velocity P-wave (km/s) = 7.20492 7.55996 7.38457
#
# Compressibility (1/GPa) = 0.01568095
#
# Stress axis : x y z
#
# Youngs Moduli (GPa) = 78.79052 64.28785 102.62217
#
# Poissons Ratio (x) = 0.25639 0.31488
# Poissons Ratio (y) = 0.31422 0.42062
# Poissons Ratio (z) = 0.24176 0.26350
#
# Static dielectric constant tensor:
#      x y z
#    x 3.937890 0.000000 0.267390 
#    y 0.000000 4.190030 0.000000 
#    z 0.267390 0.000000 3.918730 
# 
# 
# High freq. dielectric constant tensor:
#      x y z
#    x 1.867650 0.000000 0.000830 
#    y 0.000000 1.827540 0.000000 
#    z 0.000830 0.000000 1.870340 
# 
# From -- ./inp_files/21135.got.cif
#   From: 2010.03.12/outbox.cif.g09.slc.cpg/sg14_11_cif.got.tgz:21135.got - 2010.03.31 13:35:05.
