data_PCOD8129409
_publ_section_title
;
Structure prediction by ZEFSAII (Michael W. Deem and Ramdas Pophale) SiO2 
 PCOD8129409
Probable space group: P 21/C
;
_chemical_formula_sum "Si O2"
_cell_formula_units_Z 32
_cell_length_a 23.487834
_cell_length_b 8.786823
_cell_length_c 14.236353
_cell_angle_alpha 90.000000
_cell_angle_beta 27.982986
_cell_angle_gamma 90.000000
_cell_volume 1378.606283
_symmetry_space_group_name_H-M "P 21/C"
_symmetry_group_IT_number 14
_symmetry_cell_setting 'monoclinic'
loop_
_space_group_symop_operation_xyz
x,y,z
-x,1/2+y,1/2-z
-x,-y,-z
x,1/2-y,1/2+z
loop_
_atom_site_type_symbol
_atom_site_label
_atom_site_fract_x
_atom_site_fract_y
_atom_site_fract_z
Si Si1 0.658388 0.633358 0.974354
Si Si2 0.323462 0.646654 0.621050
Si Si3 0.367371 0.957141 0.663091
Si Si4 0.504876 0.090149 0.820705
Si Si5 0.950936 0.134354 0.432805
Si Si6 0.291164 0.803798 0.949919
Si Si7 0.928295 0.843819 0.096118
Si Si8 0.970233 0.300156 0.217148
O O1 0.682026 0.594832 0.829623
O O2 0.789809 0.639206 0.833459
O O3 0.589262 0.791972 0.089929
O O4 0.576423 0.499276 0.135539
O O5 0.361039 0.806888 0.608290
O O6 0.425501 0.522505 0.502168
O O7 0.325572 0.644045 0.504188
O O8 0.191589 0.597970 0.850100
O O9 0.291983 0.938094 0.869936
O O10 0.500000 0.000000 0.500000
O O11 0.607411 0.180060 0.731899
O O12 0.976518 0.260801 0.317026
O O13 0.003869 0.206229 0.450101
O O14 0.020259 0.980832 0.306867
O O15 0.155746 0.737505 0.144772
O O16 0.925569 0.789286 0.991550
O O17 0.000000 0.000000 0.000000
#
# Coordination Sequence:
#
# PCOD8129409 Si02
#       8
#     4   4   4   4   4   4   4   4
#     4  12  25  44  73 108 146 192 243 300 366 438
#     4  12  25  49  76 107 147 191 244 303 366 437
#     4  12  24  48  71 106 148 194 238 298 369 433
#     4  12  24  45  71 109 146 188 242 297 364 441
#     4  12  27  50  74 107 150 194 249 307 361 440
#     4  12  25  44  76 102 148 193 236 299 372 426
#     4  12  26  47  77 108 146 193 246 307 374 432
#     4  12  27  48  73 108 146 197 250 301 367 442
#
# _framework density 23.211846999999999
#
# number of rings (size 3 to 8) (size 9 to 14) (size 15 to 20)
#    0.000    0.000    6.250    3.375    3.500    0.500 
#    0.000    0.000    0.000    0.000    0.000    0.000 
#    0.000    0.000    0.000    0.000    0.000    0.000 
#
# Total GULP energy -396796.067429 kJ/mol
# GULP energy per Si atom -12399.877107 kJ/mol
# Density = 2.315902 g / cm^3
# Si number density = 23.211847 Si / 1000 Ang^3
#
#
#
# Elastic Constant Matrix: (Units=GPa)
#
#
# Indices 1 2 3 4 5 6 
#
# 1 67.5111 23.4730 43.0479 0.0000 0.4757 0.0000
# 2 23.4730 103.0074 60.2290 0.0000 -7.7964 0.0000
# 3 43.0479 60.2290 141.5265 0.0000 -13.7344 0.0000
# 4 0.0000 0.0000 0.0000 33.3759 0.0000 -1.4667
# 5 0.4757 -7.7964 -13.7344 0.0000 53.8866 0.0000
# 6 0.0000 0.0000 0.0000 -1.4667 0.0000 34.2053
#
#
#
# Elastic Compliance Matrix: (Units=1/GPa)
#
#
# Indices 1 2 3 4 5 6 
#
# 1 0.018643 -0.001284 -0.005289 0.000000 -0.001698 0.000000
# 2 -0.001284 0.013025 -0.005094 0.000000 0.000597 0.000000
# 3 -0.005289 -0.005094 0.011049 0.000000 0.002126 0.000000
# 4 0.000000 0.000000 0.000000 0.030018 0.000000 0.001287
# 5 -0.001698 0.000597 0.002126 0.000000 0.019201 0.000000
# 6 0.000000 0.000000 0.000000 0.001287 0.000000 0.029290
#
#
# Mechanical properties :
#
#
# Convention : Reuss Voigt Hill
#
# Bulk Modulus (GPa) = 51.59543 62.83829 57.21686
# Shear Modulus (GPa) = 33.10785 36.64659 34.87722
#
# Velocity S-wave (km/s) = 3.78078 3.97771 3.88049
# Velocity P-wave (km/s) = 6.42926 6.94454 6.69186
#
# Compressibility (1/GPa) = 0.01938156
#
# Stress axis : x y z
#
# Youngs Moduli (GPa) = 53.63834 76.77825 90.50827
#
# Poissons Ratio (x) = 0.09862 0.47869
# Poissons Ratio (y) = 0.06890 0.46106
# Poissons Ratio (z) = 0.28369 0.39112
#
# Static dielectric constant tensor:
#      x y z
#    x 4.275500 0.000000 0.067610 
#    y 0.000000 4.191760 0.000000 
#    z 0.067610 0.000000 4.587030 
# 
# 
# High freq. dielectric constant tensor:
#      x y z
#    x 1.909420 0.000000 -0.004690 
#    y 0.000000 1.916750 0.000000 
#    z -0.004690 0.000000 1.936610 
# 
# From -- ./inp_files/51257.got.cif
#   From: 2010.03.12/outbox.cif.g09.slc.cpg/sg14_26_cif.got.tgz:51257.got - 2010.03.31 13:35:05.
