data_PCOD8129929
_publ_section_title
;
Structure prediction by ZEFSAII (Michael W. Deem and Ramdas Pophale) SiO2 
 PCOD8129929
Probable space group: C 2/C
;
_chemical_formula_sum "Si O2"
_cell_formula_units_Z 44
_cell_length_a 21.087060
_cell_length_b 7.986619
_cell_length_c 12.806563
_cell_angle_alpha 90.000000
_cell_angle_beta 77.518423
_cell_angle_gamma 90.000000
_cell_volume 2105.833542
_symmetry_space_group_name_H-M "C 2/C"
_symmetry_group_IT_number 15
_symmetry_cell_setting 'monoclinic'
loop_
_space_group_symop_operation_xyz
x,y,z
-x,y,1/2-z
-x,-y,-z
x,-y,1/2+z
1/2+x,1/2+y,z
1/2-x,1/2+y,1/2-z
1/2-x,1/2-y,-z
1/2+x,1/2-y,1/2+z
loop_
_atom_site_type_symbol
_atom_site_label
_atom_site_fract_x
_atom_site_fract_y
_atom_site_fract_z
Si Si1 0.906362 0.097041 0.802211
Si Si2 0.500000 0.129616 0.250000
Si Si3 0.900421 0.586704 0.894647
Si Si4 0.120702 0.213096 0.301414
Si Si5 0.483362 0.370548 0.916944
Si Si6 0.676398 0.214600 0.999255
O O1 0.941096 0.250823 0.727747
O O2 0.865254 0.159348 0.915556
O O3 0.864661 0.980617 0.738272
O O4 0.962976 0.976564 0.823996
O O5 0.533367 0.019992 0.148092
O O6 0.869684 0.657011 0.797490
O O7 0.924476 0.738903 0.961242
O O8 0.844913 0.477094 0.969921
O O9 0.169083 0.253833 0.378561
O O10 0.047342 0.235698 0.367936
O O11 0.500000 0.500000 0.000000
O O12 0.750000 0.250000 0.000000
#
# Coordination Sequence:
#
# PCOD8129929 Si02
#       6
#     8   4   8   8   8   8
#     4  10  20  36  63  91 122 163 205 260 325 391
#     4  10  16  32  60  94 128 148 198 266 328 388
#     4  10  22  39  62  98 132 163 212 272 330 396
#     4  11  21  41  64  90 132 162 209 272 330 388
#     4  11  19  36  64  98 128 161 202 262 349 391
#     4  11  26  43  60  90 129 173 227 259 311 393
#
# _framework density 20.89434
#
# number of rings (size 3 to 8) (size 9 to 14) (size 15 to 20)
#    0.000    1.455    5.455    1.091    0.000    3.636 
#    0.000    3.636    0.000    0.000    0.000    0.000 
#    0.000    0.000    0.000    0.000    0.000    0.000 
#
# Total GULP energy -272562.270522 kJ/mol
# GULP energy per Si atom -12389.194115 kJ/mol
# Density = 2.084678 g / cm^3
# Si number density = 20.894340 Si / 1000 Ang^3
#
#
#
# Elastic Constant Matrix: (Units=GPa)
#
#
# Indices 1 2 3 4 5 6 
#
# 1 96.3239 48.3348 37.3916 0.0000 20.9943 0.0000
# 2 48.3348 137.3184 57.4188 0.0000 15.3242 0.0000
# 3 37.3916 57.4188 87.4755 0.0000 25.0282 0.0000
# 4 0.0000 0.0000 0.0000 41.6841 0.0000 3.6722
# 5 20.9943 15.3242 25.0282 0.0000 30.0346 0.0000
# 6 0.0000 0.0000 0.0000 3.6722 0.0000 22.7862
#
#
#
# Elastic Compliance Matrix: (Units=1/GPa)
#
#
# Indices 1 2 3 4 5 6 
#
# 1 0.014330 -0.003495 -0.001937 0.000000 -0.006619 0.000000
# 2 -0.003495 0.010895 -0.006258 0.000000 0.002099 0.000000
# 3 -0.001937 -0.006258 0.019784 0.000000 -0.011939 0.000000
# 4 0.000000 0.000000 0.000000 0.024335 0.000000 -0.003922
# 5 -0.006619 0.002099 -0.011939 0.000000 0.046799 0.000000
# 6 0.000000 0.000000 0.000000 -0.003922 0.000000 0.044518
#
#
# Mechanical properties :
#
#
# Convention : Reuss Voigt Hill
#
# Bulk Modulus (GPa) = 46.23758 67.48979 56.86369
# Shear Modulus (GPa) = 26.14338 30.76581 28.45460
#
# Velocity S-wave (km/s) = 3.54109 3.84141 3.69431
# Velocity P-wave (km/s) = 6.23670 7.21428 6.74323
#
# Compressibility (1/GPa) = 0.02162743
#
# Stress axis : x y z
#
# Youngs Moduli (GPa) = 69.78210 91.78335 50.54701
#
# Poissons Ratio (x) = 0.32082 0.09792
# Poissons Ratio (y) = 0.24392 0.31633
# Poissons Ratio (z) = 0.13519 0.57439
#
# Static dielectric constant tensor:
#      x y z
#    x -2.161780 0.000000 -6.876380 
#    y 0.000000 4.182770 0.000000 
#    z -6.876380 0.000000 -4.677710 
# 
# 
# High freq. dielectric constant tensor:
#      x y z
#    x 1.776990 0.000000 0.004050 
#    y 0.000000 1.840580 0.000000 
#    z 0.004050 0.000000 1.803490 
# 
# From -- ./inp_files/110037.got.cif
#   From: 2010.06.25/outbox.cif.g09.slc.cpg/sg15_56_cif.got.tgz:110037.got - 2010.06.28 07:06:18.
