data_PCOD8129530
_publ_section_title
;
Structure prediction by ZEFSAII (Michael W. Deem and Ramdas Pophale) SiO2 
 PCOD8129530
Probable space group: P 21/C
;
_chemical_formula_sum "Si O2"
_cell_formula_units_Z 28
_cell_length_a 9.000000
_cell_length_b 12.000000
_cell_length_c 27.000000
_cell_angle_alpha 90.000000
_cell_angle_beta 150.000000
_cell_angle_gamma 90.000000
_cell_volume 1458.000000
_symmetry_space_group_name_H-M "P 21/C"
_symmetry_group_IT_number 14
_symmetry_cell_setting 'monoclinic'
loop_
_space_group_symop_operation_xyz
x,y,z
-x,1/2+y,1/2-z
-x,-y,-z
x,1/2-y,1/2+z
loop_
_atom_site_type_symbol
_atom_site_label
_atom_site_fract_x
_atom_site_fract_y
_atom_site_fract_z
Si Si1 0.612256 0.123867 0.519648
Si Si2 0.727938 0.843471 0.329355
Si Si3 0.289208 0.145402 0.096649
Si Si4 0.324341 0.794585 0.356721
Si Si5 0.364041 0.004369 0.610713
Si Si6 0.355153 0.280105 0.849028
Si Si7 0.660787 0.110221 0.874962
O O1 0.594993 0.203642 0.562137
O O2 0.397765 0.181225 0.417687
O O3 0.947435 0.119207 0.595524
O O4 0.500000 0.000000 0.500000
O O5 0.754966 0.728538 0.369025
O O6 0.499994 0.828449 0.217805
O O7 0.588770 0.944647 0.321171
O O8 0.537463 0.191459 0.131989
O O9 0.394870 0.022810 0.144742
O O10 0.009558 0.134959 0.978956
O O11 0.977015 0.765235 0.253660
O O12 0.454963 0.912124 0.373662
O O13 0.521852 0.883091 0.650352
O O14 0.000000 0.000000 0.500000
O O15 0.538704 0.168147 0.889699
#
# Coordination Sequence:
#
# PCOD8129530 Si02
#       7
#     4   4   4   4   4   4   4
#     4  12  23  42  69 101 131 177 228 282 336 400
#     4  11  23  42  70  97 126 180 234 260 343 407
#     4  10  25  47  63  97 138 174 222 278 337 419
#     4  11  25  41  67 102 134 169 223 280 347 389
#     4  11  22  45  68  97 135 176 230 284 326 406
#     4  12  24  40  70 101 138 166 224 289 337 393
#     4  11  24  43  70  92 137 180 217 275 344 404
#
# _framework density 19.20439
#
# number of rings (size 3 to 8) (size 9 to 14) (size 15 to 20)
#    0.000    0.857    5.714    0.857    6.000    2.286 
#    0.000    0.714    0.000    0.000    0.000    0.000 
#    0.000    0.000    0.000    0.000    0.000    0.000 
#
# Total GULP energy -346891.153593 kJ/mol
# GULP energy per Si atom -12388.969771 kJ/mol
# Density = 1.916068 g / cm^3
# Si number density = 19.204390 Si / 1000 Ang^3
#
#
#
# Elastic Constant Matrix: (Units=GPa)
#
#
# Indices 1 2 3 4 5 6 
#
# 1 105.4010 51.8129 23.9998 0.0000 -2.3810 0.0000
# 2 51.8129 142.8279 47.6500 0.0000 5.4377 0.0000
# 3 23.9998 47.6500 94.4692 0.0000 -7.1597 0.0000
# 4 0.0000 0.0000 0.0000 36.7732 0.0000 5.5479
# 5 -2.3810 5.4377 -7.1597 0.0000 47.7050 0.0000
# 6 0.0000 0.0000 0.0000 5.5479 0.0000 42.6596
#
#
#
# Elastic Compliance Matrix: (Units=1/GPa)
#
#
# Indices 1 2 3 4 5 6 
#
# 1 0.011661 -0.003966 -0.000894 0.000000 0.000900 0.000000
# 2 -0.003966 0.009892 -0.004129 0.000000 -0.001945 0.000000
# 3 -0.000894 -0.004129 0.013076 0.000000 0.002389 0.000000
# 4 0.000000 0.000000 0.000000 0.027738 0.000000 -0.003607
# 5 0.000900 -0.001945 0.002389 0.000000 0.021587 0.000000
# 6 0.000000 0.000000 0.000000 -0.003607 0.000000 0.023911
#
#
# Mechanical properties :
#
#
# Convention : Reuss Voigt Hill
#
# Bulk Modulus (GPa) = 60.05701 65.51372 62.78537
# Shear Modulus (GPa) = 38.05347 40.04325 39.04836
#
# Velocity S-wave (km/s) = 4.45623 4.57125 4.51411
# Velocity P-wave (km/s) = 7.60380 7.87717 7.74169
#
# Compressibility (1/GPa) = 0.01665084
#
# Stress axis : x y z
#
# Youngs Moduli (GPa) = 85.75460 101.09240 76.47429
#
# Poissons Ratio (x) = 0.40097 0.06834
# Poissons Ratio (y) = 0.34014 0.31578
# Poissons Ratio (z) = 0.07664 0.41743
#
# Static dielectric constant tensor:
#      x y z
#    x 3.855140 0.000000 0.022280 
#    y 0.000000 3.873460 0.000000 
#    z 0.022280 0.000000 3.709980 
# 
# 
# High freq. dielectric constant tensor:
#      x y z
#    x 1.767980 0.000000 0.006220 
#    y 0.000000 1.769900 0.000000 
#    z 0.006220 0.000000 1.759700 
# 
# From -- ./inp_files/76666.got.cif
#   From: 2010.03.12/outbox.ucp.g09.slc.cvg/sg14_39_cif.got.tgz:76666.got - 2010.05.04 20:10:03.
