data_PCOD8129341
_publ_section_title
;
Structure prediction by ZEFSAII (Michael W. Deem and Ramdas Pophale) SiO2 
 PCOD8129341
Probable space group: P 21/C
;
_chemical_formula_sum "Si O2"
_cell_formula_units_Z 24
_cell_length_a 25.051709
_cell_length_b 11.292732
_cell_length_c 11.588246
_cell_angle_alpha 90.000000
_cell_angle_beta 157.690656
_cell_angle_gamma 90.000000
_cell_volume 1244.481214
_symmetry_space_group_name_H-M "P 21/C"
_symmetry_group_IT_number 14
_symmetry_cell_setting 'monoclinic'
loop_
_space_group_symop_operation_xyz
x,y,z
-x,1/2+y,1/2-z
-x,-y,-z
x,1/2-y,1/2+z
loop_
_atom_site_type_symbol
_atom_site_label
_atom_site_fract_x
_atom_site_fract_y
_atom_site_fract_z
Si Si1 0.249995 0.909370 0.991967
Si Si2 0.946670 0.183092 0.583768
Si Si3 0.750003 0.900034 0.817450
Si Si4 0.749999 0.107930 0.640271
Si Si5 0.749997 0.162145 0.388928
Si Si6 0.446667 0.683081 0.702909
O O1 0.111410 0.902038 0.634124
O O2 0.250005 0.801522 0.081735
O O3 0.388581 0.902052 0.188466
O O4 0.249978 0.031191 0.061446
O O5 0.889171 0.316064 0.449012
O O6 0.889241 0.134817 0.591679
O O7 0.114759 0.184399 0.919136
O O8 0.614755 0.815608 0.539913
O O9 0.749991 0.986168 0.707916
O O10 0.750000 0.080794 0.502998
O O11 0.610835 0.183948 0.392334
O O12 0.610756 0.134809 0.034709
#
# Coordination Sequence:
#
# PCOD8129341 Si02
#       6
#     4   4   4   4   4   4
#     4   9  17  36  57  72 108 140 165 218 266 294
#     4   9  19  33  55  80 102 135 177 214 246 325
#     4  12  19  32  58  82 101 138 175 211 269 294
#     4   9  20  38  56  68 111 147 159 221 262 301
#     4   8  16  38  53  70 110 143 163 204 271 303
#     4   9  19  33  55  80 102 135 177 214 246 325
#
# _framework density 19.285143999999999
#
# number of rings (size 3 to 8) (size 9 to 14) (size 15 to 20)
#    0.000    3.333    3.333    1.000    0.000    1.333 
#    0.000   11.667    0.000    0.000    0.000    0.000 
#    0.000    0.000    0.000    0.000    0.000    0.000 
#
# Total GULP energy -297482.918960 kJ/mol
# GULP energy per Si atom -12395.121623 kJ/mol
# Density = 1.924125 g / cm^3
# Si number density = 19.285144 Si / 1000 Ang^3
#
#
#
# Elastic Constant Matrix: (Units=GPa)
#
#
# Indices 1 2 3 4 5 6 
#
# 1 114.8157 20.3252 72.0716 0.0000 -10.2953 0.0000
# 2 20.3252 41.4586 31.9948 0.0000 6.5330 0.0000
# 3 72.0716 31.9948 156.1249 0.0000 33.4286 0.0000
# 4 0.0000 0.0000 0.0000 14.5978 0.0000 -4.5008
# 5 -10.2953 6.5330 33.4286 0.0000 36.6428 0.0000
# 6 0.0000 0.0000 0.0000 -4.5008 0.0000 22.6412
#
#
#
# Elastic Compliance Matrix: (Units=1/GPa)
#
#
# Indices 1 2 3 4 5 6 
#
# 1 0.017153 -0.002594 -0.010585 0.000000 0.014939 0.000000
# 2 -0.002594 0.029047 -0.004337 0.000000 -0.001951 0.000000
# 3 -0.010585 -0.004337 0.015723 0.000000 -0.016544 0.000000
# 4 0.000000 0.000000 0.000000 0.072976 0.000000 0.014507
# 5 0.014939 -0.001951 -0.016544 0.000000 0.046929 0.000000
# 6 0.000000 0.000000 0.000000 0.014507 0.000000 0.047051
#
#
# Mechanical properties :
#
#
# Convention : Reuss Voigt Hill
#
# Bulk Modulus (GPa) = 37.18990 62.35361 49.77175
# Shear Modulus (GPa) = 18.32339 27.31018 22.81679
#
# Velocity S-wave (km/s) = 3.08576 3.76723 3.44339
# Velocity P-wave (km/s) = 5.65880 7.16417 6.45551
#
# Compressibility (1/GPa) = 0.02688902
#
# Stress axis : x y z
#
# Youngs Moduli (GPa) = 58.29938 34.42697 63.60213
#
# Poissons Ratio (x) = 0.08932 0.67324
# Poissons Ratio (y) = 0.15125 0.27586
# Poissons Ratio (z) = 0.61711 0.14932
#
# Static dielectric constant tensor:
#      x y z
#    x 3.789180 0.000000 -0.201590 
#    y 0.000000 2.914740 0.000000 
#    z -0.201590 0.000000 3.428860 
# 
# 
# High freq. dielectric constant tensor:
#      x y z
#    x 1.769360 0.000000 -0.014330 
#    y 0.000000 1.698790 0.000000 
#    z -0.014330 0.000000 1.743740 
# 
# From -- ./inp_files/36255.got.cif
#   From: 2010.03.12/outbox.cif.g09.slc.cpg/sg14_19_cif.got.tgz:36255.got - 2010.03.31 13:35:05.
