data_PCOD8129500
_publ_section_title
;
Structure prediction by ZEFSAII (Michael W. Deem and Ramdas Pophale) SiO2 
 PCOD8129500
Probable space group: P 21/C
;
_chemical_formula_sum "Si O2"
_cell_formula_units_Z 16
_cell_length_a 9.007998
_cell_length_b 5.226527
_cell_length_c 26.272790
_cell_angle_alpha 90.000000
_cell_angle_beta 149.166699
_cell_angle_gamma 90.000000
_cell_volume 633.982320
_symmetry_space_group_name_H-M "P 21/C"
_symmetry_group_IT_number 14
_symmetry_cell_setting 'monoclinic'
loop_
_space_group_symop_operation_xyz
x,y,z
-x,1/2+y,1/2-z
-x,-y,-z
x,1/2-y,1/2+z
loop_
_atom_site_type_symbol
_atom_site_label
_atom_site_fract_x
_atom_site_fract_y
_atom_site_fract_z
Si Si1 0.313564 0.933054 0.071209
Si Si2 0.396957 0.122117 0.744457
Si Si3 0.239604 0.671591 0.942405
Si Si4 0.834348 0.168673 0.184680
O O1 0.488582 0.781794 0.166769
O O2 0.512916 0.179517 0.115754
O O3 0.305760 0.768322 0.017968
O O4 0.000000 0.000000 0.000000
O O5 0.411784 0.374808 0.713807
O O6 0.066584 0.020812 0.645991
O O7 0.198028 0.887000 0.885827
O O8 0.500000 0.500000 0.000000
O O9 0.979887 0.442264 0.236096
#
# Coordination Sequence:
#
# PCOD8129500 Si02
#       4
#     4   4   4   4
#     4  12  28  50  83 117 162 213 270 333 409 487
#     4  12  30  52  80 119 164 207 267 338 404 481
#     4  12  29  51  84 120 163 212 275 335 408 487
#     4  12  28  52  81 116 161 210 265 333 402 477
#
# _framework density 25.237297000000002
#
# number of rings (size 3 to 8) (size 9 to 14) (size 15 to 20)
#    0.000    0.000    5.000    2.250    7.000    1.000 
#    0.000    0.000    0.000    0.000    0.000    0.000 
#    0.000    0.000    0.000    0.000    0.000    0.000 
#
# Total GULP energy -198289.174368 kJ/mol
# GULP energy per Si atom -12393.073398 kJ/mol
# Density = 2.517986 g / cm^3
# Si number density = 25.237297 Si / 1000 Ang^3
#
#
#
# Elastic Constant Matrix: (Units=GPa)
#
#
# Indices 1 2 3 4 5 6 
#
# 1 183.6223 55.7988 93.2905 0.0000 2.2321 0.0000
# 2 55.7988 100.9713 46.3815 0.0000 3.0925 0.0000
# 3 93.2905 46.3815 189.1619 0.0001 -0.7982 0.0000
# 4 0.0000 0.0000 0.0001 18.6752 0.0000 -1.3020
# 5 2.2321 3.0925 -0.7982 0.0000 74.9759 0.0000
# 6 0.0000 0.0000 0.0000 -1.3020 0.0000 40.4735
#
#
#
# Elastic Compliance Matrix: (Units=1/GPa)
#
#
# Indices 1 2 3 4 5 6 
#
# 1 0.007969 -0.002923 -0.003214 0.000000 -0.000151 0.000000
# 2 -0.002923 0.012251 -0.001564 0.000000 -0.000435 0.000000
# 3 -0.003214 -0.001564 0.007256 0.000000 0.000237 0.000000
# 4 0.000000 0.000000 0.000000 0.053667 0.000000 0.001726
# 5 -0.000151 -0.000435 0.000237 0.000000 0.013363 0.000000
# 6 0.000000 0.000000 0.000000 0.001726 0.000000 0.024763
#
#
# Mechanical properties :
#
#
# Convention : Reuss Voigt Hill
#
# Bulk Modulus (GPa) = 82.82447 96.07746 89.45097
# Shear Modulus (GPa) = 36.05017 45.37723 40.71370
#
# Velocity S-wave (km/s) = 3.78358 4.24491 4.02087
# Velocity P-wave (km/s) = 7.20950 7.88530 7.55496
#
# Compressibility (1/GPa) = 0.01207373
#
# Stress axis : x y z
#
# Youngs Moduli (GPa) = 125.48794 81.62708 137.81443
#
# Poissons Ratio (x) = 0.23858 0.44295
# Poissons Ratio (y) = 0.36677 0.21557
# Poissons Ratio (z) = 0.40333 0.12768
#
# Static dielectric constant tensor:
#      x y z
#    x 5.675830 0.000000 -0.078170 
#    y 0.000000 4.228410 0.000000 
#    z -0.078170 0.000000 5.246620 
# 
# 
# High freq. dielectric constant tensor:
#      x y z
#    x 2.041910 0.000000 -0.001700 
#    y 0.000000 1.958210 0.000000 
#    z -0.001700 0.000000 2.045240 
# 
# From -- ./inp_files/38425.got.cif
#   From: 2010.03.12/outbox.cif.g09.slc.cpg/sg14_20_cif.got.tgz:38425.got - 2010.03.31 13:35:05.
