data_PCOD8129377
_publ_section_title
;
Structure prediction by ZEFSAII (Michael W. Deem and Ramdas Pophale) SiO2 
 PCOD8129377
Probable space group: P 21/C
;
_chemical_formula_sum "Si O2"
_cell_formula_units_Z 28
_cell_length_a 14.988094
_cell_length_b 14.873887
_cell_length_c 9.007843
_cell_angle_alpha 90.000000
_cell_angle_beta 37.606561
_cell_angle_gamma 90.000000
_cell_volume 1225.432622
_symmetry_space_group_name_H-M "P 21/C"
_symmetry_group_IT_number 14
_symmetry_cell_setting 'monoclinic'
loop_
_space_group_symop_operation_xyz
x,y,z
-x,1/2+y,1/2-z
-x,-y,-z
x,1/2-y,1/2+z
loop_
_atom_site_type_symbol
_atom_site_label
_atom_site_fract_x
_atom_site_fract_y
_atom_site_fract_z
Si Si1 0.781396 0.642476 0.986485
Si Si2 0.176520 0.315375 0.747110
Si Si3 0.156750 0.833648 0.317805
Si Si4 0.251795 0.677832 0.026450
Si Si5 0.747433 0.001832 0.975048
Si Si6 0.924109 0.425341 0.504879
Si Si7 0.444763 0.511402 0.739804
O O1 0.750494 0.727488 0.921896
O O2 0.953452 0.618988 0.761389
O O3 0.736997 0.666612 0.213482
O O4 0.687452 0.557394 0.053346
O O5 0.196640 0.400059 0.612117
O O6 0.006070 0.300520 0.004335
O O7 0.275666 0.779826 0.056382
O O8 0.182145 0.817166 0.456936
O O9 0.177455 0.939068 0.254547
O O10 0.135616 0.645891 0.301027
O O11 0.393701 0.614299 0.835133
O O12 0.792539 0.036934 0.077580
O O13 0.572717 0.007876 0.188302
O O14 0.000000 0.500000 0.500000
O O15 0.500000 0.500000 0.500000
#
# Coordination Sequence:
#
# PCOD8129377 Si02
#       7
#     4   4   4   4   4   4   4
#     4  12  26  46  75 108 147 186 245 305 365 431
#     4  12  25  43  75 110 142 189 247 308 364 425
#     4  12  23  43  74 111 143 191 250 308 365 429
#     4  12  25  44  74 106 151 186 246 305 366 434
#     4  12  27  47  75 104 151 197 242 295 374 437
#     4  12  25  46  75 109 139 188 248 312 359 427
#     4  12  26  52  70 106 153 199 236 297 368 447
#
# _framework density 22.849074000000002
#
# number of rings (size 3 to 8) (size 9 to 14) (size 15 to 20)
#    0.000    0.000    7.143    3.000    2.000    1.714 
#    0.000    0.000    0.000    0.000    0.000    0.000 
#    0.000    0.000    0.000    0.000    0.000    0.000 
#
# Total GULP energy -347284.456032 kJ/mol
# GULP energy per Si atom -12403.016287 kJ/mol
# Density = 2.279707 g / cm^3
# Si number density = 22.849074 Si / 1000 Ang^3
#
#
#
# Elastic Constant Matrix: (Units=GPa)
#
#
# Indices 1 2 3 4 5 6 
#
# 1 150.1874 29.4093 31.9345 0.0000 5.1672 0.0000
# 2 29.4093 107.0159 27.8688 0.0000 -1.8229 0.0000
# 3 31.9345 27.8688 74.4089 0.0000 -1.6846 0.0000
# 4 0.0000 0.0000 0.0000 52.9951 0.0000 9.3641
# 5 5.1672 -1.8229 -1.6846 0.0000 39.1872 0.0000
# 6 0.0000 0.0000 0.0000 9.3641 0.0000 29.5474
#
#
#
# Elastic Compliance Matrix: (Units=1/GPa)
#
#
# Indices 1 2 3 4 5 6 
#
# 1 0.007554 -0.001379 -0.002752 0.000000 -0.001179 0.000000
# 2 -0.001379 0.010610 -0.003370 0.000000 0.000531 0.000000
# 3 -0.002752 -0.003370 0.015903 0.000000 0.000890 0.000000
# 4 0.000000 0.000000 0.000000 0.019989 0.000000 -0.006335
# 5 -0.001179 0.000531 0.000890 0.000000 0.025737 0.000000
# 6 0.000000 0.000000 0.000000 -0.006335 0.000000 0.035851
#
#
# Mechanical properties :
#
#
# Convention : Reuss Voigt Hill
#
# Bulk Modulus (GPa) = 52.45423 56.67083 54.56253
# Shear Modulus (GPa) = 36.49588 40.50592 38.50090
#
# Velocity S-wave (km/s) = 4.00091 4.21498 4.10934
# Velocity P-wave (km/s) = 6.65956 6.96737 6.81520
#
# Compressibility (1/GPa) = 0.01906424
#
# Stress axis : x y z
#
# Youngs Moduli (GPa) = 132.37691 94.25005 62.88253
#
# Poissons Ratio (x) = 0.13000 0.17306
# Poissons Ratio (y) = 0.18260 0.21190
# Poissons Ratio (z) = 0.36432 0.31761
#
# Static dielectric constant tensor:
#      x y z
#    x 4.052790 0.000000 -0.020330 
#    y 0.000000 4.308960 0.000000 
#    z -0.020330 0.000000 4.086180 
# 
# 
# High freq. dielectric constant tensor:
#      x y z
#    x 1.900360 0.000000 0.012470 
#    y 0.000000 1.922010 0.000000 
#    z 0.012470 0.000000 1.890520 
# 
# From -- ./inp_files/16397.got.cif
#   From: 2010.03.12/outbox.cif.g09.slc.cpg/sg14_9_cif.got.tgz:16397.got - 2010.03.31 13:35:05.
