data_PCOD8129083
_publ_section_title
;
Structure prediction by ZEFSAII (Michael W. Deem and Ramdas Pophale) SiO2 
 PCOD8129083
Probable space group: P 21/C
;
_chemical_formula_sum "Si O2"
_cell_formula_units_Z 32
_cell_length_a 6.405600
_cell_length_b 18.759574
_cell_length_c 12.001448
_cell_angle_alpha 90.000000
_cell_angle_beta 99.193492
_cell_angle_gamma 90.000000
_cell_volume 1423.644417
_symmetry_space_group_name_H-M "P 21/C"
_symmetry_group_IT_number 14
_symmetry_cell_setting 'monoclinic'
loop_
_space_group_symop_operation_xyz
x,y,z
-x,1/2+y,1/2-z
-x,-y,-z
x,1/2-y,1/2+z
loop_
_atom_site_type_symbol
_atom_site_label
_atom_site_fract_x
_atom_site_fract_y
_atom_site_fract_z
Si Si1 0.611022 0.573358 0.006471
Si Si2 0.843047 0.709629 0.794827
Si Si3 0.215670 0.443095 0.214099
Si Si4 0.469391 0.462676 0.616190
Si Si5 0.896452 0.317923 0.794941
Si Si6 0.878487 0.951156 0.742115
Si Si7 0.519454 0.204230 0.118917
Si Si8 0.755000 0.315192 0.025062
O O1 0.727318 0.584299 0.134764
O O2 0.431930 0.630426 0.963983
O O3 0.500000 0.500000 0.000000
O O4 0.772018 0.569694 0.917334
O O5 0.746799 0.636842 0.732110
O O6 0.694319 0.752678 0.868893
O O7 0.907191 0.763351 0.701479
O O8 0.057868 0.682561 0.870463
O O9 0.378472 0.499940 0.280209
O O10 0.981140 0.474061 0.214183
O O11 0.500000 0.500000 0.500000
O O12 0.236336 0.468171 0.650705
O O13 0.496403 0.379207 0.596531
O O14 0.676458 0.283962 0.736374
O O15 0.868866 0.335205 0.920899
O O16 0.942400 0.390117 0.727247
O O17 0.635936 0.238151 0.020263
#
# Coordination Sequence:
#
# PCOD8129083 Si02
#       8
#     4   4   4   4   4   4   4   4
#     4  12  22  41  72 105 147 176 225 308 379 433
#     4  11  25  43  71 102 144 181 240 296 362 426
#     4  12  25  45  69 110 140 187 239 303 370 435
#     4  12  28  47  70 100 144 203 250 293 353 430
#     4  11  24  43  73 100 136 189 235 294 362 435
#     4  12  24  45  74 102 150 186 240 299 374 435
#     4  11  24  49  66  97 144 189 241 294 352 433
#     4  11  25  42  70 107 139 181 237 295 372 436
#
# _framework density 22.477523999999999
#
# number of rings (size 3 to 8) (size 9 to 14) (size 15 to 20)
#    0.000    0.500    5.000    3.375    0.000    3.500 
#    0.000    0.000    0.000    0.000    0.000    0.000 
#    0.000    0.000    0.000    0.000    0.000    0.000 
#
# Total GULP energy -396539.532395 kJ/mol
# GULP energy per Si atom -12391.860387 kJ/mol
# Density = 2.242636 g / cm^3
# Si number density = 22.477524 Si / 1000 Ang^3
#
#
#
# Elastic Constant Matrix: (Units=GPa)
#
#
# Indices 1 2 3 4 5 6 
#
# 1 103.5963 52.5853 39.6067 0.0000 -23.2747 0.0000
# 2 52.5853 177.4442 26.0335 0.0000 -21.6505 0.0000
# 3 39.6067 26.0335 89.0099 0.0000 -27.7967 0.0000
# 4 0.0000 0.0000 0.0000 32.6368 0.0000 -8.5715
# 5 -23.2747 -21.6505 -27.7967 0.0000 43.7604 0.0000
# 6 0.0000 0.0000 0.0000 -8.5715 0.0000 52.9980
#
#
#
# Elastic Compliance Matrix: (Units=1/GPa)
#
#
# Indices 1 2 3 4 5 6 
#
# 1 0.013449 -0.003006 -0.004161 0.000000 0.003022 0.000000
# 2 -0.003006 0.006747 -0.000115 0.000000 0.001666 0.000000
# 3 -0.004161 -0.000115 0.015482 0.000000 0.007564 0.000000
# 4 0.000000 0.000000 0.000000 0.031999 0.000000 0.005175
# 5 0.003022 0.001666 0.007564 0.000000 0.030088 0.000000
# 6 0.000000 0.000000 0.000000 0.005175 0.000000 0.019706
#
#
# Mechanical properties :
#
#
# Convention : Reuss Voigt Hill
#
# Bulk Modulus (GPa) = 47.36640 67.38905 57.37773
# Shear Modulus (GPa) = 35.95219 42.66738 39.30979
#
# Velocity S-wave (km/s) = 4.00368 4.36159 4.18646
# Velocity P-wave (km/s) = 6.51852 7.44381 6.99648
#
# Compressibility (1/GPa) = 0.02111201
#
# Stress axis : x y z
#
# Youngs Moduli (GPa) = 74.35638 148.22201 64.59035
#
# Poissons Ratio (x) = 0.44559 0.26877
# Poissons Ratio (y) = 0.22353 0.00745
# Poissons Ratio (z) = 0.30941 0.01710
#
# Static dielectric constant tensor:
#      x y z
#    x 4.263890 0.000000 -0.298900 
#    y 0.000000 4.446980 0.000000 
#    z -0.298900 0.000000 3.497340 
# 
# 
# High freq. dielectric constant tensor:
#      x y z
#    x 1.902310 0.000000 -0.015830 
#    y 0.000000 1.909360 0.000000 
#    z -0.015830 0.000000 1.855260 
# 
# From -- ./inp_files/21802.got.cif
#   From: 2010.03.12/outbox.cif.g09.slc.cpg/sg14_11_cif.got.tgz:21802.got - 2010.03.31 13:35:05.
