data_PCOD8129463
_publ_section_title
;
Structure prediction by ZEFSAII (Michael W. Deem and Ramdas Pophale) SiO2 
 PCOD8129463
Probable space group: P 21/C
;
_chemical_formula_sum "Si O2"
_cell_formula_units_Z 20
_cell_length_a 23.518887
_cell_length_b 7.790144
_cell_length_c 10.195135
_cell_angle_alpha 90.000000
_cell_angle_beta 27.509916
_cell_angle_gamma 90.000000
_cell_volume 862.790165
_symmetry_space_group_name_H-M "P 21/C"
_symmetry_group_IT_number 14
_symmetry_cell_setting 'monoclinic'
loop_
_space_group_symop_operation_xyz
x,y,z
-x,1/2+y,1/2-z
-x,-y,-z
x,1/2-y,1/2+z
loop_
_atom_site_type_symbol
_atom_site_label
_atom_site_fract_x
_atom_site_fract_y
_atom_site_fract_z
Si Si1 0.867780 0.577334 0.091196
Si Si2 0.471815 0.192518 0.092922
Si Si3 0.048598 0.857048 0.803057
Si Si4 0.728724 0.130872 0.090354
Si Si5 0.318758 0.185499 0.664625
O O1 0.772460 0.480704 0.378116
O O2 0.796429 0.694300 0.132225
O O3 0.947853 0.436525 0.849682
O O4 0.958737 0.693393 0.992069
O O5 0.422164 0.201339 0.342372
O O6 0.370410 0.262015 0.200573
O O7 0.592654 0.307258 0.834334
O O8 0.500000 0.000000 0.000000
O O9 0.185027 0.795660 0.563897
O O10 0.000000 0.000000 0.000000
O O11 0.726690 0.012008 0.225796
#
# Coordination Sequence:
#
# PCOD8129463 Si02
#       5
#     4   4   4   4   4
#     4  12  26  47  76 108 148 193 249 306 367 436
#     4  12  28  45  77 110 150 193 246 305 372 444
#     4  12  27  48  74 108 148 194 249 306 371 436
#     4  12  27  47  77 107 149 196 245 305 368 440
#     4  12  26  49  74 113 149 192 246 303 373 443
#
# _framework density 23.180606000000001
#
# number of rings (size 3 to 8) (size 9 to 14) (size 15 to 20)
#    0.000    0.000    2.000    7.200   11.200    0.000 
#    0.000    0.000    0.000    0.000    0.000    0.000 
#    0.000    0.000    0.000    0.000    0.000    0.000 
#
# Total GULP energy -248179.818613 kJ/mol
# GULP energy per Si atom -12408.990931 kJ/mol
# Density = 2.312785 g / cm^3
# Si number density = 23.180606 Si / 1000 Ang^3
#
#
#
# Elastic Constant Matrix: (Units=GPa)
#
#
# Indices 1 2 3 4 5 6 
#
# 1 86.2111 20.3897 28.3996 0.0000 9.1536 0.0000
# 2 20.3897 98.1225 28.8287 0.0000 8.6825 0.0000
# 3 28.3996 28.8287 104.0396 0.0000 14.8127 0.0000
# 4 0.0000 0.0000 0.0000 66.0592 0.0000 1.2207
# 5 9.1536 8.6825 14.8127 0.0000 44.4992 0.0000
# 6 0.0000 0.0000 0.0000 1.2207 0.0000 54.4412
#
#
#
# Elastic Compliance Matrix: (Units=1/GPa)
#
#
# Indices 1 2 3 4 5 6 
#
# 1 0.013116 -0.001751 -0.002897 0.000000 -0.001392 0.000000
# 2 -0.001751 0.011390 -0.002533 0.000000 -0.001019 0.000000
# 3 -0.002897 -0.002533 0.011494 0.000000 -0.002736 0.000000
# 4 0.000000 0.000000 0.000000 0.015144 0.000000 -0.000340
# 5 -0.001392 -0.001019 -0.002736 0.000000 0.023868 0.000000
# 6 0.000000 0.000000 0.000000 -0.000340 0.000000 0.018376
#
#
# Mechanical properties :
#
#
# Convention : Reuss Voigt Hill
#
# Bulk Modulus (GPa) = 46.21622 49.28992 47.75307
# Shear Modulus (GPa) = 43.49280 47.05027 45.27153
#
# Velocity S-wave (km/s) = 4.33628 4.51014 4.42406
# Velocity P-wave (km/s) = 6.71206 6.95926 6.83678
#
# Compressibility (1/GPa) = 0.02163743
#
# Stress axis : x y z
#
# Youngs Moduli (GPa) = 76.24486 87.79967 87.00318
#
# Poissons Ratio (x) = 0.15375 0.25203
# Poissons Ratio (y) = 0.13352 0.22037
# Poissons Ratio (z) = 0.22086 0.22239
#
# Static dielectric constant tensor:
#      x y z
#    x 4.009660 0.000000 0.035460 
#    y 0.000000 4.668850 0.000000 
#    z 0.035460 0.000000 4.606970 
# 
# 
# High freq. dielectric constant tensor:
#      x y z
#    x 1.914090 0.000000 0.004640 
#    y 0.000000 1.939000 0.000000 
#    z 0.004640 0.000000 1.935390 
# 
# From -- ./inp_files/36126.got.cif
#   From: 2010.03.12/outbox.cif.g09.slc.cpg/sg14_19_cif.got.tgz:36126.got - 2010.03.31 13:35:05.
