data_PCOD8129384
_publ_section_title
;
Structure prediction by ZEFSAII (Michael W. Deem and Ramdas Pophale) SiO2 
 PCOD8129384
Probable space group: P 21/C
;
_chemical_formula_sum "Si O2"
_cell_formula_units_Z 28
_cell_length_a 29.410968
_cell_length_b 8.682011
_cell_length_c 29.794332
_cell_angle_alpha 90.000000
_cell_angle_beta 170.207604
_cell_angle_gamma 90.000000
_cell_volume 1293.937443
_symmetry_space_group_name_H-M "P 21/C"
_symmetry_group_IT_number 14
_symmetry_cell_setting 'monoclinic'
loop_
_space_group_symop_operation_xyz
x,y,z
-x,1/2+y,1/2-z
-x,-y,-z
x,1/2-y,1/2+z
loop_
_atom_site_type_symbol
_atom_site_label
_atom_site_fract_x
_atom_site_fract_y
_atom_site_fract_z
Si Si1 0.657774 0.715776 0.265509
Si Si2 0.592712 0.125033 0.726395
Si Si3 0.355434 0.308520 0.090137
Si Si4 0.748043 0.893182 0.753880
Si Si5 0.137010 0.914863 0.766422
Si Si6 0.856331 0.735289 0.770717
Si Si7 0.180069 0.528516 0.410828
O O1 0.605819 0.558951 0.241905
O O2 0.722410 0.687059 0.276714
O O3 0.891265 0.803270 0.518403
O O4 0.401416 0.820092 0.017243
O O5 0.516287 0.192230 0.700206
O O6 0.379167 0.175493 0.482583
O O7 0.872959 0.191147 0.983529
O O8 0.567509 0.358970 0.334623
O O9 0.094120 0.416877 0.832165
O O10 0.254075 0.137508 0.003235
O O11 0.804100 0.758256 0.772632
O O12 0.500000 0.000000 0.500000
O O13 0.000000 0.000000 0.000000
O O14 0.121108 0.983770 0.800798
O O15 0.139908 0.053754 0.734014
#
# Coordination Sequence:
#
# PCOD8129384 Si02
#       7
#     4   4   4   4   4   4   4
#     4  12  26  44  74 106 142 185 237 291 347 417
#     4  12  25  46  72 104 134 194 235 273 355 428
#     4  12  28  47  74 103 140 184 238 290 354 418
#     4  12  23  45  72 108 139 181 244 292 341 416
#     4  12  28  46  68 105 148 182 228 295 361 412
#     4  12  24  47  75  98 146 190 226 289 352 421
#     4  12  28  49  69 104 141 183 233 296 347 419
#
# _framework density 21.639377
#
# number of rings (size 3 to 8) (size 9 to 14) (size 15 to 20)
#    0.000    0.000    4.286    5.143    8.000    1.143 
#    0.000    0.000    0.000    0.000    0.000    0.000 
#    0.000    0.000    0.000    0.000    0.000    0.000 
#
# Total GULP energy -347399.339924 kJ/mol
# GULP energy per Si atom -12407.119283 kJ/mol
# Density = 2.159012 g / cm^3
# Si number density = 21.639377 Si / 1000 Ang^3
#
#
#
# Elastic Constant Matrix: (Units=GPa)
#
#
# Indices 1 2 3 4 5 6 
#
# 1 82.0848 2.3692 16.1616 0.0000 2.0971 0.0000
# 2 2.3692 113.8815 49.6416 0.0000 2.8058 0.0000
# 3 16.1616 49.6416 177.7140 0.0000 8.0119 0.0000
# 4 0.0000 0.0000 0.0000 46.8241 0.0000 -0.3693
# 5 2.0971 2.8058 8.0119 0.0000 40.7480 0.0000
# 6 0.0000 0.0000 0.0000 -0.3693 0.0000 43.5717
#
#
#
# Elastic Compliance Matrix: (Units=1/GPa)
#
#
# Indices 1 2 3 4 5 6 
#
# 1 0.012419 0.000269 -0.001185 0.000000 -0.000425 0.000000
# 2 0.000269 0.010005 -0.002812 0.000000 -0.000150 0.000000
# 3 -0.001185 -0.002812 0.006567 0.000000 -0.001037 0.000000
# 4 0.000000 0.000000 0.000000 0.021358 0.000000 0.000181
# 5 -0.000425 -0.000150 -0.001037 0.000000 0.024777 0.000000
# 6 0.000000 0.000000 0.000000 0.000181 0.000000 0.022952
#
#
# Mechanical properties :
#
#
# Convention : Reuss Voigt Hill
#
# Bulk Modulus (GPa) = 46.43980 56.66946 51.55463
# Shear Modulus (GPa) = 44.35993 46.59594 45.47793
#
# Velocity S-wave (km/s) = 4.53256 4.64539 4.58933
# Velocity P-wave (km/s) = 6.99282 7.41740 7.20824
#
# Compressibility (1/GPa) = 0.02153325
#
# Stress axis : x y z
#
# Youngs Moduli (GPa) = 80.52182 99.94876 152.27267
#
# Poissons Ratio (x) = -0.02687 0.18050
# Poissons Ratio (y) = -0.02164 0.42826
# Poissons Ratio (z) = 0.09545 0.28110
#
# Static dielectric constant tensor:
#      x y z
#    x 3.796820 0.000000 -0.177790 
#    y 0.000000 3.980920 0.000000 
#    z -0.177790 0.000000 4.162500 
# 
# 
# High freq. dielectric constant tensor:
#      x y z
#    x 1.859760 0.000000 0.001990 
#    y 0.000000 1.859280 0.000000 
#    z 0.001990 0.000000 1.878390 
# 
# From -- ./inp_files/80879.got.cif
#   From: 2010.03.12/outbox.cif.g09.slc.cpg/sg14_41_cif.got.tgz:80879.got - 2010.03.31 13:35:05.
