data_PCOD8129199
_publ_section_title
;
Structure prediction by ZEFSAII (Michael W. Deem and Ramdas Pophale) SiO2 
 PCOD8129199
Probable space group: P 21/C
;
_chemical_formula_sum "Si O2"
_cell_formula_units_Z 12
_cell_length_a 9.720303
_cell_length_b 5.042847
_cell_length_c 17.897333
_cell_angle_alpha 90.000000
_cell_angle_beta 151.981063
_cell_angle_gamma 90.000000
_cell_volume 412.119398
_symmetry_space_group_name_H-M "P 21/C"
_symmetry_group_IT_number 14
_symmetry_cell_setting 'monoclinic'
loop_
_space_group_symop_operation_xyz
x,y,z
-x,1/2+y,1/2-z
-x,-y,-z
x,1/2-y,1/2+z
loop_
_atom_site_type_symbol
_atom_site_label
_atom_site_fract_x
_atom_site_fract_y
_atom_site_fract_z
Si Si1 0.318046 0.073129 0.184393
Si Si2 0.786207 0.584992 0.732550
Si Si3 0.330793 0.196062 0.473198
O O1 0.445392 0.341326 0.208902
O O2 0.280036 0.140633 0.255305
O O3 0.000000 0.000000 0.000000
O O4 0.522462 0.375554 0.621708
O O5 0.827009 0.607961 0.662411
O O6 0.089528 0.456028 0.907952
O O7 0.500000 0.000000 0.500000
#
# Coordination Sequence:
#
# PCOD8129199 Si02
#       3
#     4   4   4
#     4  12  32  59  89 125 176 240 294 359 430 530
#     4  11  27  48  83 124 171 219 297 351 448 513
#     4  11  24  48  81 123 168 222 277 375 431 515
#
# _framework density 29.117777
#
# number of rings (size 3 to 8) (size 9 to 14) (size 15 to 20)
#    0.000    0.667    3.333    1.000    9.333    2.667 
#    0.000    3.333    0.000    0.000    0.000    0.000 
#    0.000    0.000    0.000    0.000    0.000    0.000 
#
# Total GULP energy -148821.619654 kJ/mol
# GULP energy per Si atom -12401.801638 kJ/mol
# Density = 2.905150 g / cm^3
# Si number density = 29.117777 Si / 1000 Ang^3
#
#
#
# Elastic Constant Matrix: (Units=GPa)
#
#
# Indices 1 2 3 4 5 6 
#
# 1 98.4557 36.9419 44.4767 0.0000 4.5002 0.0000
# 2 36.9419 175.3892 65.5323 0.0000 20.7663 0.0000
# 3 44.4767 65.5323 152.2292 0.0000 31.2120 0.0000
# 4 0.0000 0.0000 0.0000 63.0515 0.0000 7.1678
# 5 4.5002 20.7663 31.2120 0.0000 49.9396 0.0000
# 6 0.0000 0.0000 0.0000 7.1678 0.0000 80.8360
#
#
#
# Elastic Compliance Matrix: (Units=1/GPa)
#
#
# Indices 1 2 3 4 5 6 
#
# 1 0.012105 -0.001541 -0.003190 0.000000 0.001544 0.000000
# 2 -0.001541 0.007048 -0.002307 0.000000 -0.001350 0.000000
# 3 -0.003190 -0.002307 0.009450 0.000000 -0.004659 0.000000
# 4 0.000000 0.000000 0.000000 0.016022 0.000000 -0.001421
# 5 0.001544 -0.001350 -0.004659 0.000000 0.023358 0.000000
# 6 0.000000 0.000000 0.000000 -0.001421 0.000000 0.012497
#
#
# Mechanical properties :
#
#
# Convention : Reuss Voigt Hill
#
# Bulk Modulus (GPa) = 68.83591 79.99732 74.41661
# Shear Modulus (GPa) = 50.30296 57.37363 53.83829
#
# Velocity S-wave (km/s) = 4.16091 4.44373 4.30465
# Velocity P-wave (km/s) = 6.83930 7.33910 7.09360
#
# Compressibility (1/GPa) = 0.01452730
#
# Stress axis : x y z
#
# Youngs Moduli (GPa) = 82.60730 141.88487 105.82500
#
# Poissons Ratio (x) = 0.21858 0.33760
# Poissons Ratio (y) = 0.12726 0.24415
# Poissons Ratio (z) = 0.26353 0.32735
#
# Static dielectric constant tensor:
#      x y z
#    x 5.939920 0.000000 -0.465810 
#    y 0.000000 5.926410 0.000000 
#    z -0.465810 0.000000 5.687270 
# 
# 
# High freq. dielectric constant tensor:
#      x y z
#    x 2.181120 0.000000 0.002030 
#    y 0.000000 2.202610 0.000000 
#    z 0.002030 0.000000 2.195740 
# 
# From -- ./inp_files/7074.got.cif
#   From: 2010.03.12/outbox.cif.g09.slc.cpg/sg14_4_cif.got.tgz:7074.got - 2010.03.31 13:35:05.
