data_PCOD8129940
_publ_section_title
;
Structure prediction by ZEFSAII (Michael W. Deem and Ramdas Pophale) SiO2 
 PCOD8129940
Probable space group: C 2/C
;
_chemical_formula_sum "Si O2"
_cell_formula_units_Z 56
_cell_length_a 12.789593
_cell_length_b 19.064081
_cell_length_c 16.138167
_cell_angle_alpha 90.000000
_cell_angle_beta 125.423095
_cell_angle_gamma 90.000000
_cell_volume 3206.476396
_symmetry_space_group_name_H-M "C 2/C"
_symmetry_group_IT_number 15
_symmetry_cell_setting 'monoclinic'
loop_
_space_group_symop_operation_xyz
x,y,z
-x,y,1/2-z
-x,-y,-z
x,-y,1/2+z
1/2+x,1/2+y,z
1/2-x,1/2+y,1/2-z
1/2-x,1/2-y,-z
1/2+x,1/2-y,1/2+z
loop_
_atom_site_type_symbol
_atom_site_label
_atom_site_fract_x
_atom_site_fract_y
_atom_site_fract_z
Si Si1 0.131070 0.500787 0.835668
Si Si2 0.398255 0.947740 0.994014
Si Si3 0.940257 0.842943 0.510443
Si Si4 0.483091 0.808100 0.102420
Si Si5 0.895416 0.050954 0.490563
Si Si6 0.323146 0.848325 0.186120
Si Si7 0.385896 0.545672 0.131017
O O1 0.258162 0.455026 0.880849
O O2 0.135410 0.570758 0.781819
O O3 0.000000 0.459325 0.750000
O O4 0.129629 0.524547 0.928506
O O5 0.253748 0.946128 0.887079
O O6 0.458085 0.869554 0.023552
O O7 0.500000 0.000000 0.000000
O O8 0.827962 0.841404 0.391019
O O9 0.902991 0.891752 0.571662
O O10 0.970702 0.765317 0.552177
O O11 0.060326 0.870519 0.511008
O O12 0.382416 0.813692 0.131005
O O13 0.626150 0.810947 0.207279
O O14 0.888555 0.029983 0.584788
O O15 0.000000 0.000000 0.500000
O O16 0.500000 0.549622 0.250000
#
# Coordination Sequence:
#
# PCOD8129940 Si02
#       7
#     8   8   8   8   8   8   8
#     4  10  16  33  54  72  97 141 176 206 258 317
#     4  10  20  33  49  75 104 131 174 219 254 299
#     4  11  20  33  53  76 112 136 167 214 262 322
#     4  10  20  31  51  78 104 139 170 204 267 320
#     4   9  18  33  51  77 104 138 173 212 258 311
#     4  10  17  31  53  72 104 140 164 198 268 328
#     4  10  21  32  50  78 106 135 173 216 259 302
#
# _framework density 17.464653999999999
#
# number of rings (size 3 to 8) (size 9 to 14) (size 15 to 20)
#    0.000    2.000    8.571    0.429    2.000    3.429 
#    0.000    0.000    0.000    3.429    0.000    2.000 
#    0.000    0.000    0.000    0.000    0.000    0.000 
#
# Total GULP energy -346901.234788 kJ/mol
# GULP energy per Si atom -12389.329814 kJ/mol
# Density = 1.742490 g / cm^3
# Si number density = 17.464654 Si / 1000 Ang^3
#
#
#
# Elastic Constant Matrix: (Units=GPa)
#
#
# Indices 1 2 3 4 5 6 
#
# 1 81.8775 57.9710 50.3826 0.0000 35.3106 0.0000
# 2 57.9710 111.6650 36.7524 0.0000 11.3314 0.0000
# 3 50.3826 36.7524 101.6827 0.0000 46.1734 0.0000
# 4 0.0000 0.0000 0.0000 11.8771 0.0000 0.6165
# 5 35.3106 11.3314 46.1734 0.0000 37.4096 0.0000
# 6 0.0000 0.0000 0.0000 0.6165 0.0000 22.2641
#
#
#
# Elastic Compliance Matrix: (Units=1/GPa)
#
#
# Indices 1 2 3 4 5 6 
#
# 1 0.036165 -0.016396 0.002850 0.000000 -0.032687 0.000000
# 2 -0.016396 0.017782 -0.006563 0.000000 0.018191 0.000000
# 3 0.002850 -0.006563 0.025285 0.000000 -0.031910 0.000000
# 4 0.000000 0.000000 0.000000 0.084317 0.000000 -0.002335
# 5 -0.032687 0.018191 -0.031910 0.000000 0.091460 0.000000
# 6 0.000000 0.000000 0.000000 -0.002335 0.000000 0.044980
#
#
# Mechanical properties :
#
#
# Convention : Reuss Voigt Hill
#
# Bulk Modulus (GPa) = 25.63283 65.04856 45.34069
# Shear Modulus (GPa) = 14.15576 24.31811 19.23693
#
# Velocity S-wave (km/s) = 2.85008 3.73556 3.32245
# Velocity P-wave (km/s) = 5.05366 7.47881 6.38248
#
# Compressibility (1/GPa) = 0.03901247
#
# Stress axis : x y z
#
# Youngs Moduli (GPa) = 27.65073 56.23749 39.54907
#
# Poissons Ratio (x) = 0.92209 -0.11271
# Poissons Ratio (y) = 0.45337 0.25958
# Poissons Ratio (z) = -0.07880 0.36911
#
# Static dielectric constant tensor:
#      x y z
#    x 4.377360 0.000000 0.244480 
#    y 0.000000 2.997970 0.000000 
#    z 0.244480 0.000000 3.367290 
# 
# 
# High freq. dielectric constant tensor:
#      x y z
#    x 1.654210 0.000000 0.034700 
#    y 0.000000 1.645770 0.000000 
#    z 0.034700 0.000000 1.677550 
# 
# From -- ./inp_files/146159.got.cif
#   From: 2010.06.25/outbox.cif.g09.slc.cpg/sg15_74_cif.got.tgz:146159.got - 2010.06.28 07:06:18.
