data_PCOD8129287
_publ_section_title
;
Structure prediction by ZEFSAII (Michael W. Deem and Ramdas Pophale) SiO2 
 PCOD8129287
Probable space group: P 21/C
;
_chemical_formula_sum "Si O2"
_cell_formula_units_Z 24
_cell_length_a 16.654400
_cell_length_b 7.700218
_cell_length_c 14.894413
_cell_angle_alpha 90.000000
_cell_angle_beta 26.061280
_cell_angle_gamma 90.000000
_cell_volume 839.167062
_symmetry_space_group_name_H-M "P 21/C"
_symmetry_group_IT_number 14
_symmetry_cell_setting 'monoclinic'
loop_
_space_group_symop_operation_xyz
x,y,z
-x,1/2+y,1/2-z
-x,-y,-z
x,1/2-y,1/2+z
loop_
_atom_site_type_symbol
_atom_site_label
_atom_site_fract_x
_atom_site_fract_y
_atom_site_fract_z
Si Si1 0.629643 0.388735 0.036563
Si Si2 0.453206 0.194193 0.504110
Si Si3 0.999741 0.340359 0.753740
Si Si4 0.650285 0.508753 0.529950
Si Si5 0.157797 0.308801 0.921543
Si Si6 0.859372 0.284559 0.078707
O O1 0.603518 0.502757 0.973394
O O2 0.480275 0.450650 0.257051
O O3 0.827487 0.431316 0.879738
O O4 0.614242 0.183879 0.028490
O O5 0.377639 0.348321 0.518102
O O6 0.351845 0.218622 0.702047
O O7 0.670678 0.194094 0.292814
O O8 0.136197 0.488805 0.655965
O O9 0.117731 0.226365 0.565844
O O10 0.930836 0.223929 0.908384
O O11 0.177420 0.511567 0.886955
O O12 0.000567 0.230541 0.014774
#
# Coordination Sequence:
#
# PCOD8129287 Si02
#       6
#     4   4   4   4   4   4
#     4  12  28  48  81 125 161 223 287 336 425 507
#     4  12  27  52  84 124 171 219 280 352 426 498
#     4  12  27  49  85 118 172 226 281 353 425 507
#     4  12  26  47  85 120 163 225 282 349 424 502
#     4  11  28  50  88 127 170 220 288 349 428 504
#     4  11  25  52  83 124 172 225 277 356 425 502
#
# _framework density 28.599786999999999
#
# number of rings (size 3 to 8) (size 9 to 14) (size 15 to 20)
#    0.000    0.333    5.000    1.500    9.333    3.333 
#    0.000    1.667    0.000    0.000    0.000    0.000 
#    0.000    0.000    0.000    0.000    0.000    0.000 
#
# Total GULP energy -297782.985778 kJ/mol
# GULP energy per Si atom -12407.624407 kJ/mol
# Density = 2.853469 g / cm^3
# Si number density = 28.599787 Si / 1000 Ang^3
#
#
#
# Elastic Constant Matrix: (Units=GPa)
#
#
# Indices 1 2 3 4 5 6 
#
# 1 129.5135 48.6876 77.8058 0.0000 1.3458 0.0000
# 2 48.6876 158.3804 59.9695 0.0000 -0.6187 0.0000
# 3 77.8058 59.9695 224.5480 0.0000 10.7306 0.0000
# 4 0.0000 0.0000 0.0000 35.2100 0.0000 -0.2724
# 5 1.3458 -0.6187 10.7306 0.0000 63.0548 0.0000
# 6 0.0000 0.0000 0.0000 -0.2724 0.0000 49.3196
#
#
#
# Elastic Compliance Matrix: (Units=1/GPa)
#
#
# Indices 1 2 3 4 5 6 
#
# 1 0.010305 -0.002013 -0.003046 0.000000 0.000279 0.000000
# 2 -0.002013 0.007427 -0.001302 0.000000 0.000337 0.000000
# 3 -0.003046 -0.001302 0.005902 0.000000 -0.000952 0.000000
# 4 0.000000 0.000000 0.000000 0.028402 0.000000 0.000157
# 5 0.000279 0.000337 -0.000952 0.000000 0.016019 0.000000
# 6 0.000000 0.000000 0.000000 0.000157 0.000000 0.020277
#
#
# Mechanical properties :
#
#
# Convention : Reuss Voigt Hill
#
# Bulk Modulus (GPa) = 91.65016 98.37420 95.01218
# Shear Modulus (GPa) = 47.75867 51.24880 49.50374
#
# Velocity S-wave (km/s) = 4.09087 4.23771 4.16494
# Velocity P-wave (km/s) = 7.37760 7.64302 7.51148
#
# Compressibility (1/GPa) = 0.01091106
#
# Stress axis : x y z
#
# Youngs Moduli (GPa) = 97.03723 134.64073 169.42819
#
# Poissons Ratio (x) = 0.27108 0.51615
# Poissons Ratio (y) = 0.19537 0.22060
# Poissons Ratio (z) = 0.29561 0.17531
#
# Static dielectric constant tensor:
#      x y z
#    x 5.725270 0.000000 -0.046840 
#    y 0.000000 5.089270 0.000000 
#    z -0.046840 0.000000 5.789570 
# 
# 
# High freq. dielectric constant tensor:
#      x y z
#    x 2.182030 0.000000 -0.001760 
#    y 0.000000 2.163120 0.000000 
#    z -0.001760 0.000000 2.189020 
# 
# From -- ./inp_files/48480.got.cif
#   From: 2010.03.12/outbox.cif.g09.slc.cpg/sg14_25_cif.got.tgz:48480.got - 2010.03.31 13:35:05.
