data_PCOD8129010
_publ_section_title
;
Structure prediction by ZEFSAII (Michael W. Deem and Ramdas Pophale) SiO2 
 PCOD8129010
Probable space group: P 21/C
;
_chemical_formula_sum "Si O2"
_cell_formula_units_Z 24
_cell_length_a 9.947521
_cell_length_b 11.190281
_cell_length_c 10.148448
_cell_angle_alpha 90.000000
_cell_angle_beta 52.622693
_cell_angle_gamma 90.000000
_cell_volume 897.706095
_symmetry_space_group_name_H-M "P 21/C"
_symmetry_group_IT_number 14
_symmetry_cell_setting 'monoclinic'
loop_
_space_group_symop_operation_xyz
x,y,z
-x,1/2+y,1/2-z
-x,-y,-z
x,1/2-y,1/2+z
loop_
_atom_site_type_symbol
_atom_site_label
_atom_site_fract_x
_atom_site_fract_y
_atom_site_fract_z
Si Si1 0.111191 0.573424 0.172313
Si Si2 0.653999 0.996477 0.682845
Si Si3 0.691903 0.110154 0.202644
Si Si4 0.492568 0.186987 0.918835
Si Si5 0.966386 0.161875 0.835827
Si Si6 0.725022 0.749343 0.700767
O O1 0.195428 0.536339 0.261437
O O2 0.994525 0.453064 0.221177
O O3 0.023077 0.705141 0.239009
O O4 0.244648 0.585712 0.973566
O O5 0.583762 0.056715 0.859545
O O6 0.489292 0.950728 0.703824
O O7 0.780338 0.885694 0.636323
O O8 0.657907 0.234838 0.294579
O O9 0.786563 0.133987 0.008937
O O10 0.358894 0.188457 0.876937
O O11 0.413127 0.230957 0.101625
O O12 0.115880 0.169037 0.855961
#
# Coordination Sequence:
#
# PCOD8129010 Si02
#       6
#     4   4   4   4   4   4
#     4  12  27  49  76 109 161 199 256 314 388 453
#     4  11  24  46  73 108 144 202 258 317 371 452
#     4  11  25  44  77 105 151 202 260 306 388 453
#     4  11  23  47  72 110 145 202 256 316 368 456
#     4  12  28  47  75 115 152 207 249 320 384 464
#     4  11  26  43  75 105 156 192 256 311 391 442
#
# _framework density 26.734808000000001
#
# number of rings (size 3 to 8) (size 9 to 14) (size 15 to 20)
#    0.000    0.667    1.667    5.500    9.333    2.000 
#    0.000    0.000    0.000    0.000    0.000    0.000 
#    0.000    0.000    0.000    0.000    0.000    0.000 
#
# Total GULP energy -297317.596912 kJ/mol
# GULP energy per Si atom -12388.233205 kJ/mol
# Density = 2.667396 g / cm^3
# Si number density = 26.734808 Si / 1000 Ang^3
#
#
#
# Elastic Constant Matrix: (Units=GPa)
#
#
# Indices 1 2 3 4 5 6 
#
# 1 20.9853 4.2696 -5.5236 0.0000 -7.9667 0.0000
# 2 4.2696 125.1441 0.0532 0.0000 -8.3861 0.0000
# 3 -5.5236 0.0532 87.8518 0.0000 -0.0949 0.0000
# 4 0.0000 0.0000 0.0000 27.7535 0.0000 11.9990
# 5 -7.9667 -8.3861 -0.0949 0.0000 33.5027 0.0000
# 6 0.0000 0.0000 0.0000 11.9990 0.0000 8.1423
#
#
#
# Elastic Compliance Matrix: (Units=1/GPa)
#
#
# Indices 1 2 3 4 5 6 
#
# 1 0.053480 -0.000990 0.003377 0.000000 0.012479 0.000000
# 2 -0.000990 0.008145 -0.000065 0.000000 0.001803 0.000000
# 3 0.003377 -0.000065 0.011596 0.000000 0.000819 0.000000
# 4 0.000000 0.000000 0.000000 0.099295 0.000000 -0.146328
# 5 0.012479 0.001803 0.000819 0.000000 0.033269 0.000000
# 6 0.000000 0.000000 0.000000 -0.146328 0.000000 0.338456
#
#
# Mechanical properties :
#
#
# Convention : Reuss Voigt Hill
#
# Bulk Modulus (GPa) = 12.84284 25.73110 19.28697
# Shear Modulus (GPa) = 8.84090 29.55848 19.19969
#
# Velocity S-wave (km/s) = 1.82046 3.32869 2.68275
# Velocity P-wave (km/s) = 3.03858 4.94156 4.10195
#
# Compressibility (1/GPa) = 0.07786441
#
# Stress axis : x y z
#
# Youngs Moduli (GPa) = 18.69860 122.76827 86.23644
#
# Poissons Ratio (x) = 0.12152 -0.29118
# Poissons Ratio (y) = 0.01851 0.00562
# Poissons Ratio (z) = -0.06314 0.00801
#
# Static dielectric constant tensor:
#      x y z
#    x 4.706110 0.000000 0.002410 
#    y 0.000000 5.648170 0.000000 
#    z 0.002410 0.000000 4.527140 
# 
# 
# High freq. dielectric constant tensor:
#      x y z
#    x 2.058000 0.000000 -0.005650 
#    y 0.000000 2.100820 0.000000 
#    z -0.005650 0.000000 2.067260 
# 
# From -- ./inp_files/28964.got.cif
#   From: 2010.03.12/outbox.cif.g09.slc.cpg/sg14_15_cif.got.tgz:28964.got - 2010.03.31 13:35:05.
