data_PCOD8129470
_publ_section_title
;
Structure prediction by ZEFSAII (Michael W. Deem and Ramdas Pophale) SiO2 
 PCOD8129470
Probable space group: P 21/C
;
_chemical_formula_sum "Si O2"
_cell_formula_units_Z 16
_cell_length_a 11.546590
_cell_length_b 6.872783
_cell_length_c 11.942208
_cell_angle_alpha 90.000000
_cell_angle_beta 50.752265
_cell_angle_gamma 90.000000
_cell_volume 733.915827
_symmetry_space_group_name_H-M "P 21/C"
_symmetry_group_IT_number 14
_symmetry_cell_setting 'monoclinic'
loop_
_space_group_symop_operation_xyz
x,y,z
-x,1/2+y,1/2-z
-x,-y,-z
x,1/2-y,1/2+z
loop_
_atom_site_type_symbol
_atom_site_label
_atom_site_fract_x
_atom_site_fract_y
_atom_site_fract_z
Si Si1 0.589440 0.397015 0.846807
Si Si2 0.078253 0.031516 0.569494
Si Si3 0.194309 0.679428 0.630000
Si Si4 0.331174 0.351094 0.404845
O O1 0.728016 0.275573 0.810087
O O2 0.656330 0.563560 0.727084
O O3 0.485248 0.254392 0.839652
O O4 0.500000 0.500000 0.000000
O O5 0.194006 0.205115 0.487465
O O6 0.960142 0.081553 0.738380
O O7 0.165046 0.836607 0.550953
O O8 0.000000 0.000000 0.500000
O O9 0.304537 0.518198 0.512459
#
# Coordination Sequence:
#
# PCOD8129470 Si02
#       4
#     4   4   4   4
#     4  12  27  47  76 104 146 196 241 295 364 428
#     4  12  28  45  77 110 146 194 241 300 364 428
#     4  12  26  50  73 108 146 193 241 299 366 431
#     4  12  28  49  74 109 147 188 246 300 360 435
#
# _framework density 21.800865000000002
#
# number of rings (size 3 to 8) (size 9 to 14) (size 15 to 20)
#    0.000    0.000    5.000    3.750   10.500    2.000 
#    0.000    0.000    0.000    0.000    0.000    0.000 
#    0.000    0.000    0.000    0.000    0.000    0.000 
#
# Total GULP energy -198582.033164 kJ/mol
# GULP energy per Si atom -12411.377073 kJ/mol
# Density = 2.175125 g / cm^3
# Si number density = 21.800865 Si / 1000 Ang^3
#
#
#
# Elastic Constant Matrix: (Units=GPa)
#
#
# Indices 1 2 3 4 5 6 
#
# 1 98.3785 14.5079 2.0693 0.0000 11.2371 0.0000
# 2 14.5079 92.4170 27.3804 0.0000 3.9908 0.0000
# 3 2.0693 27.3804 95.3444 0.0000 2.9202 0.0000
# 4 0.0000 0.0000 0.0000 57.0221 0.0000 1.0109
# 5 11.2371 3.9908 2.9202 0.0000 38.4565 0.0000
# 6 0.0000 0.0000 0.0000 1.0109 0.0000 42.5554
#
#
#
# Elastic Compliance Matrix: (Units=1/GPa)
#
#
# Indices 1 2 3 4 5 6 
#
# 1 0.010744 -0.001656 0.000334 0.000000 -0.002993 0.000000
# 2 -0.001656 0.012118 -0.003428 0.000000 -0.000513 0.000000
# 3 0.000334 -0.003428 0.011484 0.000000 -0.000614 0.000000
# 4 0.000000 0.000000 0.000000 0.017544 0.000000 -0.000417
# 5 -0.002993 -0.000513 -0.000614 0.000000 0.026978 0.000000
# 6 0.000000 0.000000 0.000000 -0.000417 0.000000 0.023509
#
#
# Mechanical properties :
#
#
# Convention : Reuss Voigt Hill
#
# Bulk Modulus (GPa) = 40.24882 41.56169 40.90526
# Shear Modulus (GPa) = 41.61091 43.75229 42.68160
#
# Velocity S-wave (km/s) = 4.37359 4.48471 4.42950
# Velocity P-wave (km/s) = 6.63374 6.77661 6.70555
#
# Compressibility (1/GPa) = 0.02484545
#
# Stress axis : x y z
#
# Youngs Moduli (GPa) = 93.07592 82.51883 87.07469
#
# Poissons Ratio (x) = 0.13668 -0.02910
# Poissons Ratio (y) = 0.15417 0.29853
# Poissons Ratio (z) = -0.03110 0.28291
#
# Static dielectric constant tensor:
#      x y z
#    x 4.167770 0.000000 -0.059280 
#    y 0.000000 4.296350 0.000000 
#    z -0.059280 0.000000 4.009160 
# 
# 
# High freq. dielectric constant tensor:
#      x y z
#    x 1.868400 0.000000 -0.002870 
#    y 0.000000 1.876740 0.000000 
#    z -0.002870 0.000000 1.872290 
# 
# From -- ./inp_files/22704.got.cif
#   From: 2010.03.12/outbox.cif.g09.slc.cpg/sg14_12_cif.got.tgz:22704.got - 2010.03.31 13:35:05.
