data_PCOD8129858
_publ_section_title
;
Structure prediction by ZEFSAII (Michael W. Deem and Ramdas Pophale) SiO2 
 PCOD8129858
Probable space group: C 2/C
;
_chemical_formula_sum "Si O2"
_cell_formula_units_Z 52
_cell_length_a 22.338350
_cell_length_b 25.268372
_cell_length_c 15.800838
_cell_angle_alpha 90.000000
_cell_angle_beta 160.895379
_cell_angle_gamma 90.000000
_cell_volume 2919.084473
_symmetry_space_group_name_H-M "C 2/C"
_symmetry_group_IT_number 15
_symmetry_cell_setting 'monoclinic'
loop_
_space_group_symop_operation_xyz
x,y,z
-x,y,1/2-z
-x,-y,-z
x,-y,1/2+z
1/2+x,1/2+y,z
1/2-x,1/2+y,1/2-z
1/2-x,1/2-y,-z
1/2+x,1/2-y,1/2+z
loop_
_atom_site_type_symbol
_atom_site_label
_atom_site_fract_x
_atom_site_fract_y
_atom_site_fract_z
Si Si1 0.080872 0.005248 0.984012
Si Si2 0.788770 0.513794 0.598981
Si Si3 0.873094 0.080722 0.815765
Si Si4 0.949252 0.728079 0.775375
Si Si5 0.794734 0.369311 0.129588
Si Si6 0.500000 0.945473 0.750000
Si Si7 0.963662 0.840302 0.571033
O O1 0.236120 0.013253 0.119069
O O2 0.156496 0.966409 0.156655
O O3 0.022535 0.062146 0.945390
O O4 0.898320 0.978078 0.702985
O O5 0.876227 0.572043 0.728707
O O6 0.939570 0.480817 0.749777
O O7 0.673299 0.090672 0.507248
O O8 0.945842 0.135405 0.953261
O O9 0.750000 0.750000 0.500000
O O10 0.955707 0.675260 0.842608
O O11 0.000000 0.710011 0.750000
O O12 0.070170 0.776496 0.975193
O O13 0.659035 0.354835 0.871290
O O14 0.693786 0.367656 0.084249
#
# Coordination Sequence:
#
# PCOD8129858 Si02
#       7
#     8   8   8   8   8   4   8
#     4   9  17  30  53  66  94 133 176 190 234 313
#     4  10  17  33  47  72  99 135 157 203 253 298
#     4  10  18  32  48  71  92 135 175 204 236 291
#     4  10  18  29  46  72 106 126 157 198 244 304
#     4  10  17  28  48  74  97 131 156 195 248 299
#     4  10  24  30  44  72 106 126 170 214 246 266
#     4  10  16  31  50  66  95 137 164 191 240 301
#
# _framework density 17.813804000000001
#
# number of rings (size 3 to 8) (size 9 to 14) (size 15 to 20)
#    0.000    2.154    6.154    0.923    1.077    0.615 
#    0.000    0.000    0.000    0.000    0.000    1.077 
#    0.000    0.000    0.000    0.000    0.000    0.000 
#
# Total GULP energy -322192.519428 kJ/mol
# GULP energy per Si atom -12392.019978 kJ/mol
# Density = 1.777326 g / cm^3
# Si number density = 17.813804 Si / 1000 Ang^3
#
#
#
# Elastic Constant Matrix: (Units=GPa)
#
#
# Indices 1 2 3 4 5 6 
#
# 1 98.8893 39.1308 15.3531 0.0000 8.1636 0.0000
# 2 39.1308 89.8862 10.3997 0.0000 -4.5683 0.0000
# 3 15.3531 10.3997 29.2900 -0.0001 -2.4538 0.0001
# 4 0.0000 0.0000 -0.0001 10.5622 0.0000 2.0837
# 5 8.1636 -4.5683 -2.4538 0.0000 22.1781 0.0000
# 6 0.0000 0.0000 0.0001 2.0837 0.0000 24.4412
#
#
#
# Elastic Compliance Matrix: (Units=1/GPa)
#
#
# Indices 1 2 3 4 5 6 
#
# 1 0.013843 -0.005705 -0.005809 0.000000 -0.006913 0.000000
# 2 -0.005705 0.014038 -0.001590 0.000000 0.004816 0.000000
# 3 -0.005809 -0.001590 0.038257 0.000000 0.006044 0.000000
# 4 0.000000 0.000000 0.000000 0.096297 0.000000 -0.008210
# 5 -0.006913 0.004816 0.006044 0.000000 0.049295 0.000000
# 6 0.000000 0.000000 0.000000 -0.008210 0.000000 0.041615
#
#
# Mechanical properties :
#
#
# Convention : Reuss Voigt Hill
#
# Bulk Modulus (GPa) = 25.04521 38.64808 31.84665
# Shear Modulus (GPa) = 17.07282 21.64843 19.36062
#
# Velocity S-wave (km/s) = 3.09917 3.48984 3.30029
# Velocity P-wave (km/s) = 5.18618 6.16290 5.69551
#
# Compressibility (1/GPa) = 0.03992780
#
# Stress axis : x y z
#
# Youngs Moduli (GPa) = 72.24063 71.23684 26.13876
#
# Poissons Ratio (x) = 0.40644 0.15185
# Poissons Ratio (y) = 0.41216 0.04156
# Poissons Ratio (z) = 0.41967 0.11328
#
# Static dielectric constant tensor:
#      x y z
#    x 3.480120 0.000000 0.107930 
#    y 0.000000 4.809900 0.000000 
#    z 0.107930 0.000000 2.995180 
# 
# 
# High freq. dielectric constant tensor:
#      x y z
#    x 1.692420 0.000000 0.016920 
#    y 0.000000 1.668270 0.000000 
#    z 0.016920 0.000000 1.645960 
# 
# From -- ./inp_files/169873.got.cif
#   From: 2010.06.25/outbox.cif.g09.slc.cpg/sg15_85_cif.got.tgz:169873.got - 2010.06.28 07:06:18.
