data_PCOD8129020
_publ_section_title
;
Structure prediction by ZEFSAII (Michael W. Deem and Ramdas Pophale) SiO2 
 PCOD8129020
Probable space group: P 21/C
;
_chemical_formula_sum "Si O2"
_cell_formula_units_Z 28
_cell_length_a 14.896500
_cell_length_b 9.304715
_cell_length_c 10.476651
_cell_angle_alpha 90.000000
_cell_angle_beta 118.378777
_cell_angle_gamma 90.000000
_cell_volume 1277.632462
_symmetry_space_group_name_H-M "P 21/C"
_symmetry_group_IT_number 14
_symmetry_cell_setting 'monoclinic'
loop_
_space_group_symop_operation_xyz
x,y,z
-x,1/2+y,1/2-z
-x,-y,-z
x,1/2-y,1/2+z
loop_
_atom_site_type_symbol
_atom_site_label
_atom_site_fract_x
_atom_site_fract_y
_atom_site_fract_z
Si Si1 0.887365 0.525261 0.971967
Si Si2 0.326737 0.379189 0.466759
Si Si3 0.261638 0.839686 0.795918
Si Si4 0.769605 0.705293 0.328709
Si Si5 0.793757 0.035142 0.660924
Si Si6 0.568291 0.000261 0.423392
Si Si7 0.471706 0.716847 0.308900
O O1 0.805902 0.412670 0.859469
O O2 0.863576 0.688906 0.918206
O O3 0.882840 0.505713 0.121666
O O4 0.000000 0.500000 0.000000
O O5 0.285318 0.540812 0.419368
O O6 0.299922 0.278346 0.328061
O O7 0.287801 0.319663 0.576640
O O8 0.449551 0.380566 0.556707
O O9 0.200365 0.706164 0.813665
O O10 0.365949 0.770221 0.813666
O O11 0.811996 0.552783 0.304614
O O12 0.686987 0.979503 0.530570
O O13 0.525132 0.868324 0.310989
O O14 0.500000 0.000000 0.500000
O O15 0.552464 0.150086 0.343721
#
# Coordination Sequence:
#
# PCOD8129020 Si02
#       7
#     4   4   4   4   4   4   4
#     4  11  26  50  73 101 139 182 240 301 358 414
#     4  11  25  42  72 101 146 188 233 280 355 424
#     4  11  27  43  69 103 143 181 236 299 346 422
#     4  11  23  48  73 103 137 189 234 290 349 434
#     4  12  24  46  71 101 143 183 241 293 352 425
#     4  12  25  40  65  99 145 189 228 282 344 426
#     4  12  25  40  65 100 142 190 234 274 352 413
#
# _framework density 21.915535999999999
#
# number of rings (size 3 to 8) (size 9 to 14) (size 15 to 20)
#    0.000    0.571    5.714    1.286    6.000    1.143 
#    0.000    0.714    0.000    0.000    0.000    0.000 
#    0.000    0.000    0.000    0.000    0.000    0.000 
#
# Total GULP energy -347177.448536 kJ/mol
# GULP energy per Si atom -12399.194591 kJ/mol
# Density = 2.186566 g / cm^3
# Si number density = 21.915536 Si / 1000 Ang^3
#
#
#
# Elastic Constant Matrix: (Units=GPa)
#
#
# Indices 1 2 3 4 5 6 
#
# 1 114.5293 20.5869 27.2295 0.0000 -13.9782 0.0000
# 2 20.5869 133.3139 21.2675 0.0000 -10.3938 0.0000
# 3 27.2295 21.2675 60.3153 0.0000 -23.6584 0.0000
# 4 0.0000 0.0000 0.0000 34.8775 0.0000 -9.2448
# 5 -13.9782 -10.3938 -23.6584 0.0000 35.5262 0.0000
# 6 0.0000 0.0000 0.0000 -9.2448 0.0000 24.5058
#
#
#
# Elastic Compliance Matrix: (Units=1/GPa)
#
#
# Indices 1 2 3 4 5 6 
#
# 1 0.009910 -0.000846 -0.003713 0.000000 0.001179 0.000000
# 2 -0.000846 0.008031 -0.002245 0.000000 0.000521 0.000000
# 3 -0.003713 -0.002245 0.024658 0.000000 0.014303 0.000000
# 4 0.000000 0.000000 0.000000 0.031857 0.000000 0.012018
# 5 0.001179 0.000521 0.014303 0.000000 0.038289 0.000000
# 6 0.000000 0.000000 0.000000 0.012018 0.000000 0.045341
#
#
# Mechanical properties :
#
#
# Convention : Reuss Voigt Hill
#
# Bulk Modulus (GPa) = 34.49511 49.59181 42.04346
# Shear Modulus (GPa) = 27.56979 34.92020 31.24500
#
# Velocity S-wave (km/s) = 3.55068 3.99607 3.77994
# Velocity P-wave (km/s) = 5.70824 6.63093 6.18681
#
# Compressibility (1/GPa) = 0.02898962
#
# Stress axis : x y z
#
# Youngs Moduli (GPa) = 100.90629 124.52423 40.55534
#
# Poissons Ratio (x) = 0.10536 0.15059
# Poissons Ratio (y) = 0.08538 0.09105
# Poissons Ratio (z) = 0.37468 0.27957
#
# Static dielectric constant tensor:
#      x y z
#    x 3.747010 0.000000 -0.122010 
#    y 0.000000 -0.549800 0.000000 
#    z -0.122010 0.000000 3.965140 
# 
# 
# High freq. dielectric constant tensor:
#      x y z
#    x 1.847090 0.000000 -0.019230 
#    y 0.000000 1.882570 0.000000 
#    z -0.019230 0.000000 1.852760 
# 
# From -- ./inp_files/31904.got.cif
#   From: 2010.03.12/outbox.cif.g09.slc.cpg/sg14_16_cif.got.tgz:31904.got - 2010.03.31 13:35:05.
