data_PCOD8129582
_publ_section_title
;
Structure prediction by ZEFSAII (Michael W. Deem and Ramdas Pophale) SiO2 
 PCOD8129582
Probable space group: C 2/C
;
_chemical_formula_sum "Si O2"
_cell_formula_units_Z 28
_cell_length_a 15.000000
_cell_length_b 21.000000
_cell_length_c 18.000000
_cell_angle_alpha 90.000000
_cell_angle_beta 150.000000
_cell_angle_gamma 90.000000
_cell_volume 2835.000000
_symmetry_space_group_name_H-M "C 2/C"
_symmetry_group_IT_number 15
_symmetry_cell_setting 'monoclinic'
loop_
_space_group_symop_operation_xyz
x,y,z
-x,y,1/2-z
-x,-y,-z
x,-y,1/2+z
1/2+x,1/2+y,z
1/2-x,1/2+y,1/2-z
1/2-x,1/2-y,-z
1/2+x,1/2-y,1/2+z
loop_
_atom_site_type_symbol
_atom_site_label
_atom_site_fract_x
_atom_site_fract_y
_atom_site_fract_z
Si Si1 0.127501 0.899791 0.212056
Si Si2 0.382916 0.536053 0.236133
Si Si3 0.963012 0.386171 0.028364
Si Si4 0.520614 0.380897 0.969085
Si Si5 0.619882 0.181992 0.769884
Si Si6 0.717412 0.209197 0.210609
Si Si7 0.953647 0.231559 0.636196
O O1 0.343429 0.893512 0.370707
O O2 0.061467 0.910171 0.079616
O O3 0.014681 0.841761 0.166535
O O4 0.087288 0.960995 0.233011
O O5 0.500000 0.559374 0.250000
O O6 0.171416 0.552931 0.072905
O O7 0.458170 0.566407 0.366013
O O8 0.857114 0.329376 0.912580
O O9 0.995611 0.370088 0.138694
O O10 0.700796 0.348745 0.066998
O O11 0.362750 0.329035 0.864043
O O12 0.500000 0.211829 0.750000
O O13 0.678312 0.230777 0.747811
O O14 0.552589 0.227400 0.144327
O O15 0.750000 0.250000 0.500000
O O16 0.000000 0.255467 0.750000
#
# Coordination Sequence:
#
# PCOD8129582 Si02
#       7
#     8   8   8   8   8   8   8
#     4  11  22  42  63  88 121 171 211 264 321 378
#     4  11  23  39  61  91 123 165 218 265 310 380
#     4  10  22  39  63  86 126 163 214 253 329 375
#     4  10  22  39  62  85 126 162 210 252 327 368
#     4  11  22  36  62  92 125 164 206 257 318 383
#     4  11  22  39  60  90 126 163 201 263 320 384
#     4  12  24  38  64  92 123 162 210 263 319 378
#
# _framework density 9.8765429999999999
#
# number of rings (size 3 to 8) (size 9 to 14) (size 15 to 20)
#    0.000    1.143    2.857    4.714    0.000    4.571 
#    0.000    0.000    0.000    7.714    0.000    0.000 
#    0.000    0.000    0.000    0.000    0.000    0.000 
#
# Total GULP energy -346945.981506 kJ/mol
# GULP energy per Si atom -12390.927911 kJ/mol
# Density = 0.985406 g / cm^3
# Si number density = 9.876543 Si / 1000 Ang^3
#
#
#
# Elastic Constant Matrix: (Units=GPa)
#
#
# Indices 1 2 3 4 5 6 
#
# 1 129.5891 21.7381 38.0683 0.0275 28.7442 0.0028
# 2 21.7381 81.6872 38.7528 0.0977 19.8069 0.0231
# 3 38.0683 38.7528 144.2617 0.0296 20.3752 -0.0179
# 4 0.0275 0.0977 0.0296 25.6039 -0.0091 5.6457
# 5 28.7442 19.8069 20.3752 -0.0091 37.3173 -0.0139
# 6 0.0028 0.0231 -0.0179 5.6457 -0.0139 26.6630
#
#
#
# Elastic Compliance Matrix: (Units=1/GPa)
#
#
# Indices 1 2 3 4 5 6 
#
# 1 0.009649 -0.000264 -0.001566 -0.000009 -0.006437 -0.000003
# 2 -0.000264 0.015319 -0.003170 -0.000055 -0.006196 -0.000007
# 3 -0.001566 -0.003170 0.008440 0.000002 -0.001719 0.000007
# 4 -0.000009 -0.000055 0.000002 0.040970 0.000042 -0.008675
# 5 -0.006437 -0.006196 -0.001719 0.000042 0.035983 0.000015
# 6 -0.000003 -0.000007 0.000007 -0.008675 0.000015 0.039342
#
#
# Mechanical properties :
#
#
# Convention : Reuss Voigt Hill
#
# Bulk Modulus (GPa) = 42.72330 61.40627 52.06479
# Shear Modulus (GPa) = 29.85004 35.04875 32.44940
#
# Velocity S-wave (km/s) = 3.89158 4.21687 4.05748
# Velocity P-wave (km/s) = 6.47056 7.40700 6.95456
#
# Compressibility (1/GPa) = 0.02340643
#
# Stress axis : x y z
#
# Youngs Moduli (GPa) = 103.63960 65.28040 118.49036
#
# Poissons Ratio (x) = 0.01723 0.18557
# Poissons Ratio (y) = 0.02735 0.37563
# Poissons Ratio (z) = 0.16231 0.20695
#
# Static dielectric constant tensor:
#      x y z
#    x 3.705410 -0.000030 0.151740 
#    y -0.000030 3.557570 -0.000150 
#    z 0.151740 -0.000150 3.937870 
# 
# 
# High freq. dielectric constant tensor:
#      x y z
#    x 1.782810 0.000000 0.005320 
#    y 0.000000 1.759790 -0.000010 
#    z 0.005320 -0.000010 1.801430 
# 
# From -- ./inp_files/206996.got.cif
#   From: 2010.06.25/outbox.ucp.g09.slc.cvg/sg15_104_cif.got.tgz:206996.got - 2010.06.28 14:40:10.
