data_PCOD8129393
_publ_section_title
;
Structure prediction by ZEFSAII (Michael W. Deem and Ramdas Pophale) SiO2 
 PCOD8129393
Probable space group: P 21/C
;
_chemical_formula_sum "Si O2"
_cell_formula_units_Z 20
_cell_length_a 20.754795
_cell_length_b 10.388863
_cell_length_c 7.932392
_cell_angle_alpha 90.000000
_cell_angle_beta 149.989976
_cell_angle_gamma 90.000000
_cell_volume 855.445242
_symmetry_space_group_name_H-M "P 21/C"
_symmetry_group_IT_number 14
_symmetry_cell_setting 'monoclinic'
loop_
_space_group_symop_operation_xyz
x,y,z
-x,1/2+y,1/2-z
-x,-y,-z
x,1/2-y,1/2+z
loop_
_atom_site_type_symbol
_atom_site_label
_atom_site_fract_x
_atom_site_fract_y
_atom_site_fract_z
Si Si1 0.624659 0.162685 0.732469
Si Si2 0.749989 0.960490 0.249969
Si Si3 0.982089 0.879296 0.580117
Si Si4 0.482091 0.379288 0.580109
Si Si5 0.875334 0.162694 0.767506
O O1 0.505435 0.247584 0.531053
O O2 0.587855 0.107331 0.467299
O O3 0.750007 0.249985 0.000050
O O4 0.649717 0.046631 0.917123
O O5 0.836639 0.873848 0.322538
O O6 0.850240 0.046660 0.582755
O O7 0.663352 0.873841 0.177434
O O8 0.005445 0.747586 0.531109
O O9 0.087832 0.892694 0.967283
O O10 0.000000 0.000000 0.500000
O O11 0.500000 0.500000 0.500000
#
# Coordination Sequence:
#
# PCOD8129393 Si02
#       5
#     4   4   4   4   4
#     4  12  23  47  73 105 148 187 239 295 353 431
#     4  12  26  44  76 106 144 192 236 298 358 422
#     4  12  25  44  75 107 143 194 236 293 364 420
#     4  12  25  44  75 107 143 194 236 293 364 420
#     4  12  23  47  73 105 148 187 239 295 353 431
#
# _framework density 23.379636999999999
#
# number of rings (size 3 to 8) (size 9 to 14) (size 15 to 20)
#    0.000    0.000    8.000    1.200    0.000    1.600 
#    0.000    0.000    0.000    0.000    0.000    0.000 
#    0.000    0.000    0.000    0.000    0.000    0.000 
#
# Total GULP energy -248160.661090 kJ/mol
# GULP energy per Si atom -12408.033054 kJ/mol
# Density = 2.332642 g / cm^3
# Si number density = 23.379637 Si / 1000 Ang^3
#
#
#
# Elastic Constant Matrix: (Units=GPa)
#
#
# Indices 1 2 3 4 5 6 
#
# 1 173.2547 58.8754 65.2917 0.0000 23.4630 0.0000
# 2 58.8754 88.6298 51.9785 0.0000 2.7765 0.0000
# 3 65.2917 51.9785 118.7299 0.0000 -18.0101 0.0000
# 4 0.0000 0.0000 0.0000 51.0986 0.0000 0.7846
# 5 23.4630 2.7765 -18.0101 0.0000 70.1393 0.0000
# 6 0.0000 0.0000 0.0000 0.7846 0.0000 50.1104
#
#
#
# Elastic Compliance Matrix: (Units=1/GPa)
#
#
# Indices 1 2 3 4 5 6 
#
# 1 0.009002 -0.003508 -0.004006 0.000000 -0.003901 0.000000
# 2 -0.003508 0.016946 -0.005633 0.000000 -0.000944 0.000000
# 3 -0.004006 -0.005633 0.013869 0.000000 0.005124 0.000000
# 4 0.000000 0.000000 0.000000 0.019575 0.000000 -0.000307
# 5 -0.003901 -0.000944 0.005124 0.000000 0.016916 0.000000
# 6 0.000000 0.000000 0.000000 -0.000307 0.000000 0.019961
#
#
# Mechanical properties :
#
#
# Convention : Reuss Voigt Hill
#
# Bulk Modulus (GPa) = 73.94985 81.43394 77.69189
# Shear Modulus (GPa) = 39.34812 47.90092 43.62452
#
# Velocity S-wave (km/s) = 4.10690 4.53131 4.32432
# Velocity P-wave (km/s) = 7.36122 7.89201 7.63123
#
# Compressibility (1/GPa) = 0.01352268
#
# Stress axis : x y z
#
# Youngs Moduli (GPa) = 111.08464 59.00977 72.10326
#
# Poissons Ratio (x) = 0.20701 0.28887
# Poissons Ratio (y) = 0.38970 0.40615
# Poissons Ratio (z) = 0.44505 0.33239
#
# Static dielectric constant tensor:
#      x y z
#    x 4.666670 0.000000 -0.004190 
#    y 0.000000 4.205570 0.000000 
#    z -0.004190 0.000000 4.359460 
# 
# 
# High freq. dielectric constant tensor:
#      x y z
#    x 1.950110 0.000000 -0.004920 
#    y 0.000000 1.912340 0.000000 
#    z -0.004920 0.000000 1.928080 
# 
# From -- ./inp_files/19386.got.cif
#   From: 2010.03.12/outbox.cif.g09.slc.cpg/sg14_10_cif.got.tgz:19386.got - 2010.03.31 13:35:05.
