data_PCOD8129369
_publ_section_title
;
Structure prediction by ZEFSAII (Michael W. Deem and Ramdas Pophale) SiO2 
 PCOD8129369
Probable space group: P 21/C
;
_chemical_formula_sum "Si O2"
_cell_formula_units_Z 32
_cell_length_a 23.974338
_cell_length_b 11.253010
_cell_length_c 12.264162
_cell_angle_alpha 90.000000
_cell_angle_beta 154.828962
_cell_angle_gamma 90.000000
_cell_volume 1407.248891
_symmetry_space_group_name_H-M "P 21/C"
_symmetry_group_IT_number 14
_symmetry_cell_setting 'monoclinic'
loop_
_space_group_symop_operation_xyz
x,y,z
-x,1/2+y,1/2-z
-x,-y,-z
x,1/2-y,1/2+z
loop_
_atom_site_type_symbol
_atom_site_label
_atom_site_fract_x
_atom_site_fract_y
_atom_site_fract_z
Si Si1 0.143942 0.856337 0.465043
Si Si2 0.726321 0.389318 0.585644
Si Si3 0.657438 0.742477 0.239752
Si Si4 0.852017 0.892614 0.935209
Si Si5 0.530646 0.921574 0.679363
Si Si6 0.241386 0.598431 0.591623
Si Si7 0.579432 0.162702 0.301728
Si Si8 0.760017 0.533409 0.042617
O O1 0.227035 0.736266 0.597683
O O2 0.159340 0.940378 0.387572
O O3 0.989930 0.829195 0.205374
O O4 0.195736 0.922188 0.666536
O O5 0.586494 0.457270 0.331686
O O6 0.807016 0.422827 0.618423
O O7 0.703888 0.247812 0.539811
O O8 0.736969 0.691962 0.276896
O O9 0.643564 0.641821 0.307731
O O10 0.731268 0.856221 0.415217
O O11 0.511162 0.783128 0.951923
O O12 0.847528 0.020806 0.985877
O O13 0.842103 0.915981 0.789123
O O14 0.395642 0.943751 0.372764
O O15 0.499222 0.837004 0.724960
O O16 0.629202 0.031389 0.356625
#
# Coordination Sequence:
#
# PCOD8129369 Si02
#       8
#     4   4   4   4   4   4   4   4
#     4  12  28  47  74 103 144 198 246 290 352 433
#     4  12  24  45  72 105 142 185 242 294 357 429
#     4  12  26  44  70 113 142 187 237 298 363 429
#     4  12  28  50  74 104 147 197 240 298 352 428
#     4  12  23  42  73 103 144 183 232 300 368 425
#     4  12  24  48  73 104 140 192 242 297 371 416
#     4  12  24  41  74 105 146 182 231 300 363 430
#     4  12  26  48  72 109 146 189 241 293 363 425
#
# _framework density 22.739401999999998
#
# number of rings (size 3 to 8) (size 9 to 14) (size 15 to 20)
#    0.000    0.000    6.250    3.375    3.500    1.500 
#    0.000    0.000    0.000    0.000    0.000    0.000 
#    0.000    0.000    0.000    0.000    0.000    0.000 
#
# Total GULP energy -396893.222752 kJ/mol
# GULP energy per Si atom -12402.913211 kJ/mol
# Density = 2.268765 g / cm^3
# Si number density = 22.739402 Si / 1000 Ang^3
#
#
#
# Elastic Constant Matrix: (Units=GPa)
#
#
# Indices 1 2 3 4 5 6 
#
# 1 86.5460 12.0134 38.0241 0.0000 -19.0990 0.0000
# 2 12.0134 93.9481 32.0722 0.0000 -3.0157 0.0000
# 3 38.0241 32.0722 109.8470 0.0000 -8.5608 0.0000
# 4 0.0000 0.0000 0.0000 26.0233 0.0000 -5.4292
# 5 -19.0990 -3.0157 -8.5608 0.0000 39.1165 0.0000
# 6 0.0000 0.0000 0.0000 -5.4292 0.0000 37.1907
#
#
#
# Elastic Compliance Matrix: (Units=1/GPa)
#
#
# Indices 1 2 3 4 5 6 
#
# 1 0.015014 -0.000123 -0.004670 0.000000 0.006299 0.000000
# 2 -0.000123 0.011825 -0.003401 0.000000 0.000107 0.000000
# 3 -0.004670 -0.003401 0.011715 0.000000 0.000021 0.000000
# 4 0.000000 0.000000 0.000000 0.039634 0.000000 0.005786
# 5 0.006299 0.000107 0.000021 0.000000 0.028653 0.000000
# 6 0.000000 0.000000 0.000000 0.005786 0.000000 0.027733
#
#
# Mechanical properties :
#
#
# Convention : Reuss Voigt Hill
#
# Bulk Modulus (GPa) = 45.11958 50.50675 47.81316
# Shear Modulus (GPa) = 31.57544 34.34818 32.96181
#
# Velocity S-wave (km/s) = 3.73041 3.89075 3.81142
# Velocity P-wave (km/s) = 6.19997 6.51485 6.35936
#
# Compressibility (1/GPa) = 0.02216333
#
# Stress axis : x y z
#
# Youngs Moduli (GPa) = 66.60659 84.56977 85.36111
#
# Poissons Ratio (x) = 0.01043 0.39865
# Poissons Ratio (y) = 0.00821 0.29035
# Poissons Ratio (z) = 0.31106 0.28766
#
# Static dielectric constant tensor:
#      x y z
#    x 4.277190 0.000000 -0.265020 
#    y 0.000000 4.138240 0.000000 
#    z -0.265020 0.000000 3.853920 
# 
# 
# High freq. dielectric constant tensor:
#      x y z
#    x 1.913380 0.000000 -0.020100 
#    y 0.000000 1.906180 0.000000 
#    z -0.020100 0.000000 1.873930 
# 
# From -- ./inp_files/35939.got.cif
#   From: 2010.03.12/outbox.cif.g09.slc.cpg/sg14_18_cif.got.tgz:35939.got - 2010.03.31 13:35:05.
