data_PCOD8129107
_publ_section_title
;
Structure prediction by ZEFSAII (Michael W. Deem and Ramdas Pophale) SiO2 
 PCOD8129107
Probable space group: P 21/C
;
_chemical_formula_sum "Si O2"
_cell_formula_units_Z 24
_cell_length_a 4.983968
_cell_length_b 11.393576
_cell_length_c 20.226846
_cell_angle_alpha 90.000000
_cell_angle_beta 119.288152
_cell_angle_gamma 90.000000
_cell_volume 1001.762651
_symmetry_space_group_name_H-M "P 21/C"
_symmetry_group_IT_number 14
_symmetry_cell_setting 'monoclinic'
loop_
_space_group_symop_operation_xyz
x,y,z
-x,1/2+y,1/2-z
-x,-y,-z
x,1/2-y,1/2+z
loop_
_atom_site_type_symbol
_atom_site_label
_atom_site_fract_x
_atom_site_fract_y
_atom_site_fract_z
Si Si1 0.452444 0.543571 0.801579
Si Si2 0.687734 0.296384 0.683623
Si Si3 0.261794 0.680159 0.453144
Si Si4 0.962608 0.905669 0.661605
Si Si5 0.801177 0.999643 0.864404
Si Si6 0.966309 0.723390 0.548190
O O1 0.500582 0.681553 0.817849
O O2 0.777343 0.503001 0.813548
O O3 0.192103 0.514721 0.714441
O O4 0.351407 0.473202 0.855870
O O5 0.832861 0.265228 0.629577
O O6 0.954657 0.314879 0.769802
O O7 0.474599 0.411728 0.649063
O O8 0.626932 0.669375 0.504094
O O9 0.117727 0.549624 0.433542
O O10 0.098732 0.756974 0.491558
O O11 0.934637 0.839107 0.588888
O O12 0.781357 0.130397 0.893162
#
# Coordination Sequence:
#
# PCOD8129107 Si02
#       6
#     4   4   4   4   4   4
#     4  11  25  44  73  99 138 179 237 285 329 419
#     4  11  25  46  71 102 137 183 234 278 344 413
#     4  12  25  43  70 105 139 179 222 289 349 403
#     4  11  25  46  68 102 137 184 230 278 346 407
#     4  11  24  44  72 105 136 177 225 293 348 398
#     4  12  26  44  70 105 143 173 227 286 349 407
#
# _framework density 23.95777
#
# number of rings (size 3 to 8) (size 9 to 14) (size 15 to 20)
#    0.000    0.667    5.000    2.000    4.667    0.000 
#    0.000    5.000    0.000    0.000    0.000    0.000 
#    0.000    0.000    0.000    0.000    0.000    0.000 
#
# Total GULP energy -297488.290028 kJ/mol
# GULP energy per Si atom -12395.345418 kJ/mol
# Density = 2.390324 g / cm^3
# Si number density = 23.957770 Si / 1000 Ang^3
#
#
#
# Elastic Constant Matrix: (Units=GPa)
#
#
# Indices 1 2 3 4 5 6 
#
# 1 102.4284 0.5430 28.2329 0.0000 -21.8172 0.0000
# 2 0.5430 41.3003 -16.5076 0.0000 -8.6008 0.0000
# 3 28.2329 -16.5076 38.2064 0.0000 -24.0503 0.0000
# 4 0.0000 0.0000 0.0000 10.2382 0.0000 1.4153
# 5 -21.8172 -8.6008 -24.0503 0.0000 41.9386 0.0000
# 6 0.0000 0.0000 0.0000 1.4153 0.0000 24.9239
#
#
#
# Elastic Compliance Matrix: (Units=1/GPa)
#
#
# Indices 1 2 3 4 5 6 
#
# 1 0.013115 -0.006254 -0.013938 0.000000 -0.002452 0.000000
# 2 -0.006254 0.051271 0.049052 0.000000 0.035391 0.000000
# 3 -0.013938 0.049052 0.093010 0.000000 0.056147 0.000000
# 4 0.000000 0.000000 0.000000 0.098446 0.000000 -0.005590
# 5 -0.002452 0.035391 0.056147 0.000000 0.062025 0.000000
# 6 0.000000 0.000000 0.000000 -0.005590 0.000000 0.040439
#
#
# Mechanical properties :
#
#
# Convention : Reuss Voigt Hill
#
# Bulk Modulus (GPa) = 4.64865 22.94130 13.79498
# Shear Modulus (GPa) = 13.43031 26.73127 20.08079
#
# Velocity S-wave (km/s) = 2.37023 3.34393 2.89826
# Velocity P-wave (km/s) = 3.07168 4.95032 4.11952
#
# Compressibility (1/GPa) = 0.21511606
#
# Stress axis : x y z
#
# Youngs Moduli (GPa) = 76.24614 19.50422 10.75155
#
# Poissons Ratio (x) = 0.12198 0.14985
# Poissons Ratio (y) = 0.47684 -0.52738
# Poissons Ratio (z) = 1.06269 -0.95671
#
# Static dielectric constant tensor:
#      x y z
#    x 4.171100 0.000000 -0.282810 
#    y 0.000000 4.030660 0.000000 
#    z -0.282810 0.000000 4.590800 
# 
# 
# High freq. dielectric constant tensor:
#      x y z
#    x 1.946410 0.000000 -0.017180 
#    y 0.000000 1.933900 0.000000 
#    z -0.017180 0.000000 1.954360 
# 
# From -- ./inp_files/63386.got.cif
#   From: 2010.03.12/outbox.cif.g09.slc.cpg/sg14_32_cif.got.tgz:63386.got - 2010.03.31 13:35:05.
