data_PCOD8129776
_publ_section_title
;
Structure prediction by ZEFSAII (Michael W. Deem and Ramdas Pophale) SiO2 
 PCOD8129776
Probable space group: C 2/C
;
_chemical_formula_sum "Si O2"
_cell_formula_units_Z 60
_cell_length_a 23.036275
_cell_length_b 9.739057
_cell_length_c 17.211894
_cell_angle_alpha 90.000000
_cell_angle_beta 79.542687
_cell_angle_gamma 90.000000
_cell_volume 3797.377664
_symmetry_space_group_name_H-M "C 2/C"
_symmetry_group_IT_number 15
_symmetry_cell_setting 'monoclinic'
loop_
_space_group_symop_operation_xyz
x,y,z
-x,y,1/2-z
-x,-y,-z
x,-y,1/2+z
1/2+x,1/2+y,z
1/2-x,1/2+y,1/2-z
1/2-x,1/2-y,-z
1/2+x,1/2-y,1/2+z
loop_
_atom_site_type_symbol
_atom_site_label
_atom_site_fract_x
_atom_site_fract_y
_atom_site_fract_z
Si Si1 0.268185 0.333818 0.603303
Si Si2 0.839226 0.239485 0.770342
Si Si3 0.183078 0.417422 0.496678
Si Si4 0.623204 0.836525 0.252830
Si Si5 0.000000 0.577027 0.750000
Si Si6 0.180717 0.945089 0.762080
Si Si7 0.308935 0.038127 0.162266
Si Si8 0.401911 0.057470 0.354568
O O1 0.223651 0.248660 0.669775
O O2 0.231961 0.431856 0.553092
O O3 0.309344 0.231009 0.544788
O O4 0.309948 0.426909 0.647605
O O5 0.838788 0.325742 0.690038
O O6 0.889943 0.298270 0.814114
O O7 0.856131 0.083838 0.744323
O O8 0.189347 0.538998 0.432076
O O9 0.117706 0.429850 0.550982
O O10 0.551314 0.832762 0.279035
O O11 0.645990 0.682913 0.232939
O O12 0.655717 0.900608 0.319903
O O13 0.638537 0.937508 0.176552
O O14 0.970715 0.481976 0.825332
O O15 0.242036 0.967218 0.704688
#
# Coordination Sequence:
#
# PCOD8129776 Si02
#       8
#     8   8   8   8   4   8   8   8
#     4   9  18  27  45  72 112 136 160 191 260 316
#     4   9  17  29  48  73 100 136 169 198 241 305
#     4  10  16  29  48  76 103 133 166 206 253 296
#     4   9  18  34  53  69  99 134 172 204 244 303
#     4   8  18  38  56  68  92 134 182 218 226 302
#     4  11  17  30  49  77 103 140 159 199 251 319
#     4  10  17  29  49  76 103 130 168 201 245 306
#     4   8  18  33  54  69  96 127 176 215 241 281
#
# _framework density 15.800376999999999
#
# number of rings (size 3 to 8) (size 9 to 14) (size 15 to 20)
#    0.800    1.867    2.667    1.600    0.000    0.000 
#    0.000    4.000    0.000    0.000    0.000    1.867 
#    0.000    0.000    0.000    0.000    0.000    0.000 
#
# Total GULP energy -371671.795303 kJ/mol
# GULP energy per Si atom -12389.059843 kJ/mol
# Density = 1.576441 g / cm^3
# Si number density = 15.800377 Si / 1000 Ang^3
#
#
#
# Elastic Constant Matrix: (Units=GPa)
#
#
# Indices 1 2 3 4 5 6 
#
# 1 78.0126 32.4855 29.0897 0.0000 -7.6064 0.0000
# 2 32.4855 103.5570 29.0946 0.0000 4.0612 0.0000
# 3 29.0897 29.0946 104.5106 0.0000 -0.1102 0.0000
# 4 0.0000 0.0000 0.0000 21.7299 0.0000 3.5036
# 5 -7.6064 4.0612 -0.1102 0.0000 14.3210 0.0000
# 6 0.0000 0.0000 0.0000 3.5036 0.0000 0.0921
#
#
#
# Elastic Compliance Matrix: (Units=1/GPa)
#
#
# Indices 1 2 3 4 5 6 
#
# 1 0.017114 -0.004819 -0.003411 0.000000 0.010430 0.000000
# 2 -0.004819 0.011963 -0.001995 0.000000 -0.005968 0.000000
# 3 -0.003411 -0.001995 0.011072 0.000000 -0.001161 0.000000
# 4 0.000000 0.000000 0.000000 -0.008968 0.000000 0.341044
# 5 0.010430 -0.005968 -0.001161 0.000000 0.077051 0.000000
# 6 0.000000 0.000000 0.000000 0.341044 0.000000 -2.115230
#
#
# Mechanical properties :
#
#
# Convention : Reuss Voigt Hill
#
# Bulk Modulus (GPa) = 50.76635 51.93552 51.35094
# Shear Modulus (GPa) = -2.52528 20.25596 8.86534
#
# Velocity S-wave (km/s) = -1.26559 3.58438 2.37129
# Velocity P-wave (km/s) = 5.48306 7.07612 6.32991
#
# Compressibility (1/GPa) = 0.01969809
#
# Stress axis : x y z
#
# Youngs Moduli (GPa) = 58.43109 83.59150 90.31773
#
# Poissons Ratio (x) = 0.40286 0.30807
# Poissons Ratio (y) = 0.28160 0.18020
# Poissons Ratio (z) = 0.19930 0.16678
#
# Static dielectric constant tensor:
#      x y z
#    x 2.776580 0.000000 0.100380 
#    y 0.000000 2.900880 0.000000 
#    z 0.100380 0.000000 3.012730 
# 
# 
# High freq. dielectric constant tensor:
#      x y z
#    x 1.577050 0.000000 0.009370 
#    y 0.000000 1.592510 0.000000 
#    z 0.009370 0.000000 1.596970 
# 
# From -- ./inp_files/218215.got.cif
#   From: 2010.06.25/outbox.cif.g09.slc.cpg/sg15_110_cif.got.tgz:218215.got - 2010.06.28 07:06:18.
