data_PCOD8129570
_publ_section_title
;
Structure prediction by ZEFSAII (Michael W. Deem and Ramdas Pophale) SiO2 
 PCOD8129570
Probable space group: C 2/C
;
_chemical_formula_sum "Si O2"
_cell_formula_units_Z 24
_cell_length_a 15.000000
_cell_length_b 30.000000
_cell_length_c 15.000000
_cell_angle_alpha 90.000000
_cell_angle_beta 160.000000
_cell_angle_gamma 90.000000
_cell_volume 2308.635967
_symmetry_space_group_name_H-M "C 2/C"
_symmetry_group_IT_number 15
_symmetry_cell_setting 'monoclinic'
loop_
_space_group_symop_operation_xyz
x,y,z
-x,y,1/2-z
-x,-y,-z
x,-y,1/2+z
1/2+x,1/2+y,z
1/2-x,1/2+y,1/2-z
1/2-x,1/2-y,-z
1/2+x,1/2-y,1/2+z
loop_
_atom_site_type_symbol
_atom_site_label
_atom_site_fract_x
_atom_site_fract_y
_atom_site_fract_z
Si Si1 0.904595 0.935864 0.487933
Si Si2 0.601502 0.112380 0.248339
Si Si3 0.500000 0.382400 0.750000
Si Si4 0.326698 0.637241 0.783085
Si Si5 0.305096 0.776966 0.238632
Si Si6 0.000000 0.675736 0.750000
Si Si7 0.667598 0.022119 0.233268
O O1 0.745668 0.898161 0.284297
O O2 0.022981 0.914037 0.686321
O O3 0.106699 0.951668 0.604168
O O4 0.748811 0.980210 0.371780
O O5 0.500000 0.125055 0.250000
O O6 0.536779 0.059561 0.172466
O O7 0.903140 0.126015 0.514944
O O8 0.417497 0.140449 0.011393
O O9 0.234076 0.354469 0.508251
O O10 0.336714 0.685371 0.836908
O O11 0.590295 0.762269 0.540910
O O12 0.356995 0.793635 0.187563
O O13 0.500000 0.000000 0.000000
#
# Coordination Sequence:
#
# PCOD8129570 Si02
#       7
#     8   8   4   8   8   4   8
#     4  10  23  40  59  93 130 182 220 270 317 384
#     4  11  24  42  69  97 130 173 227 276 335 389
#     4  12  26  39  66  96 138 184 222 258 322 395
#     4  11  23  44  69  92 134 172 219 271 335 397
#     4  12  25  44  71 101 134 173 216 267 332 406
#     4  12  26  43  66 102 142 174 220 264 326 389
#     4  10  21  39  63  90 132 174 224 278 322 371
#
# _framework density 10.395749
#
# number of rings (size 3 to 8) (size 9 to 14) (size 15 to 20)
#    0.000    1.000    3.333    3.000    7.000    1.333 
#    0.000    0.000    0.000   10.000    0.000    0.000 
#    0.000    0.000    0.000    0.000    0.000    0.000 
#
# Total GULP energy -297380.248347 kJ/mol
# GULP energy per Si atom -12390.843681 kJ/mol
# Density = 1.037209 g / cm^3
# Si number density = 10.395749 Si / 1000 Ang^3
#
#
#
# Elastic Constant Matrix: (Units=GPa)
#
#
# Indices 1 2 3 4 5 6 
#
# 1 82.2273 40.0137 13.3271 0.0001 1.2151 0.0011
# 2 40.0137 96.9282 18.2133 0.0029 5.9662 -0.0016
# 3 13.3271 18.2133 93.2932 0.0228 10.8647 0.0047
# 4 0.0001 0.0029 0.0228 -5.4276 0.0073 -19.9277
# 5 1.2151 5.9662 10.8647 0.0073 30.3426 0.0068
# 6 0.0011 -0.0016 0.0047 -19.9277 0.0068 16.7833
#
#
#
# Elastic Compliance Matrix: (Units=1/GPa)
#
#
# Indices 1 2 3 4 5 6 
#
# 1 0.015335 -0.006185 -0.001099 0.000000 0.000996 -0.000002
# 2 -0.006185 0.013263 -0.001493 -0.000002 -0.001826 0.000000
# 3 -0.001099 -0.001493 0.011612 0.000009 -0.003820 0.000009
# 4 0.000000 -0.000002 0.000009 -0.034377 0.000015 -0.040818
# 5 0.000996 -0.001826 -0.003820 0.000015 0.034644 0.000004
# 6 -0.000002 0.000000 0.000009 -0.040818 0.000004 0.011117
#
#
# Mechanical properties :
#
#
# Convention : Reuss Voigt Hill
#
# Bulk Modulus (GPa) = 44.13951 46.17300 45.15625
# Shear Modulus (GPa) = 65.18816 21.73261 43.46039
#
# Velocity S-wave (km/s) = 5.60547 3.23656 4.57694
# Velocity P-wave (km/s) = 7.94801 6.01855 7.04960
#
# Compressibility (1/GPa) = 0.02265544
#
# Stress axis : x y z
#
# Youngs Moduli (GPa) = 65.21163 75.39642 86.11556
#
# Poissons Ratio (x) = 0.46634 0.09464
# Poissons Ratio (y) = 0.40335 0.12858
# Poissons Ratio (z) = 0.07167 0.11258
#
# Static dielectric constant tensor:
#      x y z
#    x 2.536410 0.001520 -0.133660 
#    y 0.001520 4.051420 0.000780 
#    z -0.133660 0.000780 3.732500 
# 
# 
# High freq. dielectric constant tensor:
#      x y z
#    x 1.800870 0.000000 0.008500 
#    y 0.000000 1.824340 0.000000 
#    z 0.008500 0.000000 1.818850 
# 
# From -- ./inp_files/157761.got.cif
#   From: 2010.06.25/outbox.ucp.g09.slc.cvg/sg15_79_cif.got.tgz:157761.got - 2010.06.28 14:40:10.
