data_PCOD8129290
_publ_section_title
;
Structure prediction by ZEFSAII (Michael W. Deem and Ramdas Pophale) SiO2 
 PCOD8129290
Probable space group: P 21/C
;
_chemical_formula_sum "Si O2"
_cell_formula_units_Z 24
_cell_length_a 24.917297
_cell_length_b 5.113735
_cell_length_c 22.456890
_cell_angle_alpha 90.000000
_cell_angle_beta 20.509317
_cell_angle_gamma 90.000000
_cell_volume 1002.542734
_symmetry_space_group_name_H-M "P 21/C"
_symmetry_group_IT_number 14
_symmetry_cell_setting 'monoclinic'
loop_
_space_group_symop_operation_xyz
x,y,z
-x,1/2+y,1/2-z
-x,-y,-z
x,1/2-y,1/2+z
loop_
_atom_site_type_symbol
_atom_site_label
_atom_site_fract_x
_atom_site_fract_y
_atom_site_fract_z
Si Si1 0.378308 0.318140 0.152708
Si Si2 0.903188 0.578364 0.358313
Si Si3 0.579620 0.681091 0.639386
Si Si4 0.387620 0.474905 0.525260
Si Si5 0.945850 0.004844 0.623958
Si Si6 0.102977 0.998995 0.004398
O O1 0.321565 0.166425 0.153431
O O2 0.255136 0.521225 0.306553
O O3 0.500000 0.500000 0.000000
O O4 0.460772 0.142449 0.117755
O O5 0.757453 0.631923 0.468473
O O6 0.847890 0.461913 0.478653
O O7 0.006843 0.348864 0.222538
O O8 0.473914 0.454914 0.777351
O O9 0.564740 0.693183 0.582613
O O10 0.224733 0.615747 0.682225
O O11 0.975184 0.713473 0.619497
O O12 0.000000 0.000000 0.500000
O O13 0.052927 0.203492 0.547359
#
# Coordination Sequence:
#
# PCOD8129290 Si02
#       6
#     4   4   4   4   4   4
#     4  11  26  44  71 104 141 186 226 293 360 416
#     4  12  26  49  72 106 141 193 240 293 352 419
#     4  12  28  48  73 106 142 191 242 293 350 422
#     4  11  26  45  71 102 144 181 236 289 354 420
#     4  12  25  46  70 108 137 182 229 288 354 419
#     4  12  26  45  75 101 145 181 237 287 352 423
#
# _framework density 23.939129999999999
#
# number of rings (size 3 to 8) (size 9 to 14) (size 15 to 20)
#    0.000    0.333    1.667    6.500    9.333    0.000 
#    0.000    0.000    0.000    0.000    0.000    0.000 
#    0.000    0.000    0.000    0.000    0.000    0.000 
#
# Total GULP energy -297380.630771 kJ/mol
# GULP energy per Si atom -12390.859615 kJ/mol
# Density = 2.388464 g / cm^3
# Si number density = 23.939130 Si / 1000 Ang^3
#
#
#
# Elastic Constant Matrix: (Units=GPa)
#
#
# Indices 1 2 3 4 5 6 
#
# 1 119.6346 10.7101 28.5444 0.0000 6.9384 0.0000
# 2 10.7101 87.2762 12.7808 0.0000 -2.9695 0.0000
# 3 28.5444 12.7808 102.5992 0.0000 -1.5556 0.0000
# 4 0.0000 0.0000 0.0000 45.8944 0.0000 2.3589
# 5 6.9384 -2.9695 -1.5556 0.0000 36.5427 0.0000
# 6 0.0000 0.0000 0.0000 2.3589 0.0000 16.5373
#
#
#
# Elastic Compliance Matrix: (Units=1/GPa)
#
#
# Indices 1 2 3 4 5 6 
#
# 1 0.009132 -0.000824 -0.002467 0.000000 -0.001906 0.000000
# 2 -0.000824 0.011774 -0.001221 0.000000 0.001061 0.000000
# 3 -0.002467 -0.001221 0.010598 0.000000 0.000820 0.000000
# 4 0.000000 0.000000 0.000000 0.021950 0.000000 -0.003131
# 5 -0.001906 0.001061 0.000820 0.000000 0.027848 0.000000
# 6 0.000000 0.000000 0.000000 -0.003131 0.000000 0.060916
#
#
# Mechanical properties :
#
#
# Convention : Reuss Voigt Hill
#
# Bulk Modulus (GPa) = 44.48668 45.95340 45.22004
# Shear Modulus (GPa) = 31.49903 36.95984 34.22944
#
# Velocity S-wave (km/s) = 3.63133 3.93352 3.78544
# Velocity P-wave (km/s) = 6.01711 6.31409 6.16739
#
# Compressibility (1/GPa) = 0.02247864
#
# Stress axis : x y z
#
# Youngs Moduli (GPa) = 109.50909 84.93305 94.36165
#
# Poissons Ratio (x) = 0.07000 0.23277
# Poissons Ratio (y) = 0.09026 0.11524
# Poissons Ratio (z) = 0.27013 0.10373
#
# Static dielectric constant tensor:
#      x y z
#    x 4.460010 0.000000 0.629010 
#    y 0.000000 0.340440 0.000000 
#    z 0.629010 0.000000 5.879280 
# 
# 
# High freq. dielectric constant tensor:
#      x y z
#    x 1.969860 0.000000 0.004100 
#    y 0.000000 1.938920 0.000000 
#    z 0.004100 0.000000 1.965500 
# 
# From -- ./inp_files/75086.got.cif
#   From: 2010.03.12/outbox.cif.g09.slc.cpg/sg14_38_cif.got.tgz:75086.got - 2010.03.31 13:35:05.
