data_PCOD8129637
_publ_section_title
;
Structure prediction by ZEFSAII (Michael W. Deem and Ramdas Pophale) SiO2 
 PCOD8129637
Probable space group: C 2/C
;
_chemical_formula_sum "Si O2"
_cell_formula_units_Z 44
_cell_length_a 26.894795
_cell_length_b 14.820408
_cell_length_c 8.422935
_cell_angle_alpha 90.000000
_cell_angle_beta 119.550242
_cell_angle_gamma 90.000000
_cell_volume 2920.605782
_symmetry_space_group_name_H-M "C 2/C"
_symmetry_group_IT_number 15
_symmetry_cell_setting 'monoclinic'
loop_
_space_group_symop_operation_xyz
x,y,z
-x,y,1/2-z
-x,-y,-z
x,-y,1/2+z
1/2+x,1/2+y,z
1/2-x,1/2+y,1/2-z
1/2-x,1/2-y,-z
1/2+x,1/2-y,1/2+z
loop_
_atom_site_type_symbol
_atom_site_label
_atom_site_fract_x
_atom_site_fract_y
_atom_site_fract_z
Si Si1 0.677047 0.072960 0.710134
Si Si2 0.213624 0.878258 0.529793
Si Si3 0.245010 0.042339 0.390637
Si Si4 0.919468 0.565272 0.370464
Si Si5 0.000000 0.517024 0.750000
Si Si6 0.832924 0.306579 0.591486
O O1 0.661821 0.161585 0.584159
O O2 0.706264 0.003831 0.636453
O O3 0.621121 0.023269 0.690105
O O4 0.721231 0.099342 0.920918
O O5 0.208466 0.895722 0.712297
O O6 0.167253 0.802479 0.409044
O O7 0.276827 0.843599 0.589506
O O8 0.203233 0.969338 0.410966
O O9 0.952700 0.579396 0.588767
O O10 0.885987 0.657089 0.277254
O O11 0.967857 0.550271 0.316754
#
# Coordination Sequence:
#
# PCOD8129637 Si02
#       6
#     8   8   8   8   4   8
#     4  10  15  26  45  57  88 128 141 178 215 252
#     4   9  18  28  44  65  85 122 151 186 217 270
#     4   9  15  27  43  61  88 118 150 171 225 261
#     4  11  17  31  42  64  88 124 151 183 211 265
#     4  10  22  26  46  64  86 126 160 168 224 268
#     4  10  18  28  44  64  88 116 161 183 216 256
#
# _framework density 15.065367
#
# number of rings (size 3 to 8) (size 9 to 14) (size 15 to 20)
#    0.000    2.182    7.273    0.000    0.000    0.727 
#    0.000    0.000    0.000    0.000    0.000    0.000 
#    0.000    4.364    0.000    0.000    0.000    0.000 
#
# Total GULP energy -272616.658756 kJ/mol
# GULP energy per Si atom -12391.666307 kJ/mol
# Density = 1.503108 g / cm^3
# Si number density = 15.065367 Si / 1000 Ang^3
#
#
#
# Elastic Constant Matrix: (Units=GPa)
#
#
# Indices 1 2 3 4 5 6 
#
# 1 32.5590 18.2199 19.7995 0.0000 0.9818 0.0000
# 2 18.2199 63.4425 49.0102 0.0000 8.2718 0.0000
# 3 19.7995 49.0102 115.6993 0.0000 -1.1050 0.0000
# 4 0.0000 0.0000 0.0000 25.4716 0.0000 3.2704
# 5 0.9818 8.2718 -1.1050 0.0000 21.1406 0.0000
# 6 0.0000 0.0000 0.0000 3.2704 0.0000 13.8137
#
#
#
# Elastic Compliance Matrix: (Units=1/GPa)
#
#
# Indices 1 2 3 4 5 6 
#
# 1 0.037218 -0.008906 -0.002581 0.000000 0.001621 0.000000
# 2 -0.008906 0.027728 -0.010326 0.000000 -0.010976 0.000000
# 3 -0.002581 -0.010326 0.013506 0.000000 0.004866 0.000000
# 4 0.000000 0.000000 0.000000 0.040490 0.000000 -0.009586
# 5 0.001621 -0.010976 0.004866 0.000000 0.051776 0.000000
# 6 0.000000 0.000000 0.000000 -0.009586 0.000000 0.074662
#
#
# Mechanical properties :
#
#
# Convention : Reuss Voigt Hill
#
# Bulk Modulus (GPa) = 28.71519 42.86223 35.78871
# Shear Modulus (GPa) = 16.63258 20.39659 18.51459
#
# Velocity S-wave (km/s) = 3.32630 3.68349 3.50944
# Velocity P-wave (km/s) = 5.81843 6.82667 6.34262
#
# Compressibility (1/GPa) = 0.03482477
#
# Stress axis : x y z
#
# Youngs Moduli (GPa) = 26.86879 36.06417 74.04368
#
# Poissons Ratio (x) = 0.32119 0.19110
# Poissons Ratio (y) = 0.23930 0.76461
# Poissons Ratio (z) = 0.06935 0.37242
#
# Static dielectric constant tensor:
#      x y z
#    x 2.806110 0.000000 -0.272800 
#    y 0.000000 2.969500 0.000000 
#    z -0.272800 0.000000 3.337130 
# 
# 
# High freq. dielectric constant tensor:
#      x y z
#    x 1.551500 0.000000 -0.026400 
#    y 0.000000 1.537960 0.000000 
#    z -0.026400 0.000000 1.586080 
# 
# From -- ./inp_files/54898.got.cif
#   From: 2010.06.25/outbox.cif.g09.slc.cpg/sg15_28_cif.got.tgz:54898.got - 2010.06.28 07:06:18.
