data_PCOD8129953
_publ_section_title
;
Structure prediction by ZEFSAII (Michael W. Deem and Ramdas Pophale) SiO2 
 PCOD8129953
Probable space group: C 2/C
;
_chemical_formula_sum "Si O2"
_cell_formula_units_Z 64
_cell_length_a 20.201470
_cell_length_b 16.321940
_cell_length_c 21.748057
_cell_angle_alpha 90.000000
_cell_angle_beta 151.535022
_cell_angle_gamma 90.000000
_cell_volume 3417.817247
_symmetry_space_group_name_H-M "C 2/C"
_symmetry_group_IT_number 15
_symmetry_cell_setting 'monoclinic'
loop_
_space_group_symop_operation_xyz
x,y,z
-x,y,1/2-z
-x,-y,-z
x,-y,1/2+z
1/2+x,1/2+y,z
1/2-x,1/2+y,1/2-z
1/2-x,1/2-y,-z
1/2+x,1/2-y,1/2+z
loop_
_atom_site_type_symbol
_atom_site_label
_atom_site_fract_x
_atom_site_fract_y
_atom_site_fract_z
Si Si1 0.542704 0.489425 0.605479
Si Si2 0.720866 0.647742 0.302350
Si Si3 0.466958 0.067078 0.286849
Si Si4 0.851731 0.420191 0.030583
Si Si5 0.367755 0.827146 0.254326
Si Si6 0.563412 0.099500 0.109780
Si Si7 0.185402 0.425843 0.172451
Si Si8 0.228553 0.944162 0.054922
O O1 0.500000 0.500000 0.500000
O O2 0.610531 0.400716 0.671018
O O3 0.652632 0.561267 0.712438
O O4 0.413127 0.493002 0.546370
O O5 0.771334 0.592499 0.400974
O O6 0.648190 0.729940 0.265949
O O7 0.854493 0.662992 0.367140
O O8 0.500000 0.116442 0.250000
O O9 0.422210 0.126879 0.306421
O O10 0.590391 0.012767 0.417874
O O11 0.351031 0.005382 0.169811
O O12 0.739855 0.410707 0.994372
O O13 0.977148 0.354078 0.139685
O O14 0.336404 0.851589 0.298554
O O15 0.246581 0.865828 0.113587
O O16 0.628824 0.008579 0.158226
O O17 0.401719 0.096595 0.959211
#
# Coordination Sequence:
#
# PCOD8129953 Si02
#       8
#     8   8   8   8   8   8   8   8
#     4  11  21  35  51  76 102 144 181 231 286 315
#     4  11  24  32  54  76 111 146 189 226 262 330
#     4   9  16  31  57  78  99 130 178 226 271 321
#     4  10  20  37  50  75 108 150 188 217 258 327
#     4  11  20  36  51  79 107 150 186 224 267 316
#     4  10  16  34  54  78  98 135 183 228 270 320
#     4  10  18  31  58  72 104 140 178 233 275 317
#     4  10  20  34  52  73 113 146 179 225 265 318
#
# _framework density 18.725401000000002
#
# number of rings (size 3 to 8) (size 9 to 14) (size 15 to 20)
#    0.000    1.750    5.000    3.375    1.750    1.000 
#    2.250    0.000    0.000    0.000    0.000    0.875 
#    7.500    0.000    0.000    0.000    0.000    0.000 
#
# Total GULP energy -396550.775576 kJ/mol
# GULP energy per Si atom -12392.211737 kJ/mol
# Density = 1.868278 g / cm^3
# Si number density = 18.725401 Si / 1000 Ang^3
#
#
#
# Elastic Constant Matrix: (Units=GPa)
#
#
# Indices 1 2 3 4 5 6 
#
# 1 148.0851 17.4287 47.9138 -0.0072 -21.0827 -0.0024
# 2 17.4287 16.8763 11.4992 0.0010 1.4013 -0.0014
# 3 47.9138 11.4992 82.0006 -0.0124 -11.2760 -0.0053
# 4 -0.0072 0.0010 -0.0124 14.1079 -0.0065 2.0837
# 5 -21.0827 1.4013 -11.2760 -0.0065 29.1680 -0.0024
# 6 -0.0024 -0.0014 -0.0053 2.0837 -0.0024 20.5278
#
#
#
# Elastic Compliance Matrix: (Units=1/GPa)
#
#
# Indices 1 2 3 4 5 6 
#
# 1 0.009766 -0.008023 -0.003757 0.000005 0.005992 0.000000
# 2 -0.008023 0.073518 -0.007293 -0.000022 -0.012150 0.000003
# 3 -0.003757 -0.007293 0.015935 0.000014 0.003795 0.000002
# 4 0.000005 -0.000022 0.000014 0.071961 0.000026 -0.007305
# 5 0.005992 -0.012150 0.003795 0.000026 0.040666 0.000003
# 6 0.000000 0.000003 0.000002 -0.007305 0.000003 0.049456
#
#
# Mechanical properties :
#
#
# Convention : Reuss Voigt Hill
#
# Bulk Modulus (GPa) = 16.37375 44.51617 30.44496
# Shear Modulus (GPa) = 15.63452 24.10210 19.86831
#
# Velocity S-wave (km/s) = 2.89266 3.59156 3.26089
# Velocity P-wave (km/s) = 4.46316 6.40498 5.52013
#
# Compressibility (1/GPa) = 0.06107336
#
# Stress axis : x y z
#
# Youngs Moduli (GPa) = 102.39777 13.60207 62.75510
#
# Poissons Ratio (x) = 0.10913 0.23579
# Poissons Ratio (y) = 0.82152 0.45765
# Poissons Ratio (z) = 0.38474 0.09920
#
# Static dielectric constant tensor:
#      x y z
#    x 3.833170 -0.000010 0.002320 
#    y -0.000010 2.959180 -0.000040 
#    z 0.002320 -0.000040 3.634390 
# 
# 
# High freq. dielectric constant tensor:
#      x y z
#    x 1.731710 0.000000 -0.007310 
#    y 0.000000 1.662100 0.000000 
#    z -0.007310 0.000000 1.735770 
# 
# From -- ./inp_files/253235.got.cif
#   From: 2010.06.25/outbox.cif.g09.slc.cpg/sg15_127_cif.got.tgz:253235.got - 2010.06.28 07:06:18.
