data_PCOD8129273
_publ_section_title
;
Structure prediction by ZEFSAII (Michael W. Deem and Ramdas Pophale) SiO2 
 PCOD8129273
Probable space group: P 21/C
;
_chemical_formula_sum "Si O2"
_cell_formula_units_Z 24
_cell_length_a 19.945275
_cell_length_b 10.457572
_cell_length_c 14.335909
_cell_angle_alpha 90.000000
_cell_angle_beta 160.555042
_cell_angle_gamma 90.000000
_cell_volume 995.431580
_symmetry_space_group_name_H-M "P 21/C"
_symmetry_group_IT_number 14
_symmetry_cell_setting 'monoclinic'
loop_
_space_group_symop_operation_xyz
x,y,z
-x,1/2+y,1/2-z
-x,-y,-z
x,1/2-y,1/2+z
loop_
_atom_site_type_symbol
_atom_site_label
_atom_site_fract_x
_atom_site_fract_y
_atom_site_fract_z
Si Si1 0.956814 0.776427 0.860929
Si Si2 0.344839 0.449207 0.121742
Si Si3 0.648658 0.723702 0.244663
Si Si4 0.705254 0.197497 0.339359
Si Si5 0.063108 0.697408 0.197232
Si Si6 0.709065 0.550961 0.486089
O O1 0.867159 0.914223 0.709759
O O2 0.769036 0.678407 0.621555
O O3 0.108320 0.722037 0.983317
O O4 0.063114 0.777436 0.100783
O O5 0.435742 0.321734 0.288100
O O6 0.321979 0.546222 0.179463
O O7 0.497598 0.500090 0.245203
O O8 0.682204 0.585938 0.339785
O O9 0.858328 0.777995 0.483196
O O10 0.487759 0.722601 0.950216
O O11 0.746457 0.250119 0.496396
O O12 0.106962 0.546124 0.249357
#
# Coordination Sequence:
#
# PCOD8129273 Si02
#       6
#     4   4   4   4   4   4
#     4  11  26  48  75 112 147 200 257 308 387 453
#     4  11  25  47  76 110 150 197 255 311 378 452
#     4  11  26  48  75 112 147 200 257 308 387 453
#     4  12  26  47  76 106 154 195 250 310 382 447
#     4  12  26  47  76 106 154 195 250 310 382 447
#     4  11  25  47  76 110 150 197 255 311 378 452
#
# _framework density 24.110143999999998
#
# number of rings (size 3 to 8) (size 9 to 14) (size 15 to 20)
#    0.000    0.667    3.333    4.000    9.333    1.333 
#    0.000    0.000    0.000    0.000    0.000    0.000 
#    0.000    0.000    0.000    0.000    0.000    0.000 
#
# Total GULP energy -297515.761309 kJ/mol
# GULP energy per Si atom -12396.490055 kJ/mol
# Density = 2.405527 g / cm^3
# Si number density = 24.110144 Si / 1000 Ang^3
#
#
#
# Elastic Constant Matrix: (Units=GPa)
#
#
# Indices 1 2 3 4 5 6 
#
# 1 124.3413 33.6749 63.5431 0.0000 -5.8816 0.0000
# 2 33.6749 44.6737 24.2899 0.0000 14.2476 0.0000
# 3 63.5431 24.2899 142.6858 0.0000 -22.3771 0.0000
# 4 0.0000 0.0000 0.0000 39.6117 0.0000 -6.6895
# 5 -5.8816 14.2476 -22.3771 0.0000 57.2314 0.0000
# 6 0.0000 0.0000 0.0000 -6.6895 0.0000 35.1118
#
#
#
# Elastic Compliance Matrix: (Units=1/GPa)
#
#
# Indices 1 2 3 4 5 6 
#
# 1 0.012145 -0.007570 -0.003866 0.000000 0.001621 0.000000
# 2 -0.007570 0.033729 -0.004058 0.000000 -0.010762 0.000000
# 3 -0.003866 -0.004058 0.010139 0.000000 0.004577 0.000000
# 4 0.000000 0.000000 0.000000 0.026084 0.000000 0.004970
# 5 0.001621 -0.010762 0.004577 0.000000 0.022108 0.000000
# 6 0.000000 0.000000 0.000000 0.004970 0.000000 0.029427
#
#
# Mechanical properties :
#
#
# Convention : Reuss Voigt Hill
#
# Bulk Modulus (GPa) = 39.96013 61.63517 50.79765
# Shear Modulus (GPa) = 28.90809 39.07050 33.98929
#
# Velocity S-wave (km/s) = 3.46642 4.02991 3.75874
# Velocity P-wave (km/s) = 5.71239 6.87554 6.32078
#
# Compressibility (1/GPa) = 0.02502494
#
# Stress axis : x y z
#
# Youngs Moduli (GPa) = 82.34096 29.64767 98.63301
#
# Poissons Ratio (x) = 0.22443 0.38127
# Poissons Ratio (y) = 0.62331 0.40030
# Poissons Ratio (z) = 0.31829 0.12032
#
# Static dielectric constant tensor:
#      x y z
#    x 4.443400 0.000000 -0.543730 
#    y 0.000000 4.625010 0.000000 
#    z -0.543730 0.000000 4.803280 
# 
# 
# High freq. dielectric constant tensor:
#      x y z
#    x 1.958660 0.000000 -0.006100 
#    y 0.000000 1.951080 0.000000 
#    z -0.006100 0.000000 1.962590 
# 
# From -- ./inp_files/50465.got.cif
#   From: 2010.03.12/outbox.cif.g09.slc.cpg/sg14_26_cif.got.tgz:50465.got - 2010.03.31 13:35:05.
