data_PCOD8129037
_publ_section_title
;
Structure prediction by ZEFSAII (Michael W. Deem and Ramdas Pophale) SiO2 
 PCOD8129037
Probable space group: P 21/C
;
_chemical_formula_sum "Si O2"
_cell_formula_units_Z 24
_cell_length_a 9.726941
_cell_length_b 13.632446
_cell_length_c 9.981539
_cell_angle_alpha 90.000000
_cell_angle_beta 74.648140
_cell_angle_gamma 90.000000
_cell_volume 1276.344561
_symmetry_space_group_name_H-M "P 21/C"
_symmetry_group_IT_number 14
_symmetry_cell_setting 'monoclinic'
loop_
_space_group_symop_operation_xyz
x,y,z
-x,1/2+y,1/2-z
-x,-y,-z
x,1/2-y,1/2+z
loop_
_atom_site_type_symbol
_atom_site_label
_atom_site_fract_x
_atom_site_fract_y
_atom_site_fract_z
Si Si1 0.252992 0.745225 0.668657
Si Si2 0.136961 0.551049 0.123786
Si Si3 0.451282 0.467519 0.656937
Si Si4 0.550767 0.256598 0.631746
Si Si5 0.406534 0.444167 0.131655
Si Si6 0.850450 0.444650 0.193901
O O1 0.174968 0.850558 0.696784
O O2 0.380398 0.734836 0.742359
O O3 0.321096 0.728284 0.505851
O O4 0.139205 0.659029 0.729787
O O5 0.242093 0.462149 0.136540
O O6 0.979987 0.514731 0.203677
O O7 0.148520 0.576584 0.964370
O O8 0.500000 0.500000 0.500000
O O9 0.451075 0.350741 0.668161
O O10 0.564902 0.513392 0.729218
O O11 0.293093 0.501089 0.729470
O O12 0.445129 0.169957 0.614540
O O13 0.500000 0.500000 0.000000
#
# Coordination Sequence:
#
# PCOD8129037 Si02
#       6
#     4   4   4   4   4   4
#     4  12  20  41  64  92 118 173 203 254 330 365
#     4  11  24  41  67  90 130 168 210 258 312 391
#     4  12  22  38  62  96 128 155 211 271 306 356
#     4  12  22  35  68  93 124 162 215 260 304 376
#     4  12  20  40  64  93 116 170 219 247 301 381
#     4  11  24  42  63  95 130 165 207 263 319 376
#
# _framework density 18.803699999999999
#
# number of rings (size 3 to 8) (size 9 to 14) (size 15 to 20)
#    0.000    0.333   10.000    0.000    0.000    1.333 
#    0.000    3.333    0.000    0.000    0.000    0.000 
#    0.000    0.000    0.000    0.000    0.000    0.000 
#
# Total GULP energy -297703.499846 kJ/mol
# GULP energy per Si atom -12404.312494 kJ/mol
# Density = 1.876090 g / cm^3
# Si number density = 18.803700 Si / 1000 Ang^3
#
#
#
# Elastic Constant Matrix: (Units=GPa)
#
#
# Indices 1 2 3 4 5 6 
#
# 1 81.2111 32.7341 0.5814 0.0000 -4.6013 0.0000
# 2 32.7341 128.7357 19.1092 0.0000 -14.7395 0.0000
# 3 0.5814 19.1092 57.2137 0.0000 5.9862 0.0000
# 4 0.0000 0.0000 0.0000 28.8902 0.0000 4.8965
# 5 -4.6013 -14.7395 5.9862 0.0000 22.7784 0.0000
# 6 0.0000 0.0000 0.0000 4.8965 0.0000 31.1334
#
#
#
# Elastic Compliance Matrix: (Units=1/GPa)
#
#
# Indices 1 2 3 4 5 6 
#
# 1 0.013784 -0.003646 0.001062 0.000000 0.000146 0.000000
# 2 -0.003646 0.010080 -0.004046 0.000000 0.006849 0.000000
# 3 0.001062 -0.004046 0.019610 0.000000 -0.007557 0.000000
# 4 0.000000 0.000000 0.000000 0.035562 0.000000 -0.005593
# 5 0.000146 0.006849 -0.007557 0.000000 0.050349 0.000000
# 6 0.000000 0.000000 0.000000 -0.005593 0.000000 0.032999
#
#
# Mechanical properties :
#
#
# Convention : Reuss Voigt Hill
#
# Bulk Modulus (GPa) = 33.09740 41.33441 37.21591
# Shear Modulus (GPa) = 26.92317 30.87613 28.89965
#
# Velocity S-wave (km/s) = 3.78802 4.05659 3.92460
# Velocity P-wave (km/s) = 6.06398 6.63106 6.35385
#
# Compressibility (1/GPa) = 0.03021385
#
# Stress axis : x y z
#
# Youngs Moduli (GPa) = 72.54894 99.20935 50.99529
#
# Poissons Ratio (x) = 0.36170 -0.05418
# Poissons Ratio (y) = 0.26450 0.20634
# Poissons Ratio (z) = -0.07707 0.40142
#
# Static dielectric constant tensor:
#      x y z
#    x 3.557890 0.000000 0.260080 
#    y 0.000000 3.899890 0.000000 
#    z 0.260080 0.000000 3.135730 
# 
# 
# High freq. dielectric constant tensor:
#      x y z
#    x 1.714430 0.000000 0.007970 
#    y 0.000000 1.746010 0.000000 
#    z 0.007970 0.000000 1.738930 
# 
# From -- ./inp_files/8415.got.cif
#   From: 2010.03.12/outbox.cif.g09.slc.cpg/sg14_5_cif.got.tgz:8415.got - 2010.03.31 13:35:05.
