data_PCOD8129835
_publ_section_title
;
Structure prediction by ZEFSAII (Michael W. Deem and Ramdas Pophale) SiO2 
 PCOD8129835
Probable space group: C 2/C
;
_chemical_formula_sum "Si O2"
_cell_formula_units_Z 40
_cell_length_a 12.134548
_cell_length_b 33.324130
_cell_length_c 5.134647
_cell_angle_alpha 90.000000
_cell_angle_beta 97.673909
_cell_angle_gamma 90.000000
_cell_volume 2057.718683
_symmetry_space_group_name_H-M "C 2/C"
_symmetry_group_IT_number 15
_symmetry_cell_setting 'monoclinic'
loop_
_space_group_symop_operation_xyz
x,y,z
-x,y,1/2-z
-x,-y,-z
x,-y,1/2+z
1/2+x,1/2+y,z
1/2-x,1/2+y,1/2-z
1/2-x,1/2-y,-z
1/2+x,1/2-y,1/2+z
loop_
_atom_site_type_symbol
_atom_site_label
_atom_site_fract_x
_atom_site_fract_y
_atom_site_fract_z
Si Si1 0.155139 0.790544 0.207169
Si Si2 0.050156 0.544806 0.016612
Si Si3 0.000000 0.138285 0.750000
Si Si4 0.000000 0.086242 0.250000
Si Si5 0.303372 0.473739 0.638770
Si Si6 0.613036 0.759061 0.188561
O O1 0.287883 0.791270 0.304486
O O2 0.094771 0.762581 0.404539
O O3 0.107780 0.835188 0.213336
O O4 0.138511 0.775275 0.908971
O O5 0.182774 0.545836 0.062235
O O6 0.000000 0.567893 0.250000
O O7 0.000000 0.567606 0.750000
O O8 0.000000 0.500000 0.000000
O O9 0.966204 0.112328 0.489075
O O10 0.104637 0.059959 0.372891
O O11 0.318950 0.508427 0.430948
O O12 0.500000 0.781077 0.250000
#
# Coordination Sequence:
#
# PCOD8129835 Si02
#       6
#     8   8   4   4   8   8
#     4  10  20  31  58  80 115 149 176 238 272 330
#     4  10  16  30  54  88 103 129 160 222 306 342
#     4  12  22  43  52  76 122 160 198 214 288 358
#     4  12  28  37  56  80 112 166 192 226 284 374
#     4  12  21  38  59  82 116 134 191 255 297 322
#     4  10  17  32  54  94 109 133 190 235 291 305
#
# _framework density 19.439005000000002
#
# number of rings (size 3 to 8) (size 9 to 14) (size 15 to 20)
#    0.000    1.200    6.000    3.000    0.000    0.000 
#    0.000    0.000    0.000    3.600    0.000    0.000 
#    0.000    0.000    0.000    0.000    0.000    0.000 
#
# Total GULP energy -247946.773759 kJ/mol
# GULP energy per Si atom -12397.338688 kJ/mol
# Density = 1.939476 g / cm^3
# Si number density = 19.439005 Si / 1000 Ang^3
#
#
#
# Elastic Constant Matrix: (Units=GPa)
#
#
# Indices 1 2 3 4 5 6 
#
# 1 151.1253 43.5889 27.5765 0.0000 0.1890 0.0000
# 2 43.5889 49.7062 18.9608 0.0000 4.0508 0.0000
# 3 27.5765 18.9608 129.8221 0.0000 -0.6461 0.0000
# 4 0.0000 0.0000 0.0000 13.5409 0.0000 -6.6392
# 5 0.1890 4.0508 -0.6461 0.0000 33.0454 0.0000
# 6 0.0000 0.0000 0.0000 -6.6392 0.0000 6.1390
#
#
#
# Elastic Compliance Matrix: (Units=1/GPa)
#
#
# Indices 1 2 3 4 5 6 
#
# 1 0.008959 -0.007628 -0.000785 0.000000 0.000868 0.000000
# 2 -0.007628 0.028039 -0.002492 0.000000 -0.003442 0.000000
# 3 -0.000785 -0.002492 0.008236 0.000000 0.000471 0.000000
# 4 0.000000 0.000000 0.000000 0.157215 0.000000 0.170025
# 5 0.000868 -0.003442 0.000471 0.000000 0.030688 0.000000
# 6 0.000000 0.000000 0.000000 0.170025 0.000000 0.346771
#
#
# Mechanical properties :
#
#
# Convention : Reuss Voigt Hill
#
# Bulk Modulus (GPa) = 42.69067 56.76735 49.72901
# Shear Modulus (GPa) = 8.20311 26.58024 17.39167
#
# Velocity S-wave (km/s) = 2.05647 3.70180 2.99436
# Velocity P-wave (km/s) = 5.25812 6.89473 6.13128
#
# Compressibility (1/GPa) = 0.02342432
#
# Stress axis : x y z
#
# Youngs Moduli (GPa) = 111.61584 35.66511 121.42085
#
# Poissons Ratio (x) = 0.27206 0.09528
# Poissons Ratio (y) = 0.85142 0.30257
# Poissons Ratio (z) = 0.08758 0.08887
#
# Static dielectric constant tensor:
#      x y z
#    x 3.890460 0.000000 0.020300 
#    y 0.000000 2.960180 0.000000 
#    z 0.020300 0.000000 2.736830 
# 
# 
# High freq. dielectric constant tensor:
#      x y z
#    x 1.776950 0.000000 -0.002790 
#    y 0.000000 1.683160 0.000000 
#    z -0.002790 0.000000 1.792820 
# 
# From -- ./inp_files/5574.got.cif
#   From: 2010.06.25/outbox.cif.g09.slc.cpg/sg15_3_cif.got.tgz:5574.got - 2010.06.28 07:06:18.
