data_PCOD8129819
_publ_section_title
;
Structure prediction by ZEFSAII (Michael W. Deem and Ramdas Pophale) SiO2 
 PCOD8129819
Probable space group: C 2/C
;
_chemical_formula_sum "Si O2"
_cell_formula_units_Z 40
_cell_length_a 27.548785
_cell_length_b 9.081532
_cell_length_c 9.603421
_cell_angle_alpha 90.000000
_cell_angle_beta 77.936794
_cell_angle_gamma 90.000000
_cell_volume 2349.577738
_symmetry_space_group_name_H-M "C 2/C"
_symmetry_group_IT_number 15
_symmetry_cell_setting 'monoclinic'
loop_
_space_group_symop_operation_xyz
x,y,z
-x,y,1/2-z
-x,-y,-z
x,-y,1/2+z
1/2+x,1/2+y,z
1/2-x,1/2+y,1/2-z
1/2-x,1/2-y,-z
1/2+x,1/2-y,1/2+z
loop_
_atom_site_type_symbol
_atom_site_label
_atom_site_fract_x
_atom_site_fract_y
_atom_site_fract_z
Si Si1 0.703689 0.670236 0.701552
Si Si2 0.873644 0.599915 0.293071
Si Si3 0.369555 0.156927 0.612350
Si Si4 0.533899 0.950328 0.354371
Si Si5 0.791147 0.891283 0.616513
O O1 0.649519 0.746389 0.746659
O O2 0.744588 0.796769 0.695845
O O3 0.710057 0.553144 0.819516
O O4 0.709925 0.590501 0.549218
O O5 0.864555 0.585194 0.462737
O O6 0.845822 0.461761 0.234471
O O7 0.932486 0.589777 0.219279
O O8 0.428104 0.178146 0.616796
O O9 0.341538 0.311539 0.638072
O O10 0.500000 0.888660 0.250000
O O11 0.500000 0.000000 0.500000
#
# Coordination Sequence:
#
# PCOD8129819 Si02
#       5
#     8   8   8   8   8
#     4  10  21  36  53  76 108 140 173 213 260 310
#     4   9  18  31  51  78 105 132 172 212 261 303
#     4   9  18  31  51  78 105 131 173 214 258 304
#     4  10  16  30  52  80 100 135 173 220 255 301
#     4  10  21  36  53  76 108 139 174 214 258 312
#
# _framework density 17.024335000000001
#
# number of rings (size 3 to 8) (size 9 to 14) (size 15 to 20)
#    1.200    1.200    2.000    1.200    0.000    2.400 
#    0.000    0.000    0.000    2.400    0.000    0.000 
#    0.000    0.000    0.000    0.000    0.000    0.000 
#
# Total GULP energy -247809.098871 kJ/mol
# GULP energy per Si atom -12390.454944 kJ/mol
# Density = 1.698559 g / cm^3
# Si number density = 17.024335 Si / 1000 Ang^3
#
#
#
# Elastic Constant Matrix: (Units=GPa)
#
#
# Indices 1 2 3 4 5 6 
#
# 1 90.4181 20.4876 20.9604 0.0000 6.2815 0.0000
# 2 20.4876 46.9605 13.3780 0.0000 5.2272 0.0000
# 3 20.9604 13.3780 51.9990 0.0000 8.3255 0.0000
# 4 0.0000 0.0000 0.0000 28.8974 0.0000 6.0514
# 5 6.2815 5.2272 8.3255 0.0000 29.5795 0.0000
# 6 0.0000 0.0000 0.0000 6.0514 0.0000 28.4099
#
#
#
# Elastic Compliance Matrix: (Units=1/GPa)
#
#
# Indices 1 2 3 4 5 6 
#
# 1 0.013053 -0.004466 -0.003974 0.000000 -0.000864 0.000000
# 2 -0.004466 0.024686 -0.004193 0.000000 -0.002234 0.000000
# 3 -0.003974 -0.004193 0.022680 0.000000 -0.004799 0.000000
# 4 0.000000 0.000000 0.000000 0.036221 0.000000 -0.007715
# 5 -0.000864 -0.002234 -0.004799 0.000000 0.035736 0.000000
# 6 0.000000 0.000000 0.000000 -0.007715 0.000000 0.036842
#
#
# Mechanical properties :
#
#
# Convention : Reuss Voigt Hill
#
# Bulk Modulus (GPa) = 28.44775 33.22551 30.83663
# Shear Modulus (GPa) = 24.24790 26.34745 25.29767
#
# Velocity S-wave (km/s) = 3.77809 3.93827 3.85901
# Velocity P-wave (km/s) = 5.98150 6.34340 6.16511
#
# Compressibility (1/GPa) = 0.03515216
#
# Stress axis : x y z
#
# Youngs Moduli (GPa) = 76.61047 40.50847 44.09133
#
# Poissons Ratio (x) = 0.18093 0.17523
# Poissons Ratio (y) = 0.34217 0.18488
# Poissons Ratio (z) = 0.30446 0.16986
#
# Static dielectric constant tensor:
#      x y z
#    x 3.563890 0.000000 0.207270 
#    y 0.000000 2.809920 0.000000 
#    z 0.207270 0.000000 3.290630 
# 
# 
# High freq. dielectric constant tensor:
#      x y z
#    x 1.665480 0.000000 0.008350 
#    y 0.000000 1.614210 0.000000 
#    z 0.008350 0.000000 1.666560 
# 
# From -- ./inp_files/68151.got.cif
#   From: 2010.06.25/outbox.cif.g09.slc.cpg/sg15_35_cif.got.tgz:68151.got - 2010.06.28 07:06:18.
