data_PCOD8129380
_publ_section_title
;
Structure prediction by ZEFSAII (Michael W. Deem and Ramdas Pophale) SiO2 
 PCOD8129380
Probable space group: P 21/C
;
_chemical_formula_sum "Si O2"
_cell_formula_units_Z 20
_cell_length_a 17.236180
_cell_length_b 4.944214
_cell_length_c 22.566431
_cell_angle_alpha 90.000000
_cell_angle_beta 27.998623
_cell_angle_gamma 90.000000
_cell_volume 902.798481
_symmetry_space_group_name_H-M "P 21/C"
_symmetry_group_IT_number 14
_symmetry_cell_setting 'monoclinic'
loop_
_space_group_symop_operation_xyz
x,y,z
-x,1/2+y,1/2-z
-x,-y,-z
x,1/2-y,1/2+z
loop_
_atom_site_type_symbol
_atom_site_label
_atom_site_fract_x
_atom_site_fract_y
_atom_site_fract_z
Si Si1 0.708881 0.032377 0.471923
Si Si2 0.672190 0.970033 0.917960
Si Si3 0.462339 0.192140 0.738902
Si Si4 0.089397 0.087421 0.998316
Si Si5 0.994152 0.085012 0.369699
O O1 0.653083 0.743367 0.484107
O O2 0.565222 0.143592 0.610541
O O3 0.881552 0.995218 0.390005
O O4 0.730274 0.241184 0.403760
O O5 0.816133 0.869645 0.776830
O O6 0.500000 0.000000 0.000000
O O7 0.526768 0.003934 0.748903
O O8 0.274625 0.127884 0.852057
O O9 0.079007 0.864944 0.056824
O O10 0.011068 0.363264 0.075254
O O11 0.000000 0.000000 0.000000
#
# Coordination Sequence:
#
# PCOD8129380 Si02
#       5
#     4   4   4   4   4
#     4  12  24  46  71  94 134 175 223 271 324 400
#     4  12  28  44  69  99 131 175 224 279 328 380
#     4  12  23  44  70 101 131 169 223 267 328 398
#     4  12  26  43  69 102 137 173 212 279 332 388
#     4  12  25  47  67  98 134 178 224 263 331 399
#
# _framework density 22.153337000000001
#
# number of rings (size 3 to 8) (size 9 to 14) (size 15 to 20)
#    0.000    0.000    4.000    6.000    5.600    0.000 
#    0.000    0.000    0.000    0.000    0.000    0.000 
#    0.000    0.000    0.000    0.000    0.000    0.000 
#
# Total GULP energy -248189.582194 kJ/mol
# GULP energy per Si atom -12409.479110 kJ/mol
# Density = 2.210292 g / cm^3
# Si number density = 22.153337 Si / 1000 Ang^3
#
#
#
# Elastic Constant Matrix: (Units=GPa)
#
#
# Indices 1 2 3 4 5 6 
#
# 1 96.6472 -0.6926 25.9635 0.0000 -20.0718 0.0000
# 2 -0.6926 73.6676 2.4303 0.0000 3.2960 0.0000
# 3 25.9635 2.4303 88.6273 0.0000 13.7499 0.0000
# 4 0.0000 0.0000 0.0000 31.6317 0.0000 3.6757
# 5 -20.0718 3.2960 13.7499 0.0000 23.7136 0.0000
# 6 0.0000 0.0000 0.0000 3.6757 0.0000 36.5824
#
#
#
# Elastic Compliance Matrix: (Units=1/GPa)
#
#
# Indices 1 2 3 4 5 6 
#
# 1 0.016108 -0.000408 -0.007507 0.000000 0.018044 0.000000
# 2 -0.000408 0.013670 0.000102 0.000000 -0.002305 0.000000
# 3 -0.007507 0.000102 0.015898 0.000000 -0.015586 0.000000
# 4 0.000000 0.000000 0.000000 0.031987 0.000000 -0.003214
# 5 0.018044 -0.002305 -0.015586 0.000000 0.066801 0.000000
# 6 0.000000 0.000000 0.000000 -0.003214 0.000000 0.027658
#
#
# Mechanical properties :
#
#
# Convention : Reuss Voigt Hill
#
# Bulk Modulus (GPa) = 33.27756 34.92715 34.10236
# Shear Modulus (GPa) = 25.28249 33.80159 29.54204
#
# Velocity S-wave (km/s) = 3.38190 3.91039 3.65571
# Velocity P-wave (km/s) = 5.50489 6.01569 5.76595
#
# Compressibility (1/GPa) = 0.03005028
#
# Stress axis : x y z
#
# Youngs Moduli (GPa) = 62.08066 73.15070 62.90208
#
# Poissons Ratio (x) = 0.02986 0.47221
# Poissons Ratio (y) = 0.02534 -0.00643
# Poissons Ratio (z) = 0.46604 -0.00748
#
# Static dielectric constant tensor:
#      x y z
#    x 3.897090 0.000000 -0.115440 
#    y 0.000000 4.230870 0.000000 
#    z -0.115440 0.000000 3.983940 
# 
# 
# High freq. dielectric constant tensor:
#      x y z
#    x 1.870220 0.000000 -0.000530 
#    y 0.000000 1.889040 0.000000 
#    z -0.000530 0.000000 1.888260 
# 
# From -- ./inp_files/62177.got.cif
#   From: 2010.03.12/outbox.cif.g09.slc.cpg/sg14_32_cif.got.tgz:62177.got - 2010.03.31 13:35:05.
