data_PCOD8129844
_publ_section_title
;
Structure prediction by ZEFSAII (Michael W. Deem and Ramdas Pophale) SiO2 
 PCOD8129844
Probable space group: C 2/C
;
_chemical_formula_sum "Si O2"
_cell_formula_units_Z 52
_cell_length_a 31.809929
_cell_length_b 14.445453
_cell_length_c 5.260149
_cell_angle_alpha 90.000000
_cell_angle_beta 99.518269
_cell_angle_gamma 90.000000
_cell_volume 2383.808746
_symmetry_space_group_name_H-M "C 2/C"
_symmetry_group_IT_number 15
_symmetry_cell_setting 'monoclinic'
loop_
_space_group_symop_operation_xyz
x,y,z
-x,y,1/2-z
-x,-y,-z
x,-y,1/2+z
1/2+x,1/2+y,z
1/2-x,1/2+y,1/2-z
1/2-x,1/2-y,-z
1/2+x,1/2-y,1/2+z
loop_
_atom_site_type_symbol
_atom_site_label
_atom_site_fract_x
_atom_site_fract_y
_atom_site_fract_z
Si Si1 0.450465 0.318463 0.200467
Si Si2 0.169561 0.887829 0.919560
Si Si3 0.133244 0.903889 0.383243
Si Si4 0.428311 0.203218 0.678313
Si Si5 0.355500 0.062534 0.605500
Si Si6 0.000000 0.558276 0.750000
Si Si7 0.759641 0.441144 0.009640
O O1 0.500000 0.349744 0.250000
O O2 0.418703 0.407915 0.168703
O O3 0.439186 0.260815 0.438744
O O4 0.439186 0.260811 0.939639
O O5 0.148625 0.844656 0.645300
O O6 0.155321 0.996426 0.905319
O O7 0.148625 0.844656 0.151949
O O8 0.220380 0.868498 0.970379
O O9 0.381128 0.158913 0.631129
O O10 0.457322 0.114659 0.707317
O O11 0.306829 0.101408 0.556829
O O12 0.364481 0.000000 0.364480
O O13 0.000000 0.500000 0.500000
O O14 0.752286 0.500000 0.252285
#
# Coordination Sequence:
#
# PCOD8129844 Si02
#       7
#     8   8   8   8   8   4   8
#     4  12  24  42  58  80 113 166 197 227 288 356
#     4  10  17  35  57  92 110 141 188 250 284 329
#     4  10  20  33  60  84 113 146 198 233 287 342
#     4  12  23  41  58  81 120 152 194 237 288 348
#     4  10  21  35  58  90 114 146 184 241 291 333
#     4  12  22  36  62  86 108 142 190 252 284 326
#     4  10  16  30  56  88 115 143 176 230 295 344
#
# _framework density 21.813831
#
# number of rings (size 3 to 8) (size 9 to 14) (size 15 to 20)
#    0.000    1.231    4.615    3.692    0.000    0.000 
#    0.000    3.077    0.000    5.538    0.000    0.000 
#    0.000    0.000    0.000    0.000    0.000    0.000 
#
# Total GULP energy -322095.986466 kJ/mol
# GULP energy per Si atom -12388.307172 kJ/mol
# Density = 2.176418 g / cm^3
# Si number density = 21.813831 Si / 1000 Ang^3
#
#
#
# Elastic Constant Matrix: (Units=GPa)
#
#
# Indices 1 2 3 4 5 6 
#
# 1 177.6192 14.2940 37.1425 0.0000 13.7483 0.0000
# 2 14.2940 19.8350 5.7118 0.0000 1.6798 0.0000
# 3 37.1425 5.7118 197.0360 0.0000 -17.5534 0.0000
# 4 0.0000 0.0000 0.0000 19.1042 0.0000 8.1881
# 5 13.7483 1.6798 -17.5534 0.0000 41.2608 0.0000
# 6 0.0000 0.0000 0.0000 8.1881 0.0000 60.9248
#
#
#
# Elastic Compliance Matrix: (Units=1/GPa)
#
#
# Indices 1 2 3 4 5 6 
#
# 1 0.006428 -0.004037 -0.001321 0.000000 -0.002539 0.000000
# 2 -0.004037 0.053689 -0.000905 0.000000 -0.001226 0.000000
# 3 -0.001321 -0.000905 0.005605 0.000000 0.002862 0.000000
# 4 0.000000 0.000000 0.000000 0.055544 0.000000 -0.007465
# 5 -0.002539 -0.001226 0.002862 0.000000 0.026350 0.000000
# 6 0.000000 0.000000 0.000000 -0.007465 0.000000 0.017417
#
#
# Mechanical properties :
#
#
# Convention : Reuss Voigt Hill
#
# Bulk Modulus (GPa) = 18.79772 56.53187 37.66479
# Shear Modulus (GPa) = 25.60300 46.74741 36.17520
#
# Velocity S-wave (km/s) = 3.42965 4.63430 4.07672
# Velocity P-wave (km/s) = 4.93147 7.38969 6.28199
#
# Compressibility (1/GPa) = 0.05319794
#
# Stress axis : x y z
#
# Youngs Moduli (GPa) = 155.57829 18.62572 178.40063
#
# Poissons Ratio (x) = 0.07519 0.23564
# Poissons Ratio (y) = 0.62801 0.16139
# Poissons Ratio (z) = 0.20550 0.01685
#
# Static dielectric constant tensor:
#      x y z
#    x 4.364090 0.000000 -0.298090 
#    y 0.000000 3.347590 0.000000 
#    z -0.298090 0.000000 5.886750 
# 
# 
# High freq. dielectric constant tensor:
#      x y z
#    x 1.884280 0.000000 -0.002820 
#    y 0.000000 1.794880 0.000000 
#    z -0.002820 0.000000 1.898670 
# 
# From -- ./inp_files/18313.got.cif
#   From: 2010.06.25/outbox.cif.g09.slc.cpg/sg15_10_cif.got.tgz:18313.got - 2010.06.28 07:06:18.
