data_PCOD8129519
_publ_section_title
;
Structure prediction by ZEFSAII (Michael W. Deem and Ramdas Pophale) SiO2 
 PCOD8129519
Probable space group: P 21/C
;
_chemical_formula_sum "Si O2"
_cell_formula_units_Z 24
_cell_length_a 9.000000
_cell_length_b 15.000000
_cell_length_c 9.000000
_cell_angle_alpha 90.000000
_cell_angle_beta 100.000000
_cell_angle_gamma 90.000000
_cell_volume 1196.541420
_symmetry_space_group_name_H-M "P 21/C"
_symmetry_group_IT_number 14
_symmetry_cell_setting 'monoclinic'
loop_
_space_group_symop_operation_xyz
x,y,z
-x,1/2+y,1/2-z
-x,-y,-z
x,1/2-y,1/2+z
loop_
_atom_site_type_symbol
_atom_site_label
_atom_site_fract_x
_atom_site_fract_y
_atom_site_fract_z
Si Si1 0.385681 0.852967 0.183386
Si Si2 0.749065 0.986713 0.484096
Si Si3 0.452630 0.454166 0.782566
Si Si4 0.441766 0.797844 0.883965
Si Si5 0.128798 0.741238 0.228099
Si Si6 0.989722 0.365718 0.055254
O O1 0.469022 0.806155 0.340729
O O2 0.210786 0.820533 0.147698
O O3 0.396438 0.958995 0.182879
O O4 0.476303 0.810229 0.062039
O O5 0.660941 0.937817 0.601639
O O6 0.849262 0.915291 0.410908
O O7 0.625976 0.031144 0.356957
O O8 0.854494 0.065257 0.567092
O O9 0.448331 0.365953 0.682450
O O10 0.262893 0.818128 0.825170
O O11 0.015825 0.786381 0.326514
O O12 0.028799 0.676133 0.111107
#
# Coordination Sequence:
#
# PCOD8129519 Si02
#       6
#     4   4   4   4   4   4
#     4  10  20  35  60  89 115 159 196 241 296 353
#     4  10  22  36  62  88 114 156 199 245 294 355
#     4  11  21  38  60  92 122 150 200 248 298 348
#     4  10  20  35  60  89 115 159 196 241 296 353
#     4  10  18  36  60  86 108 158 196 240 282 358
#     4  11  20  40  62  82 114 158 203 238 295 353
#
# _framework density 20.05781
#
# number of rings (size 3 to 8) (size 9 to 14) (size 15 to 20)
#    1.000    0.667    5.000    0.500    4.667    0.000 
#    3.000    0.000    3.667    4.000    0.000    0.000 
#    0.000    0.000    0.000    0.000    0.000    0.000 
#
# Total GULP energy -297389.191949 kJ/mol
# GULP energy per Si atom -12391.216331 kJ/mol
# Density = 2.001216 g / cm^3
# Si number density = 20.057810 Si / 1000 Ang^3
#
#
#
# Elastic Constant Matrix: (Units=GPa)
#
#
# Indices 1 2 3 4 5 6 
#
# 1 87.2429 17.2693 13.2946 0.0000 -6.0866 0.0000
# 2 17.2693 66.6747 -3.3161 0.0000 -10.3745 0.0000
# 3 13.2946 -3.3161 43.9833 0.0000 -17.9641 0.0000
# 4 0.0000 0.0000 0.0000 36.5670 0.0000 -10.2375
# 5 -6.0866 -10.3745 -17.9641 0.0000 16.4150 0.0000
# 6 0.0000 0.0000 0.0000 -10.2375 0.0000 35.2244
#
#
#
# Elastic Compliance Matrix: (Units=1/GPa)
#
#
# Indices 1 2 3 4 5 6 
#
# 1 0.012944 -0.004399 -0.006183 0.000000 -0.004747 0.000000
# 2 -0.004399 0.020999 0.013864 0.000000 0.026813 0.000000
# 3 -0.006183 0.013864 0.051159 0.000000 0.062457 0.000000
# 4 0.000000 0.000000 0.000000 0.029769 0.000000 0.008652
# 5 -0.004747 0.026813 0.062457 0.000000 0.144457 0.000000
# 6 0.000000 0.000000 0.000000 0.008652 0.000000 0.030904
#
#
# Mechanical properties :
#
#
# Convention : Reuss Voigt Hill
#
# Bulk Modulus (GPa) = 10.90903 28.04404 19.47654
# Shear Modulus (GPa) = 15.91226 29.01816 22.46521
#
# Velocity S-wave (km/s) = 2.81965 3.80771 3.35031
# Velocity P-wave (km/s) = 4.00639 5.77438 4.96964
#
# Compressibility (1/GPa) = 0.09166716
#
# Stress axis : x y z
#
# Youngs Moduli (GPa) = 77.25612 47.62109 19.54684
#
# Poissons Ratio (x) = 0.20947 0.12086
# Poissons Ratio (y) = 0.33983 -0.27100
# Poissons Ratio (z) = 0.47766 -0.66022
#
# Static dielectric constant tensor:
#      x y z
#    x 3.403010 0.000000 -0.195650 
#    y 0.000000 3.530750 0.000000 
#    z -0.195650 0.000000 3.303750 
# 
# 
# High freq. dielectric constant tensor:
#      x y z
#    x 1.760540 0.000000 -0.025290 
#    y 0.000000 1.782210 0.000000 
#    z -0.025290 0.000000 1.757020 
# 
# From -- ./inp_files/8506.got.cif
#   From: 2010.03.12/outbox.ucp.g09.slc.cvg/sg14_5_cif.got.tgz:8506.got - 2010.05.04 20:10:03.
