data_PCOD8129641
_publ_section_title
;
Structure prediction by ZEFSAII (Michael W. Deem and Ramdas Pophale) SiO2 
 PCOD8129641
Probable space group: C 2/C
;
_chemical_formula_sum "Si O2"
_cell_formula_units_Z 56
_cell_length_a 9.010025
_cell_length_b 24.195162
_cell_length_c 14.689768
_cell_angle_alpha 90.000000
_cell_angle_beta 123.047820
_cell_angle_gamma 90.000000
_cell_volume 2684.264230
_symmetry_space_group_name_H-M "C 2/C"
_symmetry_group_IT_number 15
_symmetry_cell_setting 'monoclinic'
loop_
_space_group_symop_operation_xyz
x,y,z
-x,y,1/2-z
-x,-y,-z
x,-y,1/2+z
1/2+x,1/2+y,z
1/2-x,1/2+y,1/2-z
1/2-x,1/2-y,-z
1/2+x,1/2-y,1/2+z
loop_
_atom_site_type_symbol
_atom_site_label
_atom_site_fract_x
_atom_site_fract_y
_atom_site_fract_z
Si Si1 0.969496 0.066947 0.583010
Si Si2 0.712077 0.214287 0.225582
Si Si3 0.250297 0.892910 0.856297
Si Si4 0.663188 0.334577 0.239055
Si Si5 0.696840 0.199824 0.419518
Si Si6 0.851020 0.612075 0.956228
Si Si7 0.063939 0.944179 0.635724
O O1 0.102366 0.117016 0.651982
O O2 0.791983 0.062102 0.588103
O O3 0.916085 0.075138 0.460464
O O4 0.069764 0.010376 0.638419
O O5 0.792826 0.172883 0.175787
O O6 0.728606 0.279666 0.206041
O O7 0.795861 0.203209 0.354557
O O8 0.510455 0.197251 0.163950
O O9 0.229877 0.923407 0.751738
O O10 0.115325 0.917689 0.883687
O O11 0.446768 0.904465 0.960443
O O12 0.500000 0.316250 0.250000
O O13 0.831591 0.355040 0.354843
O O14 0.750000 0.250000 0.500000
O O15 0.742691 0.145490 0.491777
#
# Coordination Sequence:
#
# PCOD8129641 Si02
#       7
#     8   8   8   8   8   8   8
#     4  10  22  40  66  86 114 157 208 259 305 358
#     4  10  18  30  52  87 121 154 192 239 303 356
#     4  10  23  38  61  87 124 163 195 246 304 379
#     4  10  18  34  59  96 121 153 199 260 312 348
#     4  10  15  27  48  84 124 146 183 249 298 346
#     4  10  20  33  61  96 113 146 205 258 302 343
#     4  10  23  45  59  81 122 169 202 240 311 376
#
# _framework density 20.862328999999999
#
# number of rings (size 3 to 8) (size 9 to 14) (size 15 to 20)
#    0.000    2.000    2.857    1.714    6.000    2.286 
#    0.000    1.429    3.143    0.000    0.000    0.000 
#    0.000    0.000    0.000    0.000    0.000    0.000 
#
# Total GULP energy -346898.839148 kJ/mol
# GULP energy per Si atom -12389.244255 kJ/mol
# Density = 2.081485 g / cm^3
# Si number density = 20.862329 Si / 1000 Ang^3
#
#
#
# Elastic Constant Matrix: (Units=GPa)
#
#
# Indices 1 2 3 4 5 6 
#
# 1 32.0171 13.7266 13.0422 0.0000 3.3072 0.0000
# 2 13.7266 90.3317 24.3502 0.0000 -4.6471 0.0000
# 3 13.0422 24.3502 95.4337 0.0000 19.3016 0.0000
# 4 0.0000 0.0000 0.0000 21.9538 0.0000 3.3999
# 5 3.3072 -4.6471 19.3016 0.0000 29.3537 0.0000
# 6 0.0000 0.0000 0.0000 3.3999 0.0000 21.2662
#
#
#
# Elastic Compliance Matrix: (Units=1/GPa)
#
#
# Indices 1 2 3 4 5 6 
#
# 1 0.034712 -0.004592 -0.003038 0.000000 -0.002640 0.000000
# 2 -0.004592 0.013027 -0.003712 0.000000 0.005020 0.000000
# 3 -0.003038 -0.003712 0.013714 0.000000 -0.009263 0.000000
# 4 0.000000 0.000000 0.000000 0.046707 0.000000 -0.007467
# 5 -0.002640 0.005020 -0.009263 0.000000 0.041251 0.000000
# 6 0.000000 0.000000 0.000000 -0.007467 0.000000 0.048217
#
#
# Mechanical properties :
#
#
# Convention : Reuss Voigt Hill
#
# Bulk Modulus (GPa) = 25.79311 35.55782 30.67546
# Shear Modulus (GPa) = 21.43773 25.62564 23.53168
#
# Velocity S-wave (km/s) = 3.20907 3.50854 3.36214
# Velocity P-wave (km/s) = 5.11089 5.78742 5.45964
#
# Compressibility (1/GPa) = 0.03877004
#
# Stress axis : x y z
#
# Youngs Moduli (GPa) = 28.80833 76.76454 72.91686
#
# Poissons Ratio (x) = 0.35247 0.22155
# Poissons Ratio (y) = 0.13228 0.27065
# Poissons Ratio (z) = 0.08753 0.28493
#
# Static dielectric constant tensor:
#      x y z
#    x 3.235110 0.000000 -0.119830 
#    y 0.000000 3.974870 0.000000 
#    z -0.119830 0.000000 4.348380 
# 
# 
# High freq. dielectric constant tensor:
#      x y z
#    x 1.760010 0.000000 0.004350 
#    y 0.000000 1.827960 0.000000 
#    z 0.004350 0.000000 1.837090 
# 
# From -- ./inp_files/137977.got.cif
#   From: 2010.06.25/outbox.cif.g09.slc.cpg/sg15_69_cif.got.tgz:137977.got - 2010.06.28 07:06:18.
