data_PCOD8129995
_publ_section_title
;
Structure prediction by ZEFSAII (Michael W. Deem and Ramdas Pophale) SiO2 
 PCOD8129995
Probable space group: C 2/C
;
_chemical_formula_sum "Si O2"
_cell_formula_units_Z 36
_cell_length_a 22.211052
_cell_length_b 5.191379
_cell_length_c 12.646136
_cell_angle_alpha 90.000000
_cell_angle_beta 74.903522
_cell_angle_gamma 90.000000
_cell_volume 1407.851611
_symmetry_space_group_name_H-M "C 2/C"
_symmetry_group_IT_number 15
_symmetry_cell_setting 'monoclinic'
loop_
_space_group_symop_operation_xyz
x,y,z
-x,y,1/2-z
-x,-y,-z
x,-y,1/2+z
1/2+x,1/2+y,z
1/2-x,1/2+y,1/2-z
1/2-x,1/2-y,-z
1/2+x,1/2-y,1/2+z
loop_
_atom_site_type_symbol
_atom_site_label
_atom_site_fract_x
_atom_site_fract_y
_atom_site_fract_z
Si Si1 0.330701 0.017721 0.512211
Si Si2 0.606550 0.474229 0.561052
Si Si3 0.772862 0.023730 0.796210
Si Si4 0.605811 0.265750 0.342837
Si Si5 0.500000 0.367616 0.250000
O O1 0.345811 0.763431 0.434079
O O2 0.363063 0.983033 0.614898
O O3 0.358182 0.256393 0.435560
O O4 0.256928 0.052689 0.571694
O O5 0.587615 0.462679 0.445794
O O6 0.544559 0.450051 0.659734
O O7 0.739714 0.233620 0.735808
O O8 0.846892 0.086535 0.760425
O O9 0.543335 0.190903 0.306434
#
# Coordination Sequence:
#
# PCOD8129995 Si02
#       5
#     8   8   8   8   4
#     4   9  19  40  64  89 113 161 198 253 300 348
#     4  10  22  41  61  87 125 158 205 243 300 353
#     4  10  16  35  68  88 113 156 200 245 309 355
#     4   9  22  39  66  87 127 155 202 247 304 359
#     4  12  24  44  56  98 118 174 198 248 294 368
#
# _framework density 25.570879000000001
#
# number of rings (size 3 to 8) (size 9 to 14) (size 15 to 20)
#    1.333    0.889    2.222    0.667    0.000    1.778 
#    4.000    2.222    0.000    0.000    0.000    0.000 
#    0.000    0.000    0.000    0.000    0.000    0.000 
#
# Total GULP energy -222986.200221 kJ/mol
# GULP energy per Si atom -12388.122235 kJ/mol
# Density = 2.551268 g / cm^3
# Si number density = 25.570879 Si / 1000 Ang^3
#
#
#
# Elastic Constant Matrix: (Units=GPa)
#
#
# Indices 1 2 3 4 5 6 
#
# 1 115.5091 4.9953 37.0448 0.0000 -21.8257 0.0000
# 2 4.9953 120.9706 39.0915 0.0000 -26.8292 0.0000
# 3 37.0448 39.0915 153.7856 0.0000 -69.1710 0.0000
# 4 0.0000 0.0000 0.0000 16.5251 0.0000 -9.4134
# 5 -21.8257 -26.8292 -69.1710 0.0000 54.6929 0.0000
# 6 0.0000 0.0000 0.0000 -9.4134 0.0000 12.1282
#
#
#
# Elastic Compliance Matrix: (Units=1/GPa)
#
#
# Indices 1 2 3 4 5 6 
#
# 1 0.009518 0.000571 -0.001400 0.000000 0.002308 0.000000
# 2 0.000571 0.009345 -0.000809 0.000000 0.003789 0.000000
# 3 -0.001400 -0.000809 0.015344 0.000000 0.018451 0.000000
# 4 0.000000 0.000000 0.000000 0.108474 0.000000 0.084193
# 5 0.002308 0.003789 0.018451 0.000000 0.044399 0.000000
# 6 0.000000 0.000000 0.000000 0.084193 0.000000 0.147799
#
#
# Mechanical properties :
#
#
# Convention : Reuss Voigt Hill
#
# Bulk Modulus (GPa) = 32.32877 61.39205 46.86041
# Shear Modulus (GPa) = 14.34873 37.27817 25.81345
#
# Velocity S-wave (km/s) = 2.37140 3.82231 3.18069
# Velocity P-wave (km/s) = 4.49091 6.59854 5.64398
#
# Compressibility (1/GPa) = 0.03093220
#
# Stress axis : x y z
#
# Youngs Moduli (GPa) = 105.06806 107.01411 65.17093
#
# Poissons Ratio (x) = -0.06112 0.09122
# Poissons Ratio (y) = -0.06001 0.05270
# Poissons Ratio (z) = 0.14707 0.08653
#
# Static dielectric constant tensor:
#      x y z
#    x 4.354760 0.000000 -0.331560 
#    y 0.000000 4.075900 0.000000 
#    z -0.331560 0.000000 4.646340 
# 
# 
# High freq. dielectric constant tensor:
#      x y z
#    x 2.008160 0.000000 -0.013250 
#    y 0.000000 1.990820 0.000000 
#    z -0.013250 0.000000 2.041150 
# 
# From -- ./inp_files/170459.got.cif
#   From: 2010.06.25/outbox.cif.g09.slc.cpg/sg15_86_cif.got.tgz:170459.got - 2010.06.28 07:06:18.
