data_PCOD8129497
_publ_section_title
;
Structure prediction by ZEFSAII (Michael W. Deem and Ramdas Pophale) SiO2 
 PCOD8129497
Probable space group: P 21/C
;
_chemical_formula_sum "Si O2"
_cell_formula_units_Z 20
_cell_length_a 16.315734
_cell_length_b 4.973387
_cell_length_c 23.777839
_cell_angle_alpha 90.000000
_cell_angle_beta 21.754021
_cell_angle_gamma 90.000000
_cell_volume 715.094068
_symmetry_space_group_name_H-M "P 21/C"
_symmetry_group_IT_number 14
_symmetry_cell_setting 'monoclinic'
loop_
_space_group_symop_operation_xyz
x,y,z
-x,1/2+y,1/2-z
-x,-y,-z
x,1/2-y,1/2+z
loop_
_atom_site_type_symbol
_atom_site_label
_atom_site_fract_x
_atom_site_fract_y
_atom_site_fract_z
Si Si1 0.301080 0.899347 0.090204
Si Si2 0.846186 0.579663 0.649248
Si Si3 0.630575 0.692634 0.187775
Si Si4 0.938184 0.000385 0.410304
Si Si5 0.403394 0.108572 0.457780
O O1 0.285967 0.106106 0.047090
O O2 0.083651 0.892186 0.266887
O O3 0.342410 0.595487 0.046356
O O4 0.500000 0.000000 0.000000
O O5 0.669308 0.779473 0.730009
O O6 0.000000 0.500000 0.500000
O O7 0.971996 0.721768 0.620777
O O8 0.673950 0.354261 0.782969
O O9 0.530163 0.397891 0.241991
O O10 0.882890 0.706152 0.997324
O O11 0.692316 0.021479 0.539170
#
# Coordination Sequence:
#
# PCOD8129497 Si02
#       5
#     4   4   4   4   4
#     4  12  28  52  79 115 154 208 265 323 400 466
#     4  12  29  50  82 121 159 212 269 324 409 480
#     4  12  28  51  79 118 158 206 262 328 400 475
#     4  12  28  49  83 109 165 204 266 331 394 474
#     4  12  29  51  79 116 158 204 265 327 394 478
#
# _framework density 27.968349
#
# number of rings (size 3 to 8) (size 9 to 14) (size 15 to 20)
#    0.000    0.000    4.000    3.600    5.600    1.600 
#    0.000    0.000    0.000    0.000    0.000    0.000 
#    0.000    0.000    0.000    0.000    0.000    0.000 
#
# Total GULP energy -247877.617734 kJ/mol
# GULP energy per Si atom -12393.880887 kJ/mol
# Density = 2.790469 g / cm^3
# Si number density = 27.968349 Si / 1000 Ang^3
#
#
#
# Elastic Constant Matrix: (Units=GPa)
#
#
# Indices 1 2 3 4 5 6 
#
# 1 87.7632 -6.0828 -4.6137 0.0000 -9.5794 0.0000
# 2 -6.0828 70.9169 16.5657 0.0000 16.3662 0.0000
# 3 -4.6137 16.5657 164.2360 0.0000 35.8151 0.0000
# 4 0.0000 0.0000 0.0000 35.1100 0.0000 15.1469
# 5 -9.5794 16.3662 35.8151 0.0000 44.9743 0.0000
# 6 0.0000 0.0000 0.0000 15.1469 0.0000 36.7306
#
#
#
# Elastic Compliance Matrix: (Units=1/GPa)
#
#
# Indices 1 2 3 4 5 6 
#
# 1 0.011690 0.000482 -0.000272 0.000000 0.002531 0.000000
# 2 0.000482 0.015435 -0.000412 0.000000 -0.005186 0.000000
# 3 -0.000272 -0.000412 0.007385 0.000000 -0.005789 0.000000
# 4 0.000000 0.000000 0.000000 0.034646 0.000000 -0.014287
# 5 0.002531 -0.005186 -0.005789 0.000000 0.029271 0.000000
# 6 0.000000 0.000000 0.000000 -0.014287 0.000000 0.033117
#
#
# Mechanical properties :
#
#
# Convention : Reuss Voigt Hill
#
# Bulk Modulus (GPa) = 29.32111 37.18384 33.25247
# Shear Modulus (GPa) = 34.88753 44.49945 39.69349
#
# Velocity S-wave (km/s) = 3.53568 3.99314 3.77135
# Velocity P-wave (km/s) = 5.21291 5.88082 5.55691
#
# Compressibility (1/GPa) = 0.03410512
#
# Stress axis : x y z
#
# Youngs Moduli (GPa) = 85.54547 64.78577 135.40640
#
# Poissons Ratio (x) = -0.03123 0.03686
# Poissons Ratio (y) = -0.04124 0.05585
# Poissons Ratio (z) = 0.02329 0.02672
#
# Static dielectric constant tensor:
#      x y z
#    x 5.477410 0.000000 -1.322360 
#    y 0.000000 5.487160 0.000000 
#    z -1.322360 0.000000 2.235610 
# 
# 
# High freq. dielectric constant tensor:
#      x y z
#    x 2.152100 0.000000 0.001410 
#    y 0.000000 2.110240 0.000000 
#    z 0.001410 0.000000 2.165570 
# 
# From -- ./inp_files/77684.got.cif
#   From: 2010.03.12/outbox.cif.g09.slc.cpg/sg14_39_cif.got.tgz:77684.got - 2010.03.31 13:35:05.
