data_PCOD8129428
_publ_section_title
;
Structure prediction by ZEFSAII (Michael W. Deem and Ramdas Pophale) SiO2 
 PCOD8129428
Probable space group: P 21/C
;
_chemical_formula_sum "Si O2"
_cell_formula_units_Z 28
_cell_length_a 8.963446
_cell_length_b 5.076675
_cell_length_c 29.705017
_cell_angle_alpha 90.000000
_cell_angle_beta 51.635078
_cell_angle_gamma 90.000000
_cell_volume 1059.841695
_symmetry_space_group_name_H-M "P 21/C"
_symmetry_group_IT_number 14
_symmetry_cell_setting 'monoclinic'
loop_
_space_group_symop_operation_xyz
x,y,z
-x,1/2+y,1/2-z
-x,-y,-z
x,1/2-y,1/2+z
loop_
_atom_site_type_symbol
_atom_site_label
_atom_site_fract_x
_atom_site_fract_y
_atom_site_fract_z
Si Si1 0.132811 0.244989 0.478970
Si Si2 0.529019 0.932656 0.134129
Si Si3 0.835538 0.901061 0.430945
Si Si4 0.750106 0.389115 0.393722
Si Si5 0.265659 0.831333 0.342407
Si Si6 0.046133 0.237589 0.267685
Si Si7 0.363402 0.585295 0.235923
O O1 0.291395 0.238574 0.409663
O O2 0.238472 0.214753 0.507597
O O3 0.000000 0.500000 0.500000
O O4 0.000000 0.000000 0.500000
O O5 0.428456 0.961872 0.104452
O O6 0.369158 0.815227 0.197346
O O7 0.628433 0.196682 0.134704
O O8 0.807192 0.673002 0.400428
O O9 0.063461 0.955919 0.393363
O O10 0.718663 0.168301 0.439145
O O11 0.926933 0.254075 0.335397
O O12 0.241730 0.640918 0.303589
O O13 0.412821 0.047622 0.294895
O O14 0.265661 0.325466 0.232766
O O15 0.954332 0.436758 0.248345
#
# Coordination Sequence:
#
# PCOD8129428 Si02
#       7
#     4   4   4   4   4   4   4
#     4  12  27  51  83 112 147 193 253 318 377 443
#     4  12  28  49  74 110 147 200 253 308 381 451
#     4  12  28  50  76 112 150 199 254 312 373 446
#     4  12  28  47  76 110 154 199 248 308 379 450
#     4  12  26  43  73 108 147 196 255 311 371 449
#     4  12  25  45  70 105 153 200 246 297 378 455
#     4  12  26  40  72 105 148 193 252 307 369 446
#
# _framework density 26.419042999999999
#
# number of rings (size 3 to 8) (size 9 to 14) (size 15 to 20)
#    0.000    0.000    5.714    3.429    6.000    1.143 
#    0.000    0.000    0.000    0.000    0.000    0.000 
#    0.000    0.000    0.000    0.000    0.000    0.000 
#
# Total GULP energy -347053.521422 kJ/mol
# GULP energy per Si atom -12394.768622 kJ/mol
# Density = 2.635891 g / cm^3
# Si number density = 26.419043 Si / 1000 Ang^3
#
#
#
# Elastic Constant Matrix: (Units=GPa)
#
#
# Indices 1 2 3 4 5 6 
#
# 1 119.1244 21.3070 2.9557 0.0000 19.1908 0.0000
# 2 21.3070 70.2175 -9.8669 0.0000 3.3978 0.0000
# 3 2.9557 -9.8669 63.9084 0.0000 0.8675 0.0000
# 4 0.0000 0.0000 0.0000 26.1993 0.0000 2.1759
# 5 19.1908 3.3978 0.8675 0.0000 34.2960 0.0000
# 6 0.0000 0.0000 0.0000 2.1759 0.0000 47.0281
#
#
#
# Elastic Compliance Matrix: (Units=1/GPa)
#
#
# Indices 1 2 3 4 5 6 
#
# 1 0.009751 -0.002824 -0.000817 0.000000 -0.005156 0.000000
# 2 -0.002824 0.015453 0.002517 0.000000 -0.000014 0.000000
# 3 -0.000817 0.002517 0.016076 0.000000 -0.000199 0.000000
# 4 0.000000 0.000000 0.000000 0.038316 0.000000 -0.001773
# 5 -0.005156 -0.000014 -0.000199 0.000000 0.032049 0.000000
# 6 0.000000 0.000000 0.000000 -0.001773 0.000000 0.021346
#
#
# Mechanical properties :
#
#
# Convention : Reuss Voigt Hill
#
# Bulk Modulus (GPa) = 25.62082 31.33798 28.47940
# Shear Modulus (GPa) = 33.72677 37.42832 35.57754
#
# Velocity S-wave (km/s) = 3.57684 3.76801 3.67367
# Velocity P-wave (km/s) = 5.17468 5.55142 5.36635
#
# Compressibility (1/GPa) = 0.03903076
#
# Stress axis : x y z
#
# Youngs Moduli (GPa) = 102.55847 64.71351 62.20289
#
# Poissons Ratio (x) = 0.18275 0.05082
# Poissons Ratio (y) = 0.28963 -0.15654
# Poissons Ratio (z) = 0.08379 -0.16286
#
# Static dielectric constant tensor:
#      x y z
#    x 5.038650 0.000000 0.305050 
#    y 0.000000 4.526590 0.000000 
#    z 0.305050 0.000000 5.330940 
# 
# 
# High freq. dielectric constant tensor:
#      x y z
#    x 2.076600 0.000000 0.005620 
#    y 0.000000 2.054670 0.000000 
#    z 0.005620 0.000000 2.059590 
# 
# From -- ./inp_files/79068.got.cif
#   From: 2010.03.12/outbox.cif.g09.slc.cpg/sg14_40_cif.got.tgz:79068.got - 2010.03.31 13:35:05.
