data_PCOD8129258
_publ_section_title
;
Structure prediction by ZEFSAII (Michael W. Deem and Ramdas Pophale) SiO2 
 PCOD8129258
Probable space group: P 21/C
;
_chemical_formula_sum "Si O2"
_cell_formula_units_Z 20
_cell_length_a 14.850316
_cell_length_b 8.356375
_cell_length_c 10.293335
_cell_angle_alpha 90.000000
_cell_angle_beta 35.236499
_cell_angle_gamma 90.000000
_cell_volume 736.970266
_symmetry_space_group_name_H-M "P 21/C"
_symmetry_group_IT_number 14
_symmetry_cell_setting 'monoclinic'
loop_
_space_group_symop_operation_xyz
x,y,z
-x,1/2+y,1/2-z
-x,-y,-z
x,1/2-y,1/2+z
loop_
_atom_site_type_symbol
_atom_site_label
_atom_site_fract_x
_atom_site_fract_y
_atom_site_fract_z
Si Si1 0.176634 0.592632 0.785196
Si Si2 0.915027 0.286610 0.850519
Si Si3 0.303158 0.485175 0.028782
Si Si4 0.505608 0.288513 0.610005
Si Si5 0.810256 0.753621 0.145544
O O1 0.154256 0.646116 0.660627
O O2 0.363281 0.585384 0.592326
O O3 0.111614 0.411134 0.886520
O O4 0.102140 0.728377 0.972381
O O5 0.096908 0.303797 0.595194
O O6 0.811189 0.447250 0.948833
O O7 0.422141 0.351158 0.837847
O O8 0.405351 0.621945 0.974550
O O9 0.178173 0.402526 0.271383
O O10 0.373857 0.267092 0.657571
#
# Coordination Sequence:
#
# PCOD8129258 Si02
#       5
#     4   4   4   4   4
#     4  11  26  49  76 109 151 196 244 306 364 443
#     4  11  27  48  73 110 154 190 246 302 373 435
#     4  11  25  47  71 108 147 194 244 312 358 446
#     4  11  25  46  75 104 148 192 253 297 373 428
#     4  12  25  46  76 107 148 195 248 302 370 433
#
# _framework density 27.138137
#
# number of rings (size 3 to 8) (size 9 to 14) (size 15 to 20)
#    0.000    0.800    2.000    3.600    8.400    3.200 
#   14.400    0.000    0.000    0.000    0.000    0.000 
#    0.000    0.000    0.000    0.000    0.000    0.000 
#
# Total GULP energy -247933.698602 kJ/mol
# GULP energy per Si atom -12396.684930 kJ/mol
# Density = 2.707637 g / cm^3
# Si number density = 27.138137 Si / 1000 Ang^3
#
#
#
# Elastic Constant Matrix: (Units=GPa)
#
#
# Indices 1 2 3 4 5 6 
#
# 1 62.0589 26.1455 11.1996 0.0000 -9.1386 0.0000
# 2 26.1455 125.2331 33.5894 0.0000 1.3278 0.0000
# 3 11.1996 33.5894 132.6140 0.0000 -10.5648 0.0000
# 4 0.0000 0.0000 0.0000 54.7962 0.0000 -6.3146
# 5 -9.1386 1.3278 -10.5648 0.0000 37.3302 0.0000
# 6 0.0000 0.0000 0.0000 -6.3146 0.0000 24.5938
#
#
#
# Elastic Compliance Matrix: (Units=1/GPa)
#
#
# Indices 1 2 3 4 5 6 
#
# 1 0.018448 -0.003841 -0.000219 0.000000 0.004591 0.000000
# 2 -0.003841 0.009399 -0.002208 0.000000 -0.001899 0.000000
# 3 -0.000219 -0.002208 0.008308 0.000000 0.002376 0.000000
# 4 0.000000 0.000000 0.000000 0.018806 0.000000 0.004829
# 5 0.004591 -0.001899 0.002376 0.000000 0.028652 0.000000
# 6 0.000000 0.000000 0.000000 0.004829 0.000000 0.041900
#
#
# Mechanical properties :
#
#
# Convention : Reuss Voigt Hill
#
# Bulk Modulus (GPa) = 42.34018 51.30832 46.82425
# Shear Modulus (GPa) = 34.26495 39.94215 37.10355
#
# Velocity S-wave (km/s) = 3.55718 3.84058 3.70159
# Velocity P-wave (km/s) = 5.70149 6.21403 5.96327
#
# Compressibility (1/GPa) = 0.02361822
#
# Stress axis : x y z
#
# Youngs Moduli (GPa) = 54.20753 106.39060 120.37101
#
# Poissons Ratio (x) = 0.40867 0.02640
# Poissons Ratio (y) = 0.20822 0.26574
# Poissons Ratio (z) = 0.01189 0.23487
#
# Static dielectric constant tensor:
#      x y z
#    x 4.721150 0.000000 -0.410460 
#    y 0.000000 4.911970 0.000000 
#    z -0.410460 0.000000 5.219590 
# 
# 
# High freq. dielectric constant tensor:
#      x y z
#    x 2.098360 0.000000 -0.022330 
#    y 0.000000 2.086160 0.000000 
#    z -0.022330 0.000000 2.112510 
# 
# From -- ./inp_files/27958.got.cif
#   From: 2010.03.12/outbox.cif.g09.slc.cpg/sg14_14_cif.got.tgz:27958.got - 2010.03.31 13:35:05.
