data_PCOD8129405
_publ_section_title
;
Structure prediction by ZEFSAII (Michael W. Deem and Ramdas Pophale) SiO2 
 PCOD8129405
Probable space group: P 21/C
;
_chemical_formula_sum "Si O2"
_cell_formula_units_Z 24
_cell_length_a 17.846324
_cell_length_b 13.649621
_cell_length_c 8.417588
_cell_angle_alpha 90.000000
_cell_angle_beta 32.227942
_cell_angle_gamma 90.000000
_cell_volume 1093.501952
_symmetry_space_group_name_H-M "P 21/C"
_symmetry_group_IT_number 14
_symmetry_cell_setting 'monoclinic'
loop_
_space_group_symop_operation_xyz
x,y,z
-x,1/2+y,1/2-z
-x,-y,-z
x,1/2-y,1/2+z
loop_
_atom_site_type_symbol
_atom_site_label
_atom_site_fract_x
_atom_site_fract_y
_atom_site_fract_z
Si Si1 0.554919 0.145827 0.157973
Si Si2 0.319938 0.489294 0.026059
Si Si3 0.903324 0.643248 0.410802
Si Si4 0.509161 0.347874 0.106467
Si Si5 0.811564 0.651867 0.222047
Si Si6 0.808420 0.046578 0.566945
O O1 0.431347 0.094854 0.275450
O O2 0.588318 0.250977 0.023577
O O3 0.496115 0.153130 0.441043
O O4 0.698438 0.084088 0.896499
O O5 0.187919 0.443248 0.351366
O O6 0.399508 0.560034 0.005128
O O7 0.268658 0.547684 0.964371
O O8 0.893355 0.641299 0.239459
O O9 0.856234 0.748473 0.557562
O O10 0.063069 0.621844 0.173366
O O11 0.355310 0.350928 0.457988
O O12 0.858736 0.562482 0.023629
#
# Coordination Sequence:
#
# PCOD8129405 Si02
#       6
#     4   4   4   4   4   4
#     4  12  25  43  70 105 137 178 236 281 340 404
#     4  12  24  45  72 101 138 178 231 281 338 409
#     4  12  27  46  71 102 139 185 228 279 347 416
#     4  12  24  43  74 103 135 185 232 287 337 401
#     4  12  24  46  73  97 141 184 230 282 347 407
#     4  12  28  44  70 106 141 180 226 287 346 407
#
# _framework density 21.947835000000001
#
# number of rings (size 3 to 8) (size 9 to 14) (size 15 to 20)
#    0.000    0.000    5.000    5.000    2.333    4.000 
#    0.000    0.000    0.000    0.000    0.000    0.000 
#    0.000    0.000    0.000    0.000    0.000    0.000 
#
# Total GULP energy -297822.011431 kJ/mol
# GULP energy per Si atom -12409.250476 kJ/mol
# Density = 2.189788 g / cm^3
# Si number density = 21.947835 Si / 1000 Ang^3
#
#
#
# Elastic Constant Matrix: (Units=GPa)
#
#
# Indices 1 2 3 4 5 6 
#
# 1 87.7340 25.1147 32.2747 0.0000 -2.1245 0.0000
# 2 25.1147 89.8759 25.5131 0.0000 -4.1962 0.0000
# 3 32.2747 25.5131 100.4429 0.0000 -21.5916 0.0000
# 4 0.0000 0.0000 0.0000 34.8372 0.0000 2.2948
# 5 -2.1245 -4.1962 -21.5916 0.0000 22.0360 0.0000
# 6 0.0000 0.0000 0.0000 2.2948 0.0000 33.3778
#
#
#
# Elastic Compliance Matrix: (Units=1/GPa)
#
#
# Indices 1 2 3 4 5 6 
#
# 1 0.013748 -0.002733 -0.004498 0.000000 -0.003602 0.000000
# 2 -0.002733 0.012548 -0.002346 0.000000 -0.000173 0.000000
# 3 -0.004498 -0.002346 0.014958 0.000000 0.013776 0.000000
# 4 0.000000 0.000000 0.000000 0.028836 0.000000 -0.001983
# 5 -0.003602 -0.000173 0.013776 0.000000 0.058499 0.000000
# 6 0.000000 0.000000 0.000000 -0.001983 0.000000 0.030096
#
#
# Mechanical properties :
#
#
# Convention : Reuss Voigt Hill
#
# Bulk Modulus (GPa) = 45.24770 49.31753 47.28261
# Shear Modulus (GPa) = 26.99700 31.06022 29.02861
#
# Velocity S-wave (km/s) = 3.51102 3.76597 3.64073
# Velocity P-wave (km/s) = 6.09074 6.43655 6.26603
#
# Compressibility (1/GPa) = 0.02210057
#
# Stress axis : x y z
#
# Youngs Moduli (GPa) = 72.73914 79.69305 66.85169
#
# Poissons Ratio (x) = 0.21781 0.30067
# Poissons Ratio (y) = 0.19880 0.15685
# Poissons Ratio (z) = 0.32715 0.18698
#
# Static dielectric constant tensor:
#      x y z
#    x 3.930550 0.000000 -0.035330 
#    y 0.000000 4.204690 0.000000 
#    z -0.035330 0.000000 3.921040 
# 
# 
# High freq. dielectric constant tensor:
#      x y z
#    x 1.869440 0.000000 -0.000070 
#    y 0.000000 1.880300 0.000000 
#    z -0.000070 0.000000 1.863080 
# 
# From -- ./inp_files/17964.got.cif
#   From: 2010.03.12/outbox.cif.g09.slc.cpg/sg14_9_cif.got.tgz:17964.got - 2010.03.31 13:35:05.
