data_PCOD8129053
_publ_section_title
;
Structure prediction by ZEFSAII (Michael W. Deem and Ramdas Pophale) SiO2 
 PCOD8129053
Probable space group: P 21/C
;
_chemical_formula_sum "Si O2"
_cell_formula_units_Z 24
_cell_length_a 8.139833
_cell_length_b 15.059933
_cell_length_c 8.258866
_cell_angle_alpha 90.000000
_cell_angle_beta 84.868394
_cell_angle_gamma 90.000000
_cell_volume 1008.358006
_symmetry_space_group_name_H-M "P 21/C"
_symmetry_group_IT_number 14
_symmetry_cell_setting 'monoclinic'
loop_
_space_group_symop_operation_xyz
x,y,z
-x,1/2+y,1/2-z
-x,-y,-z
x,1/2-y,1/2+z
loop_
_atom_site_type_symbol
_atom_site_label
_atom_site_fract_x
_atom_site_fract_y
_atom_site_fract_z
Si Si1 0.343002 0.346399 0.373495
Si Si2 0.845238 0.206346 0.973998
Si Si3 0.813351 0.708869 0.928637
Si Si4 0.308044 0.649794 0.828387
Si Si5 0.814721 0.513988 0.979736
Si Si6 0.174951 0.517927 0.398760
O O1 0.338356 0.275035 0.518418
O O2 0.196154 0.314299 0.261718
O O3 0.517108 0.345478 0.271474
O O4 0.300734 0.442896 0.455127
O O5 0.710095 0.283353 0.018693
O O6 0.777316 0.118750 0.070026
O O7 0.020001 0.241631 0.026283
O O8 0.839032 0.179949 0.783609
O O9 0.775953 0.616467 0.025783
O O10 0.292637 0.549285 0.894809
O O11 0.800508 0.491857 0.793760
O O12 0.000000 0.500000 0.000000
O O13 0.000000 0.500000 0.500000
#
# Coordination Sequence:
#
# PCOD8129053 Si02
#       6
#     4   4   4   4   4   4
#     4  11  26  45  69 105 141 180 233 294 356 412
#     4  12  24  43  72 100 140 184 238 284 347 427
#     4  11  24  43  71  99 137 185 233 284 342 425
#     4  12  26  45  70 105 143 181 232 296 362 408
#     4  11  24  42  70 102 137 184 237 289 347 419
#     4  11  24  43  70 102 138 183 241 288 343 421
#
# _framework density 23.801069999999999
#
# number of rings (size 3 to 8) (size 9 to 14) (size 15 to 20)
#    0.000    0.667    3.333    4.000    2.333    6.000 
#    0.000    0.000    0.000    0.000    0.000    0.000 
#    0.000    0.000    0.000    0.000    0.000    0.000 
#
# Total GULP energy -297333.390889 kJ/mol
# GULP energy per Si atom -12388.891287 kJ/mol
# Density = 2.374690 g / cm^3
# Si number density = 23.801070 Si / 1000 Ang^3
#
#
#
# Elastic Constant Matrix: (Units=GPa)
#
#
# Indices 1 2 3 4 5 6 
#
# 1 56.4769 16.2286 14.7134 0.0000 -15.3101 0.0000
# 2 16.2286 202.1740 42.4129 0.0000 -14.2254 0.0000
# 3 14.7134 42.4129 70.5562 0.0000 -7.6274 0.0000
# 4 0.0000 0.0000 0.0000 53.0639 0.0000 -13.8808
# 5 -15.3101 -14.2254 -7.6274 0.0000 41.4029 0.0000
# 6 0.0000 0.0000 0.0000 -13.8808 0.0000 31.2357
#
#
#
# Elastic Compliance Matrix: (Units=1/GPa)
#
#
# Indices 1 2 3 4 5 6 
#
# 1 0.020545 -0.000486 -0.003254 0.000000 0.006831 0.000000
# 2 -0.000486 0.005746 -0.003223 0.000000 0.001201 0.000000
# 3 -0.003254 -0.003223 0.016875 0.000000 0.000798 0.000000
# 4 0.000000 0.000000 0.000000 0.021324 0.000000 0.009476
# 5 0.006831 0.001201 0.000798 0.000000 0.027238 0.000000
# 6 0.000000 0.000000 0.000000 0.009476 0.000000 0.036226
#
#
# Mechanical properties :
#
#
# Convention : Reuss Voigt Hill
#
# Bulk Modulus (GPa) = 34.19821 52.87966 43.53894
# Shear Modulus (GPa) = 32.97564 42.19732 37.58648
#
# Velocity S-wave (km/s) = 3.72623 4.21517 3.97822
# Velocity P-wave (km/s) = 5.73695 6.77907 6.27966
#
# Compressibility (1/GPa) = 0.02924129
#
# Stress axis : x y z
#
# Youngs Moduli (GPa) = 48.67254 174.03951 59.25844
#
# Poissons Ratio (x) = 0.08457 0.19282
# Poissons Ratio (y) = 0.02365 0.19098
# Poissons Ratio (z) = 0.15837 0.56089
#
# Static dielectric constant tensor:
#      x y z
#    x 4.023280 0.000000 0.147070 
#    y 0.000000 4.994880 0.000000 
#    z 0.147070 0.000000 4.373330 
# 
# 
# High freq. dielectric constant tensor:
#      x y z
#    x 1.924470 0.000000 -0.010950 
#    y 0.000000 1.971660 0.000000 
#    z -0.010950 0.000000 1.945910 
# 
# From -- ./inp_files/8465.got.cif
#   From: 2010.03.12/outbox.cif.g09.slc.cpg/sg14_5_cif.got.tgz:8465.got - 2010.03.31 13:35:05.
