data_PCOD8129059
_publ_section_title
;
Structure prediction by ZEFSAII (Michael W. Deem and Ramdas Pophale) SiO2 
 PCOD8129059
Probable space group: P 21/C
;
_chemical_formula_sum "Si O2"
_cell_formula_units_Z 28
_cell_length_a 8.817921
_cell_length_b 8.761808
_cell_length_c 19.988556
_cell_angle_alpha 90.000000
_cell_angle_beta 127.091914
_cell_angle_gamma 90.000000
_cell_volume 1231.867787
_symmetry_space_group_name_H-M "P 21/C"
_symmetry_group_IT_number 14
_symmetry_cell_setting 'monoclinic'
loop_
_space_group_symop_operation_xyz
x,y,z
-x,1/2+y,1/2-z
-x,-y,-z
x,1/2-y,1/2+z
loop_
_atom_site_type_symbol
_atom_site_label
_atom_site_fract_x
_atom_site_fract_y
_atom_site_fract_z
Si Si1 0.930063 0.833151 0.995063
Si Si2 0.378391 0.284178 0.330850
Si Si3 0.518502 0.581551 0.434151
Si Si4 0.877530 0.560057 0.176398
Si Si5 0.109726 0.372453 0.143912
Si Si6 0.762518 0.266624 0.211889
Si Si7 0.274186 0.823200 0.655412
O O1 0.725232 0.850043 0.974602
O O2 0.938943 0.745078 0.927150
O O3 0.069284 0.749159 0.083528
O O4 0.000000 0.000000 0.000000
O O5 0.445264 0.455541 0.362277
O O6 0.293941 0.186333 0.371880
O O7 0.209427 0.282590 0.231355
O O8 0.567182 0.199806 0.357642
O O9 0.500000 0.500000 0.500000
O O10 0.378845 0.725632 0.387111
O O11 0.830934 0.440131 0.222932
O O12 0.918169 0.461725 0.119280
O O13 0.068963 0.645242 0.246821
O O14 0.256646 0.494968 0.154028
O O15 0.658838 0.250001 0.256271
#
# Coordination Sequence:
#
# PCOD8129059 Si02
#       7
#     4   4   4   4   4   4   4
#     4  12  28  47  73 106 144 193 238 311 359 430
#     4  12  25  47  72 109 139 195 243 299 364 441
#     4  12  28  47  72 108 148 183 247 301 366 434
#     4  11  24  42  77  99 146 184 246 291 360 436
#     4  11  26  47  72 104 148 187 249 291 375 429
#     4  11  24  46  71 108 137 195 231 296 357 437
#     4  11  26  45  73 100 150 186 246 293 370 426
#
# _framework density 22.729711999999999
#
# number of rings (size 3 to 8) (size 9 to 14) (size 15 to 20)
#    0.000    0.571    5.714    1.286   14.000    0.000 
#    0.000    1.429    0.000    0.000    0.000    0.000 
#    0.000    0.000    0.000    0.000    0.000    0.000 
#
# Total GULP energy -347122.719226 kJ/mol
# GULP energy per Si atom -12397.239972 kJ/mol
# Density = 2.267798 g / cm^3
# Si number density = 22.729712 Si / 1000 Ang^3
#
#
#
# Elastic Constant Matrix: (Units=GPa)
#
#
# Indices 1 2 3 4 5 6 
#
# 1 138.2540 28.8521 21.5813 0.0000 20.7864 0.0000
# 2 28.8521 89.7421 4.8962 0.0000 3.7630 0.0000
# 3 21.5813 4.8962 75.4322 0.0000 -2.0632 0.0000
# 4 0.0000 0.0000 0.0000 28.9504 0.0000 -2.7860
# 5 20.7864 3.7630 -2.0632 0.0000 26.2386 0.0000
# 6 0.0000 0.0000 0.0000 -2.7860 0.0000 49.0275
#
#
#
# Elastic Compliance Matrix: (Units=1/GPa)
#
#
# Indices 1 2 3 4 5 6 
#
# 1 0.009260 -0.002529 -0.002681 0.000000 -0.007184 0.000000
# 2 -0.002529 0.011947 -0.000044 0.000000 0.000287 0.000000
# 3 -0.002681 -0.000044 0.014116 0.000000 0.003241 0.000000
# 4 0.000000 0.000000 0.000000 0.034732 0.000000 0.001974
# 5 -0.007184 0.000287 0.003241 0.000000 0.044016 0.000000
# 6 0.000000 0.000000 0.000000 0.001974 0.000000 0.020509
#
#
# Mechanical properties :
#
#
# Convention : Reuss Voigt Hill
#
# Bulk Modulus (GPa) = 40.30290 46.00973 43.15631
# Shear Modulus (GPa) = 32.60322 37.38321 34.99322
#
# Velocity S-wave (km/s) = 3.79144 4.05987 3.92795
# Velocity P-wave (km/s) = 6.07754 6.50098 6.29283
#
# Compressibility (1/GPa) = 0.02481211
#
# Stress axis : x y z
#
# Youngs Moduli (GPa) = 107.99657 83.70570 70.84365
#
# Poissons Ratio (x) = 0.21173 0.18997
# Poissons Ratio (y) = 0.27317 0.00311
# Poissons Ratio (z) = 0.28959 0.00368
#
# Static dielectric constant tensor:
#      x y z
#    x 4.379310 0.000000 -0.068210 
#    y 0.000000 4.393080 0.000000 
#    z -0.068210 0.000000 3.872800 
# 
# 
# High freq. dielectric constant tensor:
#      x y z
#    x 1.909710 0.000000 0.003430 
#    y 0.000000 1.916200 0.000000 
#    z 0.003430 0.000000 1.873220 
# 
# From -- ./inp_files/65032.got.cif
#   From: 2010.03.12/outbox.cif.g09.slc.cpg/sg14_33_cif.got.tgz:65032.got - 2010.03.31 13:35:05.
