data_PCOD8129663
_publ_section_title
;
Structure prediction by ZEFSAII (Michael W. Deem and Ramdas Pophale) SiO2 
 PCOD8129663
Probable space group: C 2/C
;
_chemical_formula_sum "Si O2"
_cell_formula_units_Z 44
_cell_length_a 13.561829
_cell_length_b 14.769038
_cell_length_c 15.163095
_cell_angle_alpha 90.000000
_cell_angle_beta 122.699997
_cell_angle_gamma 90.000000
_cell_volume 2555.747987
_symmetry_space_group_name_H-M "C 2/C"
_symmetry_group_IT_number 15
_symmetry_cell_setting 'monoclinic'
loop_
_space_group_symop_operation_xyz
x,y,z
-x,y,1/2-z
-x,-y,-z
x,-y,1/2+z
1/2+x,1/2+y,z
1/2-x,1/2+y,1/2-z
1/2-x,1/2-y,-z
1/2+x,1/2-y,1/2+z
loop_
_atom_site_type_symbol
_atom_site_label
_atom_site_fract_x
_atom_site_fract_y
_atom_site_fract_z
Si Si1 0.008349 0.150246 0.888393
Si Si2 0.000000 0.306020 0.750000
Si Si3 0.801064 0.002717 0.553000
Si Si4 0.188255 0.007396 0.743022
Si Si5 0.629116 0.020491 0.314751
Si Si6 0.001449 0.088449 0.438275
O O1 0.012674 0.246639 0.843839
O O2 0.126893 0.095621 0.924096
O O3 0.896202 0.094897 0.798008
O O4 0.999393 0.169924 0.990549
O O5 0.114480 0.370564 0.795378
O O6 0.686415 0.001589 0.437236
O O7 0.761189 0.991943 0.634872
O O8 0.882231 0.915989 0.565578
O O9 0.294723 0.022124 0.727111
O O10 0.114528 0.917421 0.678493
O O11 0.500000 0.973950 0.250000
O O12 0.000000 0.000000 0.500000
#
# Coordination Sequence:
#
# PCOD8129663 Si02
#       6
#     8   4   8   8   8   8
#     4  10  15  31  54  77  95 132 175 219 254 296
#     4  10  22  32  46  82 116 126 170 210 270 316
#     4  10  16  30  55  75  99 134 176 221 249 291
#     4  10  16  31  53  75 100 135 178 213 256 299
#     4  10  22  34  42  76 118 136 166 209 257 318
#     4   8  14  26  51  78  94 115 180 224 247 274
#
# _framework density 17.216094999999999
#
# number of rings (size 3 to 8) (size 9 to 14) (size 15 to 20)
#    0.545    2.182    7.273    1.636    0.000    1.455 
#    0.000    0.000    0.000    1.091    0.000    2.545 
#    0.000    0.000    0.000    0.000    0.000    0.000 
#
# Total GULP energy -272538.265722 kJ/mol
# GULP energy per Si atom -12388.102987 kJ/mol
# Density = 1.717691 g / cm^3
# Si number density = 17.216095 Si / 1000 Ang^3
#
#
#
# Elastic Constant Matrix: (Units=GPa)
#
#
# Indices 1 2 3 4 5 6 
#
# 1 73.5389 1.2058 58.2576 0.0000 7.4130 0.0000
# 2 1.2058 14.8063 1.8429 0.0000 -1.2890 0.0000
# 3 58.2576 1.8429 141.1287 0.0000 -8.6290 0.0000
# 4 0.0000 0.0000 0.0000 14.6986 0.0000 -3.6543
# 5 7.4130 -1.2890 -8.6290 0.0000 35.3210 0.0000
# 6 0.0000 0.0000 0.0000 -3.6543 0.0000 9.7309
#
#
#
# Elastic Compliance Matrix: (Units=1/GPa)
#
#
# Indices 1 2 3 4 5 6 
#
# 1 0.021747 -0.001204 -0.009383 0.000000 -0.006901 0.000000
# 2 -0.001204 0.067898 -0.000226 0.000000 0.002675 0.000000
# 3 -0.009383 -0.000226 0.011250 0.000000 0.004710 0.000000
# 4 0.000000 0.000000 0.000000 0.075040 0.000000 0.028180
# 5 -0.006901 0.002675 0.004710 0.000000 0.031008 0.000000
# 6 0.000000 0.000000 0.000000 0.028180 0.000000 0.113348
#
#
# Mechanical properties :
#
#
# Convention : Reuss Voigt Hill
#
# Bulk Modulus (GPa) = 12.61534 39.12071 25.86803
# Shear Modulus (GPa) = 13.57438 23.16127 18.36782
#
# Velocity S-wave (km/s) = 2.81102 3.67185 3.26988
# Velocity P-wave (km/s) = 4.22839 6.38352 5.41427
#
# Compressibility (1/GPa) = 0.07926860
#
# Stress axis : x y z
#
# Youngs Moduli (GPa) = 45.98311 14.72796 88.88834
#
# Poissons Ratio (x) = 0.01773 0.83407
# Poissons Ratio (y) = 0.05536 0.02010
# Poissons Ratio (z) = 0.43148 0.00333
#
# Static dielectric constant tensor:
#      x y z
#    x 3.244260 0.000000 -0.285440 
#    y 0.000000 2.721680 0.000000 
#    z -0.285440 0.000000 3.598680 
# 
# 
# High freq. dielectric constant tensor:
#      x y z
#    x 1.659080 0.000000 -0.010930 
#    y 0.000000 1.592170 0.000000 
#    z -0.010930 0.000000 1.679560 
# 
# From -- ./inp_files/155732.got.cif
#   From: 2010.06.25/outbox.cif.g09.slc.cpg/sg15_78_cif.got.tgz:155732.got - 2010.06.28 07:06:18.
