data_PCOD8129179
_publ_section_title
;
Structure prediction by ZEFSAII (Michael W. Deem and Ramdas Pophale) SiO2 
 PCOD8129179
Probable space group: P 21/C
;
_chemical_formula_sum "Si O2"
_cell_formula_units_Z 24
_cell_length_a 8.757500
_cell_length_b 11.615311
_cell_length_c 11.397956
_cell_angle_alpha 90.000000
_cell_angle_beta 104.933673
_cell_angle_gamma 90.000000
_cell_volume 1120.253069
_symmetry_space_group_name_H-M "P 21/C"
_symmetry_group_IT_number 14
_symmetry_cell_setting 'monoclinic'
loop_
_space_group_symop_operation_xyz
x,y,z
-x,1/2+y,1/2-z
-x,-y,-z
x,1/2-y,1/2+z
loop_
_atom_site_type_symbol
_atom_site_label
_atom_site_fract_x
_atom_site_fract_y
_atom_site_fract_z
Si Si1 0.278546 0.164152 0.904565
Si Si2 0.174053 0.011054 0.083560
Si Si3 0.240073 0.552002 0.254803
Si Si4 0.640599 0.181772 0.999779
Si Si5 0.118484 0.094297 0.331317
Si Si6 0.660104 0.055198 0.480533
O O1 0.185906 0.280142 0.865346
O O2 0.208645 0.075794 0.795975
O O3 0.258185 0.115933 0.032267
O O4 0.462724 0.181074 0.918991
O O5 0.175900 0.040860 0.220201
O O6 0.259603 0.888481 0.077870
O O7 0.000000 0.000000 0.000000
O O8 0.338565 0.623662 0.369619
O O9 0.348950 0.547778 0.161691
O O10 0.069647 0.607462 0.195821
O O11 0.691730 0.313558 0.023422
O O12 0.185991 0.013361 0.446504
O O13 0.500000 0.000000 0.500000
#
# Coordination Sequence:
#
# PCOD8129179 Si02
#       6
#     4   4   4   4   4   4
#     4  11  26  45  72 104 144 190 236 298 357 429
#     4  11  24  47  75 105 137 191 243 287 360 426
#     4  11  27  46  73 101 145 188 237 296 358 425
#     4  11  26  47  75 101 146 189 235 297 360 429
#     4  12  27  45  73 106 144 188 238 300 357 429
#     4  12  29  46  69 111 140 186 239 294 361 421
#
# _framework density 21.423729000000002
#
# number of rings (size 3 to 8) (size 9 to 14) (size 15 to 20)
#    0.000    0.667    5.000    2.500   14.000    0.000 
#    0.000    0.000    0.000    0.000    0.000    0.000 
#    0.000    0.000    0.000    0.000    0.000    0.000 
#
# Total GULP energy -297718.138423 kJ/mol
# GULP energy per Si atom -12404.922434 kJ/mol
# Density = 2.137497 g / cm^3
# Si number density = 21.423729 Si / 1000 Ang^3
#
#
#
# Elastic Constant Matrix: (Units=GPa)
#
#
# Indices 1 2 3 4 5 6 
#
# 1 113.2878 39.0103 19.5546 0.0000 7.5496 0.0000
# 2 39.0103 176.8017 40.0233 0.0000 1.9859 0.0000
# 3 19.5546 40.0233 94.0226 0.0000 -15.9880 0.0000
# 4 0.0000 0.0000 0.0000 21.2298 0.0000 13.8064
# 5 7.5496 1.9859 -15.9880 0.0000 53.1794 0.0000
# 6 0.0000 0.0000 0.0000 13.8064 0.0000 30.7007
#
#
#
# Elastic Compliance Matrix: (Units=1/GPa)
#
#
# Indices 1 2 3 4 5 6 
#
# 1 0.009839 -0.001790 -0.001592 0.000000 -0.001808 0.000000
# 2 -0.001790 0.006646 -0.002588 0.000000 -0.000772 0.000000
# 3 -0.001592 -0.002588 0.012776 0.000000 0.004164 0.000000
# 4 0.000000 0.000000 0.000000 0.066574 0.000000 -0.029939
# 5 -0.001808 -0.000772 0.004164 0.000000 0.020342 0.000000
# 6 0.000000 0.000000 0.000000 -0.029939 0.000000 0.046036
#
#
# Mechanical properties :
#
#
# Convention : Reuss Voigt Hill
#
# Bulk Modulus (GPa) = 57.73269 64.58761 61.16015
# Shear Modulus (GPa) = 27.78928 40.05692 33.92310
#
# Velocity S-wave (km/s) = 3.60547 4.32875 3.98356
# Velocity P-wave (km/s) = 6.65876 7.42948 7.05465
#
# Compressibility (1/GPa) = 0.01732121
#
# Stress axis : x y z
#
# Youngs Moduli (GPa) = 101.63842 150.47673 78.26957
#
# Poissons Ratio (x) = 0.26939 0.12458
# Poissons Ratio (y) = 0.18196 0.20255
# Poissons Ratio (z) = 0.16178 0.38940
#
# Static dielectric constant tensor:
#      x y z
#    x 5.042880 0.000000 -0.997540 
#    y 0.000000 4.122380 0.000000 
#    z -0.997540 0.000000 4.857140 
# 
# 
# High freq. dielectric constant tensor:
#      x y z
#    x 1.852720 0.000000 0.003210 
#    y 0.000000 1.853150 0.000000 
#    z 0.003210 0.000000 1.845200 
# 
# From -- ./inp_files/24279.got.cif
#   From: 2010.03.12/outbox.cif.g09.slc.cpg/sg14_13_cif.got.tgz:24279.got - 2010.03.31 13:35:05.
