data_PCOD8129802
_publ_section_title
;
Structure prediction by ZEFSAII (Michael W. Deem and Ramdas Pophale) SiO2 
 PCOD8129802
Probable space group: C 2/C
;
_chemical_formula_sum "Si O2"
_cell_formula_units_Z 52
_cell_length_a 11.354982
_cell_length_b 21.532264
_cell_length_c 12.494952
_cell_angle_alpha 90.000000
_cell_angle_beta 108.974249
_cell_angle_gamma 90.000000
_cell_volume 2889.002805
_symmetry_space_group_name_H-M "C 2/C"
_symmetry_group_IT_number 15
_symmetry_cell_setting 'monoclinic'
loop_
_space_group_symop_operation_xyz
x,y,z
-x,y,1/2-z
-x,-y,-z
x,-y,1/2+z
1/2+x,1/2+y,z
1/2-x,1/2+y,1/2-z
1/2-x,1/2-y,-z
1/2+x,1/2-y,1/2+z
loop_
_atom_site_type_symbol
_atom_site_label
_atom_site_fract_x
_atom_site_fract_y
_atom_site_fract_z
Si Si1 0.740782 0.217376 0.161194
Si Si2 0.092813 0.595493 0.132153
Si Si3 0.137999 0.828687 0.017534
Si Si4 0.874548 0.839673 0.877696
Si Si5 0.712630 0.542651 0.467003
Si Si6 0.500000 0.568275 0.250000
Si Si7 0.676494 0.925433 0.890118
O O1 0.626470 0.168836 0.139523
O O2 0.827231 0.196587 0.088895
O O3 0.820895 0.218535 0.294085
O O4 0.696199 0.287879 0.129573
O O5 0.161410 0.559241 0.058131
O O6 0.133777 0.564218 0.255555
O O7 0.944292 0.587697 0.071860
O O8 0.177945 0.900630 0.037208
O O9 0.989666 0.820236 0.985080
O O10 0.767824 0.866233 0.923906
O O11 0.912014 0.890949 0.800020
O O12 0.595616 0.528546 0.352305
O O13 0.741866 0.483637 0.547620
#
# Coordination Sequence:
#
# PCOD8129802 Si02
#       7
#     8   8   8   8   8   4   8
#     4   9  15  30  52  71  97 129 168 208 249 296
#     4   9  18  34  50  76 101 136 174 206 248 304
#     4   9  17  27  52  74  95 128 166 209 257 294
#     4  10  16  32  49  76  98 129 171 205 250 308
#     4  10  18  32  51  77 106 130 166 216 255 293
#     4  10  16  30  48  72 102 132 160 208 252 296
#     4  10  19  30  55  75  99 143 170 200 254 319
#
# _framework density 17.999290999999999
#
# number of rings (size 3 to 8) (size 9 to 14) (size 15 to 20)
#    0.000    2.462    6.154    0.462    0.000    2.462 
#    0.000    0.769   23.692    0.000    0.000    0.000 
#    0.000    0.000    0.000    0.000    0.000    0.000 
#
# Total GULP energy -322248.199143 kJ/mol
# GULP energy per Si atom -12394.161505 kJ/mol
# Density = 1.795832 g / cm^3
# Si number density = 17.999291 Si / 1000 Ang^3
#
#
#
# Elastic Constant Matrix: (Units=GPa)
#
#
# Indices 1 2 3 4 5 6 
#
# 1 110.7604 40.5824 42.5987 0.0000 24.3274 0.0000
# 2 40.5824 71.9418 43.8656 0.0000 13.7810 0.0000
# 3 42.5987 43.8656 50.7192 0.0000 10.7055 0.0000
# 4 0.0000 0.0000 0.0000 36.0581 0.0000 3.0092
# 5 24.3274 13.7810 10.7055 0.0000 21.6511 0.0000
# 6 0.0000 0.0000 0.0000 3.0092 0.0000 14.8210
#
#
#
# Elastic Compliance Matrix: (Units=1/GPa)
#
#
# Indices 1 2 3 4 5 6 
#
# 1 0.015910 -0.000079 -0.010643 0.000000 -0.012564 0.000000
# 2 -0.000079 0.030350 -0.024702 0.000000 -0.007015 0.000000
# 3 -0.010643 -0.024702 0.049324 0.000000 0.003292 0.000000
# 4 0.000000 0.000000 0.000000 0.028211 0.000000 -0.005728
# 5 -0.012564 -0.007015 0.003292 0.000000 0.063142 0.000000
# 6 0.000000 0.000000 0.000000 -0.005728 0.000000 0.068635
#
#
# Mechanical properties :
#
#
# Convention : Reuss Voigt Hill
#
# Bulk Modulus (GPa) = 40.42447 54.16832 47.29640
# Shear Modulus (GPa) = 14.94030 21.59768 18.26899
#
# Velocity S-wave (km/s) = 2.88418 3.46774 3.18934
# Velocity P-wave (km/s) = 5.79647 6.79659 6.31636
#
# Compressibility (1/GPa) = 0.02473749
#
# Stress axis : x y z
#
# Youngs Moduli (GPa) = 62.85254 32.94870 20.27407
#
# Poissons Ratio (x) = 0.00260 0.21577
# Poissons Ratio (y) = 0.00497 0.50081
# Poissons Ratio (z) = 0.66891 0.81390
#
# Static dielectric constant tensor:
#      x y z
#    x 3.652540 0.000000 0.179760 
#    y 0.000000 3.112860 0.000000 
#    z 0.179760 0.000000 3.109130 
# 
# 
# High freq. dielectric constant tensor:
#      x y z
#    x 1.713280 0.000000 0.013820 
#    y 0.000000 1.664150 0.000000 
#    z 0.013820 0.000000 1.666550 
# 
# From -- ./inp_files/89109.got.cif
#   From: 2010.06.25/outbox.cif.g09.slc.cpg/sg15_45_cif.got.tgz:89109.got - 2010.06.28 07:06:18.
