data_PCOD8129592
_publ_section_title
;
Structure prediction by ZEFSAII (Michael W. Deem and Ramdas Pophale) SiO2 
 PCOD8129592
Probable space group: C 2/C
;
_chemical_formula_sum "Si O2"
_cell_formula_units_Z 30
_cell_length_a 30.000000
_cell_length_b 12.000000
_cell_length_c 9.000000
_cell_angle_alpha 90.000000
_cell_angle_beta 110.000000
_cell_angle_gamma 90.000000
_cell_volume 3044.604091
_symmetry_space_group_name_H-M "C 2/C"
_symmetry_group_IT_number 15
_symmetry_cell_setting 'monoclinic'
loop_
_space_group_symop_operation_xyz
x,y,z
-x,y,1/2-z
-x,-y,-z
x,-y,1/2+z
1/2+x,1/2+y,z
1/2-x,1/2+y,1/2-z
1/2-x,1/2-y,-z
1/2+x,1/2-y,1/2+z
loop_
_atom_site_type_symbol
_atom_site_label
_atom_site_fract_x
_atom_site_fract_y
_atom_site_fract_z
Si Si1 0.046466 0.650559 0.049619
Si Si2 0.879681 0.150399 0.354883
Si Si3 0.674153 0.122996 0.610076
Si Si4 0.213683 0.150743 0.761158
Si Si5 0.509747 0.377078 0.584347
Si Si6 0.666980 0.502434 0.454166
Si Si7 0.500000 0.999045 0.750000
Si Si8 0.155575 0.621289 0.241041
O O1 0.024104 0.776595 0.018077
O O2 0.033724 0.580428 0.886102
O O3 0.029446 0.581990 0.175040
O O4 0.103448 0.660113 0.126945
O O5 0.856825 0.275703 0.348390
O O6 0.936426 0.160263 0.394724
O O7 0.860185 0.087495 0.186062
O O8 0.868870 0.073997 0.488223
O O9 0.729214 0.160808 0.677421
O O10 0.657001 0.108570 0.420859
O O11 0.668045 0.001319 0.684288
O O12 0.198477 0.079413 0.599006
O O13 0.191411 0.276973 0.733375
O O14 0.198875 0.083600 0.893955
O O15 0.500000 0.387028 0.750000
O O16 0.500000 0.500000 0.500000
#
# Coordination Sequence:
#
# PCOD8129592 Si02
#       8
#     8   8   8   8   8   8   4   8
#     4  11  26  45  71 101 139 184 233 288 346 412
#     4  11  26  46  72 102 142 183 235 288 348 413
#     4  12  28  46  71 105 142 186 235 290 347 421
#     4  11  25  46  71 102 143 185 235 289 349 412
#     4  12  29  46  73 104 144 183 236 284 349 417
#     4  10  24  45  74  98 142 187 234 287 349 410
#     4  10  24  46  72  96 142 182 234 288 348 404
#     4  12  28  44  72 102 144 183 239 283 355 412
#
# _framework density 9.8534980000000001
#
# number of rings (size 3 to 8) (size 9 to 14) (size 15 to 20)
#    0.000    0.800    2.000    2.800   17.733    0.533 
#    0.000    0.000    0.000    0.000    0.000    0.000 
#    0.000    0.000    0.000    0.000    0.000    0.000 
#
# Total GULP energy -371786.752461 kJ/mol
# GULP energy per Si atom -12392.891749 kJ/mol
# Density = 0.983107 g / cm^3
# Si number density = 9.853498 Si / 1000 Ang^3
#
#
#
# Elastic Constant Matrix: (Units=GPa)
#
#
# Indices 1 2 3 4 5 6 
#
# 1 179.6064 76.2314 60.9755 0.0000 14.0386 0.0000
# 2 76.2314 221.6619 69.5282 0.0000 -0.1676 0.0000
# 3 60.9755 69.5282 152.2870 0.0000 -4.2002 0.0000
# 4 0.0000 0.0000 0.0000 53.6847 0.0000 -3.3628
# 5 14.0386 -0.1676 -4.2002 0.0000 45.0334 0.0000
# 6 0.0000 0.0000 0.0000 -3.3628 0.0000 53.2938
#
#
#
# Elastic Compliance Matrix: (Units=1/GPa)
#
#
# Indices 1 2 3 4 5 6 
#
# 1 0.007264 -0.001828 -0.002142 0.000000 -0.002471 0.000000
# 2 -0.001828 0.005727 -0.001871 0.000000 0.000417 0.000000
# 3 -0.002142 -0.001871 0.008318 0.000000 0.001437 0.000000
# 4 0.000000 0.000000 0.000000 0.018701 0.000000 0.001180
# 5 -0.002471 0.000417 0.001437 0.000000 0.023112 0.000000
# 6 0.000000 0.000000 0.000000 0.001180 0.000000 0.018838
#
#
# Mechanical properties :
#
#
# Convention : Reuss Voigt Hill
#
# Bulk Modulus (GPa) = 103.87966 107.44727 105.66346
# Shear Modulus (GPa) = 51.62472 53.52372 52.57422
#
# Velocity S-wave (km/s) = 5.12377 5.21716 5.17067
# Velocity P-wave (km/s) = 9.37179 9.53585 9.45418
#
# Compressibility (1/GPa) = 0.00962652
#
# Stress axis : x y z
#
# Youngs Moduli (GPa) = 137.66520 174.59891 120.21773
#
# Poissons Ratio (x) = 0.31919 0.25750
# Poissons Ratio (y) = 0.25167 0.22498
# Poissons Ratio (z) = 0.29488 0.32675
#
# Static dielectric constant tensor:
#      x y z
#    x 4.025560 0.000000 -0.087700 
#    y 0.000000 4.517030 0.000000 
#    z -0.087700 0.000000 4.161280 
# 
# 
# High freq. dielectric constant tensor:
#      x y z
#    x 1.801540 0.000000 -0.003670 
#    y 0.000000 1.831680 0.000000 
#    z -0.003670 0.000000 1.811260 
# 
# From -- ./inp_files/69418.got.cif
#   From: 2010.06.25/outbox.ucp.g09.slc.cvg/sg15_35_cif.got.tgz:69418.got - 2010.06.28 14:40:10.
