data_PCOD8129097
_publ_section_title
;
Structure prediction by ZEFSAII (Michael W. Deem and Ramdas Pophale) SiO2 
 PCOD8129097
Probable space group: P 21/C
;
_chemical_formula_sum "Si O2"
_cell_formula_units_Z 20
_cell_length_a 12.703538
_cell_length_b 5.215626
_cell_length_c 28.030800
_cell_angle_alpha 90.000000
_cell_angle_beta 152.358108
_cell_angle_gamma 90.000000
_cell_volume 861.652314
_symmetry_space_group_name_H-M "P 21/C"
_symmetry_group_IT_number 14
_symmetry_cell_setting 'monoclinic'
loop_
_space_group_symop_operation_xyz
x,y,z
-x,1/2+y,1/2-z
-x,-y,-z
x,1/2-y,1/2+z
loop_
_atom_site_type_symbol
_atom_site_label
_atom_site_fract_x
_atom_site_fract_y
_atom_site_fract_z
Si Si1 0.535156 0.014025 0.129796
Si Si2 0.077154 0.513163 0.140333
Si Si3 0.349568 0.128737 0.480079
Si Si4 0.960895 0.468093 0.539746
Si Si5 0.859412 0.626197 0.685362
O O1 0.695765 0.068909 0.239076
O O2 0.656525 0.814760 0.142075
O O3 0.492623 0.276728 0.082968
O O4 0.301530 0.897865 0.055553
O O5 0.861584 0.451276 0.088113
O O6 0.112782 0.267399 0.120382
O O7 0.029643 0.767556 0.091521
O O8 0.236049 0.373351 0.406967
O O9 0.500000 0.000000 0.500000
O O10 0.000000 0.500000 0.500000
O O11 0.952561 0.344804 0.733498
#
# Coordination Sequence:
#
# PCOD8129097 Si02
#       5
#     4   4   4   4   4
#     4  11  26  43  72 104 141 188 234 286 348 413
#     4  11  26  44  72 103 138 179 236 286 348 423
#     4  11  24  44  67 106 148 191 233 280 346 417
#     4  11  27  50  72 101 136 177 236 299 356 415
#     4  12  25  41  68 100 148 190 228 275 340 415
#
# _framework density 23.211216
#
# number of rings (size 3 to 8) (size 9 to 14) (size 15 to 20)
#    0.000    0.800    2.000    3.600    5.600    6.400 
#    0.000    0.000    0.000    0.000    0.000    0.000 
#    0.000    0.000    0.000    0.000    0.000    0.000 
#
# Total GULP energy -247986.715386 kJ/mol
# GULP energy per Si atom -12399.335769 kJ/mol
# Density = 2.315839 g / cm^3
# Si number density = 23.211216 Si / 1000 Ang^3
#
#
#
# Elastic Constant Matrix: (Units=GPa)
#
#
# Indices 1 2 3 4 5 6 
#
# 1 121.2992 25.0361 53.5458 0.0000 -12.5051 0.0000
# 2 25.0361 100.2389 35.2469 0.0000 -8.7232 0.0000
# 3 53.5458 35.2469 128.0896 0.0000 -19.1436 0.0000
# 4 0.0000 0.0000 0.0000 24.2102 0.0000 -9.7111
# 5 -12.5051 -8.7232 -19.1436 0.0000 31.5868 0.0000
# 6 0.0000 0.0000 0.0000 -9.7111 0.0000 27.4302
#
#
#
# Elastic Compliance Matrix: (Units=1/GPa)
#
#
# Indices 1 2 3 4 5 6 
#
# 1 0.010293 -0.001115 -0.003775 0.000000 0.001479 0.000000
# 2 -0.001115 0.011217 -0.002445 0.000000 0.001175 0.000000
# 3 -0.003775 -0.002445 0.010703 0.000000 0.004317 0.000000
# 4 0.000000 0.000000 0.000000 0.048141 0.000000 0.017043
# 5 0.001479 0.001175 0.004317 0.000000 0.035185 0.000000
# 6 0.000000 0.000000 0.000000 0.017043 0.000000 0.042490
#
#
# Mechanical properties :
#
#
# Convention : Reuss Voigt Hill
#
# Bulk Modulus (GPa) = 57.00186 64.14282 60.57234
# Shear Modulus (GPa) = 28.00392 32.36537 30.18464
#
# Velocity S-wave (km/s) = 3.47721 3.73820 3.61006
# Velocity P-wave (km/s) = 6.38221 6.80636 6.59769
#
# Compressibility (1/GPa) = 0.01754329
#
# Stress axis : x y z
#
# Youngs Moduli (GPa) = 97.15255 89.15422 93.43065
#
# Poissons Ratio (x) = 0.09938 0.35271
# Poissons Ratio (y) = 0.10830 0.22844
# Poissons Ratio (z) = 0.36676 0.21798
#
# Static dielectric constant tensor:
#      x y z
#    x 4.457500 0.000000 -0.040550 
#    y 0.000000 4.089000 0.000000 
#    z -0.040550 0.000000 4.594570 
# 
# 
# High freq. dielectric constant tensor:
#      x y z
#    x 1.915070 0.000000 -0.005290 
#    y 0.000000 1.908040 0.000000 
#    z -0.005290 0.000000 1.936060 
# 
# From -- ./inp_files/33319.got.cif
#   From: 2010.03.12/outbox.cif.g09.slc.cpg/sg14_17_cif.got.tgz:33319.got - 2010.03.31 13:35:05.
