data_PCOD8129901
_publ_section_title
;
Structure prediction by ZEFSAII (Michael W. Deem and Ramdas Pophale) SiO2 
 PCOD8129901
Probable space group: C 2/C
;
_chemical_formula_sum "Si O2"
_cell_formula_units_Z 56
_cell_length_a 11.110346
_cell_length_b 19.383364
_cell_length_c 17.344408
_cell_angle_alpha 90.000000
_cell_angle_beta 51.032566
_cell_angle_gamma 90.000000
_cell_volume 2904.146943
_symmetry_space_group_name_H-M "C 2/C"
_symmetry_group_IT_number 15
_symmetry_cell_setting 'monoclinic'
loop_
_space_group_symop_operation_xyz
x,y,z
-x,y,1/2-z
-x,-y,-z
x,-y,1/2+z
1/2+x,1/2+y,z
1/2-x,1/2+y,1/2-z
1/2-x,1/2-y,-z
1/2+x,1/2-y,1/2+z
loop_
_atom_site_type_symbol
_atom_site_label
_atom_site_fract_x
_atom_site_fract_y
_atom_site_fract_z
Si Si1 0.221041 0.550162 0.867283
Si Si2 0.126436 0.803261 0.969156
Si Si3 0.871954 0.992873 0.152756
Si Si4 0.641130 0.311161 0.136389
Si Si5 0.356707 0.075279 0.351337
Si Si6 0.884879 0.541805 0.959219
Si Si7 0.599252 0.598977 0.000951
O O1 0.342332 0.534051 0.750398
O O2 0.300203 0.610157 0.885359
O O3 0.053444 0.575947 0.903142
O O4 0.193575 0.480944 0.928351
O O5 0.212356 0.737022 0.898648
O O6 0.242783 0.867135 0.926839
O O7 0.978565 0.824640 0.974538
O O8 0.079200 0.789137 0.076778
O O9 0.716424 0.025770 0.183166
O O10 0.920147 0.929518 0.078328
O O11 0.009242 0.049286 0.097193
O O12 0.500000 0.297192 0.250000
O O13 0.500000 0.111175 0.250000
O O14 0.408027 0.028430 0.402118
O O15 0.776650 0.598787 0.959433
#
# Coordination Sequence:
#
# PCOD8129901 Si02
#       7
#     8   8   8   8   8   8   8
#     4  11  21  34  51  84 116 141 176 229 279 325
#     4  10  21  38  54  77 107 145 186 220 265 329
#     4   9  18  29  54  79 106 139 176 222 277 315
#     4  11  23  36  56  79 109 144 181 229 272 321
#     4  10  16  32  54  79 107 142 174 219 264 334
#     4  10  21  33  52  83 112 142 175 228 280 327
#     4   9  19  35  53  78 105 145 185 221 266 336
#
# _framework density 19.282771
#
# number of rings (size 3 to 8) (size 9 to 14) (size 15 to 20)
#    0.000    2.000    2.857    2.143    2.000    0.000 
#    0.000    0.714    0.000    0.000    0.000    8.000 
#    0.000    0.000    0.000    0.000    0.000    0.000 
#
# Total GULP energy -347100.161898 kJ/mol
# GULP energy per Si atom -12396.434353 kJ/mol
# Density = 1.923888 g / cm^3
# Si number density = 19.282771 Si / 1000 Ang^3
#
#
#
# Elastic Constant Matrix: (Units=GPa)
#
#
# Indices 1 2 3 4 5 6 
#
# 1 69.0273 4.2823 18.1047 0.0000 -3.4516 0.0000
# 2 4.2823 45.4082 15.9553 0.0000 0.1649 0.0000
# 3 18.1047 15.9553 112.1658 0.0000 -5.2026 0.0000
# 4 0.0000 0.0000 0.0000 19.9215 0.0000 -3.5059
# 5 -3.4516 0.1649 -5.2026 0.0000 19.7676 0.0000
# 6 0.0000 0.0000 0.0000 -3.5059 0.0000 27.8494
#
#
#
# Elastic Compliance Matrix: (Units=1/GPa)
#
#
# Indices 1 2 3 4 5 6 
#
# 1 0.015226 -0.000646 -0.002270 0.000000 0.002067 0.000000
# 2 -0.000646 0.023231 -0.003254 0.000000 -0.001163 0.000000
# 3 -0.002270 -0.003254 0.009848 0.000000 0.002223 0.000000
# 4 0.000000 0.000000 0.000000 0.051334 0.000000 0.006462
# 5 0.002067 -0.001163 0.002223 0.000000 0.051543 0.000000
# 6 0.000000 0.000000 0.000000 0.006462 0.000000 0.036721
#
#
# Mechanical properties :
#
#
# Convention : Reuss Voigt Hill
#
# Bulk Modulus (GPa) = 27.80506 33.69844 30.75175
# Shear Modulus (GPa) = 23.55918 26.05829 24.80873
#
# Velocity S-wave (km/s) = 3.49918 3.68010 3.59078
# Velocity P-wave (km/s) = 5.54767 5.96417 5.75969
#
# Compressibility (1/GPa) = 0.03596468
#
# Stress axis : x y z
#
# Youngs Moduli (GPa) = 65.67813 43.04582 101.54602
#
# Poissons Ratio (x) = 0.02780 0.23050
# Poissons Ratio (y) = 0.04242 0.33046
# Poissons Ratio (z) = 0.14908 0.14008
#
# Static dielectric constant tensor:
#      x y z
#    x 3.513000 0.000000 -0.117570 
#    y 0.000000 3.261990 0.000000 
#    z -0.117570 0.000000 3.594270 
# 
# 
# High freq. dielectric constant tensor:
#      x y z
#    x 1.742390 0.000000 -0.008510 
#    y 0.000000 1.709650 0.000000 
#    z -0.008510 0.000000 1.763010 
# 
# From -- ./inp_files/199442.got.cif
#   From: 2010.06.25/outbox.cif.g09.slc.cpg/sg15_100_cif.got.tgz:199442.got - 2010.06.28 07:06:18.
