data_PCOD8129335
_publ_section_title
;
Structure prediction by ZEFSAII (Michael W. Deem and Ramdas Pophale) SiO2 
 PCOD8129335
Probable space group: P 21/C
;
_chemical_formula_sum "Si O2"
_cell_formula_units_Z 12
_cell_length_a 4.829251
_cell_length_b 10.100288
_cell_length_c 13.241669
_cell_angle_alpha 90.000000
_cell_angle_beta 129.517244
_cell_angle_gamma 90.000000
_cell_volume 498.258297
_symmetry_space_group_name_H-M "P 21/C"
_symmetry_group_IT_number 14
_symmetry_cell_setting 'monoclinic'
loop_
_space_group_symop_operation_xyz
x,y,z
-x,1/2+y,1/2-z
-x,-y,-z
x,1/2-y,1/2+z
loop_
_atom_site_type_symbol
_atom_site_label
_atom_site_fract_x
_atom_site_fract_y
_atom_site_fract_z
Si Si1 0.919761 0.479088 0.122271
Si Si2 0.753939 0.610090 0.603927
Si Si3 0.168405 0.785561 0.558733
O O1 0.972189 0.455263 0.252957
O O2 0.176132 0.600725 0.147238
O O3 0.500000 0.500000 0.000000
O O4 0.038510 0.348677 0.085957
O O5 0.500000 0.500000 0.500000
O O6 0.557770 0.734277 0.612811
O O7 0.964293 0.659053 0.554471
#
# Coordination Sequence:
#
# PCOD8129335 Si02
#       3
#     4   4   4
#     4  11  27  50  78 106 150 198 237 309 374 422
#     4  12  29  46  79 109 146 190 251 300 361 443
#     4  11  27  48  73 107 150 189 243 295 373 431
#
# _framework density 24.083894000000001
#
# number of rings (size 3 to 8) (size 9 to 14) (size 15 to 20)
#    0.000    0.667    3.333    1.000   18.667    0.000 
#    0.000    0.000    0.000    0.000    0.000    0.000 
#    0.000    0.000    0.000    0.000    0.000    0.000 
#
# Total GULP energy -148763.591573 kJ/mol
# GULP energy per Si atom -12396.965964 kJ/mol
# Density = 2.402908 g / cm^3
# Si number density = 24.083894 Si / 1000 Ang^3
#
#
#
# Elastic Constant Matrix: (Units=GPa)
#
#
# Indices 1 2 3 4 5 6 
#
# 1 83.7700 6.9788 27.9740 0.0000 -10.1097 0.0000
# 2 6.9788 81.9904 54.2439 0.0000 -7.0157 0.0000
# 3 27.9740 54.2439 158.0844 0.0000 -11.5236 0.0000
# 4 0.0000 0.0000 0.0000 28.8384 0.0000 -13.4160
# 5 -10.1097 -7.0157 -11.5236 0.0000 30.5938 0.0000
# 6 0.0000 0.0000 0.0000 -13.4160 0.0000 59.6999
#
#
#
# Elastic Compliance Matrix: (Units=1/GPa)
#
#
# Indices 1 2 3 4 5 6 
#
# 1 0.013082 0.000716 -0.002296 0.000000 0.003622 0.000000
# 2 0.000716 0.015896 -0.005448 0.000000 0.001830 0.000000
# 3 -0.002296 -0.005448 0.008694 0.000000 0.001266 0.000000
# 4 0.000000 0.000000 0.000000 0.038724 0.000000 0.008702
# 5 0.003622 0.001830 0.001266 0.000000 0.034780 0.000000
# 6 0.000000 0.000000 0.000000 0.008702 0.000000 0.018706
#
#
# Mechanical properties :
#
#
# Convention : Reuss Voigt Hill
#
# Bulk Modulus (GPa) = 42.34618 55.80425 49.07522
# Shear Modulus (GPa) = 32.93566 39.46963 36.20265
#
# Velocity S-wave (km/s) = 3.70204 4.05265 3.88130
# Velocity P-wave (km/s) = 5.99119 6.71712 6.36451
#
# Compressibility (1/GPa) = 0.02361488
#
# Stress axis : x y z
#
# Youngs Moduli (GPa) = 76.44195 62.90720 115.02494
#
# Poissons Ratio (x) = -0.04503 0.26415
# Poissons Ratio (y) = -0.05471 0.62664
# Poissons Ratio (z) = 0.17555 0.34271
#
# Static dielectric constant tensor:
#      x y z
#    x 5.109480 0.000000 -0.819760 
#    y 0.000000 4.419240 0.000000 
#    z -0.819760 0.000000 4.405020 
# 
# 
# High freq. dielectric constant tensor:
#      x y z
#    x 1.970720 0.000000 -0.023200 
#    y 0.000000 1.975790 0.000000 
#    z -0.023200 0.000000 1.926800 
# 
# From -- ./inp_files/4835.got.cif
#   From: 2010.03.12/outbox.cif.g09.slc.cpg/sg14_3_cif.got.tgz:4835.got - 2010.03.31 13:35:05.
