data_PCOD8129624
_publ_section_title
;
Structure prediction by ZEFSAII (Michael W. Deem and Ramdas Pophale) SiO2 
 PCOD8129624
Probable space group: C 2/C
;
_chemical_formula_sum "Si O2"
_cell_formula_units_Z 32
_cell_length_a 11.022044
_cell_length_b 8.113689
_cell_length_c 19.884485
_cell_angle_alpha 90.000000
_cell_angle_beta 47.507779
_cell_angle_gamma 90.000000
_cell_volume 1311.232642
_symmetry_space_group_name_H-M "C 2/C"
_symmetry_group_IT_number 15
_symmetry_cell_setting 'monoclinic'
loop_
_space_group_symop_operation_xyz
x,y,z
-x,y,1/2-z
-x,-y,-z
x,-y,1/2+z
1/2+x,1/2+y,z
1/2-x,1/2+y,1/2-z
1/2-x,1/2-y,-z
1/2+x,1/2-y,1/2+z
loop_
_atom_site_type_symbol
_atom_site_label
_atom_site_fract_x
_atom_site_fract_y
_atom_site_fract_z
Si Si1 0.339240 0.314022 0.135281
Si Si2 0.833375 0.598545 0.929988
Si Si3 0.628422 0.141866 0.977220
Si Si4 0.710234 0.942765 0.313094
O O1 0.227993 0.411606 0.123406
O O2 0.342716 0.408424 0.205212
O O3 0.268393 0.132852 0.175858
O O4 0.524511 0.304271 0.035785
O O5 0.030663 0.609935 0.852887
O O6 0.750000 0.750000 0.000000
O O7 0.782793 0.428842 0.988671
O O8 0.747284 0.166056 0.867696
O O9 0.500000 0.000000 0.000000
#
# Coordination Sequence:
#
# PCOD8129624 Si02
#       4
#     8   8   8   8
#     4  10  18  32  52  82 112 144 187 233 274 336
#     4  10  14  30  56  78 105 144 190 224 272 332
#     4   8  16  29  50  78 111 147 179 230 280 324
#     4  10  19  30  53  84 110 146 186 230 283 327
#
# _framework density 24.404516000000001
#
# number of rings (size 3 to 8) (size 9 to 14) (size 15 to 20)
#    0.000    3.000    7.500    0.750    0.000    0.000 
#    0.000    1.250    0.000   13.500    0.000    0.000 
#    0.000    0.000    0.000    0.000    0.000    0.000 
#
# Total GULP energy -198221.616189 kJ/mol
# GULP energy per Si atom -12388.851012 kJ/mol
# Density = 2.434897 g / cm^3
# Si number density = 24.404516 Si / 1000 Ang^3
#
#
#
# Elastic Constant Matrix: (Units=GPa)
#
#
# Indices 1 2 3 4 5 6 
#
# 1 105.1272 37.9809 57.2174 0.0000 35.5176 0.0000
# 2 37.9809 33.3293 17.6538 0.0000 9.8663 0.0000
# 3 57.2174 17.6538 117.5698 0.0000 67.9986 0.0000
# 4 0.0000 0.0000 0.0000 43.3454 0.0000 8.4631
# 5 35.5176 9.8663 67.9986 0.0000 47.1773 0.0000
# 6 0.0000 0.0000 0.0000 8.4631 0.0000 38.6334
#
#
#
# Elastic Compliance Matrix: (Units=1/GPa)
#
#
# Indices 1 2 3 4 5 6 
#
# 1 0.020764 -0.019974 -0.002890 0.000000 -0.007291 0.000000
# 2 -0.019974 0.051825 -0.002944 0.000000 0.008443 0.000000
# 3 -0.002890 -0.002944 0.052530 0.000000 -0.072922 0.000000
# 4 0.000000 0.000000 0.000000 0.024101 0.000000 -0.005280
# 5 -0.007291 0.008443 -0.072922 0.000000 0.130025 0.000000
# 6 0.000000 0.000000 0.000000 -0.005280 0.000000 0.027041
#
#
# Mechanical properties :
#
#
# Convention : Reuss Voigt Hill
#
# Bulk Modulus (GPa) = 13.60462 53.52559 33.56510
# Shear Modulus (GPa) = 13.07522 35.37615 24.22569
#
# Velocity S-wave (km/s) = 2.31718 3.81146 3.15409
# Velocity P-wave (km/s) = 3.57013 6.43039 5.20076
#
# Compressibility (1/GPa) = 0.07350446
#
# Stress axis : x y z
#
# Youngs Moduli (GPa) = 48.15972 19.29565 19.03685
#
# Poissons Ratio (x) = 0.38540 0.05501
# Poissons Ratio (y) = 0.96192 0.05605
# Poissons Ratio (z) = 0.13916 0.05681
#
# Static dielectric constant tensor:
#      x y z
#    x 4.445460 0.000000 0.717960 
#    y 0.000000 4.144720 0.000000 
#    z 0.717960 0.000000 5.449100 
# 
# 
# High freq. dielectric constant tensor:
#      x y z
#    x 1.951220 0.000000 0.033770 
#    y 0.000000 1.947230 0.000000 
#    z 0.033770 0.000000 1.980650 
# 
# From -- ./inp_files/235412.got.cif
#   From: 2010.06.25/outbox.cif.g09.slc.cpg/sg15_118_cif.got.tgz:235412.got - 2010.06.28 07:06:18.
