data_PCOD8129538
_publ_section_title
;
Structure prediction by ZEFSAII (Michael W. Deem and Ramdas Pophale) SiO2 
 PCOD8129538
Probable space group: C 2/C
;
_chemical_formula_sum "Si O2"
_cell_formula_units_Z 32
_cell_length_a 24.000000
_cell_length_b 21.000000
_cell_length_c 9.000000
_cell_angle_alpha 90.000000
_cell_angle_beta 50.000000
_cell_angle_gamma 90.000000
_cell_volume 3474.777594
_symmetry_space_group_name_H-M "C 2/C"
_symmetry_group_IT_number 15
_symmetry_cell_setting 'monoclinic'
loop_
_space_group_symop_operation_xyz
x,y,z
-x,y,1/2-z
-x,-y,-z
x,-y,1/2+z
1/2+x,1/2+y,z
1/2-x,1/2+y,1/2-z
1/2-x,1/2-y,-z
1/2+x,1/2-y,1/2+z
loop_
_atom_site_type_symbol
_atom_site_label
_atom_site_fract_x
_atom_site_fract_y
_atom_site_fract_z
Si Si1 0.269609 0.188323 0.377920
Si Si2 0.591592 0.958997 0.891796
Si Si3 0.922839 0.302228 0.065420
Si Si4 0.762201 0.947297 0.575294
Si Si5 0.579790 0.165389 0.259435
Si Si6 0.699197 0.704374 0.179979
Si Si7 0.896876 0.577866 0.802381
Si Si8 0.775019 0.066726 0.379537
O O1 0.250000 0.250000 0.500000
O O2 0.234710 0.123167 0.508007
O O3 0.357210 0.184935 0.232998
O O4 0.242432 0.193910 0.258002
O O5 0.678276 0.963957 0.739005
O O6 0.559721 0.907764 0.829138
O O7 0.565138 0.028893 0.880508
O O8 0.566664 0.937536 0.099523
O O9 0.880367 0.235965 0.166180
O O10 0.909904 0.350489 0.223885
O O11 0.894031 0.330325 0.957092
O O12 0.009516 0.289445 0.905835
O O13 0.801686 0.943145 0.665883
O O14 0.803286 0.003955 0.417723
O O15 0.691307 0.633987 0.118151
O O16 0.750000 0.750000 0.000000
O O17 0.811354 0.568992 0.961697
#
# Coordination Sequence:
#
# PCOD8129538 Si02
#       8
#     8   8   8   8   8   8   8   8
#     4  10  19  36  56  78 108 141 179 221 267 332
#     4   9  18  32  50  73 104 145 189 222 264 316
#     4  11  22  35  53  75 111 146 183 230 272 324
#     4   8  17  28  48  74 102 134 170 217 260 308
#     4  10  22  37  51  77 107 144 189 223 273 326
#     4  11  21  35  54  81 109 143 183 226 277 318
#     4  10  18  32  52  75 106 148 187 228 264 315
#     4   9  17  31  49  75 107 134 176 217 262 316
#
# _framework density 9.2092220000000005
#
# number of rings (size 3 to 8) (size 9 to 14) (size 15 to 20)
#    0.000    2.250    2.500    1.500    0.000    5.000 
#    0.000    0.000    0.000    0.000    0.000    0.875 
#    0.000    0.000    0.000    0.375    0.000    0.000 
#
# Total GULP energy -396480.221907 kJ/mol
# GULP energy per Si atom -12390.006935 kJ/mol
# Density = 0.918826 g / cm^3
# Si number density = 9.209222 Si / 1000 Ang^3
#
#
#
# Elastic Constant Matrix: (Units=GPa)
#
#
# Indices 1 2 3 4 5 6 
#
# 1 25.3993 37.6973 31.6297 0.0000 3.9081 0.0000
# 2 37.6973 175.3363 56.4195 0.0000 10.9773 0.0000
# 3 31.6297 56.4195 54.7603 0.0000 11.4424 0.0000
# 4 0.0000 0.0000 0.0000 35.5681 0.0000 4.3010
# 5 3.9081 10.9773 11.4424 0.0000 24.4835 0.0000
# 6 0.0000 0.0000 0.0000 4.3010 0.0000 26.4984
#
#
#
# Elastic Compliance Matrix: (Units=1/GPa)
#
#
# Indices 1 2 3 4 5 6 
#
# 1 0.151850 -0.006492 -0.084849 0.000000 0.018326 0.000000
# 2 -0.006492 0.008812 -0.005230 0.000000 -0.000470 0.000000
# 3 -0.084849 -0.005230 0.076843 0.000000 -0.020024 0.000000
# 4 0.000000 0.000000 0.000000 0.028678 0.000000 -0.004655
# 5 0.018326 -0.000470 -0.020024 0.000000 0.047487 0.000000
# 6 0.000000 0.000000 0.000000 -0.004655 0.000000 0.038494
#
#
# Mechanical properties :
#
#
# Convention : Reuss Voigt Hill
#
# Bulk Modulus (GPa) = 22.54229 56.33207 39.43718
# Shear Modulus (GPa) = 8.92707 25.95996 17.44351
#
# Velocity S-wave (km/s) = 2.20394 3.75834 3.08079
# Velocity P-wave (km/s) = 4.32920 7.03452 5.84065
#
# Compressibility (1/GPa) = 0.04436107
#
# Stress axis : x y z
#
# Youngs Moduli (GPa) = 6.58546 113.48613 13.01349
#
# Poissons Ratio (x) = 0.73680 1.10418
# Poissons Ratio (y) = 0.04276 0.06807
# Poissons Ratio (z) = 0.55877 0.59358
#
# Static dielectric constant tensor:
#      x y z
#    x 3.272290 0.000000 0.158920 
#    y 0.000000 3.890680 0.000000 
#    z 0.158920 0.000000 3.402490 
# 
# 
# High freq. dielectric constant tensor:
#      x y z
#    x 1.691950 0.000000 0.022070 
#    y 0.000000 1.718770 0.000000 
#    z 0.022070 0.000000 1.692360 
# 
# From -- ./inp_files/63391.got.cif
#   From: 2010.06.25/outbox.ucp.g09.slc.cvg/sg15_32_cif.got.tgz:63391.got - 2010.06.28 14:40:10.
