data_PCOD8129711
_publ_section_title
;
Structure prediction by ZEFSAII (Michael W. Deem and Ramdas Pophale) SiO2 
 PCOD8129711
Probable space group: C 2/C
;
_chemical_formula_sum "Si O2"
_cell_formula_units_Z 60
_cell_length_a 28.845223
_cell_length_b 22.671632
_cell_length_c 8.517273
_cell_angle_alpha 90.000000
_cell_angle_beta 148.520833
_cell_angle_gamma 90.000000
_cell_volume 2908.603757
_symmetry_space_group_name_H-M "C 2/C"
_symmetry_group_IT_number 15
_symmetry_cell_setting 'monoclinic'
loop_
_space_group_symop_operation_xyz
x,y,z
-x,y,1/2-z
-x,-y,-z
x,-y,1/2+z
1/2+x,1/2+y,z
1/2-x,1/2+y,1/2-z
1/2-x,1/2-y,-z
1/2+x,1/2-y,1/2+z
loop_
_atom_site_type_symbol
_atom_site_label
_atom_site_fract_x
_atom_site_fract_y
_atom_site_fract_z
Si Si1 0.714407 0.684907 0.194622
Si Si2 0.902191 0.295728 0.643646
Si Si3 0.000000 0.921101 0.250000
Si Si4 0.849006 0.939717 0.024480
Si Si5 0.097672 0.278373 0.227517
Si Si6 0.740666 0.998937 0.454886
Si Si7 0.195477 0.586408 0.573876
Si Si8 0.849139 0.154204 0.158980
O O1 0.820067 0.685308 0.456837
O O2 0.712388 0.679499 0.378346
O O3 0.664761 0.744278 0.989564
O O4 0.662989 0.629513 0.967943
O O5 0.906697 0.289462 0.470729
O O6 0.872189 0.360243 0.612385
O O7 0.999208 0.292464 0.006569
O O8 0.945155 0.956742 0.226155
O O9 0.068365 0.879954 0.535035
O O10 0.830258 0.978997 0.123247
O O11 0.772168 0.952722 0.675727
O O12 0.114966 0.210857 0.328402
O O13 0.690685 0.054718 0.389631
O O14 0.675268 0.963648 0.148394
O O15 0.295073 0.611041 0.888364
#
# Coordination Sequence:
#
# PCOD8129711 Si02
#       8
#     8   8   4   8   8   8   8   8
#     4  10  16  31  53  82 112 138 180 239 284 337
#     4  10  18  29  55  84 114 143 184 240 292 331
#     4  10  18  30  54  78 112 136 182 228 274 326
#     4  10  20  36  52  80 108 148 185 231 276 335
#     4  10  16  26  53  87 109 139 184 231 290 338
#     4  10  22  36  56  75 111 157 193 224 276 335
#     4  11  19  38  55  81 110 151 192 232 278 339
#     4  10  16  30  51  81 114 140 176 230 280 336
#
# _framework density 20.628454000000001
#
# number of rings (size 3 to 8) (size 9 to 14) (size 15 to 20)
#    0.000    1.867    5.333    3.200    0.000    0.533 
#    0.000    0.667    0.000   15.200    0.000    0.000 
#    0.000    0.000    0.000    0.000    0.000    0.000 
#
# Total GULP energy -371696.432113 kJ/mol
# GULP energy per Si atom -12389.881070 kJ/mol
# Density = 2.058150 g / cm^3
# Si number density = 20.628454 Si / 1000 Ang^3
#
#
#
# Elastic Constant Matrix: (Units=GPa)
#
#
# Indices 1 2 3 4 5 6 
#
# 1 47.6495 42.4583 21.0341 0.0000 3.5801 0.0000
# 2 42.4583 130.6817 25.7198 0.0000 8.1266 0.0000
# 3 21.0341 25.7198 78.1631 0.0000 33.5352 0.0000
# 4 0.0000 0.0000 0.0000 15.1677 0.0000 14.2690
# 5 3.5801 8.1266 33.5352 0.0000 24.9298 0.0000
# 6 0.0000 0.0000 0.0000 14.2690 0.0000 49.3634
#
#
#
# Elastic Compliance Matrix: (Units=1/GPa)
#
#
# Indices 1 2 3 4 5 6 
#
# 1 0.033742 -0.009458 -0.012325 0.000000 0.014817 0.000000
# 2 -0.009458 0.010887 -0.000230 0.000000 -0.001881 0.000000
# 3 -0.012325 -0.000230 0.036406 0.000000 -0.047128 0.000000
# 4 0.000000 0.000000 0.000000 0.090554 0.000000 -0.026176
# 5 0.014817 -0.001881 -0.047128 0.000000 0.101994 0.000000
# 6 0.000000 0.000000 0.000000 -0.026176 0.000000 0.027824
#
#
# Mechanical properties :
#
#
# Convention : Reuss Voigt Hill
#
# Bulk Modulus (GPa) = 27.02078 48.32430 37.67254
# Shear Modulus (GPa) = 13.97545 29.04434 21.50989
#
# Velocity S-wave (km/s) = 2.60568 3.75637 3.23264
# Velocity P-wave (km/s) = 4.70956 6.50313 5.67761
#
# Compressibility (1/GPa) = 0.03700855
#
# Stress axis : x y z
#
# Youngs Moduli (GPa) = 29.63679 91.84870 27.46807
#
# Poissons Ratio (x) = 0.86874 0.33854
# Poissons Ratio (y) = 0.28032 0.00632
# Poissons Ratio (z) = 0.36527 0.02114
#
# Static dielectric constant tensor:
#      x y z
#    x 3.637490 0.000000 0.322220 
#    y 0.000000 3.932630 0.000000 
#    z 0.322220 0.000000 3.550600 
# 
# 
# High freq. dielectric constant tensor:
#      x y z
#    x 1.763640 0.000000 0.018000 
#    y 0.000000 1.819640 0.000000 
#    z 0.018000 0.000000 1.778570 
# 
# From -- ./inp_files/70960.got.cif
#   From: 2010.06.25/outbox.cif.g09.slc.cpg/sg15_36_cif.got.tgz:70960.got - 2010.06.28 07:06:18.
