data_PCOD8129556
_publ_section_title
;
Structure prediction by ZEFSAII (Michael W. Deem and Ramdas Pophale) SiO2 
 PCOD8129556
Probable space group: C 2/C
;
_chemical_formula_sum "Si O2"
_cell_formula_units_Z 28
_cell_length_a 9.000000
_cell_length_b 30.000000
_cell_length_c 21.000000
_cell_angle_alpha 90.000000
_cell_angle_beta 30.000000
_cell_angle_gamma 90.000000
_cell_volume 2835.000000
_symmetry_space_group_name_H-M "C 2/C"
_symmetry_group_IT_number 15
_symmetry_cell_setting 'monoclinic'
loop_
_space_group_symop_operation_xyz
x,y,z
-x,y,1/2-z
-x,-y,-z
x,-y,1/2+z
1/2+x,1/2+y,z
1/2-x,1/2+y,1/2-z
1/2-x,1/2-y,-z
1/2+x,1/2-y,1/2+z
loop_
_atom_site_type_symbol
_atom_site_label
_atom_site_fract_x
_atom_site_fract_y
_atom_site_fract_z
Si Si1 0.298307 0.710625 0.265493
Si Si2 0.739788 0.950231 0.518849
Si Si3 0.601942 0.142852 0.011416
Si Si4 0.279361 0.007053 0.275100
Si Si5 0.637412 0.300231 0.267064
Si Si6 0.765776 0.335900 0.508673
Si Si7 0.669064 0.406507 0.882170
O O1 0.500000 0.723628 0.250000
O O2 0.114586 0.754678 0.315522
O O3 0.511331 0.698254 0.126812
O O4 0.070783 0.670874 0.369510
O O5 0.608941 0.908982 0.527545
O O6 0.478526 0.986499 0.635805
O O7 0.877560 0.929594 0.532051
O O8 0.001042 0.972554 0.378010
O O9 0.421311 0.143226 0.012722
O O10 0.935722 0.162500 0.877688
O O11 0.500000 0.992603 0.250000
O O12 0.138852 0.055474 0.340022
O O13 0.500000 0.289705 0.250000
O O14 0.983060 0.314696 0.130639
O O15 0.597051 0.372108 0.528431
O O16 0.000000 0.384694 0.750000
#
# Coordination Sequence:
#
# PCOD8129556 Si02
#       7
#     8   8   8   8   8   8   8
#     4  10  20  36  57  80 110 149 188 228 270 320
#     4  10  20  35  58  82 107 144 185 227 274 327
#     4  10  22  38  56  82 116 148 180 225 280 330
#     4   9  18  34  54  81 110 139 178 230 278 317
#     4  10  22  37  55  81 115 150 182 226 278 323
#     4  10  21  38  57  82 116 148 181 227 277 323
#     4   9  18  34  57  84 108 144 187 225 271 326
#
# _framework density 9.8765429999999999
#
# number of rings (size 3 to 8) (size 9 to 14) (size 15 to 20)
#    0.000    2.571    0.000    4.286    0.000    5.143 
#    0.000    0.714    0.000    5.143    0.000    0.000 
#    0.000    0.000    0.000    0.000    0.000    0.000 
#
# Total GULP energy -347008.761621 kJ/mol
# GULP energy per Si atom -12393.170058 kJ/mol
# Density = 0.985406 g / cm^3
# Si number density = 9.876543 Si / 1000 Ang^3
#
#
#
# Elastic Constant Matrix: (Units=GPa)
#
#
# Indices 1 2 3 4 5 6 
#
# 1 38.2612 37.2161 26.8263 0.0005 -4.7153 -0.0004
# 2 37.2161 100.3626 57.7581 -0.0003 -11.0889 -0.0001
# 3 26.8263 57.7581 164.1559 0.0091 -7.5942 0.0037
# 4 0.0005 -0.0003 0.0091 44.6440 -0.0027 -7.0226
# 5 -4.7153 -11.0889 -7.5942 -0.0027 26.9680 -0.0006
# 6 -0.0004 -0.0001 0.0037 -7.0226 -0.0006 31.4953
#
#
#
# Elastic Compliance Matrix: (Units=1/GPa)
#
#
# Indices 1 2 3 4 5 6 
#
# 1 0.041279 -0.014232 -0.001697 0.000000 0.000888 0.000001
# 2 -0.014232 0.017830 -0.003773 0.000001 0.003781 0.000001
# 3 -0.001697 -0.003773 0.007712 -0.000002 0.000323 -0.000001
# 4 0.000000 0.000001 -0.000002 0.023214 0.000002 0.005176
# 5 0.000888 0.003781 0.000323 0.000002 0.038882 0.000001
# 6 0.000001 0.000001 -0.000001 0.005176 0.000001 0.032905
#
#
# Mechanical properties :
#
#
# Convention : Reuss Voigt Hill
#
# Bulk Modulus (GPa) = 36.47440 60.70896 48.59168
# Shear Modulus (GPa) = 23.76829 32.68672 28.22750
#
# Velocity S-wave (km/s) = 3.47258 4.07229 3.78434
# Velocity P-wave (km/s) = 5.88079 7.27407 6.61422
#
# Compressibility (1/GPa) = 0.02741649
#
# Stress axis : x y z
#
# Youngs Moduli (GPa) = 24.22549 56.08410 129.67523
#
# Poissons Ratio (x) = 0.79819 0.22008
# Poissons Ratio (y) = 0.34478 0.48925
# Poissons Ratio (z) = 0.04112 0.21160
#
# Static dielectric constant tensor:
#      x y z
#    x 3.327630 0.000000 -0.016200 
#    y 0.000000 3.498990 0.000000 
#    z -0.016200 0.000000 4.126530 
# 
# 
# High freq. dielectric constant tensor:
#      x y z
#    x 1.747740 0.000000 -0.002680 
#    y 0.000000 1.766710 0.000000 
#    z -0.002680 0.000000 1.802690 
# 
# From -- ./inp_files/234926.got.cif
#   From: 2010.06.25/outbox.ucp.g09.slc.cvg/sg15_118_cif.got.tgz:234926.got - 2010.06.28 14:40:10.
