data_PCOD8129352
_publ_section_title
;
Structure prediction by ZEFSAII (Michael W. Deem and Ramdas Pophale) SiO2 
 PCOD8129352
Probable space group: P 21/C
;
_chemical_formula_sum "Si O2"
_cell_formula_units_Z 24
_cell_length_a 12.412592
_cell_length_b 18.481704
_cell_length_c 14.281093
_cell_angle_alpha 90.000000
_cell_angle_beta 160.127218
_cell_angle_gamma 90.000000
_cell_volume 1113.676493
_symmetry_space_group_name_H-M "P 21/C"
_symmetry_group_IT_number 14
_symmetry_cell_setting 'monoclinic'
loop_
_space_group_symop_operation_xyz
x,y,z
-x,1/2+y,1/2-z
-x,-y,-z
x,1/2-y,1/2+z
loop_
_atom_site_type_symbol
_atom_site_label
_atom_site_fract_x
_atom_site_fract_y
_atom_site_fract_z
Si Si1 0.179144 0.346385 0.383931
Si Si2 0.927760 0.793462 0.592923
Si Si3 0.091637 0.121135 0.128682
Si Si4 0.340641 0.221032 0.826878
Si Si5 0.529171 0.421614 0.822217
Si Si6 0.629803 0.581128 0.959161
O O1 0.243286 0.272753 0.494221
O O2 0.266647 0.337194 0.346831
O O3 0.420125 0.404270 0.627021
O O4 0.817013 0.372450 0.093725
O O5 0.795338 0.807168 0.381643
O O6 0.876622 0.867145 0.607788
O O7 0.288567 0.770362 0.881380
O O8 0.183699 0.203226 0.227745
O O9 0.225195 0.094490 0.138818
O O10 0.237032 0.069163 0.327302
O O11 0.714136 0.117329 0.818050
O O12 0.625302 0.505123 0.902596
#
# Coordination Sequence:
#
# PCOD8129352 Si02
#       6
#     4   4   4   4   4   4
#     4  12  24  43  68  95 133 177 220 271 326 398
#     4  12  24  44  66  97 132 173 220 275 323 394
#     4  12  22  41  70 100 134 167 218 285 331 390
#     4  12  25  42  70 101 128 169 233 270 321 389
#     4  12  25  44  65 102 137 176 215 274 339 392
#     4  12  26  42  68 100 139 173 218 272 340 392
#
# _framework density 21.550242999999998
#
# number of rings (size 3 to 8) (size 9 to 14) (size 15 to 20)
#    0.000    0.000    5.000    6.000    2.333    0.000 
#    0.000    5.000    0.000    0.000    0.000    0.000 
#    0.000    0.000    0.000    0.000    0.000    0.000 
#
# Total GULP energy -297805.810982 kJ/mol
# GULP energy per Si atom -12408.575458 kJ/mol
# Density = 2.150119 g / cm^3
# Si number density = 21.550243 Si / 1000 Ang^3
#
#
#
# Elastic Constant Matrix: (Units=GPa)
#
#
# Indices 1 2 3 4 5 6 
#
# 1 84.4848 27.9524 21.5353 0.0000 -16.5320 0.0000
# 2 27.9524 89.3962 9.6405 0.0000 8.3986 0.0000
# 3 21.5353 9.6405 90.4065 0.0000 -15.0252 0.0000
# 4 0.0000 0.0000 0.0000 27.9227 0.0000 -4.3597
# 5 -16.5320 8.3986 -15.0252 0.0000 35.3516 0.0000
# 6 0.0000 0.0000 0.0000 -4.3597 0.0000 30.0988
#
#
#
# Elastic Compliance Matrix: (Units=1/GPa)
#
#
# Indices 1 2 3 4 5 6 
#
# 1 0.015630 -0.005422 -0.001847 0.000000 0.007813 0.000000
# 2 -0.005422 0.013601 -0.001202 0.000000 -0.006278 0.000000
# 3 -0.001847 -0.001202 0.012410 0.000000 0.004696 0.000000
# 4 0.000000 0.000000 0.000000 0.036642 0.000000 0.005307
# 5 0.007813 -0.006278 0.004696 0.000000 0.035428 0.000000
# 6 0.000000 0.000000 0.000000 0.005307 0.000000 0.033993
#
#
# Mechanical properties :
#
#
# Convention : Reuss Voigt Hill
#
# Bulk Modulus (GPa) = 40.48710 42.50487 41.49599
# Shear Modulus (GPa) = 28.92220 32.35190 30.63705
#
# Velocity S-wave (km/s) = 3.66742 3.87878 3.77458
# Velocity P-wave (km/s) = 6.06312 6.31081 6.18820
#
# Compressibility (1/GPa) = 0.02469922
#
# Stress axis : x y z
#
# Youngs Moduli (GPa) = 63.98046 73.52451 80.58191
#
# Poissons Ratio (x) = 0.39865 0.14880
# Poissons Ratio (y) = 0.34690 0.09687
# Poissons Ratio (z) = 0.11814 0.08839
#
# Static dielectric constant tensor:
#      x y z
#    x 3.940190 0.000000 -0.119710 
#    y 0.000000 3.839620 0.000000 
#    z -0.119710 0.000000 3.892930 
# 
# 
# High freq. dielectric constant tensor:
#      x y z
#    x 1.849120 0.000000 -0.013230 
#    y 0.000000 1.838160 0.000000 
#    z -0.013230 0.000000 1.861500 
# 
# From -- ./inp_files/45549.got.cif
#   From: 2010.03.12/outbox.cif.g09.slc.cpg/sg14_23_cif.got.tgz:45549.got - 2010.03.31 13:35:05.
