data_PCOD8129277
_publ_section_title
;
Structure prediction by ZEFSAII (Michael W. Deem and Ramdas Pophale) SiO2 
 PCOD8129277
Probable space group: P 21/C
;
_chemical_formula_sum "Si O2"
_cell_formula_units_Z 20
_cell_length_a 23.335921
_cell_length_b 9.136284
_cell_length_c 8.564233
_cell_angle_alpha 90.000000
_cell_angle_beta 150.729657
_cell_angle_gamma 90.000000
_cell_volume 892.751479
_symmetry_space_group_name_H-M "P 21/C"
_symmetry_group_IT_number 14
_symmetry_cell_setting 'monoclinic'
loop_
_space_group_symop_operation_xyz
x,y,z
-x,1/2+y,1/2-z
-x,-y,-z
x,1/2-y,1/2+z
loop_
_atom_site_type_symbol
_atom_site_label
_atom_site_fract_x
_atom_site_fract_y
_atom_site_fract_z
Si Si1 0.630826 0.442868 0.812046
Si Si2 0.196345 0.310882 0.671422
Si Si3 0.732255 0.267414 0.321988
Si Si4 0.965410 0.105360 0.775902
Si Si5 0.186180 0.453986 0.317325
O O1 0.500000 0.500000 0.500000
O O2 0.663718 0.371868 0.725342
O O3 0.716125 0.576096 0.044613
O O4 0.651140 0.317541 0.987524
O O5 0.168863 0.349721 0.427489
O O6 0.248587 0.146907 0.829601
O O7 0.076842 0.302130 0.487514
O O8 0.862343 0.218803 0.577546
O O9 0.739057 0.402308 0.460991
O O10 0.933620 0.009412 0.547366
O O11 0.000000 0.000000 0.000000
#
# Coordination Sequence:
#
# PCOD8129277 Si02
#       5
#     4   4   4   4   4
#     4  11  26  49  72 101 143 188 247 287 354 428
#     4  11  26  41  68 107 141 190 234 292 358 424
#     4  11  25  48  72 104 140 191 236 301 360 416
#     4  12  24  41  72 105 149 183 234 297 361 435
#     4  11  26  43  67 104 148 183 236 290 365 430
#
# _framework density 22.402650999999999
#
# number of rings (size 3 to 8) (size 9 to 14) (size 15 to 20)
#    0.000    0.800    4.000    1.800   11.200    3.200 
#    0.000    2.000    0.000    0.000    0.000    0.000 
#    0.000    0.000    0.000    0.000    0.000    0.000 
#
# Total GULP energy -247862.550290 kJ/mol
# GULP energy per Si atom -12393.127514 kJ/mol
# Density = 2.235166 g / cm^3
# Si number density = 22.402651 Si / 1000 Ang^3
#
#
#
# Elastic Constant Matrix: (Units=GPa)
#
#
# Indices 1 2 3 4 5 6 
#
# 1 79.6611 55.8140 63.9037 0.0000 5.8415 0.0000
# 2 55.8140 118.0022 61.0028 0.0000 -6.5775 0.0000
# 3 63.9037 61.0028 132.6717 0.0000 0.3023 0.0000
# 4 0.0000 0.0000 0.0000 47.2517 0.0000 -15.1398
# 5 5.8415 -6.5775 0.3023 0.0000 32.0147 0.0000
# 6 0.0000 0.0000 0.0000 -15.1398 0.0000 47.4746
#
#
#
# Elastic Compliance Matrix: (Units=1/GPa)
#
#
# Indices 1 2 3 4 5 6 
#
# 1 0.025479 -0.007949 -0.008603 0.000000 -0.006201 0.000000
# 2 -0.007949 0.013774 -0.002514 0.000000 0.004304 0.000000
# 3 -0.008603 -0.002514 0.012835 0.000000 0.000932 0.000000
# 4 0.000000 0.000000 0.000000 0.023572 0.000000 0.007517
# 5 -0.006201 0.004304 0.000932 0.000000 0.033243 0.000000
# 6 0.000000 0.000000 0.000000 0.007517 0.000000 0.023461
#
#
# Mechanical properties :
#
#
# Convention : Reuss Voigt Hill
#
# Bulk Modulus (GPa) = 71.66023 76.86399 74.26211
# Shear Modulus (GPa) = 28.54715 35.32250 31.93483
#
# Velocity S-wave (km/s) = 3.57357 3.97509 3.77967
# Velocity P-wave (km/s) = 7.00600 7.44669 7.22970
#
# Compressibility (1/GPa) = 0.01395474
#
# Stress axis : x y z
#
# Youngs Moduli (GPa) = 39.24802 72.59996 77.91116
#
# Poissons Ratio (x) = 0.57713 0.67028
# Poissons Ratio (y) = 0.31200 0.19588
# Poissons Ratio (z) = 0.33765 0.18253
#
# Static dielectric constant tensor:
#      x y z
#    x 4.054440 0.000000 -0.393650 
#    y 0.000000 4.291430 0.000000 
#    z -0.393650 0.000000 3.363990 
# 
# 
# High freq. dielectric constant tensor:
#      x y z
#    x 1.868840 0.000000 -0.038520 
#    y 0.000000 1.913010 0.000000 
#    z -0.038520 0.000000 1.873090 
# 
# From -- ./inp_files/11795.got.cif
#   From: 2010.03.12/outbox.cif.g09.slc.cpg/sg14_6_cif.got.tgz:11795.got - 2010.03.31 13:35:05.
