data_PCOD8129279
_publ_section_title
;
Structure prediction by ZEFSAII (Michael W. Deem and Ramdas Pophale) SiO2 
 PCOD8129279
Probable space group: P 21/C
;
_chemical_formula_sum "Si O2"
_cell_formula_units_Z 12
_cell_length_a 11.761529
_cell_length_b 6.951977
_cell_length_c 7.720040
_cell_angle_alpha 90.000000
_cell_angle_beta 35.055291
_cell_angle_gamma 90.000000
_cell_volume 362.560830
_symmetry_space_group_name_H-M "P 21/C"
_symmetry_group_IT_number 14
_symmetry_cell_setting 'monoclinic'
loop_
_space_group_symop_operation_xyz
x,y,z
-x,1/2+y,1/2-z
-x,-y,-z
x,1/2-y,1/2+z
loop_
_atom_site_type_symbol
_atom_site_label
_atom_site_fract_x
_atom_site_fract_y
_atom_site_fract_z
Si Si1 0.757518 0.452669 0.286239
Si Si2 0.591096 0.700638 0.836078
Si Si3 0.985654 0.357394 0.679769
O O1 0.568260 0.320520 0.577073
O O2 0.673619 0.673482 0.398088
O O3 0.948401 0.368209 0.159501
O O4 0.799487 0.407674 0.030744
O O5 0.803489 0.641984 0.477035
O O6 0.500000 0.500000 0.000000
O O7 0.000000 0.500000 0.500000
#
# Coordination Sequence:
#
# PCOD8129279 Si02
#       3
#     4   4   4
#     4  11  27  49  77 113 154 206 257 328 392 468
#     4  11  25  48  75 114 152 202 264 320 388 471
#     4  12  25  49  79 111 156 204 259 322 395 467
#
# _framework density 33.097897000000003
#
# number of rings (size 3 to 8) (size 9 to 14) (size 15 to 20)
#    0.000    0.667    3.333    3.000    0.000    8.000 
#    6.000    0.000    0.000    0.000    0.000    0.000 
#    0.000    0.000    0.000    0.000    0.000    0.000 
#
# Total GULP energy -148722.469373 kJ/mol
# GULP energy per Si atom -12393.539114 kJ/mol
# Density = 3.302256 g / cm^3
# Si number density = 33.097897 Si / 1000 Ang^3
#
#
#
# Elastic Constant Matrix: (Units=GPa)
#
#
# Indices 1 2 3 4 5 6 
#
# 1 140.5748 28.2879 47.1487 0.0000 -38.2658 0.0000
# 2 28.2879 271.7206 78.0951 0.0000 -18.3915 0.0000
# 3 47.1487 78.0951 197.1243 0.0000 -24.1613 0.0000
# 4 0.0000 0.0000 0.0000 73.7589 0.0000 -12.7735
# 5 -38.2658 -18.3915 -24.1613 0.0000 70.2309 0.0000
# 6 0.0000 0.0000 0.0000 -12.7735 0.0000 54.1811
#
#
#
# Elastic Compliance Matrix: (Units=1/GPa)
#
#
# Indices 1 2 3 4 5 6 
#
# 1 0.008811 -0.000197 -0.001511 0.000000 0.004230 0.000000
# 2 -0.000197 0.004178 -0.001552 0.000000 0.000453 0.000000
# 3 -0.001511 -0.001552 0.006158 0.000000 0.000889 0.000000
# 4 0.000000 0.000000 0.000000 0.014135 0.000000 0.003332
# 5 0.004230 0.000453 0.000889 0.000000 0.016968 0.000000
# 6 0.000000 0.000000 0.000000 0.003332 0.000000 0.019242
#
#
# Mechanical properties :
#
#
# Convention : Reuss Voigt Hill
#
# Bulk Modulus (GPa) = 79.19821 101.83149 90.51485
# Shear Modulus (GPa) = 62.32734 70.02670 66.17702
#
# Velocity S-wave (km/s) = 4.34420 4.60471 4.47635
# Velocity P-wave (km/s) = 7.01022 7.68796 7.35690
#
# Compressibility (1/GPa) = 0.01262655
#
# Stress axis : x y z
#
# Youngs Moduli (GPa) = 113.48916 239.37332 162.38048
#
# Poissons Ratio (x) = 0.04709 0.24539
# Poissons Ratio (y) = 0.02233 0.25210
# Poissons Ratio (z) = 0.17150 0.37163
#
# Static dielectric constant tensor:
#      x y z
#    x 6.110080 0.000000 -0.519590 
#    y 0.000000 6.878350 0.000000 
#    z -0.519590 0.000000 7.420090 
# 
# 
# High freq. dielectric constant tensor:
#      x y z
#    x 2.398650 0.000000 -0.020360 
#    y 0.000000 2.420540 0.000000 
#    z -0.020360 0.000000 2.411880 
# 
# From -- ./inp_files/11684.got.cif
#   From: 2010.03.12/outbox.cif.g09.slc.cpg/sg14_6_cif.got.tgz:11684.got - 2010.03.31 13:35:05.
