data_PCOD8129164
_publ_section_title
;
Structure prediction by ZEFSAII (Michael W. Deem and Ramdas Pophale) SiO2 
 PCOD8129164
Probable space group: P 21/C
;
_chemical_formula_sum "Si O2"
_cell_formula_units_Z 32
_cell_length_a 9.530357
_cell_length_b 11.284180
_cell_length_c 14.962130
_cell_angle_alpha 90.000000
_cell_angle_beta 72.767468
_cell_angle_gamma 90.000000
_cell_volume 1536.831065
_symmetry_space_group_name_H-M "P 21/C"
_symmetry_group_IT_number 14
_symmetry_cell_setting 'monoclinic'
loop_
_space_group_symop_operation_xyz
x,y,z
-x,1/2+y,1/2-z
-x,-y,-z
x,1/2-y,1/2+z
loop_
_atom_site_type_symbol
_atom_site_label
_atom_site_fract_x
_atom_site_fract_y
_atom_site_fract_z
Si Si1 0.363723 0.345162 0.734713
Si Si2 0.834498 0.492119 0.559260
Si Si3 0.828195 0.229409 0.834775
Si Si4 0.699974 0.267293 0.667634
Si Si5 0.214084 0.506686 0.893373
Si Si6 0.891064 0.021860 0.394319
Si Si7 0.342861 0.989590 0.071061
Si Si8 0.849960 0.870854 0.234880
O O1 0.528393 0.297644 0.707064
O O2 0.327769 0.408591 0.835535
O O3 0.335783 0.442053 0.664588
O O4 0.248578 0.243567 0.734108
O O5 0.781703 0.357127 0.584950
O O6 0.757143 0.547732 0.486937
O O7 0.797440 0.567213 0.653827
O O8 0.000000 0.500000 0.500000
O O9 0.777824 0.277903 0.748546
O O10 0.857404 0.338945 0.894794
O O11 0.977951 0.155919 0.799261
O O12 0.703020 0.146218 0.900877
O O13 0.714088 0.135911 0.626032
O O14 0.065576 0.501399 0.862762
O O15 0.181615 0.471923 0.001676
O O16 0.817961 0.956029 0.324446
O O17 0.500000 0.000000 0.000000
#
# Coordination Sequence:
#
# PCOD8129164 Si02
#       8
#     4   4   4   4   4   4   4   4
#     4  12  28  46  69 106 146 188 233 289 364 430
#     4  12  27  45  74 106 139 188 251 295 354 435
#     4  12  24  47  75 102 142 188 237 296 357 423
#     4  12  26  45  74 102 148 188 232 294 368 428
#     4  11  25  46  72 102 144 185 232 292 363 418
#     4  11  24  46  73 104 136 182 240 297 351 418
#     4  12  26  48  71 103 145 190 234 295 365 427
#     4  12  26  45  70 106 139 183 242 295 348 427
#
# _framework density 20.822067000000001
#
# number of rings (size 3 to 8) (size 9 to 14) (size 15 to 20)
#    0.000    0.250    7.500    0.750    5.250    1.000 
#    0.000    1.250    0.000    0.000    0.000    0.000 
#    0.000    0.000    0.000    0.000    0.000    0.000 
#
# Total GULP energy -396927.083105 kJ/mol
# GULP energy per Si atom -12403.971347 kJ/mol
# Density = 2.077468 g / cm^3
# Si number density = 20.822067 Si / 1000 Ang^3
#
#
#
# Elastic Constant Matrix: (Units=GPa)
#
#
# Indices 1 2 3 4 5 6 
#
# 1 90.9862 27.8832 19.4551 0.0000 -16.0656 0.0000
# 2 27.8832 113.7940 29.2110 0.0000 -20.1935 0.0000
# 3 19.4551 29.2110 86.8250 0.0000 -5.7531 0.0000
# 4 0.0000 0.0000 0.0000 25.8721 0.0000 -4.0039
# 5 -16.0656 -20.1935 -5.7531 0.0000 47.8116 0.0000
# 6 0.0000 0.0000 0.0000 -4.0039 0.0000 36.8241
#
#
#
# Elastic Compliance Matrix: (Units=1/GPa)
#
#
# Indices 1 2 3 4 5 6 
#
# 1 0.012579 -0.002031 -0.001928 0.000000 0.003137 0.000000
# 2 -0.002031 0.010644 -0.002896 0.000000 0.003465 0.000000
# 3 -0.001928 -0.002896 0.012903 0.000000 -0.000318 0.000000
# 4 0.000000 0.000000 0.000000 0.039313 0.000000 0.004275
# 5 0.003137 0.003465 -0.000318 0.000000 0.023395 0.000000
# 6 0.000000 0.000000 0.000000 0.004275 0.000000 0.027621
#
#
# Mechanical properties :
#
#
# Convention : Reuss Voigt Hill
#
# Bulk Modulus (GPa) = 44.61057 49.41152 47.01105
# Shear Modulus (GPa) = 33.86723 36.43864 35.15294
#
# Velocity S-wave (km/s) = 4.03737 4.18784 4.11329
# Velocity P-wave (km/s) = 6.57305 6.86774 6.72201
#
# Compressibility (1/GPa) = 0.02241621
#
# Stress axis : x y z
#
# Youngs Moduli (GPa) = 79.49693 93.95226 77.50341
#
# Poissons Ratio (x) = 0.19080 0.14939
# Poissons Ratio (y) = 0.16144 0.22447
# Poissons Ratio (z) = 0.15323 0.27212
#
# Static dielectric constant tensor:
#      x y z
#    x 3.823090 0.000000 0.065940 
#    y 0.000000 3.563520 0.000000 
#    z 0.065940 0.000000 3.897920 
# 
# 
# High freq. dielectric constant tensor:
#      x y z
#    x 1.818290 0.000000 0.003940 
#    y 0.000000 1.818880 0.000000 
#    z 0.003940 0.000000 1.834640 
# 
# From -- ./inp_files/40299.got.cif
#   From: 2010.03.12/outbox.cif.g09.slc.cpg/sg14_21_cif.got.tgz:40299.got - 2010.03.31 13:35:05.
