data_PCOD8129938
_publ_section_title
;
Structure prediction by ZEFSAII (Michael W. Deem and Ramdas Pophale) SiO2 
 PCOD8129938
Probable space group: C 2/C
;
_chemical_formula_sum "Si O2"
_cell_formula_units_Z 48
_cell_length_a 16.540081
_cell_length_b 15.862178
_cell_length_c 8.907546
_cell_angle_alpha 90.000000
_cell_angle_beta 62.066099
_cell_angle_gamma 90.000000
_cell_volume 2064.711987
_symmetry_space_group_name_H-M "C 2/C"
_symmetry_group_IT_number 15
_symmetry_cell_setting 'monoclinic'
loop_
_space_group_symop_operation_xyz
x,y,z
-x,y,1/2-z
-x,-y,-z
x,-y,1/2+z
1/2+x,1/2+y,z
1/2-x,1/2+y,1/2-z
1/2-x,1/2-y,-z
1/2+x,1/2-y,1/2+z
loop_
_atom_site_type_symbol
_atom_site_label
_atom_site_fract_x
_atom_site_fract_y
_atom_site_fract_z
Si Si1 0.500000 0.666571 0.750000
Si Si2 0.061552 0.549096 0.329051
Si Si3 0.122991 0.877441 0.396902
Si Si4 0.183788 0.397027 0.190792
Si Si5 0.500000 0.354205 0.750000
Si Si6 0.813915 0.311724 0.627830
Si Si7 0.381502 0.261312 0.611127
O O1 0.434005 0.607288 0.706298
O O2 0.567170 0.723931 0.590584
O O3 0.130359 0.481025 0.194751
O O4 0.118214 0.623451 0.353192
O O5 0.000000 0.587268 0.250000
O O6 0.000000 0.500000 0.500000
O O7 0.220637 0.923920 0.311469
O O8 0.063619 0.912841 0.589055
O O9 0.134846 0.777268 0.414125
O O10 0.127919 0.339593 0.358185
O O11 0.206110 0.340556 0.025240
O O12 0.439719 0.295027 0.697687
O O13 0.718574 0.305549 0.801861
#
# Coordination Sequence:
#
# PCOD8129938 Si02
#       7
#     4   8   8   8   4   8   8
#     4  10  24  34  58 108 126 148 202 278 336 358
#     4  12  28  40  63  97 137 172 203 254 328 391
#     4  10  21  37  67  93 126 165 212 274 306 371
#     4  11  22  43  63  92 123 176 221 254 314 378
#     4  10  16  32  66  96 108 152 212 272 302 350
#     4  11  22  42  63  93 125 175 221 252 319 371
#     4  10  21  38  67  93 126 165 211 275 304 371
#
# _framework density 23.247795
#
# number of rings (size 3 to 8) (size 9 to 14) (size 15 to 20)
#    0.000    1.333    5.000    1.000    7.000    4.000 
#    0.000    0.000    0.000    6.000    0.000    0.000 
#    0.000    0.000    0.000    0.000    0.000    0.000 
#
# Total GULP energy -297596.929117 kJ/mol
# GULP energy per Si atom -12399.872047 kJ/mol
# Density = 2.319488 g / cm^3
# Si number density = 23.247795 Si / 1000 Ang^3
#
#
#
# Elastic Constant Matrix: (Units=GPa)
#
#
# Indices 1 2 3 4 5 6 
#
# 1 142.8663 14.4213 39.4909 0.0000 5.1890 0.0000
# 2 14.4213 45.2261 1.3146 0.0000 -4.9008 0.0000
# 3 39.4909 1.3146 127.4448 0.0000 2.5572 0.0000
# 4 0.0000 0.0000 0.0000 8.9776 0.0000 6.4719
# 5 5.1890 -4.9008 2.5572 0.0000 35.1535 0.0000
# 6 0.0000 0.0000 0.0000 6.4719 0.0000 17.9544
#
#
#
# Elastic Compliance Matrix: (Units=1/GPa)
#
#
# Indices 1 2 3 4 5 6 
#
# 1 0.007983 -0.002623 -0.002419 0.000000 -0.001368 0.000000
# 2 -0.002623 0.023323 0.000500 0.000000 0.003602 0.000000
# 3 -0.002419 0.000500 0.008595 0.000000 -0.000198 0.000000
# 4 0.000000 0.000000 0.000000 0.150496 0.000000 -0.054248
# 5 -0.001368 0.003602 -0.000198 0.000000 0.029165 0.000000
# 6 0.000000 0.000000 0.000000 -0.054248 0.000000 0.075251
#
#
# Mechanical properties :
#
#
# Convention : Reuss Voigt Hill
#
# Bulk Modulus (GPa) = 32.45038 47.33232 39.89135
# Shear Modulus (GPa) = 15.91491 29.77111 22.84301
#
# Velocity S-wave (km/s) = 2.61928 3.58243 3.13803
# Velocity P-wave (km/s) = 4.81002 6.12502 5.50691
#
# Compressibility (1/GPa) = 0.03081628
#
# Stress axis : x y z
#
# Youngs Moduli (GPa) = 125.27034 42.87529 116.34739
#
# Poissons Ratio (x) = 0.11248 0.28145
# Poissons Ratio (y) = 0.32863 -0.05818
# Poissons Ratio (z) = 0.30304 -0.02144
#
# Static dielectric constant tensor:
#      x y z
#    x 4.783530 0.000000 -0.236830 
#    y 0.000000 3.699890 0.000000 
#    z -0.236830 0.000000 4.501740 
# 
# 
# High freq. dielectric constant tensor:
#      x y z
#    x 1.947390 0.000000 -0.008900 
#    y 0.000000 1.876040 0.000000 
#    z -0.008900 0.000000 1.927010 
# 
# From -- ./inp_files/48410.got.cif
#   From: 2010.06.25/outbox.cif.g09.slc.cpg/sg15_25_cif.got.tgz:48410.got - 2010.06.28 07:06:18.
