data_PCOD8129508
_publ_section_title
;
Structure prediction by ZEFSAII (Michael W. Deem and Ramdas Pophale) SiO2 
 PCOD8129508
Probable space group: P 21/C
;
_chemical_formula_sum "Si O2"
_cell_formula_units_Z 32
_cell_length_a 25.788455
_cell_length_b 9.375902
_cell_length_c 14.114298
_cell_angle_alpha 90.000000
_cell_angle_beta 146.572494
_cell_angle_gamma 90.000000
_cell_volume 1879.991234
_symmetry_space_group_name_H-M "P 21/C"
_symmetry_group_IT_number 14
_symmetry_cell_setting 'monoclinic'
loop_
_space_group_symop_operation_xyz
x,y,z
-x,1/2+y,1/2-z
-x,-y,-z
x,1/2-y,1/2+z
loop_
_atom_site_type_symbol
_atom_site_label
_atom_site_fract_x
_atom_site_fract_y
_atom_site_fract_z
Si Si1 0.002620 0.677374 0.652373
Si Si2 0.359003 0.838661 0.523954
Si Si3 0.000115 0.159797 0.156817
Si Si4 0.487295 0.670270 0.585275
Si Si5 0.643889 0.827744 0.474422
Si Si6 0.146412 0.329778 0.727382
Si Si7 0.148965 0.666376 0.723207
Si Si8 0.515256 0.838755 0.913213
O O1 0.004497 0.509764 0.677533
O O2 0.909499 0.719796 0.451311
O O3 0.001906 0.766480 0.745961
O O4 0.094030 0.725908 0.731247
O O5 0.402711 0.762588 0.499080
O O6 0.255049 0.773359 0.381897
O O7 0.419943 0.805369 0.710311
O O8 0.355272 0.006342 0.497102
O O9 0.090952 0.217724 0.237486
O O10 0.906329 0.206485 0.957059
O O11 0.583466 0.701847 0.788147
O O12 0.459135 0.505127 0.549690
O O13 0.501412 0.717165 0.498535
O O14 0.748263 0.766706 0.613394
O O15 0.602490 0.744209 0.500838
O O16 0.151154 0.498345 0.736574
#
# Coordination Sequence:
#
# PCOD8129508 Si02
#       8
#     4   4   4   4   4   4   4   4
#     4   9  17  31  49  68  91 118 150 185 222 265
#     4   9  17  31  49  66  88 121 156 183 215 266
#     4   9  17  31  49  68  91 118 150 185 222 265
#     4   9  18  31  46  67  94 119 146 186 230 264
#     4   9  17  31  49  66  88 121 156 183 215 266
#     4   8  16  31  48  65  90 124 152 177 219 274
#     4   8  16  31  48  65  90 124 152 177 219 274
#     4   9  18  31  46  67  94 119 146 186 230 264
#
# _framework density 17.021356999999998
#
# number of rings (size 3 to 8) (size 9 to 14) (size 15 to 20)
#    0.000    3.250    0.000    1.500    0.000    2.500 
#    0.000    7.500    0.000    0.000    0.000    0.000 
#    0.000    0.000    0.000    0.000    0.000    0.000 
#
# Total GULP energy -396713.310941 kJ/mol
# GULP energy per Si atom -12397.290967 kJ/mol
# Density = 1.698262 g / cm^3
# Si number density = 17.021357 Si / 1000 Ang^3
#
#
#
# Elastic Constant Matrix: (Units=GPa)
#
#
# Indices 1 2 3 4 5 6 
#
# 1 66.9531 7.8410 43.5731 0.0000 10.3793 0.0000
# 2 7.8410 18.2754 10.3272 0.0000 3.3842 0.0000
# 3 43.5731 10.3272 77.6693 0.0000 20.8657 0.0000
# 4 0.0000 0.0000 0.0000 20.7322 0.0000 -4.5028
# 5 10.3793 3.3842 20.8657 0.0000 38.4926 0.0000
# 6 0.0000 0.0000 0.0000 -4.5028 0.0000 32.3065
#
#
#
# Elastic Compliance Matrix: (Units=1/GPa)
#
#
# Indices 1 2 3 4 5 6 
#
# 1 0.023696 -0.002907 -0.013179 0.000000 0.001010 0.000000
# 2 -0.002907 0.059560 -0.005960 0.000000 -0.001222 0.000000
# 3 -0.013179 -0.005960 0.023369 0.000000 -0.008590 0.000000
# 4 0.000000 0.000000 0.000000 0.049740 0.000000 0.006933
# 5 0.001010 -0.001222 -0.008590 0.000000 0.030470 0.000000
# 6 0.000000 0.000000 0.000000 0.006933 0.000000 0.031920
#
#
# Mechanical properties :
#
#
# Convention : Reuss Voigt Hill
#
# Bulk Modulus (GPa) = 15.99149 31.82005 23.90577
# Shear Modulus (GPa) = 17.62482 25.05002 21.33742
#
# Velocity S-wave (km/s) = 3.22134 3.84041 3.54442
# Velocity P-wave (km/s) = 4.82197 6.19676 5.55208
#
# Compressibility (1/GPa) = 0.06253327
#
# Stress axis : x y z
#
# Youngs Moduli (GPa) = 42.20058 16.78983 42.79248
#
# Poissons Ratio (x) = 0.04880 0.56395
# Poissons Ratio (y) = 0.12266 0.25506
# Poissons Ratio (z) = 0.55615 0.10008
#
# Static dielectric constant tensor:
#      x y z
#    x 3.438590 0.000000 0.313350 
#    y 0.000000 2.885410 0.000000 
#    z 0.313350 0.000000 3.502220 
# 
# 
# High freq. dielectric constant tensor:
#      x y z
#    x 1.662100 0.000000 0.002860 
#    y 0.000000 1.627380 0.000000 
#    z 0.002860 0.000000 1.660250 
# 
# From -- ./inp_files/35109.got.cif
#   From: 2010.03.12/outbox.cif.g09.slc.cpg/sg14_18_cif.got.tgz:35109.got - 2010.03.31 13:35:05.
