data_PCOD8129227
_publ_section_title
;
Structure prediction by ZEFSAII (Michael W. Deem and Ramdas Pophale) SiO2 
 PCOD8129227
Probable space group: P 21/C
;
_chemical_formula_sum "Si O2"
_cell_formula_units_Z 28
_cell_length_a 11.631954
_cell_length_b 5.139016
_cell_length_c 21.032233
_cell_angle_alpha 90.000000
_cell_angle_beta 116.793813
_cell_angle_gamma 90.000000
_cell_volume 1122.255387
_symmetry_space_group_name_H-M "P 21/C"
_symmetry_group_IT_number 14
_symmetry_cell_setting 'monoclinic'
loop_
_space_group_symop_operation_xyz
x,y,z
-x,1/2+y,1/2-z
-x,-y,-z
x,1/2-y,1/2+z
loop_
_atom_site_type_symbol
_atom_site_label
_atom_site_fract_x
_atom_site_fract_y
_atom_site_fract_z
Si Si1 0.351226 0.025374 0.447622
Si Si2 0.205134 0.000096 0.095769
Si Si3 0.217934 0.435714 0.786283
Si Si4 0.063357 0.495164 0.084712
Si Si5 0.784825 0.037555 0.045689
Si Si6 0.418274 0.172069 0.229177
Si Si7 0.019165 0.309058 0.325980
O O1 0.281121 0.818557 0.475652
O O2 0.500000 0.000000 0.500000
O O3 0.311239 0.952583 0.365039
O O4 0.311948 0.321660 0.450869
O O5 0.119112 0.209933 0.112901
O O6 0.353595 0.065562 0.148036
O O7 0.175734 0.712199 0.113385
O O8 0.172769 0.039442 0.014201
O O9 0.311739 0.301549 0.758466
O O10 0.108172 0.241651 0.786422
O O11 0.130581 0.657751 0.730772
O O12 0.968246 0.570160 0.119626
O O13 0.000000 0.500000 0.000000
O O14 0.914240 0.053490 0.120901
O O15 0.474349 0.456160 0.227423
#
# Coordination Sequence:
#
# PCOD8129227 Si02
#       7
#     4   4   4   4   4   4   4
#     4  11  26  46  72 103 144 195 257 304 370 443
#     4  12  26  46  74 106 150 192 257 301 385 441
#     4  11  27  47  76 111 153 201 251 314 388 451
#     4  12  25  44  75 112 151 192 241 312 382 466
#     4  11  25  44  73 107 142 196 240 310 378 442
#     4  12  30  51  76 107 150 206 263 319 378 459
#     4  11  25  47  76 115 157 199 251 319 387 472
#
# _framework density 24.949757000000002
#
# number of rings (size 3 to 8) (size 9 to 14) (size 15 to 20)
#    0.000    0.571    2.857    3.429    8.000    2.286 
#    0.000    0.000    0.000    0.000    0.000    0.000 
#    0.000    0.000    0.000    0.000    0.000    0.000 
#
# Total GULP energy -347118.091479 kJ/mol
# GULP energy per Si atom -12397.074696 kJ/mol
# Density = 2.489297 g / cm^3
# Si number density = 24.949757 Si / 1000 Ang^3
#
#
#
# Elastic Constant Matrix: (Units=GPa)
#
#
# Indices 1 2 3 4 5 6 
#
# 1 123.4291 17.3770 48.4727 0.0000 -2.8306 0.0000
# 2 17.3770 68.4640 14.2177 0.0000 10.7400 0.0000
# 3 48.4727 14.2177 127.0660 0.0000 7.3350 0.0000
# 4 0.0000 0.0000 0.0000 31.0152 0.0000 4.7925
# 5 -2.8306 10.7400 7.3350 0.0000 51.4226 0.0000
# 6 0.0000 0.0000 0.0000 4.7925 0.0000 46.2140
#
#
#
# Elastic Compliance Matrix: (Units=1/GPa)
#
#
# Indices 1 2 3 4 5 6 
#
# 1 0.009833 -0.001976 -0.003615 0.000000 0.001470 0.000000
# 2 -0.001976 0.015795 -0.000824 0.000000 -0.003290 0.000000
# 3 -0.003615 -0.000824 0.009420 0.000000 -0.001371 0.000000
# 4 0.000000 0.000000 0.000000 0.032767 0.000000 -0.003398
# 5 0.001470 -0.003290 -0.001371 0.000000 0.020410 0.000000
# 6 0.000000 0.000000 0.000000 -0.003398 0.000000 0.021991
#
#
# Mechanical properties :
#
#
# Convention : Reuss Voigt Hill
#
# Bulk Modulus (GPa) = 45.00502 53.23266 49.11884
# Shear Modulus (GPa) = 38.32828 41.65649 39.99239
#
# Velocity S-wave (km/s) = 3.92371 4.09053 4.00799
# Velocity P-wave (km/s) = 6.21328 6.61000 6.41471
#
# Compressibility (1/GPa) = 0.02221974
#
# Stress axis : x y z
#
# Youngs Moduli (GPa) = 101.69514 63.31183 106.15449
#
# Poissons Ratio (x) = 0.12508 0.38374
# Poissons Ratio (y) = 0.20091 0.08744
# Poissons Ratio (z) = 0.36762 0.05215
#
# Static dielectric constant tensor:
#      x y z
#    x 4.455680 0.000000 0.068850 
#    y 0.000000 4.464080 0.000000 
#    z 0.068850 0.000000 4.950400 
# 
# 
# High freq. dielectric constant tensor:
#      x y z
#    x 1.989670 0.000000 0.001060 
#    y 0.000000 1.991740 0.000000 
#    z 0.001060 0.000000 2.013560 
# 
# From -- ./inp_files/66562.got.cif
#   From: 2010.03.12/outbox.cif.g09.slc.cpg/sg14_34_cif.got.tgz:66562.got - 2010.03.31 13:35:05.
