data_PCOD8129364
_publ_section_title
;
Structure prediction by ZEFSAII (Michael W. Deem and Ramdas Pophale) SiO2 
 PCOD8129364
Probable space group: P 21/C
;
_chemical_formula_sum "Si O2"
_cell_formula_units_Z 24
_cell_length_a 15.125213
_cell_length_b 15.043932
_cell_length_c 10.179901
_cell_angle_alpha 90.000000
_cell_angle_beta 34.308278
_cell_angle_gamma 90.000000
_cell_volume 1305.606729
_symmetry_space_group_name_H-M "P 21/C"
_symmetry_group_IT_number 14
_symmetry_cell_setting 'monoclinic'
loop_
_space_group_symop_operation_xyz
x,y,z
-x,1/2+y,1/2-z
-x,-y,-z
x,1/2-y,1/2+z
loop_
_atom_site_type_symbol
_atom_site_label
_atom_site_fract_x
_atom_site_fract_y
_atom_site_fract_z
Si Si1 0.330799 0.102115 0.367135
Si Si2 0.669448 0.398658 0.130149
Si Si3 0.103950 0.254135 0.235096
Si Si4 0.310424 0.897924 0.089882
Si Si5 0.105034 0.758115 0.760550
Si Si6 0.310305 0.398805 0.588018
O O1 0.228882 0.165894 0.584123
O O2 0.296474 0.124474 0.257993
O O3 0.285998 0.000599 0.453354
O O4 0.512849 0.118883 0.175436
O O5 0.705142 0.375051 0.237288
O O6 0.487061 0.381975 0.321856
O O7 0.771851 0.337319 0.910312
O O8 0.190564 0.161298 0.154702
O O9 0.974721 0.275895 0.502127
O O10 0.025492 0.244867 0.190344
O O11 0.194946 0.835893 0.148988
O O12 0.261385 0.999359 0.123177
#
# Coordination Sequence:
#
# PCOD8129364 Si02
#       6
#     4   4   4   4   4   4
#     4   9  19  38  61  83 110 149 194 234 274 329
#     4   9  19  38  61  83 110 149 194 234 274 329
#     4  12  23  36  56  87 121 149 181 231 288 337
#     4   9  19  38  62  82 108 152 197 229 269 338
#     4  12  23  36  56  87 121 149 181 231 288 337
#     4   9  19  38  62  82 108 152 197 229 269 338
#
# _framework density 18.382256000000002
#
# number of rings (size 3 to 8) (size 9 to 14) (size 15 to 20)
#    0.000    2.000    3.333    3.000    0.000    2.667 
#    0.000    0.000    0.000    4.000    0.000    0.000 
#    0.000    0.000    0.000    0.000    0.000    0.000 
#
# Total GULP energy -297679.002136 kJ/mol
# GULP energy per Si atom -12403.291756 kJ/mol
# Density = 1.834042 g / cm^3
# Si number density = 18.382256 Si / 1000 Ang^3
#
#
#
# Elastic Constant Matrix: (Units=GPa)
#
#
# Indices 1 2 3 4 5 6 
#
# 1 73.8105 42.4317 8.9331 0.0000 -12.5528 0.0000
# 2 42.4317 120.0925 59.6950 0.0000 -16.4492 0.0000
# 3 8.9331 59.6950 89.0810 0.0000 -14.6702 0.0000
# 4 0.0000 0.0000 0.0000 21.2986 0.0000 2.1550
# 5 -12.5528 -16.4492 -14.6702 0.0000 16.9348 0.0000
# 6 0.0000 0.0000 0.0000 2.1550 0.0000 34.2855
#
#
#
# Elastic Compliance Matrix: (Units=1/GPa)
#
#
# Indices 1 2 3 4 5 6 
#
# 1 0.019354 -0.007883 0.005183 0.000000 0.011178 0.000000
# 2 -0.007883 0.016186 -0.009832 0.000000 0.001361 0.000000
# 3 0.005183 -0.009832 0.019076 0.000000 0.010817 0.000000
# 4 0.000000 0.000000 0.000000 0.047252 0.000000 -0.002970
# 5 0.011178 0.001361 0.010817 0.000000 0.078028 0.000000
# 6 0.000000 0.000000 0.000000 -0.002970 0.000000 0.029354
#
#
# Mechanical properties :
#
#
# Convention : Reuss Voigt Hill
#
# Bulk Modulus (GPa) = 33.83963 56.12263 44.98113
# Shear Modulus (GPa) = 20.47798 25.96539 23.22168
#
# Velocity S-wave (km/s) = 3.34130 3.76243 3.55810
# Velocity P-wave (km/s) = 5.77360 7.03361 6.43452
#
# Compressibility (1/GPa) = 0.02955115
#
# Stress axis : x y z
#
# Youngs Moduli (GPa) = 51.66893 61.78210 52.42241
#
# Poissons Ratio (x) = 0.48705 -0.27170
# Poissons Ratio (y) = 0.40733 0.51541
# Poissons Ratio (z) = -0.26780 0.60743
#
# Static dielectric constant tensor:
#      x y z
#    x 3.200960 0.000000 -0.161640 
#    y 0.000000 3.406800 0.000000 
#    z -0.161640 0.000000 3.375620 
# 
# 
# High freq. dielectric constant tensor:
#      x y z
#    x 1.702400 0.000000 -0.018420 
#    y 0.000000 1.720250 0.000000 
#    z -0.018420 0.000000 1.712350 
# 
# From -- ./inp_files/8431.got.cif
#   From: 2010.03.12/outbox.cif.g09.slc.cpg/sg14_5_cif.got.tgz:8431.got - 2010.03.31 13:35:05.
