data_PCOD8129485
_publ_section_title
;
Structure prediction by ZEFSAII (Michael W. Deem and Ramdas Pophale) SiO2 
 PCOD8129485
Probable space group: P 21/C
;
_chemical_formula_sum "Si O2"
_cell_formula_units_Z 12
_cell_length_a 7.833167
_cell_length_b 9.645197
_cell_length_c 10.381152
_cell_angle_alpha 90.000000
_cell_angle_beta 140.946550
_cell_angle_gamma 90.000000
_cell_volume 494.157824
_symmetry_space_group_name_H-M "P 21/C"
_symmetry_group_IT_number 14
_symmetry_cell_setting 'monoclinic'
loop_
_space_group_symop_operation_xyz
x,y,z
-x,1/2+y,1/2-z
-x,-y,-z
x,1/2-y,1/2+z
loop_
_atom_site_type_symbol
_atom_site_label
_atom_site_fract_x
_atom_site_fract_y
_atom_site_fract_z
Si Si1 0.958245 0.247287 0.293324
Si Si2 0.284710 0.986340 0.984645
Si Si3 0.504590 0.907363 0.373431
O O1 0.696964 0.273798 0.232028
O O2 0.060034 0.399998 0.318940
O O3 0.202259 0.154529 0.495339
O O4 0.855492 0.165454 0.106285
O O5 0.500000 0.000000 0.000000
O O6 0.405909 0.004778 0.198337
O O7 0.500000 0.000000 0.500000
#
# Coordination Sequence:
#
# PCOD8129485 Si02
#       3
#     4   4   4
#     4  12  27  48  79 111 154 195 255 311 380 445
#     4  12  29  49  80 114 152 200 255 315 381 450
#     4  12  29  49  78 114 157 198 254 313 382 451
#
# _framework density 24.283742
#
# number of rings (size 3 to 8) (size 9 to 14) (size 15 to 20)
#    0.000    0.000    6.667    1.000    9.333    1.333 
#    0.000    0.000    0.000    0.000    0.000    0.000 
#    0.000    0.000    0.000    0.000    0.000    0.000 
#
# Total GULP energy -148706.211585 kJ/mol
# GULP energy per Si atom -12392.184299 kJ/mol
# Density = 2.422847 g / cm^3
# Si number density = 24.283742 Si / 1000 Ang^3
#
#
#
# Elastic Constant Matrix: (Units=GPa)
#
#
# Indices 1 2 3 4 5 6 
#
# 1 85.7615 35.9673 79.9369 0.0000 -12.6542 0.0000
# 2 35.9673 129.0216 68.6416 0.0000 -19.0149 0.0000
# 3 79.9369 68.6416 146.7390 0.0000 -9.2873 0.0000
# 4 0.0000 0.0000 0.0000 42.5738 0.0000 7.7096
# 5 -12.6542 -19.0149 -9.2873 0.0000 50.2734 0.0000
# 6 0.0000 0.0000 0.0000 7.7096 0.0000 41.4183
#
#
#
# Elastic Compliance Matrix: (Units=1/GPa)
#
#
# Indices 1 2 3 4 5 6 
#
# 1 0.024444 0.000968 -0.013515 0.000000 0.004023 0.000000
# 2 0.000968 0.010840 -0.005386 0.000000 0.003349 0.000000
# 3 -0.013515 -0.005386 0.016546 0.000000 -0.002382 0.000000
# 4 0.000000 0.000000 0.000000 0.024308 0.000000 -0.004525
# 5 0.004023 0.003349 -0.002382 0.000000 0.021730 0.000000
# 6 0.000000 0.000000 0.000000 -0.004525 0.000000 0.024986
#
#
# Mechanical properties :
#
#
# Convention : Reuss Voigt Hill
#
# Bulk Modulus (GPa) = 62.63675 81.17930 71.90802
# Shear Modulus (GPa) = 30.48021 38.65152 34.56587
#
# Velocity S-wave (km/s) = 3.54668 3.99389 3.77691
# Velocity P-wave (km/s) = 6.52852 7.40070 6.97825
#
# Compressibility (1/GPa) = 0.01596507
#
# Stress axis : x y z
#
# Youngs Moduli (GPa) = 40.90920 92.25293 60.43827
#
# Poissons Ratio (x) = -0.08935 0.81680
# Poissons Ratio (y) = -0.03962 0.32554
# Poissons Ratio (z) = 0.55287 0.49690
#
# Static dielectric constant tensor:
#      x y z
#    x 5.284520 0.000000 1.596020 
#    y 0.000000 6.809140 0.000000 
#    z 1.596020 0.000000 5.886460 
# 
# 
# High freq. dielectric constant tensor:
#      x y z
#    x 1.954610 0.000000 0.033850 
#    y 0.000000 1.976990 0.000000 
#    z 0.033850 0.000000 1.972410 
# 
# From -- ./inp_files/4639.got.cif
#   From: 2010.03.12/outbox.cif.g09.slc.cpg/sg14_3_cif.got.tgz:4639.got - 2010.03.31 13:35:05.
