data_PCOD8129969
_publ_section_title
;
Structure prediction by ZEFSAII (Michael W. Deem and Ramdas Pophale) SiO2 
 PCOD8129969
Probable space group: C 2/C
;
_chemical_formula_sum "Si O2"
_cell_formula_units_Z 44
_cell_length_a 8.387466
_cell_length_b 29.153081
_cell_length_c 8.744180
_cell_angle_alpha 90.000000
_cell_angle_beta 116.895705
_cell_angle_gamma 90.000000
_cell_volume 1906.852501
_symmetry_space_group_name_H-M "C 2/C"
_symmetry_group_IT_number 15
_symmetry_cell_setting 'monoclinic'
loop_
_space_group_symop_operation_xyz
x,y,z
-x,y,1/2-z
-x,-y,-z
x,-y,1/2+z
1/2+x,1/2+y,z
1/2-x,1/2+y,1/2-z
1/2-x,1/2-y,-z
1/2+x,1/2-y,1/2+z
loop_
_atom_site_type_symbol
_atom_site_label
_atom_site_fract_x
_atom_site_fract_y
_atom_site_fract_z
Si Si1 0.594407 0.304680 0.630790
Si Si2 0.628309 0.608634 0.542674
Si Si3 0.770211 0.464401 0.903521
Si Si4 0.500000 0.842958 0.250000
Si Si5 0.000000 0.505803 0.250000
Si Si6 0.500000 0.457582 0.250000
Si Si7 0.106348 0.274708 0.545024
O O1 0.500000 0.294499 0.750000
O O2 0.531305 0.354394 0.544321
O O3 0.806182 0.298135 0.764039
O O4 0.536689 0.265961 0.480391
O O5 0.659249 0.581844 0.394471
O O6 0.565321 0.572415 0.638458
O O7 0.816080 0.629035 0.680089
O O8 0.851747 0.461466 0.767219
O O9 0.656564 0.510188 0.877778
O O10 0.927581 0.469943 0.094342
O O11 0.502924 0.813742 0.406579
O O12 0.250000 0.250000 0.500000
#
# Coordination Sequence:
#
# PCOD8129969 Si02
#       7
#     8   8   8   4   4   4   8
#     4  10  18  33  60  97 125 166 211 267 316 399
#     4  12  25  39  63  96 131 170 229 267 324 393
#     4  11  24  46  66  94 128 177 216 279 332 392
#     4  12  21  36  65  96 126 166 213 282 322 393
#     4  10  23  44  70  90 123 171 220 264 342 391
#     4  12  28  44  61  90 135 179 219 280 332 380
#     4  10  16  34  59  98 130 160 210 265 336 388
#
# _framework density 23.074673000000001
#
# number of rings (size 3 to 8) (size 9 to 14) (size 15 to 20)
#    0.000    1.091    8.182    1.091    3.818    0.000 
#    0.000    0.000    0.000    4.364    0.000    1.273 
#    0.000    0.000    0.000    0.000    0.000    0.000 
#
# Total GULP energy -272584.887109 kJ/mol
# GULP energy per Si atom -12390.222141 kJ/mol
# Density = 2.302215 g / cm^3
# Si number density = 23.074673 Si / 1000 Ang^3
#
#
#
# Elastic Constant Matrix: (Units=GPa)
#
#
# Indices 1 2 3 4 5 6 
#
# 1 62.0992 49.8775 23.6568 0.0000 0.1422 0.0000
# 2 49.8775 159.8566 61.2434 0.0000 18.3961 0.0000
# 3 23.6568 61.2434 102.5517 0.0000 32.0818 0.0000
# 4 0.0000 0.0000 0.0000 38.8547 0.0000 30.6414
# 5 0.1422 18.3961 32.0818 0.0000 32.5551 0.0000
# 6 0.0000 0.0000 0.0000 30.6414 0.0000 23.3195
#
#
#
# Elastic Compliance Matrix: (Units=1/GPa)
#
#
# Indices 1 2 3 4 5 6 
#
# 1 0.022688 -0.006535 -0.003549 0.000000 0.007092 0.000000
# 2 -0.006535 0.009996 -0.003909 0.000000 -0.001768 0.000000
# 3 -0.003549 -0.003909 0.017650 0.000000 -0.015169 0.000000
# 4 0.000000 0.000000 0.000000 -0.710461 0.000000 0.933532
# 5 0.007092 -0.001768 -0.015169 0.000000 0.046633 0.000000
# 6 0.000000 0.000000 0.000000 0.933532 0.000000 -1.183762
#
#
# Mechanical properties :
#
#
# Convention : Reuss Voigt Hill
#
# Bulk Modulus (GPa) = 44.74971 66.00697 55.37834
# Shear Modulus (GPa) = -2.83797 31.59450 14.37827
#
# Velocity S-wave (km/s) = -1.11022 3.70432 2.49894
# Velocity P-wave (km/s) = 4.21807 6.85302 5.69017
#
# Compressibility (1/GPa) = 0.02234651
#
# Stress axis : x y z
#
# Youngs Moduli (GPa) = 44.07557 100.04348 56.65874
#
# Poissons Ratio (x) = 0.65382 0.20111
# Poissons Ratio (y) = 0.28805 0.22146
# Poissons Ratio (z) = 0.15644 0.39104
#
# Static dielectric constant tensor:
#      x y z
#    x 4.982240 0.000000 1.513480 
#    y 0.000000 4.379690 0.000000 
#    z 1.513480 0.000000 5.748050 
# 
# 
# High freq. dielectric constant tensor:
#      x y z
#    x 1.880720 0.000000 0.033160 
#    y 0.000000 1.914860 0.000000 
#    z 0.033160 0.000000 1.920290 
# 
# From -- ./inp_files/26031.got.cif
#   From: 2010.06.25/outbox.cif.g09.slc.cpg/sg15_14_cif.got.tgz:26031.got - 2010.06.28 07:06:18.
