data_PCOD8129378
_publ_section_title
;
Structure prediction by ZEFSAII (Michael W. Deem and Ramdas Pophale) SiO2 
 PCOD8129378
Probable space group: P 21/C
;
_chemical_formula_sum "Si O2"
_cell_formula_units_Z 28
_cell_length_a 9.140906
_cell_length_b 10.782555
_cell_length_c 27.210193
_cell_angle_alpha 90.000000
_cell_angle_beta 151.733591
_cell_angle_gamma 90.000000
_cell_volume 1270.072454
_symmetry_space_group_name_H-M "P 21/C"
_symmetry_group_IT_number 14
_symmetry_cell_setting 'monoclinic'
loop_
_space_group_symop_operation_xyz
x,y,z
-x,1/2+y,1/2-z
-x,-y,-z
x,1/2-y,1/2+z
loop_
_atom_site_type_symbol
_atom_site_label
_atom_site_fract_x
_atom_site_fract_y
_atom_site_fract_z
Si Si1 0.785005 0.578275 0.103470
Si Si2 0.270793 0.887338 0.256983
Si Si3 0.908624 0.626513 0.744035
Si Si4 0.814662 0.287905 0.851390
Si Si5 0.958789 0.856110 0.479412
Si Si6 0.383616 0.782868 0.032276
Si Si7 0.845651 0.839612 0.804925
O O1 0.652483 0.708898 0.083182
O O2 0.974890 0.505399 0.201546
O O3 0.026939 0.597944 0.130663
O O4 0.500000 0.500000 0.000000
O O5 0.124640 0.835887 0.162909
O O6 0.616270 0.835144 0.359051
O O7 0.124191 0.830458 0.262754
O O8 0.229388 0.035223 0.246858
O O9 0.557134 0.617605 0.618982
O O10 0.921271 0.729632 0.789906
O O11 0.449127 0.310468 0.748603
O O12 0.975221 0.276058 0.951977
O O13 0.197015 0.817328 0.508224
O O14 0.000000 0.000000 0.500000
O O15 0.151663 0.857724 0.928449
#
# Coordination Sequence:
#
# PCOD8129378 Si02
#       7
#     4   4   4   4   4   4   4
#     4  12  25  46  77 102 139 197 246 299 357 437
#     4  12  27  47  70 106 148 192 241 302 375 435
#     4  12  25  47  73 106 147 190 251 299 362 436
#     4  12  26  45  72 109 145 186 250 297 369 434
#     4  12  23  43  75 103 139 191 241 296 359 438
#     4  12  25  47  69 110 143 190 242 300 369 430
#     4  12  27  47  74 108 152 188 241 316 360 437
#
# _framework density 22.045985999999999
#
# number of rings (size 3 to 8) (size 9 to 14) (size 15 to 20)
#    0.000    0.000    7.143    3.429    2.000    0.571 
#    2.571    1.429    0.000    0.000    0.000    0.000 
#    0.000    0.000    0.000    0.000    0.000    0.000 
#
# Total GULP energy -347204.035436 kJ/mol
# GULP energy per Si atom -12400.144123 kJ/mol
# Density = 2.199581 g / cm^3
# Si number density = 22.045986 Si / 1000 Ang^3
#
#
#
# Elastic Constant Matrix: (Units=GPa)
#
#
# Indices 1 2 3 4 5 6 
#
# 1 128.4160 26.1807 32.4151 0.0000 10.7324 0.0000
# 2 26.1807 50.9991 35.0478 0.0000 10.9601 0.0000
# 3 32.4151 35.0478 142.9423 0.0000 -5.2687 0.0000
# 4 0.0000 0.0000 0.0000 43.9508 0.0000 -5.5947
# 5 10.7324 10.9601 -5.2687 0.0000 36.8185 0.0000
# 6 0.0000 0.0000 0.0000 -5.5947 0.0000 39.2599
#
#
#
# Elastic Compliance Matrix: (Units=1/GPa)
#
#
# Indices 1 2 3 4 5 6 
#
# 1 0.008938 -0.003323 -0.001278 0.000000 -0.001799 0.000000
# 2 -0.003323 0.027340 -0.006247 0.000000 -0.008064 0.000000
# 3 -0.001278 -0.006247 0.008947 0.000000 0.003513 0.000000
# 4 0.000000 0.000000 0.000000 0.023173 0.000000 0.003302
# 5 -0.001799 -0.008064 0.003513 0.000000 0.030588 0.000000
# 6 0.000000 0.000000 0.000000 0.003302 0.000000 0.025942
#
#
# Mechanical properties :
#
#
# Convention : Reuss Voigt Hill
#
# Bulk Modulus (GPa) = 42.50301 56.62718 49.56509
# Shear Modulus (GPa) = 32.36926 39.25343 35.81135
#
# Velocity S-wave (km/s) = 3.83595 4.22420 4.03475
# Velocity P-wave (km/s) = 6.24023 7.03801 6.65109
#
# Compressibility (1/GPa) = 0.02352775
#
# Stress axis : x y z
#
# Youngs Moduli (GPa) = 111.88531 36.57601 111.77031
#
# Poissons Ratio (x) = 0.12155 0.14288
# Poissons Ratio (y) = 0.37181 0.69825
# Poissons Ratio (z) = 0.14303 0.22850
#
# Static dielectric constant tensor:
#      x y z
#    x 4.297130 0.000000 0.084650 
#    y 0.000000 3.780270 0.000000 
#    z 0.084650 0.000000 4.552540 
# 
# 
# High freq. dielectric constant tensor:
#      x y z
#    x 1.887330 0.000000 0.001150 
#    y 0.000000 1.844270 0.000000 
#    z 0.001150 0.000000 1.884110 
# 
# From -- ./inp_files/76662.got.cif
#   From: 2010.03.12/outbox.cif.g09.slc.cpg/sg14_39_cif.got.tgz:76662.got - 2010.03.31 13:35:05.
