data_PCOD8129504
_publ_section_title
;
Structure prediction by ZEFSAII (Michael W. Deem and Ramdas Pophale) SiO2 
 PCOD8129504
Probable space group: P 21/C
;
_chemical_formula_sum "Si O2"
_cell_formula_units_Z 20
_cell_length_a 4.493573
_cell_length_b 4.465854
_cell_length_c 26.719249
_cell_angle_alpha 90.000000
_cell_angle_beta 81.417035
_cell_angle_gamma 90.000000
_cell_volume 530.187369
_symmetry_space_group_name_H-M "P 21/C"
_symmetry_group_IT_number 14
_symmetry_cell_setting 'monoclinic'
loop_
_space_group_symop_operation_xyz
x,y,z
-x,1/2+y,1/2-z
-x,-y,-z
x,1/2-y,1/2+z
loop_
_atom_site_type_symbol
_atom_site_label
_atom_site_fract_x
_atom_site_fract_y
_atom_site_fract_z
Si Si1 0.789615 0.477925 0.841163
Si Si2 0.920984 0.632668 0.942372
Si Si3 0.277380 0.289761 0.258349
Si Si4 0.596738 0.705192 0.540940
Si Si5 0.349031 0.975865 0.857368
O O1 0.974044 0.683964 0.879041
O O2 0.929551 0.526521 0.779273
O O3 0.653279 0.163082 0.860947
O O4 0.471455 0.653664 0.836966
O O5 0.729102 0.330432 0.937908
O O6 0.216359 0.524139 0.964489
O O7 0.699485 0.881310 0.978783
O O8 0.586011 0.475865 0.263662
O O9 0.138156 0.332980 0.320544
O O10 0.765497 0.487643 0.579314
#
# Coordination Sequence:
#
# PCOD8129504 Si02
#       5
#     4   4   4   4   4
#     4   9  17  31  53  80 111 146 186 231 280 334
#     4   9  18  34  56  82 112 147 187 231 280 334
#     4   8  14  26  48  76 106 142 182 226 276 330
#     4   9  18  34  56  82 112 147 187 231 280 334
#     4   9  17  31  53  80 111 146 186 231 280 334
#
# _framework density 37.722515999999999
#
# number of rings (size 3 to 8) (size 9 to 14) (size 15 to 20)
#    0.000    3.200    0.000    0.000    0.000    0.800 
#    0.000    8.000    0.000   52.800    0.000    0.000 
#    0.000    0.000    0.000    0.000    0.000    0.000 
#
# Total GULP energy -247779.817729 kJ/mol
# GULP energy per Si atom -12388.990886 kJ/mol
# Density = 3.763666 g / cm^3
# Si number density = 37.722516 Si / 1000 Ang^3
#
#
#
# Elastic Constant Matrix: (Units=GPa)
#
#
# Indices 1 2 3 4 5 6 
#
# 1 97.4701 10.2032 7.4003 0.0000 8.7755 0.0000
# 2 10.2032 92.5669 -0.1296 0.0000 -7.5371 0.0000
# 3 7.4003 -0.1296 216.4665 0.0000 22.6560 0.0000
# 4 0.0000 0.0000 0.0000 56.6050 0.0000 16.6324
# 5 8.7755 -7.5371 22.6560 0.0000 65.2737 0.0000
# 6 0.0000 0.0000 0.0000 16.6324 0.0000 29.3350
#
#
#
# Elastic Compliance Matrix: (Units=1/GPa)
#
#
# Indices 1 2 3 4 5 6 
#
# 1 0.010544 -0.001284 -0.000205 0.000000 -0.001495 0.000000
# 2 -0.001284 0.011065 -0.000105 0.000000 0.001487 0.000000
# 3 -0.000205 -0.000105 0.004799 0.000000 -0.001650 0.000000
# 4 0.000000 0.000000 0.000000 0.021198 0.000000 -0.012019
# 5 -0.001495 0.001487 -0.001650 0.000000 0.016266 0.000000
# 6 0.000000 0.000000 0.000000 -0.012019 0.000000 0.040903
#
#
# Mechanical properties :
#
#
# Convention : Reuss Voigt Hill
#
# Bulk Modulus (GPa) = 43.06503 49.05016 46.05759
# Shear Modulus (GPa) = 43.21364 56.17802 49.69583
#
# Velocity S-wave (km/s) = 3.38829 3.86326 3.63355
# Velocity P-wave (km/s) = 5.17189 5.73854 5.46256
#
# Compressibility (1/GPa) = 0.02322070
#
# Stress axis : x y z
#
# Youngs Moduli (GPa) = 94.83968 90.37124 208.36253
#
# Poissons Ratio (x) = 0.11606 0.04267
# Poissons Ratio (y) = 0.12180 0.02190
# Poissons Ratio (z) = 0.01942 0.00950
#
# Static dielectric constant tensor:
#      x y z
#    x 7.869990 0.000000 -0.620200 
#    y 0.000000 8.130180 0.000000 
#    z -0.620200 0.000000 9.180340 
# 
# 
# High freq. dielectric constant tensor:
#      x y z
#    x 2.691000 0.000000 -0.014860 
#    y 0.000000 2.681150 0.000000 
#    z -0.014860 0.000000 2.672890 
# 
# From -- ./inp_files/75437.got.cif
#   From: 2010.03.12/outbox.cif.g09.slc.cpg/sg14_38_cif.got.tgz:75437.got - 2010.03.31 13:35:05.
