data_PCOD8129050
_publ_section_title
;
Structure prediction by ZEFSAII (Michael W. Deem and Ramdas Pophale) SiO2 
 PCOD8129050
Probable space group: P 21/C
;
_chemical_formula_sum "Si O2"
_cell_formula_units_Z 20
_cell_length_a 17.815001
_cell_length_b 6.323299
_cell_length_c 17.126633
_cell_angle_alpha 90.000000
_cell_angle_beta 149.189042
_cell_angle_gamma 90.000000
_cell_volume 988.205312
_symmetry_space_group_name_H-M "P 21/C"
_symmetry_group_IT_number 14
_symmetry_cell_setting 'monoclinic'
loop_
_space_group_symop_operation_xyz
x,y,z
-x,1/2+y,1/2-z
-x,-y,-z
x,1/2-y,1/2+z
loop_
_atom_site_type_symbol
_atom_site_label
_atom_site_fract_x
_atom_site_fract_y
_atom_site_fract_z
Si Si1 0.410490 0.704161 0.949273
Si Si2 0.941705 0.678089 0.389108
Si Si3 0.311241 0.433740 0.258657
Si Si4 0.104625 0.007238 0.447041
Si Si5 0.131081 0.634511 0.799397
O O1 0.293753 0.657603 0.912153
O O2 0.320721 0.823950 0.799633
O O3 0.500000 0.500000 0.000000
O O4 0.522274 0.858936 0.091882
O O5 0.786763 0.775787 0.276077
O O6 0.928572 0.581572 0.290701
O O7 0.000000 0.500000 0.500000
O O8 0.057263 0.864672 0.479488
O O9 0.255638 0.406470 0.119153
O O10 0.977746 0.177070 0.320851
O O11 0.139756 0.881487 0.400179
#
# Coordination Sequence:
#
# PCOD8129050 Si02
#       5
#     4   4   4   4   4
#     4  11  24  44  66  94 132 177 224 274 330 407
#     4  12  22  39  72  97 125 172 228 278 329 394
#     4  11  24  42  67  96 130 174 227 270 330 408
#     4  12  25  43  65  99 135 170 221 282 335 398
#     4  12  24  43  66  97 133 172 219 279 341 395
#
# _framework density 20.238710000000001
#
# number of rings (size 3 to 8) (size 9 to 14) (size 15 to 20)
#    0.000    0.400    8.000    1.800    0.000    0.000 
#    3.600    0.000    0.000    0.000    0.000    0.000 
#    0.000    0.000    0.000    0.000    0.000    0.000 
#
# Total GULP energy -247857.306894 kJ/mol
# GULP energy per Si atom -12392.865345 kJ/mol
# Density = 2.019265 g / cm^3
# Si number density = 20.238710 Si / 1000 Ang^3
#
#
#
# Elastic Constant Matrix: (Units=GPa)
#
#
# Indices 1 2 3 4 5 6 
#
# 1 107.5424 47.5280 65.7647 0.0000 -7.2114 0.0000
# 2 47.5280 97.7366 40.0716 0.0000 -2.4292 0.0000
# 3 65.7647 40.0716 122.8367 0.0000 -6.4775 0.0000
# 4 0.0000 0.0000 0.0000 41.9828 0.0000 -0.9996
# 5 -7.2114 -2.4292 -6.4775 0.0000 36.7464 0.0000
# 6 0.0000 0.0000 0.0000 -0.9996 0.0000 41.8937
#
#
#
# Elastic Compliance Matrix: (Units=1/GPa)
#
#
# Indices 1 2 3 4 5 6 
#
# 1 0.015640 -0.004811 -0.006721 0.000000 0.001566 0.000000
# 2 -0.004811 0.013292 -0.001780 0.000000 -0.000379 0.000000
# 3 -0.006721 -0.001780 0.012359 0.000000 0.000742 0.000000
# 4 0.000000 0.000000 0.000000 0.023833 0.000000 0.000569
# 5 0.001566 -0.000379 0.000742 0.000000 0.027627 0.000000
# 6 0.000000 0.000000 0.000000 0.000569 0.000000 0.023883
#
#
# Mechanical properties :
#
#
# Convention : Reuss Voigt Hill
#
# Bulk Modulus (GPa) = 68.18606 70.53824 69.36215
# Shear Modulus (GPa) = 33.75004 35.77469 34.76237
#
# Velocity S-wave (km/s) = 4.08805 4.20889 4.14891
# Velocity P-wave (km/s) = 7.48645 7.65170 7.56953
#
# Compressibility (1/GPa) = 0.01466575
#
# Stress axis : x y z
#
# Youngs Moduli (GPa) = 63.93776 75.23588 80.91047
#
# Poissons Ratio (x) = 0.36195 0.54384
# Poissons Ratio (y) = 0.30760 0.14404
# Poissons Ratio (z) = 0.42976 0.13394
#
# Static dielectric constant tensor:
#      x y z
#    x 3.622180 0.000000 -0.000870 
#    y 0.000000 3.977760 0.000000 
#    z -0.000870 0.000000 3.783750 
# 
# 
# High freq. dielectric constant tensor:
#      x y z
#    x 1.779450 0.000000 0.002900 
#    y 0.000000 1.804040 0.000000 
#    z 0.002900 0.000000 1.805000 
# 
# From -- ./inp_files/54009.got.cif
#   From: 2010.03.12/outbox.cif.g09.slc.cpg/sg14_28_cif.got.tgz:54009.got - 2010.03.31 13:35:05.
