data_PCOD8129608
_publ_section_title
;
Structure prediction by ZEFSAII (Michael W. Deem and Ramdas Pophale) SiO2 
 PCOD8129608
Probable space group: C 2/C
;
_chemical_formula_sum "Si O2"
_cell_formula_units_Z 30
_cell_length_a 9.000000
_cell_length_b 27.000000
_cell_length_c 24.000000
_cell_angle_alpha 90.000000
_cell_angle_beta 150.000000
_cell_angle_gamma 90.000000
_cell_volume 2916.000000
_symmetry_space_group_name_H-M "C 2/C"
_symmetry_group_IT_number 15
_symmetry_cell_setting 'monoclinic'
loop_
_space_group_symop_operation_xyz
x,y,z
-x,y,1/2-z
-x,-y,-z
x,-y,1/2+z
1/2+x,1/2+y,z
1/2-x,1/2+y,1/2-z
1/2-x,1/2-y,-z
1/2+x,1/2-y,1/2+z
loop_
_atom_site_type_symbol
_atom_site_label
_atom_site_fract_x
_atom_site_fract_y
_atom_site_fract_z
Si Si1 0.820613 0.379914 0.377755
Si Si2 0.631384 0.833869 0.880989
Si Si3 0.000000 0.597466 0.750000
Si Si4 0.170100 0.555421 0.360451
Si Si5 0.296875 0.249315 0.735413
Si Si6 0.636206 0.042794 0.908733
Si Si7 0.084506 0.841756 0.412923
Si Si8 0.237736 0.299116 0.461018
O O1 0.500000 0.364598 0.250000
O O2 0.767318 0.373642 0.426354
O O3 0.922818 0.434827 0.388753
O O4 0.082520 0.343380 0.444034
O O5 0.552180 0.889203 0.834716
O O6 0.346056 0.797033 0.778342
O O7 0.674646 0.836520 0.960740
O O8 0.930394 0.814473 0.948406
O O9 0.042779 0.565979 0.819462
O O10 0.292898 0.630146 0.839044
O O11 0.524519 0.555595 0.465527
O O12 0.097297 0.516840 0.387805
O O13 0.000000 0.536667 0.250000
O O14 0.500000 0.268320 0.750000
O O15 0.527223 0.213681 0.841476
O O16 0.009402 0.214437 0.632059
O O17 0.250000 0.250000 0.500000
#
# Coordination Sequence:
#
# PCOD8129608 Si02
#       8
#     8   8   4   8   8   8   8   8
#     4  12  23  40  69 104 136 170 233 303 341 396
#     4  12  26  45  67  98 139 192 234 283 353 424
#     4  12  18  40  76  98 128 174 230 288 336 418
#     4  11  25  46  74 100 135 185 231 282 358 434
#     4  12  25  42  65  96 137 188 233 279 337 420
#     4  11  23  45  72 104 131 175 237 288 349 419
#     4  12  22  41  68  99 135 176 230 286 339 406
#     4  12  26  42  65 102 138 182 237 285 349 415
#
# _framework density 10.288066000000001
#
# number of rings (size 3 to 8) (size 9 to 14) (size 15 to 20)
#    0.000    0.267    8.000    1.200    3.733    0.000 
#    0.000    1.333    0.000    0.000    0.000    0.000 
#    0.000    0.000    0.000    0.000    0.000    0.000 
#
# Total GULP energy -371829.722109 kJ/mol
# GULP energy per Si atom -12394.324070 kJ/mol
# Density = 1.026465 g / cm^3
# Si number density = 10.288066 Si / 1000 Ang^3
#
#
#
# Elastic Constant Matrix: (Units=GPa)
#
#
# Indices 1 2 3 4 5 6 
#
# 1 123.3464 41.4305 2.9727 -0.0002 21.0598 0.0006
# 2 41.4305 134.1145 3.8600 -0.0003 15.1322 0.0006
# 3 2.9727 3.8600 46.0353 -0.0006 4.8401 0.0006
# 4 -0.0002 -0.0003 -0.0006 33.8069 -0.0002 5.2040
# 5 21.0598 15.1322 4.8401 -0.0002 37.6323 -0.0001
# 6 0.0006 0.0006 0.0006 5.2040 -0.0001 37.6306
#
#
#
# Elastic Compliance Matrix: (Units=1/GPa)
#
#
# Indices 1 2 3 4 5 6 
#
# 1 0.009702 -0.002499 0.000049 0.000000 -0.004431 0.000000
# 2 -0.002499 0.008459 -0.000342 0.000000 -0.001959 0.000000
# 3 0.000049 -0.000342 0.022034 0.000000 -0.002724 0.000000
# 4 0.000000 0.000000 0.000000 0.030223 0.000000 -0.004180
# 5 -0.004431 -0.001959 -0.002724 0.000000 0.030191 0.000000
# 6 0.000000 0.000000 0.000000 -0.004180 0.000000 0.027152
#
#
# Mechanical properties :
#
#
# Convention : Reuss Voigt Hill
#
# Bulk Modulus (GPa) = 28.89169 44.44694 36.66931
# Shear Modulus (GPa) = 34.51088 38.82947 36.67018
#
# Velocity S-wave (km/s) = 4.09984 4.34880 4.22616
# Velocity P-wave (km/s) = 6.04015 6.84575 6.45553
#
# Compressibility (1/GPa) = 0.03461203
#
# Stress axis : x y z
#
# Youngs Moduli (GPa) = 103.07338 118.21639 45.38371
#
# Poissons Ratio (x) = 0.29537 -0.00222
# Poissons Ratio (y) = 0.25753 0.01552
# Poissons Ratio (z) = -0.00504 0.04042
#
# Static dielectric constant tensor:
#      x y z
#    x 3.992230 0.000000 -0.083810 
#    y 0.000000 4.099740 -0.000010 
#    z -0.083810 -0.000010 3.746390 
# 
# 
# High freq. dielectric constant tensor:
#      x y z
#    x 1.806910 0.000000 0.007220 
#    y 0.000000 1.821450 0.000000 
#    z 0.007220 0.000000 1.814820 
# 
# From -- ./inp_files/266654.got.cif
#   From: 2010.06.25/outbox.ucp.g09.slc.cvg/sg15_134_cif.got.tgz:266654.got - 2010.06.28 14:40:10.
