data_PCOD8129670
_publ_section_title
;
Structure prediction by ZEFSAII (Michael W. Deem and Ramdas Pophale) SiO2 
 PCOD8129670
Probable space group: C 2/C
;
_chemical_formula_sum "Si O2"
_cell_formula_units_Z 56
_cell_length_a 13.603002
_cell_length_b 12.664409
_cell_length_c 29.089864
_cell_angle_alpha 90.000000
_cell_angle_beta 30.178367
_cell_angle_gamma 90.000000
_cell_volume 2519.212063
_symmetry_space_group_name_H-M "C 2/C"
_symmetry_group_IT_number 15
_symmetry_cell_setting 'monoclinic'
loop_
_space_group_symop_operation_xyz
x,y,z
-x,y,1/2-z
-x,-y,-z
x,-y,1/2+z
1/2+x,1/2+y,z
1/2-x,1/2+y,1/2-z
1/2-x,1/2-y,-z
1/2+x,1/2-y,1/2+z
loop_
_atom_site_type_symbol
_atom_site_label
_atom_site_fract_x
_atom_site_fract_y
_atom_site_fract_z
Si Si1 0.500000 0.340985 0.250000
Si Si2 0.854075 0.910159 0.574387
Si Si3 0.598682 0.903007 0.986719
Si Si4 0.450043 0.227860 0.470574
Si Si5 0.236304 0.830405 0.287177
Si Si6 0.133377 0.254581 0.357356
Si Si7 0.619786 0.433221 0.111927
Si Si8 0.500000 0.961090 0.250000
O O1 0.360030 0.264030 0.278715
O O2 0.625094 0.411649 0.164491
O O3 0.839705 0.826647 0.538622
O O4 0.929763 0.855413 0.592106
O O5 0.643697 0.963864 0.663715
O O6 0.000000 0.000000 0.500000
O O7 0.486416 0.856186 0.076259
O O8 0.608301 0.812324 0.944379
O O9 0.500000 0.000000 0.000000
O O10 0.807440 0.944877 0.922161
O O11 0.580505 0.253500 0.373940
O O12 0.281043 0.145195 0.523475
O O13 0.367238 0.761705 0.198102
O O14 0.380839 0.886234 0.263806
O O15 0.099856 0.920780 0.318540
#
# Coordination Sequence:
#
# PCOD8129670 Si02
#       8
#     4   8   8   8   8   8   8   4
#     4  10  15  32  61  98 130 156 217 272 335 398
#     4  11  22  44  74  92 134 187 232 269 352 412
#     4   9  17  37  65  96 131 170 204 279 348 396
#     4  10  20  41  68  98 133 180 221 279 345 414
#     4  11  25  43  63 104 136 177 235 284 337 407
#     4  10  21  39  68  98 131 174 229 277 337 410
#     4  10  20  37  70  98 131 167 224 276 340 417
#     4  12  27  46  67  96 144 186 235 296 339 404
#
# _framework density 22.229171999999998
#
# number of rings (size 3 to 8) (size 9 to 14) (size 15 to 20)
#    0.000    1.714    5.714    0.857    2.000    1.143 
#    5.143    2.857    0.000    0.000    0.000    0.000 
#    0.000    0.000    0.000    0.000    0.000    0.000 
#
# Total GULP energy -346940.557901 kJ/mol
# GULP energy per Si atom -12390.734211 kJ/mol
# Density = 2.217858 g / cm^3
# Si number density = 22.229172 Si / 1000 Ang^3
#
#
#
# Elastic Constant Matrix: (Units=GPa)
#
#
# Indices 1 2 3 4 5 6 
#
# 1 96.2965 33.3415 35.4332 0.0007 2.5517 0.0004
# 2 33.3415 91.4624 56.5072 -0.0046 -1.4362 0.0014
# 3 35.4332 56.5072 130.3680 -0.0120 21.9068 0.0019
# 4 0.0007 -0.0046 -0.0120 26.8519 -0.0005 -0.5674
# 5 2.5517 -1.4362 21.9068 -0.0005 41.3530 -0.0001
# 6 0.0004 0.0014 0.0019 -0.5674 -0.0001 16.7588
#
#
#
# Elastic Compliance Matrix: (Units=1/GPa)
#
#
# Indices 1 2 3 4 5 6 
#
# 1 0.012220 -0.003256 -0.001937 -0.000002 0.000159 0.000000
# 2 -0.003256 0.016542 -0.007042 0.000000 0.004506 0.000000
# 3 -0.001937 -0.007042 0.012372 0.000004 -0.006679 -0.000001
# 4 -0.000002 0.000000 0.000004 0.037268 -0.000002 0.001262
# 5 0.000159 0.004506 -0.006679 -0.000002 0.027867 0.000000
# 6 0.000000 0.000000 -0.000001 0.001262 0.000000 0.059713
#
#
# Mechanical properties :
#
#
# Convention : Reuss Voigt Hill
#
# Bulk Modulus (GPa) = 60.00870 63.18785 61.59828
# Shear Modulus (GPa) = 25.50939 29.84907 27.67923
#
# Velocity S-wave (km/s) = 3.39125 3.66838 3.53253
# Velocity P-wave (km/s) = 6.51062 6.81396 6.66402
#
# Compressibility (1/GPa) = 0.01666425
#
# Stress axis : x y z
#
# Youngs Moduli (GPa) = 81.83088 60.45274 80.82867
#
# Poissons Ratio (x) = 0.19681 0.15657
# Poissons Ratio (y) = 0.26640 0.56922
# Poissons Ratio (z) = 0.15851 0.42573
#
# Static dielectric constant tensor:
#      x y z
#    x 4.079700 -0.000010 0.101770 
#    y -0.000010 4.373680 0.000000 
#    z 0.101770 0.000000 4.264950 
# 
# 
# High freq. dielectric constant tensor:
#      x y z
#    x 1.858850 0.000000 0.007940 
#    y 0.000000 1.865570 0.000000 
#    z 0.007940 0.000000 1.882890 
# 
# From -- ./inp_files/313762.got.cif
#   From: 2010.06.25/outbox.cif.g09.slc.cpg/sg15_157_cif.got.tgz:313762.got - 2010.06.28 07:06:18.
