data_PCOD8129394
_publ_section_title
;
Structure prediction by ZEFSAII (Michael W. Deem and Ramdas Pophale) SiO2 
 PCOD8129394
Probable space group: P 21/C
;
_chemical_formula_sum "Si O2"
_cell_formula_units_Z 20
_cell_length_a 8.489568
_cell_length_b 11.867008
_cell_length_c 8.223498
_cell_angle_alpha 90.000000
_cell_angle_beta 86.537948
_cell_angle_gamma 90.000000
_cell_volume 826.970679
_symmetry_space_group_name_H-M "P 21/C"
_symmetry_group_IT_number 14
_symmetry_cell_setting 'monoclinic'
loop_
_space_group_symop_operation_xyz
x,y,z
-x,1/2+y,1/2-z
-x,-y,-z
x,1/2-y,1/2+z
loop_
_atom_site_type_symbol
_atom_site_label
_atom_site_fract_x
_atom_site_fract_y
_atom_site_fract_z
Si Si1 0.538823 0.127396 0.941104
Si Si2 0.857153 0.482640 0.886865
Si Si3 0.278882 0.810065 0.381148
Si Si4 0.785271 0.679685 0.681416
Si Si5 0.018859 0.332306 0.636148
O O1 0.660835 0.126301 0.783471
O O2 0.381791 0.191636 0.895466
O O3 0.614546 0.200804 0.082094
O O4 0.500000 0.000000 0.000000
O O5 0.772160 0.598022 0.839690
O O6 0.922692 0.436366 0.712224
O O7 0.724325 0.399560 0.970147
O O8 0.000000 0.500000 0.000000
O O9 0.097339 0.775399 0.365310
O O10 0.838286 0.800659 0.749002
O O11 0.914767 0.635881 0.544135
#
# Coordination Sequence:
#
# PCOD8129394 Si02
#       5
#     4   4   4   4   4
#     4  12  29  49  75 110 155 204 245 311 391 451
#     4  12  25  43  78 111 143 194 251 312 368 440
#     4  12  25  51  75 107 154 198 252 311 374 450
#     4  12  25  45  72 110 145 195 253 306 375 447
#     4  12  23  47  75 105 147 190 255 310 361 449
#
# _framework density 24.184653999999998
#
# number of rings (size 3 to 8) (size 9 to 14) (size 15 to 20)
#    0.000    0.000    6.000    3.000    2.800    0.800 
#    3.600    0.000    0.000    0.000    0.000    0.000 
#    0.000    0.000    0.000    0.000    0.000    0.000 
#
# Total GULP energy -248072.112889 kJ/mol
# GULP energy per Si atom -12403.605644 kJ/mol
# Density = 2.412961 g / cm^3
# Si number density = 24.184654 Si / 1000 Ang^3
#
#
#
# Elastic Constant Matrix: (Units=GPa)
#
#
# Indices 1 2 3 4 5 6 
#
# 1 102.9926 17.8105 17.5774 0.0000 5.3800 0.0000
# 2 17.8105 70.2110 26.3179 0.0000 -5.0580 0.0000
# 3 17.5774 26.3179 114.6977 0.0000 -13.0555 0.0000
# 4 0.0000 0.0000 0.0000 55.2493 0.0000 -2.7383
# 5 5.3800 -5.0580 -13.0555 0.0000 42.6722 0.0000
# 6 0.0000 0.0000 0.0000 -2.7383 0.0000 30.7189
#
#
#
# Elastic Compliance Matrix: (Units=1/GPa)
#
#
# Indices 1 2 3 4 5 6 
#
# 1 0.010433 -0.002304 -0.001296 0.000000 -0.001985 0.000000
# 2 -0.002304 0.016117 -0.003206 0.000000 0.001220 0.000000
# 3 -0.001296 -0.003206 0.009976 0.000000 0.002835 0.000000
# 4 0.000000 0.000000 0.000000 0.018180 0.000000 0.001621
# 5 -0.001985 0.001220 0.002835 0.000000 0.024697 0.000000
# 6 0.000000 0.000000 0.000000 0.001621 0.000000 0.032698
#
#
# Mechanical properties :
#
#
# Convention : Reuss Voigt Hill
#
# Bulk Modulus (GPa) = 43.64299 45.70144 44.67222
# Shear Modulus (GPa) = 37.49544 40.80776 39.15160
#
# Velocity S-wave (km/s) = 3.94176 4.11218 4.02787
# Velocity P-wave (km/s) = 6.22909 6.44086 6.33586
#
# Compressibility (1/GPa) = 0.02291319
#
# Stress axis : x y z
#
# Youngs Moduli (GPa) = 95.85245 62.04687 100.24427
#
# Poissons Ratio (x) = 0.14293 0.12993
# Poissons Ratio (y) = 0.22081 0.32140
# Poissons Ratio (z) = 0.12424 0.19894
#
# Static dielectric constant tensor:
#      x y z
#    x 4.325770 0.000000 -0.026160 
#    y 0.000000 4.272060 0.000000 
#    z -0.026160 0.000000 4.571300 
# 
# 
# High freq. dielectric constant tensor:
#      x y z
#    x 1.954220 0.000000 0.002110 
#    y 0.000000 1.954620 0.000000 
#    z 0.002110 0.000000 1.975530 
# 
# From -- ./inp_files/7857.got.cif
#   From: 2010.03.12/outbox.cif.g09.slc.cpg/sg14_4_cif.got.tgz:7857.got - 2010.03.31 13:35:05.
