data_PCOD8129509
_publ_section_title
;
Structure prediction by ZEFSAII (Michael W. Deem and Ramdas Pophale) SiO2 
 PCOD8129509
Probable space group: P 21/C
;
_chemical_formula_sum "Si O2"
_cell_formula_units_Z 20
_cell_length_a 15.345289
_cell_length_b 8.887161
_cell_length_c 12.509628
_cell_angle_alpha 90.000000
_cell_angle_beta 144.609575
_cell_angle_gamma 90.000000
_cell_volume 988.029210
_symmetry_space_group_name_H-M "P 21/C"
_symmetry_group_IT_number 14
_symmetry_cell_setting 'monoclinic'
loop_
_space_group_symop_operation_xyz
x,y,z
-x,1/2+y,1/2-z
-x,-y,-z
x,1/2-y,1/2+z
loop_
_atom_site_type_symbol
_atom_site_label
_atom_site_fract_x
_atom_site_fract_y
_atom_site_fract_z
Si Si1 0.945425 0.315426 0.135301
Si Si2 0.250003 0.750005 0.750003
Si Si3 0.684579 0.445429 0.994709
Si Si4 0.554571 0.184586 0.744439
Si Si5 0.184580 0.945423 0.874454
O O1 0.940974 0.178619 0.215624
O O2 0.110457 0.389546 0.296767
O O3 0.900393 0.252388 0.973407
O O4 0.821386 0.440978 0.046742
O O5 0.400401 0.747626 0.827394
O O6 0.247620 0.900399 0.820633
O O7 0.252384 0.599606 0.825391
O O8 0.559024 0.321391 0.833669
O O9 0.610459 0.610461 0.924158
O O10 0.678614 0.059033 0.903961
#
# Coordination Sequence:
#
# PCOD8129509 Si02
#       5
#     4   4   4   4   4
#     4   9  18  32  50  73 100 130 164 201 242 288
#     4   8  16  32  54  72  96 130 164 200 242 288
#     4   9  18  32  50  73 100 130 164 201 242 288
#     4   9  18  32  50  73 100 130 164 201 242 288
#     4   9  18  32  50  73 100 130 164 201 242 288
#
# _framework density 20.242315999999999
#
# number of rings (size 3 to 8) (size 9 to 14) (size 15 to 20)
#    0.000    4.000    0.000    1.200    0.000    1.600 
#    0.000   32.000    0.000   38.400    0.000    0.000 
#    0.000    0.000    0.000    0.000    0.000    0.000 
#
# Total GULP energy -247786.284108 kJ/mol
# GULP energy per Si atom -12389.314205 kJ/mol
# Density = 2.019624 g / cm^3
# Si number density = 20.242316 Si / 1000 Ang^3
#
#
#
# Elastic Constant Matrix: (Units=GPa)
#
#
# Indices 1 2 3 4 5 6 
#
# 1 55.4441 24.9565 48.0492 0.0000 -19.6079 0.0000
# 2 24.9565 43.6084 24.9243 0.0000 4.3203 0.0000
# 3 48.0492 24.9243 55.6699 0.0000 -19.7737 0.0000
# 4 0.0000 0.0000 0.0000 34.7987 0.0000 31.1400
# 5 -19.6079 4.3203 -19.7737 0.0000 31.1834 0.0000
# 6 0.0000 0.0000 0.0000 31.1400 0.0000 34.9897
#
#
#
# Elastic Compliance Matrix: (Units=1/GPa)
#
#
# Indices 1 2 3 4 5 6 
#
# 1 0.078236 -0.014955 -0.055012 0.000000 0.016383 0.000000
# 2 -0.014955 0.042437 -0.014870 0.000000 -0.024712 0.000000
# 3 -0.055012 -0.014870 0.078148 0.000000 0.017024 0.000000
# 4 0.000000 0.000000 0.000000 0.141146 0.000000 -0.125616
# 5 0.016383 -0.024712 0.017024 0.000000 0.056588 0.000000
# 6 0.000000 0.000000 0.000000 -0.125616 0.000000 0.140375
#
#
# Mechanical properties :
#
#
# Convention : Reuss Voigt Hill
#
# Bulk Modulus (GPa) = 34.30651 38.95361 36.63006
# Shear Modulus (GPa) = 6.98014 23.98050 15.48032
#
# Velocity S-wave (km/s) = 1.85897 3.44564 2.76841
# Velocity P-wave (km/s) = 4.64676 5.92582 5.32484
#
# Compressibility (1/GPa) = 0.02914899
#
# Stress axis : x y z
#
# Youngs Moduli (GPa) = 12.78186 23.56460 12.79617
#
# Poissons Ratio (x) = 0.35240 0.70394
# Poissons Ratio (y) = 0.19115 0.19027
# Poissons Ratio (z) = 0.70315 0.35039
#
# Static dielectric constant tensor:
#      x y z
#    x 3.555230 0.000000 -0.211050 
#    y 0.000000 3.344760 0.000000 
#    z -0.211050 0.000000 3.556390 
# 
# 
# High freq. dielectric constant tensor:
#      x y z
#    x 1.777720 0.000000 -0.017720 
#    y 0.000000 1.760050 0.000000 
#    z -0.017720 0.000000 1.777820 
# 
# From -- ./inp_files/23499.got.cif
#   From: 2010.03.12/outbox.cif.g09.slc.cpg/sg14_12_cif.got.tgz:23499.got - 2010.03.31 13:35:05.
