data_PCOD8129125
_publ_section_title
;
Structure prediction by ZEFSAII (Michael W. Deem and Ramdas Pophale) SiO2 
 PCOD8129125
Probable space group: P 21/C
;
_chemical_formula_sum "Si O2"
_cell_formula_units_Z 24
_cell_length_a 11.328732
_cell_length_b 11.522487
_cell_length_c 9.238026
_cell_angle_alpha 90.000000
_cell_angle_beta 66.511887
_cell_angle_gamma 90.000000
_cell_volume 1105.970804
_symmetry_space_group_name_H-M "P 21/C"
_symmetry_group_IT_number 14
_symmetry_cell_setting 'monoclinic'
loop_
_space_group_symop_operation_xyz
x,y,z
-x,1/2+y,1/2-z
-x,-y,-z
x,1/2-y,1/2+z
loop_
_atom_site_type_symbol
_atom_site_label
_atom_site_fract_x
_atom_site_fract_y
_atom_site_fract_z
Si Si1 0.884955 0.241240 0.636790
Si Si2 0.302283 0.948003 0.374292
Si Si3 0.942383 0.674720 0.692901
Si Si4 0.300720 0.173046 0.193121
Si Si5 0.583174 0.630022 0.672230
Si Si6 0.754589 0.473072 0.777567
O O1 0.812584 0.144555 0.578547
O O2 0.783399 0.339945 0.729175
O O3 0.940886 0.180466 0.752003
O O4 0.004185 0.293857 0.490685
O O5 0.432376 0.892728 0.251510
O O6 0.317668 0.985280 0.533621
O O7 0.263009 0.058037 0.297893
O O8 0.829547 0.763323 0.791762
O O9 0.888177 0.544234 0.715360
O O10 0.386251 0.253566 0.254946
O O11 0.381948 0.143070 0.012105
O O12 0.660251 0.521186 0.700200
#
# Coordination Sequence:
#
# PCOD8129125 Si02
#       6
#     4   4   4   4   4   4
#     4  12  26  41  70 103 136 178 231 285 342 408
#     4  12  27  43  72 103 139 181 230 287 338 410
#     4  11  24  45  68  97 138 177 228 284 339 418
#     4  11  25  46  71 102 134 188 227 278 351 397
#     4  11  26  45  74  98 141 178 233 284 340 417
#     4  11  25  46  68 100 137 184 224 285 351 397
#
# _framework density 21.700392000000001
#
# number of rings (size 3 to 8) (size 9 to 14) (size 15 to 20)
#    0.000    0.667    1.667    6.500    9.333    1.333 
#    0.000    0.000    0.000    0.000    0.000    0.000 
#    0.000    0.000    0.000    0.000    0.000    0.000 
#
# Total GULP energy -297827.781343 kJ/mol
# GULP energy per Si atom -12409.490889 kJ/mol
# Density = 2.165100 g / cm^3
# Si number density = 21.700392 Si / 1000 Ang^3
#
#
#
# Elastic Constant Matrix: (Units=GPa)
#
#
# Indices 1 2 3 4 5 6 
#
# 1 53.0270 20.5053 -13.5426 0.0000 -5.8623 0.0000
# 2 20.5053 87.3333 -0.9104 0.0000 6.9824 0.0000
# 3 -13.5426 -0.9104 79.9961 0.0000 1.1011 0.0000
# 4 0.0000 0.0000 0.0000 37.1598 0.0000 1.4149
# 5 -5.8623 6.9824 1.1011 0.0000 31.3969 0.0000
# 6 0.0000 0.0000 0.0000 1.4149 0.0000 15.9497
#
#
#
# Elastic Compliance Matrix: (Units=1/GPa)
#
#
# Indices 1 2 3 4 5 6 
#
# 1 0.022594 -0.005695 0.003686 0.000000 0.005356 0.000000
# 2 -0.005695 0.013095 -0.000761 0.000000 -0.003949 0.000000
# 3 0.003686 -0.000761 0.013111 0.000000 0.000398 0.000000
# 4 0.000000 0.000000 0.000000 0.027002 0.000000 -0.002395
# 5 0.005356 -0.003949 0.000398 0.000000 0.033714 0.000000
# 6 0.000000 0.000000 0.000000 -0.002395 0.000000 0.062910
#
#
# Mechanical properties :
#
#
# Convention : Reuss Voigt Hill
#
# Bulk Modulus (GPa) = 23.11501 25.82900 24.47200
# Shear Modulus (GPa) = 25.98961 31.18822 28.58891
#
# Velocity S-wave (km/s) = 3.46447 3.79518 3.63359
# Velocity P-wave (km/s) = 5.16512 5.57969 5.37640
#
# Compressibility (1/GPa) = 0.04326194
#
# Stress axis : x y z
#
# Youngs Moduli (GPa) = 44.25948 76.36348 76.27436
#
# Poissons Ratio (x) = 0.43487 -0.28118
# Poissons Ratio (y) = 0.25205 0.05802
# Poissons Ratio (z) = -0.16316 0.05809
#
# Static dielectric constant tensor:
#      x y z
#    x 3.783760 0.000000 0.006780 
#    y 0.000000 3.996500 0.000000 
#    z 0.006780 0.000000 3.930230 
# 
# 
# High freq. dielectric constant tensor:
#      x y z
#    x 1.851700 0.000000 0.001150 
#    y 0.000000 1.861790 0.000000 
#    z 0.001150 0.000000 1.868910 
# 
# From -- ./inp_files/12342.got.cif
#   From: 2010.03.12/outbox.cif.g09.slc.cpg/sg14_7_cif.got.tgz:12342.got - 2010.03.31 13:35:05.
