data_PCOD8129665
_publ_section_title
;
Structure prediction by ZEFSAII (Michael W. Deem and Ramdas Pophale) SiO2 
 PCOD8129665
Probable space group: C 2/C
;
_chemical_formula_sum "Si O2"
_cell_formula_units_Z 52
_cell_length_a 10.509455
_cell_length_b 15.715512
_cell_length_c 17.080885
_cell_angle_alpha 90.000000
_cell_angle_beta 86.904607
_cell_angle_gamma 90.000000
_cell_volume 2816.988063
_symmetry_space_group_name_H-M "C 2/C"
_symmetry_group_IT_number 15
_symmetry_cell_setting 'monoclinic'
loop_
_space_group_symop_operation_xyz
x,y,z
-x,y,1/2-z
-x,-y,-z
x,-y,1/2+z
1/2+x,1/2+y,z
1/2-x,1/2+y,1/2-z
1/2-x,1/2-y,-z
1/2+x,1/2-y,1/2+z
loop_
_atom_site_type_symbol
_atom_site_label
_atom_site_fract_x
_atom_site_fract_y
_atom_site_fract_z
Si Si1 0.394538 0.537055 0.700357
Si Si2 0.560886 0.276203 0.663446
Si Si3 0.000000 0.470693 0.750000
Si Si4 0.457210 0.411655 0.564618
Si Si5 0.255159 0.920101 0.679758
Si Si6 0.151613 0.592960 0.632672
Si Si7 0.714250 0.520611 0.015065
O O1 0.500000 0.586302 0.750000
O O2 0.461643 0.490042 0.625905
O O3 0.337191 0.462447 0.755012
O O4 0.284940 0.601545 0.675933
O O5 0.500000 0.263915 0.750000
O O6 0.456553 0.321715 0.610167
O O7 0.693266 0.329112 0.660909
O O8 0.589215 0.184850 0.625590
O O9 0.894651 0.409817 0.713519
O O10 0.941811 0.529921 0.819062
O O11 0.332848 0.425809 0.512869
O O12 0.588890 0.418905 0.511711
O O13 0.267743 0.979217 0.601521
O O14 0.175798 0.555631 0.545471
#
# Coordination Sequence:
#
# PCOD8129665 Si02
#       7
#     8   8   4   8   8   8   8
#     4  10  15  32  53  79  96 137 181 219 242 310
#     4  11  18  34  56  79  99 139 179 222 253 312
#     4  10  22  38  52  76 106 144 176 208 252 326
#     4   9  16  29  54  80 103 126 181 219 254 300
#     4  10  19  33  58  77 103 136 182 212 255 308
#     4  10  22  32  52  77 111 136 172 212 275 310
#     4   9  18  31  52  82 104 135 167 225 263 306
#
# _framework density 18.459432
#
# number of rings (size 3 to 8) (size 9 to 14) (size 15 to 20)
#    0.000    2.154    5.385    0.000    0.000    3.077 
#    1.385    0.000    0.000    0.923    0.000    0.000 
#    0.000    0.000    0.000    0.000    0.000    0.000 
#
# Total GULP energy -322188.118445 kJ/mol
# GULP energy per Si atom -12391.850709 kJ/mol
# Density = 1.841742 g / cm^3
# Si number density = 18.459432 Si / 1000 Ang^3
#
#
#
# Elastic Constant Matrix: (Units=GPa)
#
#
# Indices 1 2 3 4 5 6 
#
# 1 75.9817 15.3168 22.4421 0.0000 4.1389 0.0000
# 2 15.3168 59.4350 5.6058 0.0000 -6.2616 0.0000
# 3 22.4421 5.6058 78.5348 0.0000 -17.6064 0.0000
# 4 0.0000 0.0000 0.0000 10.9772 0.0000 -4.6698
# 5 4.1389 -6.2616 -17.6064 0.0000 36.3346 0.0000
# 6 0.0000 0.0000 0.0000 -4.6698 0.0000 21.0856
#
#
#
# Elastic Compliance Matrix: (Units=1/GPa)
#
#
# Indices 1 2 3 4 5 6 
#
# 1 0.015862 -0.004120 -0.005388 0.000000 -0.005128 0.000000
# 2 -0.004120 0.018234 0.000769 0.000000 0.003984 0.000000
# 3 -0.005388 0.000769 0.016139 0.000000 0.008566 0.000000
# 4 0.000000 0.000000 0.000000 0.100574 0.000000 0.022274
# 5 -0.005128 0.003984 0.008566 0.000000 0.032944 0.000000
# 6 0.000000 0.000000 0.000000 0.022274 0.000000 0.052359
#
#
# Mechanical properties :
#
#
# Convention : Reuss Voigt Hill
#
# Bulk Modulus (GPa) = 30.52828 33.40897 31.96863
# Shear Modulus (GPa) = 18.90298 25.05193 21.97745
#
# Velocity S-wave (km/s) = 3.20352 3.68793 3.45422
# Velocity P-wave (km/s) = 5.50066 6.02265 5.76756
#
# Compressibility (1/GPa) = 0.03275651
#
# Stress axis : x y z
#
# Youngs Moduli (GPa) = 63.04206 54.84245 61.96329
#
# Poissons Ratio (x) = 0.22594 0.33388
# Poissons Ratio (y) = 0.25973 -0.04765
# Poissons Ratio (z) = 0.33969 -0.04217
#
# Static dielectric constant tensor:
#      x y z
#    x 3.538310 0.000000 0.065820 
#    y 0.000000 2.971630 0.000000 
#    z 0.065820 0.000000 3.656180 
# 
# 
# High freq. dielectric constant tensor:
#      x y z
#    x 1.709030 0.000000 -0.009920 
#    y 0.000000 1.661580 0.000000 
#    z -0.009920 0.000000 1.736760 
# 
# From -- ./inp_files/197267.got.cif
#   From: 2010.06.25/outbox.cif.g09.slc.cpg/sg15_99_cif.got.tgz:197267.got - 2010.06.28 07:06:18.
