data_PCOD8129837
_publ_section_title
;
Structure prediction by ZEFSAII (Michael W. Deem and Ramdas Pophale) SiO2 
 PCOD8129837
Probable space group: C 2/C
;
_chemical_formula_sum "Si O2"
_cell_formula_units_Z 52
_cell_length_a 12.002096
_cell_length_b 27.826930
_cell_length_c 17.852185
_cell_angle_alpha 90.000000
_cell_angle_beta 153.762006
_cell_angle_gamma 90.000000
_cell_volume 2635.936951
_symmetry_space_group_name_H-M "C 2/C"
_symmetry_group_IT_number 15
_symmetry_cell_setting 'monoclinic'
loop_
_space_group_symop_operation_xyz
x,y,z
-x,y,1/2-z
-x,-y,-z
x,-y,1/2+z
1/2+x,1/2+y,z
1/2-x,1/2+y,1/2-z
1/2-x,1/2-y,-z
1/2+x,1/2-y,1/2+z
loop_
_atom_site_type_symbol
_atom_site_label
_atom_site_fract_x
_atom_site_fract_y
_atom_site_fract_z
Si Si1 0.500000 0.138214 0.250000
Si Si2 0.162889 0.933130 0.626363
Si Si3 0.349069 0.030202 0.735398
Si Si4 0.613828 0.792010 0.691520
Si Si5 0.278414 0.693172 0.668827
Si Si6 0.417359 0.868531 0.316294
Si Si7 0.099637 0.148890 0.474609
O O1 0.733106 0.103410 0.374102
O O2 0.540503 0.172246 0.346622
O O3 0.943624 0.960027 0.451434
O O4 0.063789 0.900477 0.635998
O O5 0.361852 0.974787 0.774412
O O6 0.500000 0.033402 0.750000
O O7 0.454049 0.073583 0.850483
O O8 0.605555 0.738688 0.718720
O O9 0.470480 0.791534 0.526462
O O10 0.907309 0.806477 0.856964
O O11 0.500000 0.672076 0.750000
O O12 0.197341 0.652304 0.677628
O O13 0.692999 0.845472 0.465583
O O14 0.234378 0.856342 0.136572
#
# Coordination Sequence:
#
# PCOD8129837 Si02
#       7
#     4   8   8   8   8   8   8
#     4  10  20  34  60  86 120 150 196 250 288 362
#     4   9  17  28  54  91 118 150 195 245 290 342
#     4  10  16  30  54  90 119 154 194 249 290 339
#     4  11  24  40  61  88 118 156 204 248 311 353
#     4  12  26  40  61  87 121 163 196 254 302 367
#     4  10  20  38  61  87 125 155 204 248 297 356
#     4   9  19  38  62  90 118 158 197 252 298 351
#
# _framework density 19.727331
#
# number of rings (size 3 to 8) (size 9 to 14) (size 15 to 20)
#    0.000    1.846    4.615    1.385    6.462    1.231 
#    0.000    0.000    0.000    3.692    0.000    0.000 
#    0.000    0.000    0.000    0.000    0.000    0.000 
#
# Total GULP energy -322097.542208 kJ/mol
# GULP energy per Si atom -12388.367008 kJ/mol
# Density = 1.968243 g / cm^3
# Si number density = 19.727331 Si / 1000 Ang^3
#
#
#
# Elastic Constant Matrix: (Units=GPa)
#
#
# Indices 1 2 3 4 5 6 
#
# 1 131.5655 68.7396 35.5663 -0.0031 23.1627 -0.0042
# 2 68.7396 106.0707 15.9298 0.0023 9.1986 -0.0002
# 3 35.5663 15.9298 54.1982 -0.0081 6.5643 -0.0068
# 4 -0.0031 0.0023 -0.0081 21.3121 -0.0033 6.2627
# 5 23.1627 9.1986 6.5643 -0.0033 30.9267 -0.0034
# 6 -0.0042 -0.0002 -0.0068 6.2627 -0.0034 26.4124
#
#
#
# Elastic Compliance Matrix: (Units=1/GPa)
#
#
# Indices 1 2 3 4 5 6 
#
# 1 0.014827 -0.007997 -0.006489 -0.000001 -0.007349 0.000000
# 2 -0.007997 0.014350 0.000843 -0.000002 0.001542 0.000000
# 3 -0.006489 0.000843 0.022481 0.000007 -0.000162 0.000003
# 4 -0.000001 -0.000002 0.000007 0.050436 0.000004 -0.011959
# 5 -0.007349 0.001542 -0.000162 0.000004 0.037414 0.000003
# 6 0.000000 0.000000 0.000003 -0.011959 0.000003 0.040697
#
#
# Mechanical properties :
#
#
# Convention : Reuss Voigt Hill
#
# Bulk Modulus (GPa) = 41.03076 59.14508 50.08792
# Shear Modulus (GPa) = 23.18957 27.17016 25.17986
#
# Velocity S-wave (km/s) = 3.43228 3.71521 3.57654
# Velocity P-wave (km/s) = 6.04578 6.96061 6.51926
#
# Compressibility (1/GPa) = 0.02437196
#
# Stress axis : x y z
#
# Youngs Moduli (GPa) = 67.44459 69.68808 44.48181
#
# Poissons Ratio (x) = 0.55728 0.28866
# Poissons Ratio (y) = 0.53934 -0.03751
# Poissons Ratio (z) = 0.43767 -0.05877
#
# Static dielectric constant tensor:
#      x y z
#    x 3.597260 0.000000 0.452950 
#    y 0.000000 4.069890 0.000000 
#    z 0.452950 0.000000 3.442630 
# 
# 
# High freq. dielectric constant tensor:
#      x y z
#    x 1.755900 0.000000 0.045920 
#    y 0.000000 1.784320 0.000000 
#    z 0.045920 0.000000 1.738240 
# 
# From -- ./inp_files/201204.got.cif
#   From: 2010.06.25/outbox.cif.g09.slc.cpg/sg15_101_cif.got.tgz:201204.got - 2010.06.28 07:06:18.
