data_PCOD8129588
_publ_section_title
;
Structure prediction by ZEFSAII (Michael W. Deem and Ramdas Pophale) SiO2 
 PCOD8129588
Probable space group: C 2/C
;
_chemical_formula_sum "Si O2"
_cell_formula_units_Z 28
_cell_length_a 21.000000
_cell_length_b 9.000000
_cell_length_c 30.000000
_cell_angle_alpha 90.000000
_cell_angle_beta 30.000000
_cell_angle_gamma 90.000000
_cell_volume 2835.000000
_symmetry_space_group_name_H-M "C 2/C"
_symmetry_group_IT_number 15
_symmetry_cell_setting 'monoclinic'
loop_
_space_group_symop_operation_xyz
x,y,z
-x,y,1/2-z
-x,-y,-z
x,-y,1/2+z
1/2+x,1/2+y,z
1/2-x,1/2+y,1/2-z
1/2-x,1/2-y,-z
1/2+x,1/2-y,1/2+z
loop_
_atom_site_type_symbol
_atom_site_label
_atom_site_fract_x
_atom_site_fract_y
_atom_site_fract_z
Si Si1 0.641602 0.591047 0.863116
Si Si2 0.807128 0.014693 0.835797
Si Si3 0.628792 0.022452 0.616039
Si Si4 0.407536 0.923459 0.467634
Si Si5 0.816357 0.560433 0.183969
Si Si6 0.621251 0.415594 0.481692
Si Si7 0.000000 0.267601 0.750000
Si Si8 0.000000 0.229322 0.250000
O O1 0.736763 0.483148 0.777164
O O2 0.662407 0.760781 0.833209
O O3 0.667076 0.588986 0.901617
O O4 0.499565 0.526598 0.940484
O O5 0.754419 0.006972 0.816967
O O6 0.892605 0.869495 0.791804
O O7 0.691578 0.012468 0.941131
O O8 0.890214 0.164386 0.794061
O O9 0.631278 0.041236 0.560545
O O10 0.769073 0.015581 0.553180
O O11 0.558590 0.169943 0.675703
O O12 0.555655 0.872399 0.676494
O O13 0.408346 0.748844 0.480769
O O14 0.546705 0.984683 0.394239
#
# Coordination Sequence:
#
# PCOD8129588 Si02
#       8
#     8   8   8   8   8   8   4   4
#     4  11  27  45  74 103 138 186 235 287 355 416
#     4  11  25  46  69 101 145 182 232 293 347 414
#     4  11  25  44  72 101 141 182 235 289 350 418
#     4  12  26  43  72 104 140 186 236 283 355 413
#     4  12  27  46  70 102 141 185 233 290 353 418
#     4  11  25  48  72 104 140 180 235 295 345 416
#     4  10  28  44  70 104 140 188 232 294 350 416
#     4  10  22  44  72  98 136 184 242 274 350 416
#
# _framework density 9.8765429999999999
#
# number of rings (size 3 to 8) (size 9 to 14) (size 15 to 20)
#    0.000    0.857    2.857    1.714   12.000    2.857 
#    0.000    0.000    0.000    0.000    0.000    0.000 
#    0.000    0.000    0.000    0.000    0.000    0.000 
#
# Total GULP energy -347080.528244 kJ/mol
# GULP energy per Si atom -12395.733152 kJ/mol
# Density = 0.985406 g / cm^3
# Si number density = 9.876543 Si / 1000 Ang^3
#
#
#
# Elastic Constant Matrix: (Units=GPa)
#
#
# Indices 1 2 3 4 5 6 
#
# 1 192.1034 61.9796 78.1110 -0.0274 5.9391 0.0373
# 2 61.9796 162.7074 65.2351 -0.0153 1.8390 -0.0064
# 3 78.1110 65.2351 159.6204 0.0020 2.2669 0.0005
# 4 -0.0274 -0.0153 0.0020 53.6945 0.0037 -2.1476
# 5 5.9391 1.8390 2.2669 0.0037 52.1502 -0.0093
# 6 0.0373 -0.0064 0.0005 -2.1476 -0.0093 41.3363
#
#
#
# Elastic Compliance Matrix: (Units=1/GPa)
#
#
# Indices 1 2 3 4 5 6 
#
# 1 0.006811 -0.001501 -0.002711 0.000003 -0.000605 -0.000006
# 2 -0.001501 0.007682 -0.002405 0.000002 0.000005 0.000003
# 3 -0.002711 -0.002405 0.008574 -0.000002 0.000021 0.000002
# 4 0.000003 0.000002 -0.000002 0.018663 -0.000001 0.000970
# 5 -0.000605 0.000005 0.000021 -0.000001 0.019243 0.000005
# 6 -0.000006 0.000003 0.000002 0.000970 0.000005 0.024242
#
#
# Mechanical properties :
#
#
# Convention : Reuss Voigt Hill
#
# Bulk Modulus (GPa) = 101.69692 102.78696 102.24194
# Shear Modulus (GPa) = 49.15153 50.04324 49.59739
#
# Velocity S-wave (km/s) = 4.99369 5.03879 5.01629
# Velocity P-wave (km/s) = 9.21114 9.27369 9.24247
#
# Compressibility (1/GPa) = 0.00983314
#
# Stress axis : x y z
#
# Youngs Moduli (GPa) = 146.82796 130.17579 116.62906
#
# Poissons Ratio (x) = 0.19534 0.31618
# Poissons Ratio (y) = 0.22033 0.28052
# Poissons Ratio (z) = 0.39805 0.31311
#
# Static dielectric constant tensor:
#      x y z
#    x 4.116330 -0.000090 0.051830 
#    y -0.000090 4.125590 0.000050 
#    z 0.051830 0.000050 4.135950 
# 
# 
# High freq. dielectric constant tensor:
#      x y z
#    x 1.811190 0.000000 -0.000210 
#    y 0.000000 1.807880 0.000000 
#    z -0.000210 0.000000 1.807480 
# 
# From -- ./inp_files/259051.got.cif
#   From: 2010.06.25/outbox.ucp.g09.slc.cvg/sg15_130_cif.got.tgz:259051.got - 2010.06.28 14:40:10.
