data_PCOD8129531
_publ_section_title
;
Structure prediction by ZEFSAII (Michael W. Deem and Ramdas Pophale) SiO2 
 PCOD8129531
Probable space group: P 21/C
;
_chemical_formula_sum "Si O2"
_cell_formula_units_Z 32
_cell_length_a 15.000000
_cell_length_b 21.000000
_cell_length_c 15.000000
_cell_angle_alpha 90.000000
_cell_angle_beta 160.000000
_cell_angle_gamma 90.000000
_cell_volume 1616.045177
_symmetry_space_group_name_H-M "P 21/C"
_symmetry_group_IT_number 14
_symmetry_cell_setting 'monoclinic'
loop_
_space_group_symop_operation_xyz
x,y,z
-x,1/2+y,1/2-z
-x,-y,-z
x,1/2-y,1/2+z
loop_
_atom_site_type_symbol
_atom_site_label
_atom_site_fract_x
_atom_site_fract_y
_atom_site_fract_z
Si Si1 0.658326 0.315845 0.756017
Si Si2 0.376377 0.780530 0.979055
Si Si3 0.096144 0.535204 0.761720
Si Si4 0.303377 0.820610 0.110019
Si Si5 0.872553 0.708420 0.506588
Si Si6 0.882414 0.858511 0.191579
Si Si7 0.780562 0.602158 0.139065
Si Si8 0.330459 0.422108 0.762521
O O1 0.639059 0.318542 0.629366
O O2 0.645300 0.245493 0.788552
O O3 0.417628 0.361367 0.558650
O O4 0.926555 0.346619 0.044738
O O5 0.173599 0.723259 0.766056
O O6 0.282527 0.815914 0.981731
O O7 0.673524 0.761238 0.281459
O O8 0.138615 0.462948 0.836475
O O9 0.974111 0.577306 0.727283
O O10 0.881156 0.529534 0.479690
O O11 0.372641 0.565239 0.989869
O O12 0.545914 0.865544 0.364052
O O13 0.027472 0.850594 0.882012
O O14 0.879005 0.701545 0.620047
O O15 0.772946 0.645103 0.368084
O O16 0.675829 0.577629 0.136577
#
# Coordination Sequence:
#
# PCOD8129531 Si02
#       8
#     4   4   4   4   4   4   4   4
#     4  12  23  40  63  92 120 162 208 254 309 371
#     4  12  23  38  61  87 128 162 202 251 319 367
#     4  11  23  39  63  90 124 171 205 259 305 365
#     4  12  24  40  61  91 129 165 201 256 314 381
#     4  11  19  37  58  89 123 158 197 251 304 372
#     4  11  21  39  62  87 121 156 208 254 297 364
#     4  12  24  40  60  90 132 164 208 248 317 381
#     4  11  21  37  62  94 123 164 207 251 308 375
#
# _framework density 19.801427
#
# number of rings (size 3 to 8) (size 9 to 14) (size 15 to 20)
#    0.000    0.500    2.500    9.000    0.000    0.000 
#    0.000    0.000    0.000    4.500    0.000    0.000 
#    0.000    0.000    0.000    0.000    0.000    0.000 
#
# Total GULP energy -396519.276225 kJ/mol
# GULP energy per Si atom -12391.227382 kJ/mol
# Density = 1.975636 g / cm^3
# Si number density = 19.801427 Si / 1000 Ang^3
#
#
#
# Elastic Constant Matrix: (Units=GPa)
#
#
# Indices 1 2 3 4 5 6 
#
# 1 94.4859 13.2241 23.5052 0.0000 -14.1844 0.0000
# 2 13.2241 70.4039 19.5531 0.0000 3.0794 0.0000
# 3 23.5052 19.5531 154.4817 0.0000 -1.1254 0.0000
# 4 0.0000 0.0000 0.0000 32.8754 0.0000 -1.4915
# 5 -14.1844 3.0794 -1.1254 0.0000 49.6649 0.0000
# 6 0.0000 0.0000 0.0000 -1.4915 0.0000 22.3099
#
#
#
# Elastic Compliance Matrix: (Units=1/GPa)
#
#
# Indices 1 2 3 4 5 6 
#
# 1 0.011749 -0.001936 -0.001518 0.000000 0.003441 0.000000
# 2 -0.001936 0.015086 -0.001626 0.000000 -0.001525 0.000000
# 3 -0.001518 -0.001626 0.006909 0.000000 -0.000176 0.000000
# 4 0.000000 0.000000 0.000000 0.030510 0.000000 0.002040
# 5 0.003441 -0.001525 -0.000176 0.000000 0.021208 0.000000
# 6 0.000000 0.000000 0.000000 0.002040 0.000000 0.044960
#
#
# Mechanical properties :
#
#
# Convention : Reuss Voigt Hill
#
# Bulk Modulus (GPa) = 42.40111 47.99294 45.19702
# Shear Modulus (GPa) = 33.68336 38.50932 36.09634
#
# Velocity S-wave (km/s) = 4.12886 4.41474 4.27419
# Velocity P-wave (km/s) = 6.64753 7.09058 6.87263
#
# Compressibility (1/GPa) = 0.02358429
#
# Stress axis : x y z
#
# Youngs Moduli (GPa) = 85.11642 66.28814 144.74537
#
# Poissons Ratio (x) = 0.12832 0.21966
# Poissons Ratio (y) = 0.16477 0.23536
# Poissons Ratio (z) = 0.12917 0.10778
#
# Static dielectric constant tensor:
#      x y z
#    x 3.824420 0.000000 -0.078010 
#    y 0.000000 3.583560 0.000000 
#    z -0.078010 0.000000 4.378600 
# 
# 
# High freq. dielectric constant tensor:
#      x y z
#    x 1.775600 0.000000 -0.002670 
#    y 0.000000 1.754120 0.000000 
#    z -0.002670 0.000000 1.826080 
# 
# From -- ./inp_files/47630.got.cif
#   From: 2010.03.12/outbox.ucp.g09.slc.cvg/sg14_24_cif.got.tgz:47630.got - 2010.05.04 20:10:03.
