data_PCOD8129123
_publ_section_title
;
Structure prediction by ZEFSAII (Michael W. Deem and Ramdas Pophale) SiO2 
 PCOD8129123
Probable space group: P 21/C
;
_chemical_formula_sum "Si O2"
_cell_formula_units_Z 20
_cell_length_a 5.142645
_cell_length_b 10.745529
_cell_length_c 15.633643
_cell_angle_alpha 90.000000
_cell_angle_beta 94.792743
_cell_angle_gamma 90.000000
_cell_volume 860.901260
_symmetry_space_group_name_H-M "P 21/C"
_symmetry_group_IT_number 14
_symmetry_cell_setting 'monoclinic'
loop_
_space_group_symop_operation_xyz
x,y,z
-x,1/2+y,1/2-z
-x,-y,-z
x,1/2-y,1/2+z
loop_
_atom_site_type_symbol
_atom_site_label
_atom_site_fract_x
_atom_site_fract_y
_atom_site_fract_z
Si Si1 0.248941 0.770834 0.126719
Si Si2 0.455025 0.027632 0.110645
Si Si3 0.581002 0.024921 0.299087
Si Si4 0.065188 0.658570 0.447343
Si Si5 0.088329 0.859857 0.301073
O O1 0.394642 0.638261 0.133378
O O2 0.082365 0.792851 0.208578
O O3 0.467885 0.878615 0.123958
O O4 0.058444 0.773135 0.038939
O O5 0.506342 0.087055 0.205603
O O6 0.668535 0.077346 0.049924
O O7 0.169501 0.062401 0.068797
O O8 0.361393 0.930027 0.325979
O O9 0.858155 0.958704 0.298104
O O10 0.047614 0.759739 0.373231
#
# Coordination Sequence:
#
# PCOD8129123 Si02
#       5
#     4   4   4   4   4
#     4  11  26  43  74  98 136 183 221 275 342 391
#     4  11  24  45  68 104 135 172 228 279 330 395
#     4  11  25  45  70  98 136 184 218 274 338 401
#     4  12  25  45  70 103 137 172 226 280 332 397
#     4  11  26  44  68  99 139 173 230 275 329 401
#
# _framework density 23.231469000000001
#
# number of rings (size 3 to 8) (size 9 to 14) (size 15 to 20)
#    0.000    0.800    2.000    4.800    2.800    8.000 
#    0.000    0.000    0.000    0.000    0.000    0.000 
#    0.000    0.000    0.000    0.000    0.000    0.000 
#
# Total GULP energy -248125.633334 kJ/mol
# GULP energy per Si atom -12406.281667 kJ/mol
# Density = 2.317859 g / cm^3
# Si number density = 23.231469 Si / 1000 Ang^3
#
#
#
# Elastic Constant Matrix: (Units=GPa)
#
#
# Indices 1 2 3 4 5 6 
#
# 1 116.5289 26.8249 18.5915 0.0000 3.5896 0.0000
# 2 26.8249 77.9799 41.6136 0.0000 -5.0865 0.0000
# 3 18.5915 41.6136 140.6950 0.0000 1.1127 0.0000
# 4 0.0000 0.0000 0.0000 27.9410 0.0000 4.1248
# 5 3.5896 -5.0865 1.1127 0.0000 18.9120 0.0000
# 6 0.0000 0.0000 0.0000 4.1248 0.0000 25.1413
#
#
#
# Elastic Compliance Matrix: (Units=1/GPa)
#
#
# Indices 1 2 3 4 5 6 
#
# 1 0.009462 -0.003293 -0.000255 0.000000 -0.002667 0.000000
# 2 -0.003293 0.016741 -0.004559 0.000000 0.005396 0.000000
# 3 -0.000255 -0.004559 0.008503 0.000000 -0.001678 0.000000
# 4 0.000000 0.000000 0.000000 0.036678 0.000000 -0.006018
# 5 -0.002667 0.005396 -0.001678 0.000000 0.054933 0.000000
# 6 0.000000 0.000000 0.000000 -0.006018 0.000000 0.040762
#
#
# Mechanical properties :
#
#
# Convention : Reuss Voigt Hill
#
# Bulk Modulus (GPa) = 54.07641 56.58485 55.33063
# Shear Modulus (GPa) = 26.39094 30.94377 28.66736
#
# Velocity S-wave (km/s) = 3.37412 3.65358 3.51663
# Velocity P-wave (km/s) = 6.20543 6.49678 6.35277
#
# Compressibility (1/GPa) = 0.01849235
#
# Stress axis : x y z
#
# Youngs Moduli (GPa) = 105.68106 59.73190 117.60447
#
# Poissons Ratio (x) = 0.19668 0.03004
# Poissons Ratio (y) = 0.34798 0.53618
# Poissons Ratio (z) = 0.02699 0.27233
#
# Static dielectric constant tensor:
#      x y z
#    x 4.090890 0.000000 0.114180 
#    y 0.000000 4.160720 0.000000 
#    z 0.114180 0.000000 4.496570 
# 
# 
# High freq. dielectric constant tensor:
#      x y z
#    x 1.915470 0.000000 0.008270 
#    y 0.000000 1.922150 0.000000 
#    z 0.008270 0.000000 1.935300 
# 
# From -- ./inp_files/36870.got.cif
#   From: 2010.03.12/outbox.cif.g09.slc.cpg/sg14_19_cif.got.tgz:36870.got - 2010.03.31 13:35:05.
