data_PCOD8129982
_publ_section_title
;
Structure prediction by ZEFSAII (Michael W. Deem and Ramdas Pophale) SiO2 
 PCOD8129982
Probable space group: C 2/C
;
_chemical_formula_sum "Si O2"
_cell_formula_units_Z 60
_cell_length_a 8.508141
_cell_length_b 21.267413
_cell_length_c 20.740730
_cell_angle_alpha 90.000000
_cell_angle_beta 50.529180
_cell_angle_gamma 90.000000
_cell_volume 2897.087882
_symmetry_space_group_name_H-M "C 2/C"
_symmetry_group_IT_number 15
_symmetry_cell_setting 'monoclinic'
loop_
_space_group_symop_operation_xyz
x,y,z
-x,y,1/2-z
-x,-y,-z
x,-y,1/2+z
1/2+x,1/2+y,z
1/2-x,1/2+y,1/2-z
1/2-x,1/2-y,-z
1/2+x,1/2-y,1/2+z
loop_
_atom_site_type_symbol
_atom_site_label
_atom_site_fract_x
_atom_site_fract_y
_atom_site_fract_z
Si Si1 0.867863 0.393498 0.091754
Si Si2 0.352256 0.060995 0.736904
Si Si3 0.270141 0.716309 0.303877
Si Si4 0.442825 0.491865 0.339371
Si Si5 0.085792 0.219471 0.658133
Si Si6 0.500000 0.057613 0.250000
Si Si7 0.792519 0.874101 0.916671
Si Si8 0.296531 0.664417 0.156080
O O1 0.859971 0.396328 0.171417
O O2 0.769880 0.457300 0.089583
O O3 0.740619 0.334949 0.096502
O O4 0.099695 0.389100 0.010033
O O5 0.500000 0.095949 0.750000
O O6 0.123741 0.049388 0.825371
O O7 0.433524 0.988312 0.707463
O O8 0.500000 0.743986 0.250000
O O9 0.226564 0.666289 0.371754
O O10 0.239962 0.680888 0.244369
O O11 0.099184 0.772021 0.346012
O O12 0.500000 0.488786 0.250000
O O13 0.418772 0.563662 0.365528
O O14 0.212108 0.284237 0.628576
O O15 0.000000 0.199650 0.750000
O O16 0.685206 0.098298 0.172562
O O17 0.958702 0.836817 0.916451
#
# Coordination Sequence:
#
# PCOD8129982 Si02
#       8
#     8   8   8   8   8   4   8   8
#     4  11  24  37  52  83 124 157 177 237 305 350
#     4   9  20  36  61  81 106 150 201 238 280 341
#     4   9  19  33  61  89 108 148 202 241 268 335
#     4  10  19  36  58  80 112 154 196 239 281 337
#     4  10  20  38  58  80 114 151 198 231 285 339
#     4  10  16  34  64  88 100 136 202 256 272 320
#     4  11  21  35  56  88 119 145 195 238 295 334
#     4  10  18  35  62  85 108 147 194 248 281 322
#
# _framework density 20.710452
#
# number of rings (size 3 to 8) (size 9 to 14) (size 15 to 20)
#    0.400    1.600    3.333    2.800    1.867    1.067 
#    0.000   14.000    0.000    0.000    0.000    0.000 
#    0.000    0.000    0.000    0.000    0.000    0.000 
#
# Total GULP energy -371680.576321 kJ/mol
# GULP energy per Si atom -12389.352544 kJ/mol
# Density = 2.066331 g / cm^3
# Si number density = 20.710452 Si / 1000 Ang^3
#
#
#
# Elastic Constant Matrix: (Units=GPa)
#
#
# Indices 1 2 3 4 5 6 
#
# 1 124.1059 32.4155 30.4790 0.0000 -22.1898 0.0000
# 2 32.4155 67.9571 22.4329 0.0000 -6.6368 0.0000
# 3 30.4790 22.4329 61.7015 0.0000 -27.2932 0.0000
# 4 0.0000 0.0000 0.0000 14.6528 0.0000 -9.2378
# 5 -22.1898 -6.6368 -27.2932 0.0000 30.2340 0.0000
# 6 0.0000 0.0000 0.0000 -9.2378 0.0000 34.0965
#
#
#
# Elastic Compliance Matrix: (Units=1/GPa)
#
#
# Indices 1 2 3 4 5 6 
#
# 1 0.010416 -0.004030 -0.001148 0.000000 0.005723 0.000000
# 2 -0.004030 0.018450 -0.007048 0.000000 -0.005271 0.000000
# 3 -0.001148 -0.007048 0.030432 0.000000 0.025082 0.000000
# 4 0.000000 0.000000 0.000000 0.082305 0.000000 0.022299
# 5 0.005723 -0.005271 0.025082 0.000000 0.058761 0.000000
# 6 0.000000 0.000000 0.000000 0.022299 0.000000 0.035370
#
#
# Mechanical properties :
#
#
# Convention : Reuss Voigt Hill
#
# Bulk Modulus (GPa) = 28.70008 47.15768 37.92888
# Shear Modulus (GPa) = 18.39586 27.02580 22.71083
#
# Velocity S-wave (km/s) = 2.98357 3.61631 3.31507
# Velocity P-wave (km/s) = 5.07511 6.34479 5.74513
#
# Compressibility (1/GPa) = 0.03484310
#
# Stress axis : x y z
#
# Youngs Moduli (GPa) = 96.01012 54.20195 32.86065
#
# Poissons Ratio (x) = 0.21845 0.03773
# Poissons Ratio (y) = 0.38695 0.23161
# Poissons Ratio (z) = 0.11023 0.38203
#
# Static dielectric constant tensor:
#      x y z
#    x 4.287510 0.000000 -0.374540 
#    y 0.000000 3.709250 0.000000 
#    z -0.374540 0.000000 3.219210 
# 
# 
# High freq. dielectric constant tensor:
#      x y z
#    x 1.831040 0.000000 -0.034210 
#    y 0.000000 1.810350 0.000000 
#    z -0.034210 0.000000 1.754170 
# 
# From -- ./inp_files/234058.got.cif
#   From: 2010.06.25/outbox.cif.g09.slc.cpg/sg15_118_cif.got.tgz:234058.got - 2010.06.28 07:06:18.
