data_PCOD8129799
_publ_section_title
;
Structure prediction by ZEFSAII (Michael W. Deem and Ramdas Pophale) SiO2 
 PCOD8129799
Probable space group: C 2/C
;
_chemical_formula_sum "Si O2"
_cell_formula_units_Z 44
_cell_length_a 21.220675
_cell_length_b 21.245198
_cell_length_c 5.142433
_cell_angle_alpha 90.000000
_cell_angle_beta 66.495455
_cell_angle_gamma 90.000000
_cell_volume 2126.039965
_symmetry_space_group_name_H-M "C 2/C"
_symmetry_group_IT_number 15
_symmetry_cell_setting 'monoclinic'
loop_
_space_group_symop_operation_xyz
x,y,z
-x,y,1/2-z
-x,-y,-z
x,-y,1/2+z
1/2+x,1/2+y,z
1/2-x,1/2+y,1/2-z
1/2-x,1/2-y,-z
1/2+x,1/2-y,1/2+z
loop_
_atom_site_type_symbol
_atom_site_label
_atom_site_fract_x
_atom_site_fract_y
_atom_site_fract_z
Si Si1 0.248471 0.162926 0.259926
Si Si2 0.457267 0.835702 0.076547
Si Si3 0.000000 0.042197 0.750000
Si Si4 0.319045 0.794321 0.129203
Si Si5 0.076765 0.526461 0.839560
Si Si6 0.349706 0.544193 0.023817
O O1 0.309194 0.166297 0.377372
O O2 0.200061 0.222489 0.391685
O O3 0.206567 0.098882 0.365428
O O4 0.276656 0.169043 0.921550
O O5 0.500000 0.807111 0.250000
O O6 0.397977 0.788239 0.088496
O O7 0.422487 0.900302 0.230734
O O8 0.500000 0.851555 0.750000
O O9 0.073894 0.078348 0.614529
O O10 0.000000 0.000000 0.500000
O O11 0.116214 0.489829 0.542197
O O12 0.000000 0.500000 0.000000
O O13 0.339916 0.497964 0.283922
#
# Coordination Sequence:
#
# PCOD8129799 Si02
#       6
#     8   8   4   8   8   8
#     4  10  21  43  62  80 120 159 201 234 290 360
#     4  12  21  35  58  82 114 142 196 249 281 333
#     4   8  16  30  52  86 114 152 174 220 310 366
#     4  10  23  40  62  83 112 169 200 233 297 347
#     4  10  16  30  48  70 103 152 175 207 293 330
#     4  10  19  35  63  89 123 149 190 247 302 354
#
# _framework density 20.695754999999998
#
# number of rings (size 3 to 8) (size 9 to 14) (size 15 to 20)
#    0.000    1.818    3.636    2.182    0.000    0.000 
#    1.636    5.455    8.000    0.000    0.000    0.000 
#    0.000    0.000    0.000    0.000    0.000    0.000 
#
# Total GULP energy -272553.488243 kJ/mol
# GULP energy per Si atom -12388.794920 kJ/mol
# Density = 2.064865 g / cm^3
# Si number density = 20.695755 Si / 1000 Ang^3
#
#
#
# Elastic Constant Matrix: (Units=GPa)
#
#
# Indices 1 2 3 4 5 6 
#
# 1 108.2881 41.5136 24.8001 0.0000 20.8607 0.0000
# 2 41.5136 69.6087 26.7712 0.0000 -0.7168 0.0000
# 3 24.8001 26.7712 103.7462 0.0000 36.1725 0.0000
# 4 0.0000 0.0000 0.0000 18.9292 0.0000 2.9656
# 5 20.8607 -0.7168 36.1725 0.0000 35.9453 0.0000
# 6 0.0000 0.0000 0.0000 2.9656 0.0000 23.1211
#
#
#
# Elastic Compliance Matrix: (Units=1/GPa)
#
#
# Indices 1 2 3 4 5 6 
#
# 1 0.014697 -0.010166 0.003319 0.000000 -0.012073 0.000000
# 2 -0.010166 0.024164 -0.009290 0.000000 0.015730 0.000000
# 3 0.003319 -0.009290 0.018454 0.000000 -0.020682 0.000000
# 4 0.000000 0.000000 0.000000 0.053912 0.000000 -0.006915
# 5 -0.012073 0.015730 -0.020682 0.000000 0.055952 0.000000
# 6 0.000000 0.000000 0.000000 -0.006915 0.000000 0.044137
#
#
# Mechanical properties :
#
#
# Convention : Reuss Voigt Hill
#
# Bulk Modulus (GPa) = 39.93375 51.97919 45.95647
# Shear Modulus (GPa) = 19.84625 28.16968 24.00796
#
# Velocity S-wave (km/s) = 3.10006 3.69336 3.40964
# Velocity P-wave (km/s) = 5.67021 6.58470 6.14449
#
# Compressibility (1/GPa) = 0.02504148
#
# Stress axis : x y z
#
# Youngs Moduli (GPa) = 68.03885 41.38429 54.19006
#
# Poissons Ratio (x) = 0.42072 -0.17987
# Poissons Ratio (y) = 0.69170 0.50341
# Poissons Ratio (z) = -0.22584 0.38445
#
# Static dielectric constant tensor:
#      x y z
#    x 4.007920 0.000000 0.042890 
#    y 0.000000 3.406990 0.000000 
#    z 0.042890 0.000000 3.128510 
# 
# 
# High freq. dielectric constant tensor:
#      x y z
#    x 1.805880 0.000000 0.023650 
#    y 0.000000 1.774440 0.000000 
#    z 0.023650 0.000000 1.832930 
# 
# From -- ./inp_files/12867.got.cif
#   From: 2010.06.25/outbox.cif.g09.slc.cpg/sg15_7_cif.got.tgz:12867.got - 2010.06.28 07:06:18.
