data_PCOD8129879
_publ_section_title
;
Structure prediction by ZEFSAII (Michael W. Deem and Ramdas Pophale) SiO2 
 PCOD8129879
Probable space group: C 2/C
;
_chemical_formula_sum "Si O2"
_cell_formula_units_Z 56
_cell_length_a 20.310491
_cell_length_b 12.464325
_cell_length_c 27.796001
_cell_angle_alpha 90.000000
_cell_angle_beta 27.971692
_cell_angle_gamma 90.000000
_cell_volume 3300.479250
_symmetry_space_group_name_H-M "C 2/C"
_symmetry_group_IT_number 15
_symmetry_cell_setting 'monoclinic'
loop_
_space_group_symop_operation_xyz
x,y,z
-x,y,1/2-z
-x,-y,-z
x,-y,1/2+z
1/2+x,1/2+y,z
1/2-x,1/2+y,1/2-z
1/2-x,1/2-y,-z
1/2+x,1/2-y,1/2+z
loop_
_atom_site_type_symbol
_atom_site_label
_atom_site_fract_x
_atom_site_fract_y
_atom_site_fract_z
Si Si1 0.105572 0.035380 0.725528
Si Si2 0.619341 0.366696 0.793742
Si Si3 0.083730 0.466656 0.993248
Si Si4 0.505353 0.732316 0.036155
Si Si5 0.186253 0.225843 0.735656
Si Si6 0.643283 0.047724 0.293024
Si Si7 0.783167 0.837998 0.176617
O O1 0.104109 0.152123 0.751187
O O2 0.000000 0.038621 0.750000
O O3 0.052276 0.943434 0.796853
O O4 0.260446 0.011625 0.606766
O O5 0.755426 0.426994 0.727240
O O6 0.670804 0.255154 0.736596
O O7 0.507415 0.342545 0.908243
O O8 0.093796 0.338276 0.991143
O O9 0.000000 0.500000 0.000000
O O10 0.006981 0.513094 0.089692
O O11 0.583265 0.664642 0.944755
O O12 0.352060 0.769335 0.116808
O O13 0.123783 0.346211 0.773006
O O14 0.163648 0.176379 0.803177
O O15 0.708636 0.952984 0.218491
#
# Coordination Sequence:
#
# PCOD8129879 Si02
#       7
#     8   8   8   8   8   8   8
#     4  12  24  39  56  81 118 151 186 231 275 340
#     4  10  19  33  52  87 117 133 193 230 279 327
#     4  12  16  34  61  83 104 148 196 219 281 331
#     4  10  18  29  60  90 109 143 180 242 286 322
#     4  10  21  33  51  88 116 140 190 226 278 339
#     4  10  18  32  57  85 111 140 180 247 271 323
#     4  10  16  31  57  90 114 132 181 251 282 309
#
# _framework density 16.967233
#
# number of rings (size 3 to 8) (size 9 to 14) (size 15 to 20)
#    0.000    1.714    8.571    0.857    0.000    2.286 
#    0.000    1.429    0.000    0.857    0.000    0.000 
#    0.000    0.000    0.000    0.000    0.000    0.000 
#
# Total GULP energy -347170.478401 kJ/mol
# GULP energy per Si atom -12398.945657 kJ/mol
# Density = 1.692861 g / cm^3
# Si number density = 16.967233 Si / 1000 Ang^3
#
#
#
# Elastic Constant Matrix: (Units=GPa)
#
#
# Indices 1 2 3 4 5 6 
#
# 1 94.3760 54.9025 44.1481 -0.0006 1.4479 0.0002
# 2 54.9025 136.7746 47.7151 -0.0012 7.5073 0.0014
# 3 44.1481 47.7151 132.1996 -0.0011 16.0870 0.0025
# 4 -0.0006 -0.0012 -0.0011 28.0140 0.0006 7.1744
# 5 1.4479 7.5073 16.0870 0.0006 16.1165 -0.0005
# 6 0.0002 0.0014 0.0025 7.1744 -0.0005 20.3921
#
#
#
# Elastic Compliance Matrix: (Units=1/GPa)
#
#
# Indices 1 2 3 4 5 6 
#
# 1 0.015264 -0.005044 -0.003866 0.000000 0.004837 0.000001
# 2 -0.005044 0.010046 -0.001624 0.000000 -0.002605 -0.000001
# 3 -0.003866 -0.001624 0.010594 0.000001 -0.009471 -0.000002
# 4 0.000000 0.000000 0.000001 0.039231 -0.000003 -0.013802
# 5 0.004837 -0.002605 -0.009471 -0.000003 0.072281 0.000004
# 6 0.000001 -0.000001 -0.000002 -0.013802 0.000004 0.053895
#
#
# Mechanical properties :
#
#
# Convention : Reuss Voigt Hill
#
# Bulk Modulus (GPa) = 67.40379 72.98687 70.19533
# Shear Modulus (GPa) = 21.99506 27.34348 24.66927
#
# Velocity S-wave (km/s) = 3.60436 4.01876 3.81719
# Velocity P-wave (km/s) = 7.55870 8.04013 7.80313
#
# Compressibility (1/GPa) = 0.01483596
#
# Stress axis : x y z
#
# Youngs Moduli (GPa) = 65.51195 99.54476 94.39367
#
# Poissons Ratio (x) = 0.50213 0.36488
# Poissons Ratio (y) = 0.33046 0.15333
# Poissons Ratio (z) = 0.25324 0.16169
#
# Static dielectric constant tensor:
#      x y z
#    x 2.649630 0.000000 0.113230 
#    y 0.000000 3.519570 0.000000 
#    z 0.113230 0.000000 3.377880 
# 
# 
# High freq. dielectric constant tensor:
#      x y z
#    x 1.584160 0.000000 0.019930 
#    y 0.000000 1.676400 0.000000 
#    z 0.019930 0.000000 1.662480 
# 
# From -- ./inp_files/300714.got.cif
#   From: 2010.06.25/outbox.cif.g09.slc.cpg/sg15_151_cif.got.tgz:300714.got - 2010.06.28 07:06:18.
