data_PCOD8129323
_publ_section_title
;
Structure prediction by ZEFSAII (Michael W. Deem and Ramdas Pophale) SiO2 
 PCOD8129323
Probable space group: P 21/C
;
_chemical_formula_sum "Si O2"
_cell_formula_units_Z 16
_cell_length_a 4.880367
_cell_length_b 13.972119
_cell_length_c 8.938901
_cell_angle_alpha 90.000000
_cell_angle_beta 91.745106
_cell_angle_gamma 90.000000
_cell_volume 609.252627
_symmetry_space_group_name_H-M "P 21/C"
_symmetry_group_IT_number 14
_symmetry_cell_setting 'monoclinic'
loop_
_space_group_symop_operation_xyz
x,y,z
-x,1/2+y,1/2-z
-x,-y,-z
x,1/2-y,1/2+z
loop_
_atom_site_type_symbol
_atom_site_label
_atom_site_fract_x
_atom_site_fract_y
_atom_site_fract_z
Si Si1 0.186238 0.635037 0.419546
Si Si2 0.947984 0.842344 0.458877
Si Si3 0.166572 0.963464 0.215777
Si Si4 0.459529 0.601506 0.140488
O O1 0.035915 0.734166 0.440344
O O2 0.297458 0.596310 0.580419
O O3 0.437693 0.649119 0.306695
O O4 0.977557 0.558459 0.346392
O O5 0.948974 0.895965 0.298950
O O6 0.153126 0.902383 0.569574
O O7 0.651196 0.837697 0.532347
O O8 0.414641 0.994525 0.333117
#
# Coordination Sequence:
#
# PCOD8129323 Si02
#       4
#     4   4   4   4
#     4  11  27  50  75 112 152 192 243 306 368 434
#     4  12  28  48  78 109 148 196 247 299 363 442
#     4  11  26  49  76 111 150 192 245 303 371 432
#     4  12  26  50  73 109 147 195 246 300 365 431
#
# _framework density 26.261687999999999
#
# number of rings (size 3 to 8) (size 9 to 14) (size 15 to 20)
#    0.000    0.500    2.500    3.750    7.000    0.000 
#    4.500    0.000    0.000    0.000    0.000    0.000 
#    0.000    0.000    0.000    0.000    0.000    0.000 
#
# Total GULP energy -198411.446042 kJ/mol
# GULP energy per Si atom -12400.715378 kJ/mol
# Density = 2.620191 g / cm^3
# Si number density = 26.261688 Si / 1000 Ang^3
#
#
#
# Elastic Constant Matrix: (Units=GPa)
#
#
# Indices 1 2 3 4 5 6 
#
# 1 68.8565 -2.8674 19.9687 0.0000 -13.5492 0.0000
# 2 -2.8674 94.2757 33.2511 0.0000 13.4855 0.0000
# 3 19.9687 33.2511 164.4059 0.0000 -40.5815 0.0000
# 4 0.0000 0.0000 0.0000 34.6394 0.0000 1.7093
# 5 -13.5492 13.4855 -40.5815 0.0000 43.2701 0.0000
# 6 0.0000 0.0000 0.0000 1.7093 0.0000 24.8602
#
#
#
# Elastic Compliance Matrix: (Units=1/GPa)
#
#
# Indices 1 2 3 4 5 6 
#
# 1 0.015583 0.000272 -0.000994 0.000000 0.003862 0.000000
# 2 0.000272 0.013629 -0.004967 0.000000 -0.008820 0.000000
# 3 -0.000994 -0.004967 0.009776 0.000000 0.010405 0.000000
# 4 0.000000 0.000000 0.000000 0.028967 0.000000 -0.001992
# 5 0.003862 -0.008820 0.010405 0.000000 0.036828 0.000000
# 6 0.000000 0.000000 0.000000 -0.001992 0.000000 0.040362
#
#
# Mechanical properties :
#
#
# Convention : Reuss Voigt Hill
#
# Bulk Modulus (GPa) = 36.21884 47.58253 41.90069
# Shear Modulus (GPa) = 30.17031 39.03297 34.60164
#
# Velocity S-wave (km/s) = 3.39312 3.85945 3.63377
# Velocity P-wave (km/s) = 5.40116 6.16591 5.79616
#
# Compressibility (1/GPa) = 0.02760994
#
# Stress axis : x y z
#
# Youngs Moduli (GPa) = 64.17411 73.37318 102.28866
#
# Poissons Ratio (x) = -0.01998 0.10172
# Poissons Ratio (y) = -0.01747 0.50804
# Poissons Ratio (z) = 0.06382 0.36443
#
# Static dielectric constant tensor:
#      x y z
#    x 4.480470 0.000000 -0.196320 
#    y 0.000000 4.518570 0.000000 
#    z -0.196320 0.000000 5.751810 
# 
# 
# High freq. dielectric constant tensor:
#      x y z
#    x 2.032700 0.000000 -0.014040 
#    y 0.000000 2.047030 0.000000 
#    z -0.014040 0.000000 2.090860 
# 
# From -- ./inp_files/4981.got.cif
#   From: 2010.03.12/outbox.cif.g09.slc.cpg/sg14_3_cif.got.tgz:4981.got - 2010.03.31 13:35:05.
