data_PCOD8129632
_publ_section_title
;
Structure prediction by ZEFSAII (Michael W. Deem and Ramdas Pophale) SiO2 
 PCOD8129632
Probable space group: C 2/C
;
_chemical_formula_sum "Si O2"
_cell_formula_units_Z 60
_cell_length_a 20.650400
_cell_length_b 8.110613
_cell_length_c 22.203326
_cell_angle_alpha 90.000000
_cell_angle_beta 65.621846
_cell_angle_gamma 90.000000
_cell_volume 3387.215319
_symmetry_space_group_name_H-M "C 2/C"
_symmetry_group_IT_number 15
_symmetry_cell_setting 'monoclinic'
loop_
_space_group_symop_operation_xyz
x,y,z
-x,y,1/2-z
-x,-y,-z
x,-y,1/2+z
1/2+x,1/2+y,z
1/2-x,1/2+y,1/2-z
1/2-x,1/2-y,-z
1/2+x,1/2-y,1/2+z
loop_
_atom_site_type_symbol
_atom_site_label
_atom_site_fract_x
_atom_site_fract_y
_atom_site_fract_z
Si Si1 0.313395 0.259384 0.134768
Si Si2 0.322295 0.824493 0.501221
Si Si3 0.733923 0.072218 0.151710
Si Si4 0.241510 0.346379 0.442091
Si Si5 0.000000 0.575279 0.250000
Si Si6 0.113996 0.364369 0.142363
Si Si7 0.122792 0.240626 0.768932
Si Si8 0.174203 0.948711 0.675216
O O1 0.342519 0.271535 0.054877
O O2 0.283898 0.438999 0.163609
O O3 0.376917 0.235277 0.158601
O O4 0.251816 0.120622 0.164743
O O5 0.250000 0.750000 0.500000
O O6 0.385971 0.811274 0.428171
O O7 0.316938 0.014535 0.524094
O O8 0.780783 0.212081 0.099951
O O9 0.688404 0.149862 0.222242
O O10 0.682224 0.983333 0.123181
O O11 0.250000 0.250000 0.500000
O O12 0.313833 0.434720 0.388641
O O13 0.042756 0.459017 0.187654
O O14 0.048984 0.692885 0.271370
O O15 0.121660 0.201690 0.180319
O O16 0.136041 0.052118 0.742708
#
# Coordination Sequence:
#
# PCOD8129632 Si02
#       8
#     8   8   8   8   4   8   8   8
#     4  10  18  31  52  82 112 134 165 225 282 318
#     4  11  17  30  53  81 111 134 169 219 283 327
#     4   9  17  28  49  76 109 136 167 218 270 319
#     4  10  15  24  46  81 112 131 161 205 273 322
#     4  10  24  38  54  70 104 152 190 220 246 312
#     4  10  18  35  51  77 103 141 183 213 261 322
#     4  10  20  35  50  76 106 143 185 215 259 315
#     4   9  19  30  54  80 106 136 169 225 273 317
#
# _framework density 17.713664999999999
#
# number of rings (size 3 to 8) (size 9 to 14) (size 15 to 20)
#    0.000    2.133    5.333    0.800    0.000    0.533 
#    0.000    2.000    0.000    0.000    0.000    2.800 
#    0.000    0.000    0.000    0.000    0.000    0.000 
#
# Total GULP energy -371735.622820 kJ/mol
# GULP energy per Si atom -12391.187427 kJ/mol
# Density = 1.767335 g / cm^3
# Si number density = 17.713665 Si / 1000 Ang^3
#
#
#
# Elastic Constant Matrix: (Units=GPa)
#
#
# Indices 1 2 3 4 5 6 
#
# 1 73.5722 32.8420 52.2970 -0.0004 11.7273 -0.0006
# 2 32.8420 103.7797 33.4711 -0.0010 4.4773 -0.0009
# 3 52.2970 33.4711 113.0067 -0.0003 18.2516 -0.0005
# 4 -0.0004 -0.0010 -0.0003 28.5527 -0.0002 -5.5097
# 5 11.7273 4.4773 18.2516 -0.0002 24.9656 -0.0003
# 6 -0.0006 -0.0009 -0.0005 -5.5097 -0.0003 14.3228
#
#
#
# Elastic Compliance Matrix: (Units=1/GPa)
#
#
# Indices 1 2 3 4 5 6 
#
# 1 0.021920 -0.004086 -0.008378 0.000000 -0.003439 0.000000
# 2 -0.004086 0.011420 -0.001667 0.000000 0.001090 0.000001
# 3 -0.008378 -0.001667 0.014215 0.000000 -0.006157 0.000000
# 4 0.000000 0.000000 0.000000 0.037831 0.000000 0.014553
# 5 -0.003439 0.001090 -0.006157 0.000000 0.045976 0.000001
# 6 0.000000 0.000001 0.000000 0.014553 0.000001 0.075417
#
#
# Mechanical properties :
#
#
# Convention : Reuss Voigt Hill
#
# Bulk Modulus (GPa) = 51.84003 58.61986 55.22995
# Shear Modulus (GPa) = 20.70628 25.01811 22.86219
#
# Velocity S-wave (km/s) = 3.42269 3.76222 3.59646
# Velocity P-wave (km/s) = 6.70439 7.21368 6.96369
#
# Compressibility (1/GPa) = 0.01929011
#
# Stress axis : x y z
#
# Youngs Moduli (GPa) = 45.62088 87.56834 70.34969
#
# Poissons Ratio (x) = 0.35782 0.58942
# Poissons Ratio (y) = 0.18641 0.11731
# Poissons Ratio (z) = 0.38223 0.14602
#
# Static dielectric constant tensor:
#      x y z
#    x 2.730170 0.000000 0.088950 
#    y 0.000000 3.691390 0.000000 
#    z 0.088950 0.000000 3.430810 
# 
# 
# High freq. dielectric constant tensor:
#      x y z
#    x 1.611600 0.000000 0.014060 
#    y 0.000000 1.707770 0.000000 
#    z 0.014060 0.000000 1.692100 
# 
# From -- ./inp_files/254670.got.cif
#   From: 2010.06.25/outbox.cif.g09.slc.cpg/sg15_128_cif.got.tgz:254670.got - 2010.06.28 07:06:18.
