data_PCOD8129300
_publ_section_title
;
Structure prediction by ZEFSAII (Michael W. Deem and Ramdas Pophale) SiO2 
 PCOD8129300
Probable space group: P 21/C
;
_chemical_formula_sum "Si O2"
_cell_formula_units_Z 32
_cell_length_a 21.898186
_cell_length_b 12.386855
_cell_length_c 26.988021
_cell_angle_alpha 90.000000
_cell_angle_beta 10.929115
_cell_angle_gamma 90.000000
_cell_volume 1387.924196
_symmetry_space_group_name_H-M "P 21/C"
_symmetry_group_IT_number 14
_symmetry_cell_setting 'monoclinic'
loop_
_space_group_symop_operation_xyz
x,y,z
-x,1/2+y,1/2-z
-x,-y,-z
x,1/2-y,1/2+z
loop_
_atom_site_type_symbol
_atom_site_label
_atom_site_fract_x
_atom_site_fract_y
_atom_site_fract_z
Si Si1 0.157945 0.595046 0.652679
Si Si2 0.685281 0.201944 0.824576
Si Si3 0.052507 0.092047 0.313705
Si Si4 0.602852 0.309250 0.988256
Si Si5 0.155884 0.676832 0.510071
Si Si6 0.863465 0.173911 0.090149
Si Si7 0.303337 0.046194 0.566152
Si Si8 0.684861 0.923279 0.657284
O O1 0.053922 0.496206 0.769603
O O2 0.194469 0.708903 0.651669
O O3 0.502627 0.569125 0.354296
O O4 0.887982 0.604420 0.825887
O O5 0.590145 0.297902 0.938720
O O6 0.693633 0.236757 0.760471
O O7 0.027990 0.160764 0.568853
O O8 0.413114 0.109834 0.047167
O O9 0.895932 0.206383 0.422376
O O10 0.824530 0.043092 0.537904
O O11 0.781320 0.419896 0.861161
O O12 0.243878 0.320615 0.296768
O O13 0.216350 0.693711 0.403673
O O14 0.459849 0.616045 0.291381
O O15 0.830648 0.606053 0.777699
O O16 0.686958 0.063562 0.250260
#
# Coordination Sequence:
#
# PCOD8129300 Si02
#       8
#     4   4   4   4   4   4   4   4
#     4  11  27  45  76 110 144 201 240 302 380 436
#     4  12  26  45  75 107 153 190 247 308 362 440
#     4  12  25  47  75 104 151 187 243 305 364 442
#     4  12  26  47  73 112 150 192 251 306 365 445
#     4  11  27  49  72 112 144 193 253 294 371 439
#     4  12  24  47  76 107 141 203 242 306 367 433
#     4  11  27  48  75 107 153 194 248 309 368 441
#     4  11  26  46  71 109 146 197 240 300 373 435
#
# _framework density 23.056014999999999
#
# number of rings (size 3 to 8) (size 9 to 14) (size 15 to 20)
#    0.000    0.500    5.000    1.500    5.250    5.500 
#    0.000    0.000    0.000    0.000    0.000    0.000 
#    0.000    0.000    0.000    0.000    0.000    0.000 
#
# Total GULP energy -396696.239258 kJ/mol
# GULP energy per Si atom -12396.757477 kJ/mol
# Density = 2.300354 g / cm^3
# Si number density = 23.056015 Si / 1000 Ang^3
#
#
#
# Elastic Constant Matrix: (Units=GPa)
#
#
# Indices 1 2 3 4 5 6 
#
# 1 103.5451 52.4621 33.2654 0.0000 12.4636 0.0000
# 2 52.4621 156.7529 36.0292 0.0000 20.1673 0.0000
# 3 33.2654 36.0292 105.5098 0.0000 17.3858 0.0000
# 4 0.0000 0.0000 0.0000 37.8482 0.0000 2.0773
# 5 12.4636 20.1673 17.3858 0.0000 32.8628 0.0000
# 6 0.0000 0.0000 0.0000 2.0773 0.0000 26.2063
#
#
#
# Elastic Compliance Matrix: (Units=1/GPa)
#
#
# Indices 1 2 3 4 5 6 
#
# 1 0.012336 -0.003386 -0.002525 0.000000 -0.001265 0.000000
# 2 -0.003386 0.008191 -0.001219 0.000000 -0.003098 0.000000
# 3 -0.002525 -0.001219 0.011403 0.000000 -0.004327 0.000000
# 4 0.000000 0.000000 0.000000 0.026537 0.000000 -0.002103
# 5 -0.001265 -0.003098 -0.004327 0.000000 0.035100 0.000000
# 6 0.000000 0.000000 0.000000 -0.002103 0.000000 0.038326
#
#
# Mechanical properties :
#
#
# Convention : Reuss Voigt Hill
#
# Bulk Modulus (GPa) = 56.58846 67.70234 62.14540
# Shear Modulus (GPa) = 32.88544 35.65353 34.26948
#
# Velocity S-wave (km/s) = 3.78077 3.93668 3.85951
# Velocity P-wave (km/s) = 6.60728 7.07752 6.84644
#
# Compressibility (1/GPa) = 0.01767145
#
# Stress axis : x y z
#
# Youngs Moduli (GPa) = 81.06066 122.07955 87.69479
#
# Poissons Ratio (x) = 0.41332 0.22142
# Poissons Ratio (y) = 0.27444 0.10693
# Poissons Ratio (z) = 0.20467 0.14885
#
# Static dielectric constant tensor:
#      x y z
#    x 4.185850 0.000000 0.322870 
#    y 0.000000 4.101950 0.000000 
#    z 0.322870 0.000000 4.452610 
# 
# 
# High freq. dielectric constant tensor:
#      x y z
#    x 1.908970 0.000000 0.014290 
#    y 0.000000 1.907480 0.000000 
#    z 0.014290 0.000000 1.930250 
# 
# From -- ./inp_files/80683.got.cif
#   From: 2010.03.12/outbox.cif.g09.slc.cpg/sg14_41_cif.got.tgz:80683.got - 2010.03.31 13:35:05.
