data_PCOD8129662
_publ_section_title
;
Structure prediction by ZEFSAII (Michael W. Deem and Ramdas Pophale) SiO2 
 PCOD8129662
Probable space group: C 2/C
;
_chemical_formula_sum "Si O2"
_cell_formula_units_Z 52
_cell_length_a 10.379418
_cell_length_b 16.519005
_cell_length_c 20.100000
_cell_angle_alpha 90.000000
_cell_angle_beta 115.608954
_cell_angle_gamma 90.000000
_cell_volume 3107.751715
_symmetry_space_group_name_H-M "C 2/C"
_symmetry_group_IT_number 15
_symmetry_cell_setting 'monoclinic'
loop_
_space_group_symop_operation_xyz
x,y,z
-x,y,1/2-z
-x,-y,-z
x,-y,1/2+z
1/2+x,1/2+y,z
1/2-x,1/2+y,1/2-z
1/2-x,1/2-y,-z
1/2+x,1/2-y,1/2+z
loop_
_atom_site_type_symbol
_atom_site_label
_atom_site_fract_x
_atom_site_fract_y
_atom_site_fract_z
Si Si1 0.722145 0.340409 0.913569
Si Si2 0.500000 0.919805 0.750000
Si Si3 0.115921 0.670820 0.720065
Si Si4 0.265623 0.957840 0.166192
Si Si5 0.966115 0.050796 0.314364
Si Si6 0.276103 0.825922 0.778162
Si Si7 0.634368 0.159660 0.922371
O O1 0.603785 0.410684 0.880524
O O2 0.803224 0.326098 0.862916
O O3 0.657581 0.255162 0.920827
O O4 0.834115 0.368931 0.995442
O O5 0.422656 0.860207 0.783414
O O6 0.616065 0.971884 0.817719
O O7 0.187309 0.586843 0.756004
O O8 0.241171 0.736840 0.741599
O O9 0.000000 0.700359 0.750000
O O10 0.033291 0.649985 0.633023
O O11 0.266013 0.895224 0.104481
O O12 0.107046 0.991666 0.147132
O O13 0.859424 0.122238 0.272507
O O14 0.000000 0.007867 0.250000
#
# Coordination Sequence:
#
# PCOD8129662 Si02
#       7
#     8   4   8   8   8   8   8
#     4  10  18  31  51  78  98 126 167 205 246 289
#     4  10  20  30  52  74  96 126 168 196 252 288
#     4  10  15  31  53  71  95 125 168 203 234 283
#     4  10  18  32  51  73  99 126 165 207 240 294
#     4   9  18  31  51  73 100 126 163 208 246 284
#     4  10  17  32  51  74  94 128 163 209 235 293
#     4  10  18  29  52  77  97 130 165 202 246 293
#
# _framework density 16.732354000000001
#
# number of rings (size 3 to 8) (size 9 to 14) (size 15 to 20)
#    0.000    2.154    6.923    0.462    0.000    0.615 
#    1.385    0.769    0.000    0.923    0.000    0.000 
#    0.000    0.000    0.000    0.000    0.000    0.000 
#
# Total GULP energy -322166.451593 kJ/mol
# GULP energy per Si atom -12391.017369 kJ/mol
# Density = 1.669427 g / cm^3
# Si number density = 16.732354 Si / 1000 Ang^3
#
#
#
# Elastic Constant Matrix: (Units=GPa)
#
#
# Indices 1 2 3 4 5 6 
#
# 1 52.2175 25.5388 24.7623 0.0000 6.0010 0.0000
# 2 25.5388 64.6626 27.8906 0.0000 4.7644 0.0000
# 3 24.7623 27.8906 131.6335 0.0000 -5.4603 0.0000
# 4 0.0000 0.0000 0.0000 14.8950 0.0000 -1.8482
# 5 6.0010 4.7644 -5.4603 0.0000 13.2947 0.0000
# 6 0.0000 0.0000 0.0000 -1.8482 0.0000 25.0303
#
#
#
# Elastic Compliance Matrix: (Units=1/GPa)
#
#
# Indices 1 2 3 4 5 6 
#
# 1 0.025934 -0.007913 -0.003632 0.000000 -0.010362 0.000000
# 2 -0.007913 0.020249 -0.003006 0.000000 -0.004920 0.000000
# 3 -0.003632 -0.003006 0.009186 0.000000 0.006489 0.000000
# 4 0.000000 0.000000 0.000000 0.067757 0.000000 0.005003
# 5 -0.010362 -0.004920 0.006489 0.000000 0.084323 0.000000
# 6 0.000000 0.000000 0.000000 0.005003 0.000000 0.040321
#
#
# Mechanical properties :
#
#
# Convention : Reuss Voigt Hill
#
# Bulk Modulus (GPa) = 38.06904 44.98855 41.52879
# Shear Modulus (GPa) = 17.50531 21.99879 19.75205
#
# Velocity S-wave (km/s) = 3.23800 3.62988 3.43952
# Velocity P-wave (km/s) = 6.06471 6.67185 6.37551
#
# Compressibility (1/GPa) = 0.02626807
#
# Stress axis : x y z
#
# Youngs Moduli (GPa) = 38.55977 49.38497 108.85959
#
# Poissons Ratio (x) = 0.39077 0.39536
# Poissons Ratio (y) = 0.30511 0.32723
# Poissons Ratio (z) = 0.14004 0.14845
#
# Static dielectric constant tensor:
#      x y z
#    x 3.079890 0.000000 -0.021990 
#    y 0.000000 3.124970 0.000000 
#    z -0.021990 0.000000 3.401770 
# 
# 
# High freq. dielectric constant tensor:
#      x y z
#    x 1.614060 0.000000 0.002820 
#    y 0.000000 1.644510 0.000000 
#    z 0.002820 0.000000 1.635890 
# 
# From -- ./inp_files/197293.got.cif
#   From: 2010.06.25/outbox.cif.g09.slc.cpg/sg15_99_cif.got.tgz:197293.got - 2010.06.28 07:06:18.
