data_PCOD8129144
_publ_section_title
;
Structure prediction by ZEFSAII (Michael W. Deem and Ramdas Pophale) SiO2 
 PCOD8129144
Probable space group: P 21/C
;
_chemical_formula_sum "Si O2"
_cell_formula_units_Z 24
_cell_length_a 11.480184
_cell_length_b 11.282457
_cell_length_c 22.375078
_cell_angle_alpha 90.000000
_cell_angle_beta 157.158944
_cell_angle_gamma 90.000000
_cell_volume 1124.982692
_symmetry_space_group_name_H-M "P 21/C"
_symmetry_group_IT_number 14
_symmetry_cell_setting 'monoclinic'
loop_
_space_group_symop_operation_xyz
x,y,z
-x,1/2+y,1/2-z
-x,-y,-z
x,1/2-y,1/2+z
loop_
_atom_site_type_symbol
_atom_site_label
_atom_site_fract_x
_atom_site_fract_y
_atom_site_fract_z
Si Si1 0.163457 0.230237 0.448998
Si Si2 0.887202 0.006044 0.378294
Si Si3 0.757576 0.373984 0.172462
Si Si4 0.890399 0.607690 0.292982
Si Si5 0.254420 0.667931 0.968727
Si Si6 0.201142 0.034211 0.040339
O O1 0.465949 0.163081 0.572687
O O2 0.218163 0.329358 0.526117
O O3 0.951768 0.133413 0.379718
O O4 0.020691 0.286489 0.320973
O O5 0.532229 0.984916 0.208932
O O6 0.000000 0.000000 0.500000
O O7 0.027723 0.902855 0.404035
O O8 0.850956 0.510321 0.223431
O O9 0.701785 0.383844 0.076100
O O10 0.142848 0.702529 0.398080
O O11 0.005837 0.539119 0.403286
O O12 0.571331 0.672773 0.153204
O O13 0.000000 0.000000 0.000000
#
# Coordination Sequence:
#
# PCOD8129144 Si02
#       6
#     4   4   4   4   4   4
#     4  11  24  46  73 104 143 186 239 301 363 441
#     4  12  27  45  72 106 144 195 241 296 371 430
#     4  11  24  45  74 104 144 189 239 299 371 433
#     4  11  25  44  67 106 140 188 241 295 361 430
#     4  12  25  44  73 103 149 187 241 305 361 435
#     4  11  26  46  72 101 144 190 243 299 360 433
#
# _framework density 21.333662
#
# number of rings (size 3 to 8) (size 9 to 14) (size 15 to 20)
#    0.000    0.667    3.333    3.500    7.000    0.000 
#    0.000    4.167    0.000    0.000    0.000    0.000 
#    0.000    0.000    0.000    0.000    0.000    0.000 
#
# Total GULP energy -297351.472268 kJ/mol
# GULP energy per Si atom -12389.644678 kJ/mol
# Density = 2.128511 g / cm^3
# Si number density = 21.333662 Si / 1000 Ang^3
#
#
#
# Elastic Constant Matrix: (Units=GPa)
#
#
# Indices 1 2 3 4 5 6 
#
# 1 140.3890 42.5389 66.1861 0.0000 -6.7588 0.0000
# 2 42.5389 126.9179 48.4368 0.0000 -0.4728 0.0000
# 3 66.1861 48.4368 208.5146 0.0000 -6.0278 0.0000
# 4 0.0000 0.0000 0.0000 87.4911 0.0000 -67.8829
# 5 -6.7588 -0.4728 -6.0278 0.0000 25.1106 0.0000
# 6 0.0000 0.0000 0.0000 -67.8829 0.0000 154.1543
#
#
#
# Elastic Compliance Matrix: (Units=1/GPa)
#
#
# Indices 1 2 3 4 5 6 
#
# 1 0.008931 -0.002112 -0.002292 0.000000 0.001814 0.000000
# 2 -0.002112 0.009148 -0.001476 0.000000 -0.000751 0.000000
# 3 -0.002292 -0.001476 0.005888 0.000000 0.000769 0.000000
# 4 0.000000 0.000000 0.000000 0.017362 0.000000 0.007645
# 5 0.001814 -0.000751 0.000769 0.000000 0.040482 0.000000
# 6 0.000000 0.000000 0.000000 0.007645 0.000000 0.009854
#
#
# Mechanical properties :
#
#
# Convention : Reuss Voigt Hill
#
# Bulk Modulus (GPa) = 81.92115 87.79388 84.85752
# Shear Modulus (GPa) = 46.51453 74.59520 60.55486
#
# Velocity S-wave (km/s) = 4.67447 5.91962 5.33351
# Velocity P-wave (km/s) = 8.22299 9.37894 8.81992
#
# Compressibility (1/GPa) = 0.01220686
#
# Stress axis : x y z
#
# Youngs Moduli (GPa) = 111.97247 109.31865 169.82480
#
# Poissons Ratio (x) = 0.23087 0.38920
# Poissons Ratio (y) = 0.23648 0.25071
# Poissons Ratio (z) = 0.25661 0.16138
#
# Static dielectric constant tensor:
#      x y z
#    x 3.677260 0.000000 -0.047260 
#    y 0.000000 4.004060 0.000000 
#    z -0.047260 0.000000 4.139870 
# 
# 
# High freq. dielectric constant tensor:
#      x y z
#    x 1.835260 0.000000 -0.008570 
#    y 0.000000 1.851340 0.000000 
#    z -0.008570 0.000000 1.861570 
# 
# From -- ./inp_files/12389.got.cif
#   From: 2010.03.12/outbox.cif.g09.slc.cpg/sg14_7_cif.got.tgz:12389.got - 2010.03.31 13:35:05.
