data_PCOD8129877
_publ_section_title
;
Structure prediction by ZEFSAII (Michael W. Deem and Ramdas Pophale) SiO2 
 PCOD8129877
Probable space group: C 2/C
;
_chemical_formula_sum "Si O2"
_cell_formula_units_Z 24
_cell_length_a 7.773401
_cell_length_b 27.497551
_cell_length_c 5.034786
_cell_angle_alpha 90.000000
_cell_angle_beta 111.313082
_cell_angle_gamma 90.000000
_cell_volume 1002.580923
_symmetry_space_group_name_H-M "C 2/C"
_symmetry_group_IT_number 15
_symmetry_cell_setting 'monoclinic'
loop_
_space_group_symop_operation_xyz
x,y,z
-x,y,1/2-z
-x,-y,-z
x,-y,1/2+z
1/2+x,1/2+y,z
1/2-x,1/2+y,1/2-z
1/2-x,1/2-y,-z
1/2+x,1/2-y,1/2+z
loop_
_atom_site_type_symbol
_atom_site_label
_atom_site_fract_x
_atom_site_fract_y
_atom_site_fract_z
Si Si1 0.116721 0.211277 0.566112
Si Si2 0.794178 0.478212 0.414112
Si Si3 0.878668 0.370445 0.436659
O O1 0.250000 0.250000 0.500000
O O2 0.225514 0.168266 0.770135
O O3 0.000000 0.234537 0.750000
O O4 0.000000 0.190604 0.250000
O O5 0.688290 0.507752 0.585680
O O6 0.786285 0.420934 0.474538
O O7 0.000000 0.500000 0.500000
O O8 0.000000 0.382253 0.250000
O O9 0.000000 0.349610 0.750000
#
# Coordination Sequence:
#
# PCOD8129877 Si02
#       3
#     8   8   8
#     4  12  28  50  72  99 140 185 237 296 359 422
#     4  10  16  31  57 100 134 167 225 280 309 396
#     4  12  22  39  70 106 134 178 232 289 341 403
#
# _framework density 23.938217000000002
#
# number of rings (size 3 to 8) (size 9 to 14) (size 15 to 20)
#    0.000    0.667    6.667    4.000    0.000    2.667 
#    0.000    0.000    0.000    6.000    0.000    0.000 
#    0.000    0.000    0.000    0.000    0.000    0.000 
#
# Total GULP energy -148664.964811 kJ/mol
# GULP energy per Si atom -12388.747068 kJ/mol
# Density = 2.388373 g / cm^3
# Si number density = 23.938217 Si / 1000 Ang^3
#
#
#
# Elastic Constant Matrix: (Units=GPa)
#
#
# Indices 1 2 3 4 5 6 
#
# 1 80.5313 43.6349 58.4281 0.0000 -13.2720 0.0000
# 2 43.6349 160.0908 70.5004 0.0000 15.1626 0.0000
# 3 58.4281 70.5004 237.7077 0.0000 -25.8000 0.0000
# 4 0.0000 0.0000 0.0000 -50.2411 0.0000 143.5311
# 5 -13.2720 15.1626 -25.8000 0.0000 43.5470 0.0000
# 6 0.0000 0.0000 0.0000 143.5311 0.0000 -220.3506
#
#
#
# Elastic Compliance Matrix: (Units=1/GPa)
#
#
# Indices 1 2 3 4 5 6 
#
# 1 0.017306 -0.004133 -0.002458 0.000000 0.005258 0.000000
# 2 -0.004133 0.008898 -0.002240 0.000000 -0.005685 0.000000
# 3 -0.002458 -0.002240 0.005855 0.000000 0.003500 0.000000
# 4 0.000000 0.000000 0.000000 0.023121 0.000000 0.015060
# 5 0.005258 -0.005685 0.003500 0.000000 0.028619 0.000000
# 6 0.000000 0.000000 0.000000 0.015060 0.000000 0.005272
#
#
# Mechanical properties :
#
#
# Convention : Reuss Voigt Hill
#
# Bulk Modulus (GPa) = 69.45205 91.49519 80.47362
# Shear Modulus (GPa) = 44.83064 -25.02450 9.90307
#
# Velocity S-wave (km/s) = 4.33224 -3.23674 2.03615
# Velocity P-wave (km/s) = 7.35530 4.93313 6.26243
#
# Compressibility (1/GPa) = 0.01439842
#
# Stress axis : x y z
#
# Youngs Moduli (GPa) = 57.78246 112.38673 170.78934
#
# Poissons Ratio (x) = 0.46447 0.41972
# Poissons Ratio (y) = 0.23880 0.38259
# Poissons Ratio (z) = 0.14200 0.25176
#
# Static dielectric constant tensor:
#      x y z
#    x 4.159120 0.000000 -0.318030 
#    y 0.000000 4.122910 0.000000 
#    z -0.318030 0.000000 4.873940 
# 
# 
# High freq. dielectric constant tensor:
#      x y z
#    x 1.924240 0.000000 -0.028940 
#    y 0.000000 1.943600 0.000000 
#    z -0.028940 0.000000 1.987080 
# 
# From -- ./inp_files/1898.got.cif
#   From: 2010.06.25/outbox.cif.g09.slc.cpg/sg15_1_cif.got.tgz:1898.got - 2010.06.28 07:06:18.
