data_PCOD8129139
_publ_section_title
;
Structure prediction by ZEFSAII (Michael W. Deem and Ramdas Pophale) SiO2 
 PCOD8129139
Probable space group: P 21/C
;
_chemical_formula_sum "Si O2"
_cell_formula_units_Z 24
_cell_length_a 14.540648
_cell_length_b 17.220544
_cell_length_c 9.818902
_cell_angle_alpha 90.000000
_cell_angle_beta 27.375715
_cell_angle_gamma 90.000000
_cell_volume 1130.536685
_symmetry_space_group_name_H-M "P 21/C"
_symmetry_group_IT_number 14
_symmetry_cell_setting 'monoclinic'
loop_
_space_group_symop_operation_xyz
x,y,z
-x,1/2+y,1/2-z
-x,-y,-z
x,1/2-y,1/2+z
loop_
_atom_site_type_symbol
_atom_site_label
_atom_site_fract_x
_atom_site_fract_y
_atom_site_fract_z
Si Si1 0.610458 0.412876 0.507887
Si Si2 0.266032 0.972934 0.429232
Si Si3 0.959554 0.396571 0.255363
Si Si4 0.798314 0.751820 0.674188
Si Si5 0.856391 0.356057 0.688883
Si Si6 0.463886 0.257651 0.230374
O O1 0.684103 0.410298 0.254067
O O2 0.467469 0.486718 0.718822
O O3 0.488201 0.335065 0.700592
O O4 0.796717 0.424392 0.361757
O O5 0.122483 0.036786 0.553047
O O6 0.161376 0.931346 0.693175
O O7 0.847795 0.381719 0.544193
O O8 0.062963 0.318333 0.068862
O O9 0.657978 0.715475 0.742053
O O10 0.931730 0.683125 0.559398
O O11 0.659060 0.785962 0.976510
O O12 0.679936 0.296147 0.950869
#
# Coordination Sequence:
#
# PCOD8129139 Si02
#       6
#     4   4   4   4   4   4
#     4  11  24  45  71 102 139 185 231 283 350 417
#     4  11  26  45  72 104 142 181 234 288 348 417
#     4  12  25  46  70 102 143 185 231 290 352 410
#     4  12  25  43  70 104 138 184 233 288 347 411
#     4  12  27  44  73 105 140 184 237 291 343 418
#     4  12  25  43  71 101 142 182 233 286 346 414
#
# _framework density 21.228857000000001
#
# number of rings (size 3 to 8) (size 9 to 14) (size 15 to 20)
#    0.000    0.333    5.000    3.000    7.000    2.000 
#    0.000    0.000    0.000    0.000    0.000    0.000 
#    0.000    0.000    0.000    0.000    0.000    0.000 
#
# Total GULP energy -297820.167115 kJ/mol
# GULP energy per Si atom -12409.173630 kJ/mol
# Density = 2.118054 g / cm^3
# Si number density = 21.228857 Si / 1000 Ang^3
#
#
#
# Elastic Constant Matrix: (Units=GPa)
#
#
# Indices 1 2 3 4 5 6 
#
# 1 101.7715 6.5275 20.6282 0.0000 -6.8512 0.0000
# 2 6.5275 53.0358 3.4259 0.0000 0.9416 0.0000
# 3 20.6282 3.4259 95.9606 0.0000 6.4036 0.0000
# 4 0.0000 0.0000 0.0000 25.4624 0.0000 -6.7831
# 5 -6.8512 0.9416 6.4036 0.0000 36.3856 0.0000
# 6 0.0000 0.0000 0.0000 -6.7831 0.0000 30.3483
#
#
#
# Elastic Compliance Matrix: (Units=1/GPa)
#
#
# Indices 1 2 3 4 5 6 
#
# 1 0.010550 -0.001187 -0.002388 0.000000 0.002438 0.000000
# 2 -0.001187 0.019037 -0.000381 0.000000 -0.000649 0.000000
# 3 -0.002388 -0.000381 0.011108 0.000000 -0.002395 0.000000
# 4 0.000000 0.000000 0.000000 0.041760 0.000000 0.009334
# 5 0.002438 -0.000649 -0.002395 0.000000 0.028381 0.000000
# 6 0.000000 0.000000 0.000000 0.009334 0.000000 0.035037
#
#
# Mechanical properties :
#
#
# Convention : Reuss Voigt Hill
#
# Bulk Modulus (GPa) = 30.50459 34.65899 32.58179
# Shear Modulus (GPa) = 30.35566 33.11837 31.73702
#
# Velocity S-wave (km/s) = 3.78554 3.95405 3.87071
# Velocity P-wave (km/s) = 5.78858 6.09982 5.94624
#
# Compressibility (1/GPa) = 0.03278195
#
# Stress axis : x y z
#
# Youngs Moduli (GPa) = 94.78442 52.52792 90.02738
#
# Poissons Ratio (x) = 0.06238 0.21500
# Poissons Ratio (y) = 0.11256 0.03431
# Poissons Ratio (z) = 0.22636 0.02002
#
# Static dielectric constant tensor:
#      x y z
#    x 4.106100 0.000000 -0.030400 
#    y 0.000000 3.717330 0.000000 
#    z -0.030400 0.000000 3.974400 
# 
# 
# High freq. dielectric constant tensor:
#      x y z
#    x 1.850530 0.000000 -0.002550 
#    y 0.000000 1.826260 0.000000 
#    z -0.002550 0.000000 1.849930 
# 
# From -- ./inp_files/16620.got.cif
#   From: 2010.03.12/outbox.cif.g09.slc.cpg/sg14_9_cif.got.tgz:16620.got - 2010.03.31 13:35:05.
