data_PCOD8129283
_publ_section_title
;
Structure prediction by ZEFSAII (Michael W. Deem and Ramdas Pophale) SiO2 
 PCOD8129283
Probable space group: P 21/C
;
_chemical_formula_sum "Si O2"
_cell_formula_units_Z 32
_cell_length_a 18.131789
_cell_length_b 11.287183
_cell_length_c 14.308694
_cell_angle_alpha 90.000000
_cell_angle_beta 27.862126
_cell_angle_gamma 90.000000
_cell_volume 1368.561451
_symmetry_space_group_name_H-M "P 21/C"
_symmetry_group_IT_number 14
_symmetry_cell_setting 'monoclinic'
loop_
_space_group_symop_operation_xyz
x,y,z
-x,1/2+y,1/2-z
-x,-y,-z
x,1/2-y,1/2+z
loop_
_atom_site_type_symbol
_atom_site_label
_atom_site_fract_x
_atom_site_fract_y
_atom_site_fract_z
Si Si1 0.813171 0.692757 0.832084
Si Si2 0.620062 0.023680 0.592148
Si Si3 0.165614 0.772803 0.899340
Si Si4 0.328279 0.939059 0.261788
Si Si5 0.802433 0.253754 0.347696
Si Si6 0.653812 0.669051 0.355471
Si Si7 0.154260 0.303705 0.508004
Si Si8 0.720632 0.048431 0.084398
O O1 0.708146 0.792678 0.898323
O O2 0.985872 0.686181 0.594377
O O3 0.738481 0.562756 0.904110
O O4 0.819477 0.718614 0.934092
O O5 0.612872 0.994875 0.710615
O O6 0.675851 0.158693 0.524992
O O7 0.451566 0.006179 0.734089
O O8 0.181401 0.651149 0.943024
O O9 0.230206 0.736203 0.725759
O O10 0.271952 0.872779 0.829873
O O11 0.269605 0.041888 0.257073
O O12 0.466078 0.854343 0.064274
O O13 0.770986 0.376928 0.436583
O O14 0.981678 0.214715 0.160093
O O15 0.712088 0.771365 0.218706
O O16 0.161108 0.439506 0.533170
#
# Coordination Sequence:
#
# PCOD8129283 Si02
#       8
#     4   4   4   4   4   4   4   4
#     4  12  25  46  74 108 148 195 250 309 375 446
#     4  12  27  49  78 105 154 197 250 314 374 446
#     4  12  27  47  75 106 150 198 251 306 379 448
#     4  11  25  49  74 111 153 196 254 315 370 454
#     4  12  29  50  74 111 155 197 253 312 377 451
#     4  11  26  45  76 112 149 198 250 312 377 450
#     4  12  26  48  77 109 151 199 248 311 380 443
#     4  12  29  48  76 112 148 200 253 310 383 446
#
# _framework density 23.382217000000001
#
# number of rings (size 3 to 8) (size 9 to 14) (size 15 to 20)
#    0.000    0.250    5.000    2.250   10.500    3.000 
#    0.000    0.000    0.000    0.000    0.000    0.000 
#    0.000    0.000    0.000    0.000    0.000    0.000 
#
# Total GULP energy -396860.600056 kJ/mol
# GULP energy per Si atom -12401.893752 kJ/mol
# Density = 2.332900 g / cm^3
# Si number density = 23.382217 Si / 1000 Ang^3
#
#
#
# Elastic Constant Matrix: (Units=GPa)
#
#
# Indices 1 2 3 4 5 6 
#
# 1 116.2476 27.0592 34.0308 0.0000 -1.8377 0.0000
# 2 27.0592 112.5415 36.1762 0.0000 -11.5023 0.0000
# 3 34.0308 36.1762 89.6067 0.0000 3.5574 0.0000
# 4 0.0000 0.0000 0.0000 37.2929 0.0000 1.1931
# 5 -1.8377 -11.5023 3.5574 0.0000 29.6073 0.0000
# 6 0.0000 0.0000 0.0000 1.1931 0.0000 41.7435
#
#
#
# Elastic Compliance Matrix: (Units=1/GPa)
#
#
# Indices 1 2 3 4 5 6 
#
# 1 0.009858 -0.001274 -0.003250 0.000000 0.000508 0.000000
# 2 -0.001274 0.011004 -0.004145 0.000000 0.004694 0.000000
# 3 -0.003250 -0.004145 0.014207 0.000000 -0.003519 0.000000
# 4 0.000000 0.000000 0.000000 0.026839 0.000000 -0.000767
# 5 0.000508 0.004694 -0.003519 0.000000 0.036053 0.000000
# 6 0.000000 0.000000 0.000000 -0.000767 0.000000 0.023978
#
#
# Mechanical properties :
#
#
# Convention : Reuss Voigt Hill
#
# Bulk Modulus (GPa) = 56.39517 56.99201 56.69359
# Shear Modulus (GPa) = 34.43801 36.47070 35.45435
#
# Velocity S-wave (km/s) = 3.84191 3.95367 3.89819
# Velocity P-wave (km/s) = 6.62205 6.72822 6.67535
#
# Compressibility (1/GPa) = 0.01773202
#
# Stress axis : x y z
#
# Youngs Moduli (GPa) = 101.43812 90.87539 70.38625
#
# Poissons Ratio (x) = 0.11575 0.22875
# Poissons Ratio (y) = 0.12921 0.29176
# Poissons Ratio (z) = 0.32966 0.37670
#
# Static dielectric constant tensor:
#      x y z
#    x 4.381100 0.000000 0.044450 
#    y 0.000000 4.226340 0.000000 
#    z 0.044450 0.000000 4.075780 
# 
# 
# High freq. dielectric constant tensor:
#      x y z
#    x 1.940890 0.000000 0.000190 
#    y 0.000000 1.932040 0.000000 
#    z 0.000190 0.000000 1.918750 
# 
# From -- ./inp_files/48980.got.cif
#   From: 2010.03.12/outbox.cif.g09.slc.cpg/sg14_25_cif.got.tgz:48980.got - 2010.03.31 13:35:05.
