data_PCOD8129086
_publ_section_title
;
Structure prediction by ZEFSAII (Michael W. Deem and Ramdas Pophale) SiO2 
 PCOD8129086
Probable space group: P 21/C
;
_chemical_formula_sum "Si O2"
_cell_formula_units_Z 28
_cell_length_a 22.906597
_cell_length_b 7.479047
_cell_length_c 8.853140
_cell_angle_alpha 90.000000
_cell_angle_beta 131.800330
_cell_angle_gamma 90.000000
_cell_volume 1130.669297
_symmetry_space_group_name_H-M "P 21/C"
_symmetry_group_IT_number 14
_symmetry_cell_setting 'monoclinic'
loop_
_space_group_symop_operation_xyz
x,y,z
-x,1/2+y,1/2-z
-x,-y,-z
x,1/2-y,1/2+z
loop_
_atom_site_type_symbol
_atom_site_label
_atom_site_fract_x
_atom_site_fract_y
_atom_site_fract_z
Si Si1 0.316039 0.931526 0.624534
Si Si2 0.964621 0.713279 0.415703
Si Si3 0.946984 0.428871 0.697195
Si Si4 0.814845 0.970211 0.787892
Si Si5 0.427907 0.428525 0.742238
Si Si6 0.335986 0.286903 0.843701
Si Si7 0.593441 0.215507 0.484041
O O1 0.368068 0.933716 0.559045
O O2 0.225759 0.907398 0.412700
O O3 0.325154 0.122695 0.712674
O O4 0.342375 0.773857 0.780547
O O5 0.879514 0.662931 0.330136
O O6 0.025289 0.763784 0.654187
O O7 0.003109 0.559373 0.375611
O O8 0.955114 0.885372 0.294843
O O9 0.856523 0.404117 0.486200
O O10 0.749411 0.846344 0.751246
O O11 0.380556 0.441241 0.821059
O O12 0.388731 0.276642 0.572953
O O13 0.429002 0.616464 0.659183
O O14 0.515847 0.360414 0.932304
#
# Coordination Sequence:
#
# PCOD8129086 Si02
#       7
#     4   4   4   4   4   4   4
#     4  11  26  46  70 107 145 188 242 294 367 412
#     4  11  25  49  75 109 138 189 238 289 356 436
#     4  11  25  46  78 105 140 184 240 285 357 431
#     4  12  25  47  77 103 149 187 233 304 355 433
#     4  11  24  43  74 101 144 192 246 295 349 426
#     4  11  24  45  71 105 139 199 238 288 369 417
#     4  11  26  46  71 108 144 191 248 299 350 425
#
# _framework density 24.764091000000001
#
# number of rings (size 3 to 8) (size 9 to 14) (size 15 to 20)
#    0.000    0.857    2.857    3.000    2.000    4.571 
#    0.000    0.000    0.000    0.000    0.000    0.000 
#    0.000    0.000    0.000    0.000    0.000    0.000 
#
# Total GULP energy -347244.766921 kJ/mol
# GULP energy per Si atom -12401.598819 kJ/mol
# Density = 2.470773 g / cm^3
# Si number density = 24.764091 Si / 1000 Ang^3
#
#
#
# Elastic Constant Matrix: (Units=GPa)
#
#
# Indices 1 2 3 4 5 6 
#
# 1 159.4996 72.2626 69.0303 0.0000 10.5302 0.0000
# 2 72.2626 95.9510 54.2594 0.0000 15.0453 0.0000
# 3 69.0303 54.2594 215.6045 0.0000 18.2390 0.0000
# 4 0.0000 0.0000 0.0000 42.0732 0.0000 -1.5267
# 5 10.5302 15.0453 18.2390 0.0000 45.1093 0.0000
# 6 0.0000 0.0000 0.0000 -1.5267 0.0000 40.9755
#
#
#
# Elastic Compliance Matrix: (Units=1/GPa)
#
#
# Indices 1 2 3 4 5 6 
#
# 1 0.009934 -0.006694 -0.001541 0.000000 0.000537 0.000000
# 2 -0.006694 0.017044 -0.001861 0.000000 -0.003370 0.000000
# 3 -0.001541 -0.001861 0.005712 0.000000 -0.001329 0.000000
# 4 0.000000 0.000000 0.000000 0.023800 0.000000 0.000887
# 5 0.000537 -0.003370 -0.001329 0.000000 0.023704 0.000000
# 6 0.000000 0.000000 0.000000 0.000887 0.000000 0.024438
#
#
# Mechanical properties :
#
#
# Convention : Reuss Voigt Hill
#
# Bulk Modulus (GPa) = 80.01514 95.79551 87.90532
# Shear Modulus (GPa) = 38.76204 43.99844 41.38024
#
# Velocity S-wave (km/s) = 3.96062 4.21967 4.09219
# Velocity P-wave (km/s) = 7.30044 7.90620 7.60935
#
# Compressibility (1/GPa) = 0.01249763
#
# Stress axis : x y z
#
# Youngs Moduli (GPa) = 100.66369 58.67091 175.05698
#
# Poissons Ratio (x) = 0.39275 0.26983
# Poissons Ratio (y) = 0.67385 0.32579
# Poissons Ratio (z) = 0.15516 0.10919
#
# Static dielectric constant tensor:
#      x y z
#    x 4.603030 0.000000 -0.334390 
#    y 0.000000 4.666200 0.000000 
#    z -0.334390 0.000000 5.141680 
# 
# 
# High freq. dielectric constant tensor:
#      x y z
#    x 1.989130 0.000000 -0.021200 
#    y 0.000000 2.007010 0.000000 
#    z -0.021200 0.000000 2.017300 
# 
# From -- ./inp_files/18778.got.cif
#   From: 2010.03.12/outbox.cif.g09.slc.cpg/sg14_10_cif.got.tgz:18778.got - 2010.03.31 13:35:05.
