data_PCOD8129527
_publ_section_title
;
Structure prediction by ZEFSAII (Michael W. Deem and Ramdas Pophale) SiO2 
 PCOD8129527
Probable space group: P 21/C
;
_chemical_formula_sum "Si O2"
_cell_formula_units_Z 32
_cell_length_a 9.000000
_cell_length_b 15.000000
_cell_length_c 24.000000
_cell_angle_alpha 90.000000
_cell_angle_beta 150.000000
_cell_angle_gamma 90.000000
_cell_volume 1620.000000
_symmetry_space_group_name_H-M "P 21/C"
_symmetry_group_IT_number 14
_symmetry_cell_setting 'monoclinic'
loop_
_space_group_symop_operation_xyz
x,y,z
-x,1/2+y,1/2-z
-x,-y,-z
x,1/2-y,1/2+z
loop_
_atom_site_type_symbol
_atom_site_label
_atom_site_fract_x
_atom_site_fract_y
_atom_site_fract_z
Si Si1 0.771018 0.721378 0.623418
Si Si2 0.652775 0.091903 0.225927
Si Si3 0.301267 0.583034 0.798035
Si Si4 0.794837 0.464385 0.357461
Si Si5 0.048423 0.106346 0.250713
Si Si6 0.162172 0.869503 0.940801
Si Si7 0.842951 0.826603 0.536476
Si Si8 0.920606 0.812169 0.973998
O O1 0.772312 0.811647 0.661793
O O2 0.511067 0.651904 0.554336
O O3 0.733858 0.753548 0.546928
O O4 0.060304 0.661264 0.728511
O O5 0.436017 0.176258 0.146292
O O6 0.787414 0.073960 0.208099
O O7 0.909585 0.112229 0.354087
O O8 0.463396 0.011066 0.190248
O O9 0.348413 0.575856 0.745971
O O10 0.231045 0.484440 0.799204
O O11 0.584723 0.612041 0.926717
O O12 0.067337 0.530528 0.428825
O O13 0.929992 0.392738 0.443373
O O14 0.947356 0.146240 0.158112
O O15 0.030558 0.803379 0.945586
O O16 0.990059 0.776985 0.531131
#
# Coordination Sequence:
#
# PCOD8129527 Si02
#       8
#     4   4   4   4   4   4   4   4
#     4  11  22  41  64  95 128 172 215 262 322 381
#     4  10  22  40  66  89 127 166 212 262 318 381
#     4  11  24  41  65  94 131 170 215 264 319 389
#     4  10  23  41  62  96 122 162 216 262 317 381
#     4  10  24  41  65  94 133 168 215 265 323 382
#     4  10  22  38  63  94 125 162 210 270 309 373
#     4  11  23  43  64  90 129 176 208 258 330 380
#     4  11  22  39  64  93 126 161 218 263 314 376
#
# _framework density 19.753086
#
# number of rings (size 3 to 8) (size 9 to 14) (size 15 to 20)
#    0.000    1.500    1.250    4.500    3.500    6.500 
#    0.000    1.250    0.000    0.000    0.000    0.000 
#    0.000    0.000    0.000    0.000    0.000    0.000 
#
# Total GULP energy -396470.698028 kJ/mol
# GULP energy per Si atom -12389.709313 kJ/mol
# Density = 1.970813 g / cm^3
# Si number density = 19.753086 Si / 1000 Ang^3
#
#
#
# Elastic Constant Matrix: (Units=GPa)
#
#
# Indices 1 2 3 4 5 6 
#
# 1 153.0486 45.0100 64.8277 0.0000 -22.5852 0.0000
# 2 45.0100 103.9263 48.0661 0.0000 -5.0410 0.0000
# 3 64.8277 48.0661 141.9251 0.0000 -13.0917 0.0000
# 4 0.0000 0.0000 0.0000 38.1211 0.0000 -7.7126
# 5 -22.5852 -5.0410 -13.0917 0.0000 39.7956 0.0000
# 6 0.0000 0.0000 0.0000 -7.7126 0.0000 37.2777
#
#
#
# Elastic Compliance Matrix: (Units=1/GPa)
#
#
# Indices 1 2 3 4 5 6 
#
# 1 0.009061 -0.002357 -0.002984 0.000000 0.003862 0.000000
# 2 -0.002357 0.012023 -0.003072 0.000000 -0.000825 0.000000
# 3 -0.002984 -0.003072 0.009547 0.000000 0.001058 0.000000
# 4 0.000000 0.000000 0.000000 0.027378 0.000000 0.005664
# 5 0.003862 -0.000825 0.001058 0.000000 0.027564 0.000000
# 6 0.000000 0.000000 0.000000 0.005664 0.000000 0.027998
#
#
# Mechanical properties :
#
#
# Convention : Reuss Voigt Hill
#
# Bulk Modulus (GPa) = 72.43202 79.41194 75.92198
# Shear Modulus (GPa) = 37.03742 39.10530 38.07136
#
# Velocity S-wave (km/s) = 4.33485 4.45422 4.39494
# Velocity P-wave (km/s) = 7.86148 8.16964 8.01704
#
# Compressibility (1/GPa) = 0.01380605
#
# Stress axis : x y z
#
# Youngs Moduli (GPa) = 110.36319 83.17059 104.74429
#
# Poissons Ratio (x) = 0.19600 0.31260
# Poissons Ratio (y) = 0.26008 0.32174
# Poissons Ratio (z) = 0.32937 0.25547
#
# Static dielectric constant tensor:
#      x y z
#    x 4.080360 0.000000 -0.276660 
#    y 0.000000 3.684360 0.000000 
#    z -0.276660 0.000000 3.732050 
# 
# 
# High freq. dielectric constant tensor:
#      x y z
#    x 1.797580 0.000000 -0.024910 
#    y 0.000000 1.776760 0.000000 
#    z -0.024910 0.000000 1.783950 
# 
# From -- ./inp_files/72485.got.cif
#   From: 2010.03.12/outbox.ucp.g09.slc.cvg/sg14_37_cif.got.tgz:72485.got - 2010.05.04 20:10:03.
