data_PCOD8129818
_publ_section_title
;
Structure prediction by ZEFSAII (Michael W. Deem and Ramdas Pophale) SiO2 
 PCOD8129818
Probable space group: C 2/C
;
_chemical_formula_sum "Si O2"
_cell_formula_units_Z 52
_cell_length_a 20.173626
_cell_length_b 9.833532
_cell_length_c 28.489064
_cell_angle_alpha 90.000000
_cell_angle_beta 154.227580
_cell_angle_gamma 90.000000
_cell_volume 2457.304010
_symmetry_space_group_name_H-M "C 2/C"
_symmetry_group_IT_number 15
_symmetry_cell_setting 'monoclinic'
loop_
_space_group_symop_operation_xyz
x,y,z
-x,y,1/2-z
-x,-y,-z
x,-y,1/2+z
1/2+x,1/2+y,z
1/2-x,1/2+y,1/2-z
1/2-x,1/2-y,-z
1/2+x,1/2-y,1/2+z
loop_
_atom_site_type_symbol
_atom_site_label
_atom_site_fract_x
_atom_site_fract_y
_atom_site_fract_z
Si Si1 0.104038 0.999209 0.473854
Si Si2 0.218959 0.031255 0.241061
Si Si3 0.500000 0.712649 0.750000
Si Si4 0.484140 0.810160 0.574557
Si Si5 0.228293 0.484558 0.826419
Si Si6 0.243524 0.663525 0.649275
Si Si7 0.899895 0.566084 0.117664
O O1 0.158643 0.038751 0.561243
O O2 0.244991 0.020071 0.527854
O O3 0.035649 0.847775 0.427695
O O4 0.955776 0.088598 0.364274
O O5 0.336723 0.156113 0.316011
O O6 0.222759 0.954073 0.192539
O O7 0.268795 0.924617 0.312158
O O8 0.392014 0.618676 0.713350
O O9 0.611202 0.806457 0.853266
O O10 0.407835 0.858427 0.477551
O O11 0.405464 0.890857 0.567139
O O12 0.231624 0.321114 0.822726
O O13 0.052388 0.521634 0.726934
#
# Coordination Sequence:
#
# PCOD8129818 Si02
#       7
#     8   8   4   8   8   8   8
#     4  11  18  31  53  73 102 138 167 207 254 298
#     4  11  21  30  45  75 109 136 171 199 249 308
#     4  10  16  30  52  80 102 128 168 202 262 312
#     4  10  21  32  49  73 110 140 166 201 257 303
#     4   9  19  34  49  77 105 134 166 205 255 308
#     4  10  20  33  51  71 109 137 166 203 255 303
#     4  10  16  30  52  77 102 131 162 205 256 311
#
# _framework density 21.161404000000001
#
# number of rings (size 3 to 8) (size 9 to 14) (size 15 to 20)
#    0.000    1.846    4.615    4.154    2.154    0.000 
#    0.000    0.000    0.000    0.000    0.000   17.231 
#   36.923    0.000    0.000    0.000    0.000    0.000 
#
# Total GULP energy -322237.374241 kJ/mol
# GULP energy per Si atom -12393.745163 kJ/mol
# Density = 2.111324 g / cm^3
# Si number density = 21.161404 Si / 1000 Ang^3
#
#
#
# Elastic Constant Matrix: (Units=GPa)
#
#
# Indices 1 2 3 4 5 6 
#
# 1 110.7223 16.4324 55.5908 -0.0031 3.2139 0.0007
# 2 16.4324 10.5859 12.2431 -0.0033 -0.3653 0.0007
# 3 55.5908 12.2431 152.7934 0.0070 15.8759 -0.0004
# 4 -0.0031 -0.0033 0.0070 23.0613 -0.0029 -0.3652
# 5 3.2139 -0.3653 15.8759 -0.0029 42.3340 0.0005
# 6 0.0007 0.0007 -0.0004 -0.3652 0.0005 27.7537
#
#
#
# Elastic Compliance Matrix: (Units=1/GPa)
#
#
# Indices 1 2 3 4 5 6 
#
# 1 0.013236 -0.016477 -0.003513 0.000001 0.000170 0.000000
# 2 -0.016477 0.125345 -0.004465 0.000018 0.004007 -0.000002
# 3 -0.003513 -0.004465 0.008488 -0.000004 -0.002955 0.000000
# 4 0.000001 0.000018 -0.000004 0.043372 0.000005 0.000571
# 5 0.000170 0.004007 -0.002955 0.000005 0.024751 0.000000
# 6 0.000000 -0.000002 0.000000 0.000571 0.000000 0.036039
#
#
# Mechanical properties :
#
#
# Convention : Reuss Voigt Hill
#
# Bulk Modulus (GPa) = 10.18762 49.18158 29.68460
# Shear Modulus (GPa) = 15.02129 31.28548 23.15339
#
# Velocity S-wave (km/s) = 2.66718 3.84920 3.31136
# Velocity P-wave (km/s) = 3.78283 6.56100 5.35521
#
# Compressibility (1/GPa) = 0.09815832
#
# Stress axis : x y z
#
# Youngs Moduli (GPa) = 75.55254 7.97796 117.81697
#
# Poissons Ratio (x) = 0.13145 0.41389
# Poissons Ratio (y) = 1.24488 0.52608
# Poissons Ratio (z) = 0.26542 0.03562
#
# Static dielectric constant tensor:
#      x y z
#    x 4.154940 0.000000 0.049820 
#    y 0.000000 3.005360 -0.000020 
#    z 0.049820 -0.000020 4.319670 
# 
# 
# High freq. dielectric constant tensor:
#      x y z
#    x 1.847290 0.000000 -0.000690 
#    y 0.000000 1.728940 0.000000 
#    z -0.000690 0.000000 1.863070 
# 
# From -- ./inp_files/161742.got.cif
#   From: 2010.06.25/outbox.cif.g09.slc.cpg/sg15_81_cif.got.tgz:161742.got - 2010.06.28 07:06:18.
