data_PCOD8129861
_publ_section_title
;
Structure prediction by ZEFSAII (Michael W. Deem and Ramdas Pophale) SiO2 
 PCOD8129861
Probable space group: C 2/C
;
_chemical_formula_sum "Si O2"
_cell_formula_units_Z 48
_cell_length_a 22.463707
_cell_length_b 25.317903
_cell_length_c 9.077387
_cell_angle_alpha 90.000000
_cell_angle_beta 31.873095
_cell_angle_gamma 90.000000
_cell_volume 2726.066934
_symmetry_space_group_name_H-M "C 2/C"
_symmetry_group_IT_number 15
_symmetry_cell_setting 'monoclinic'
loop_
_space_group_symop_operation_xyz
x,y,z
-x,y,1/2-z
-x,-y,-z
x,-y,1/2+z
1/2+x,1/2+y,z
1/2-x,1/2+y,1/2-z
1/2-x,1/2-y,-z
1/2+x,1/2-y,1/2+z
loop_
_atom_site_type_symbol
_atom_site_label
_atom_site_fract_x
_atom_site_fract_y
_atom_site_fract_z
Si Si1 0.000000 0.242233 0.750000
Si Si2 0.184960 0.124545 0.096073
Si Si3 0.873072 0.087375 0.578612
Si Si4 0.053633 0.175312 0.890754
Si Si5 0.000000 0.749843 0.750000
Si Si6 0.918517 0.023277 0.049228
Si Si7 0.649350 0.209756 0.689914
O O1 0.083308 0.204000 0.673435
O O2 0.065928 0.280804 0.501957
O O3 0.206828 0.112721 0.876893
O O4 0.161657 0.070061 0.230137
O O5 0.080777 0.164656 0.335600
O O6 0.299483 0.150662 0.915075
O O7 0.873834 0.121860 0.729767
O O8 0.000000 0.088871 0.250000
O O9 0.838160 0.026307 0.674592
O O10 0.075670 0.213914 0.982818
O O11 0.915016 0.714705 0.830779
O O12 0.000000 0.045057 0.750000
O O13 0.000000 0.000000 0.000000
O O14 0.750000 0.250000 0.500000
#
# Coordination Sequence:
#
# PCOD8129861 Si02
#       7
#     4   8   8   8   4   8   8
#     4  10  22  32  54  83 107 152 198 226 270 334
#     4  11  19  32  54  76 110 153 177 217 284 341
#     4   9  16  30  48  77 113 146 165 220 287 339
#     4  10  16  31  52  74 110 148 176 220 280 327
#     4  10  18  34  56  77 113 152 188 230 272 318
#     4  11  19  30  52  82 119 142 172 221 291 355
#     4  11  21  38  57  78 113 154 193 235 279 333
#
# _framework density 17.607783999999999
#
# number of rings (size 3 to 8) (size 9 to 14) (size 15 to 20)
#    0.000    1.667   10.833    0.000    1.167    0.000 
#    0.000    7.500    0.000    0.000    0.000    3.500 
#    0.000    0.000    0.000    0.000    0.000    0.000 
#
# Total GULP energy -297386.049108 kJ/mol
# GULP energy per Si atom -12391.085379 kJ/mol
# Density = 1.756771 g / cm^3
# Si number density = 17.607784 Si / 1000 Ang^3
#
#
#
# Elastic Constant Matrix: (Units=GPa)
#
#
# Indices 1 2 3 4 5 6 
#
# 1 119.9873 60.4361 35.1421 0.0001 10.7649 -0.0001
# 2 60.4361 120.3580 35.8873 0.0001 -0.6320 -0.0001
# 3 35.1421 35.8873 44.3832 0.0002 8.4525 -0.0001
# 4 0.0001 0.0001 0.0002 25.4304 -0.0002 -1.1025
# 5 10.7649 -0.6320 8.4525 -0.0002 24.9390 0.0002
# 6 -0.0001 -0.0001 -0.0001 -1.1025 0.0002 28.9252
#
#
#
# Elastic Compliance Matrix: (Units=1/GPa)
#
#
# Indices 1 2 3 4 5 6 
#
# 1 0.012664 -0.004744 -0.005481 0.000000 -0.003729 0.000000
# 2 -0.004744 0.013020 -0.007722 0.000000 0.004995 0.000000
# 3 -0.005481 -0.007722 0.034958 0.000000 -0.009678 0.000000
# 4 0.000000 0.000000 0.000000 0.039388 0.000000 0.001501
# 5 -0.003729 0.004995 -0.009678 0.000000 0.045114 0.000000
# 6 0.000000 0.000000 0.000000 0.001501 0.000000 0.034629
#
#
# Mechanical properties :
#
#
# Convention : Reuss Voigt Hill
#
# Bulk Modulus (GPa) = 40.40945 60.85106 50.63025
# Shear Modulus (GPa) = 22.32989 26.07645 24.20317
#
# Velocity S-wave (km/s) = 3.56502 3.85250 3.71154
# Velocity P-wave (km/s) = 6.32024 7.37721 6.86908
#
# Compressibility (1/GPa) = 0.02474669
#
# Stress axis : x y z
#
# Youngs Moduli (GPa) = 78.96681 76.80759 28.60607
#
# Poissons Ratio (x) = 0.36439 0.15678
# Poissons Ratio (y) = 0.37464 0.22090
# Poissons Ratio (z) = 0.43279 0.59312
#
# Static dielectric constant tensor:
#      x y z
#    x 3.570790 0.000000 0.335570 
#    y 0.000000 3.917160 0.000000 
#    z 0.335570 0.000000 2.971490 
# 
# 
# High freq. dielectric constant tensor:
#      x y z
#    x 1.684230 0.000000 0.040850 
#    y 0.000000 1.684640 0.000000 
#    z 0.040850 0.000000 1.613710 
# 
# From -- ./inp_files/58882.got.cif
#   From: 2010.06.25/outbox.cif.g09.slc.cpg/sg15_30_cif.got.tgz:58882.got - 2010.06.28 07:06:18.
