data_PCOD8129103
_publ_section_title
;
Structure prediction by ZEFSAII (Michael W. Deem and Ramdas Pophale) SiO2 
 PCOD8129103
Probable space group: P 21/C
;
_chemical_formula_sum "Si O2"
_cell_formula_units_Z 24
_cell_length_a 9.823234
_cell_length_b 8.871673
_cell_length_c 13.254542
_cell_angle_alpha 90.000000
_cell_angle_beta 79.792541
_cell_angle_gamma 90.000000
_cell_volume 1136.831207
_symmetry_space_group_name_H-M "P 21/C"
_symmetry_group_IT_number 14
_symmetry_cell_setting 'monoclinic'
loop_
_space_group_symop_operation_xyz
x,y,z
-x,1/2+y,1/2-z
-x,-y,-z
x,1/2-y,1/2+z
loop_
_atom_site_type_symbol
_atom_site_label
_atom_site_fract_x
_atom_site_fract_y
_atom_site_fract_z
Si Si1 0.506556 0.799410 0.619283
Si Si2 0.140036 0.054655 0.216982
Si Si3 0.990027 0.799348 0.126999
Si Si4 0.278671 0.778652 0.993508
Si Si5 0.244781 0.378473 0.494627
Si Si6 0.388749 0.593140 0.798219
O O1 0.370975 0.795708 0.568435
O O2 0.639752 0.747966 0.537885
O O3 0.494335 0.692252 0.718462
O O4 0.523383 0.971966 0.650726
O O5 0.068678 0.152872 0.311430
O O6 0.035583 0.920129 0.204345
O O7 0.283160 0.988952 0.238296
O O8 0.175793 0.151948 0.112704
O O9 0.118802 0.750671 0.041039
O O10 0.873049 0.873497 0.073955
O O11 0.305755 0.703153 0.882920
O O12 0.313584 0.955992 0.982347
#
# Coordination Sequence:
#
# PCOD8129103 Si02
#       6
#     4   4   4   4   4   4
#     4  12  25  45  68 101 134 179 222 281 333 397
#     4  11  25  44  68 103 132 177 227 274 336 397
#     4  11  25  44  71 100 136 179 221 277 333 398
#     4  11  25  43  69  96 137 179 224 275 332 396
#     4  11  24  44  70  97 138 178 219 278 336 393
#     4  12  26  44  69 103 134 174 231 275 336 396
#
# _framework density 21.111312000000002
#
# number of rings (size 3 to 8) (size 9 to 14) (size 15 to 20)
#    0.000    0.667    5.000    4.000    7.000    3.333 
#    0.000    0.000    0.000    0.000    0.000    0.000 
#    0.000    0.000    0.000    0.000    0.000    0.000 
#
# Total GULP energy -297783.644148 kJ/mol
# GULP energy per Si atom -12407.651840 kJ/mol
# Density = 2.106326 g / cm^3
# Si number density = 21.111312 Si / 1000 Ang^3
#
#
#
# Elastic Constant Matrix: (Units=GPa)
#
#
# Indices 1 2 3 4 5 6 
#
# 1 72.2085 13.5936 15.9340 0.0000 6.6257 0.0000
# 2 13.5936 41.6921 20.2984 0.0000 -10.5111 0.0000
# 3 15.9340 20.2984 64.1239 0.0000 -6.0869 0.0000
# 4 0.0000 0.0000 0.0000 18.3459 0.0000 -1.2557
# 5 6.6257 -10.5111 -6.0869 0.0000 40.2472 0.0000
# 6 0.0000 0.0000 0.0000 -1.2557 0.0000 27.7302
#
#
#
# Elastic Compliance Matrix: (Units=1/GPa)
#
#
# Indices 1 2 3 4 5 6 
#
# 1 0.015774 -0.004868 -0.002786 0.000000 -0.004289 0.000000
# 2 -0.004868 0.031434 -0.008000 0.000000 0.007801 0.000000
# 3 -0.002786 -0.008000 0.018937 0.000000 0.001233 0.000000
# 4 0.000000 0.000000 0.000000 0.054678 0.000000 0.002476
# 5 -0.004289 0.007801 0.001233 0.000000 0.027776 0.000000
# 6 0.000000 0.000000 0.000000 0.002476 0.000000 0.036174
#
#
# Mechanical properties :
#
#
# Convention : Reuss Voigt Hill
#
# Bulk Modulus (GPa) = 28.70578 30.85295 29.77936
# Shear Modulus (GPa) = 21.95940 25.81122 23.88531
#
# Velocity S-wave (km/s) = 3.22867 3.50040 3.36728
# Velocity P-wave (km/s) = 5.24652 5.56626 5.40875
#
# Compressibility (1/GPa) = 0.03483619
#
# Stress axis : x y z
#
# Youngs Moduli (GPa) = 63.39741 31.81224 52.80772
#
# Poissons Ratio (x) = 0.15486 0.14711
# Poissons Ratio (y) = 0.30862 0.42248
# Poissons Ratio (z) = 0.17661 0.25451
#
# Static dielectric constant tensor:
#      x y z
#    x 3.861670 0.000000 0.048320 
#    y 0.000000 3.827290 0.000000 
#    z 0.048320 0.000000 4.003200 
# 
# 
# High freq. dielectric constant tensor:
#      x y z
#    x 1.836550 0.000000 0.004370 
#    y 0.000000 1.825860 0.000000 
#    z 0.004370 0.000000 1.842360 
# 
# From -- ./inp_files/38899.got.cif
#   From: 2010.03.12/outbox.cif.g09.slc.cpg/sg14_20_cif.got.tgz:38899.got - 2010.03.31 13:35:05.
