data_PCOD8129621
_publ_section_title
;
Structure prediction by ZEFSAII (Michael W. Deem and Ramdas Pophale) SiO2 
 PCOD8129621
Probable space group: C 2/C
;
_chemical_formula_sum "Si O2"
_cell_formula_units_Z 52
_cell_length_a 21.054359
_cell_length_b 8.238661
_cell_length_c 22.222554
_cell_angle_alpha 90.000000
_cell_angle_beta 136.850528
_cell_angle_gamma 90.000000
_cell_volume 2636.257064
_symmetry_space_group_name_H-M "C 2/C"
_symmetry_group_IT_number 15
_symmetry_cell_setting 'monoclinic'
loop_
_space_group_symop_operation_xyz
x,y,z
-x,y,1/2-z
-x,-y,-z
x,-y,1/2+z
1/2+x,1/2+y,z
1/2-x,1/2+y,1/2-z
1/2-x,1/2-y,-z
1/2+x,1/2-y,1/2+z
loop_
_atom_site_type_symbol
_atom_site_label
_atom_site_fract_x
_atom_site_fract_y
_atom_site_fract_z
Si Si1 0.922297 0.082137 0.869000
Si Si2 0.180413 0.566171 0.863666
Si Si3 0.454824 0.137914 0.311662
Si Si4 0.000000 0.876268 0.250000
Si Si5 0.430940 0.838929 0.099876
Si Si6 0.599530 0.633373 0.253432
Si Si7 0.117525 0.069912 0.522512
O O1 0.903201 0.260062 0.827809
O O2 0.873821 0.083875 0.899772
O O3 0.876970 0.940727 0.796245
O O4 0.033460 0.050932 0.948939
O O5 0.115861 0.433892 0.786698
O O6 0.149939 0.601201 0.911117
O O7 0.178277 0.738054 0.825951
O O8 0.285477 0.498657 0.935460
O O9 0.522993 0.263410 0.323522
O O10 0.513087 0.996843 0.384071
O O11 0.910095 0.986643 0.204864
O O12 0.499088 0.721730 0.184283
O O13 0.394035 0.748022 0.015267
#
# Coordination Sequence:
#
# PCOD8129621 Si02
#       7
#     8   8   8   4   8   8   8
#     4   9  21  39  53  79 103 159 175 216 269 330
#     4  11  19  34  56  88 103 139 179 240 255 315
#     4  10  19  33  59  79 108 135 187 219 270 309
#     4  10  14  30  52  80 102 132 166 228 252 320
#     4  10  18  35  53  82 106 146 167 220 274 335
#     4   9  17  31  59  75 104 138 187 213 269 312
#     4  10  22  37  55  73 119 143 184 210 272 325
#
# _framework density 19.724934999999999
#
# number of rings (size 3 to 8) (size 9 to 14) (size 15 to 20)
#    0.000    2.154    3.077    1.385    0.000    1.846 
#    0.000    3.846    0.000    0.000    0.000    0.000 
#    0.000    0.000    0.000    0.000    0.000    0.000 
#
# Total GULP energy -322234.838985 kJ/mol
# GULP energy per Si atom -12393.647653 kJ/mol
# Density = 1.968004 g / cm^3
# Si number density = 19.724935 Si / 1000 Ang^3
#
#
#
# Elastic Constant Matrix: (Units=GPa)
#
#
# Indices 1 2 3 4 5 6 
#
# 1 60.9336 13.1618 1.2506 0.0000 1.2276 0.0000
# 2 13.1618 83.4998 5.5848 0.0000 -7.0077 -0.0001
# 3 1.2506 5.5848 20.0139 0.0000 2.7423 0.0000
# 4 0.0000 0.0000 0.0000 16.8109 0.0000 -7.2066
# 5 1.2276 -7.0077 2.7423 0.0000 31.2130 0.0000
# 6 0.0000 -0.0001 0.0000 -7.2066 0.0000 22.8225
#
#
#
# Elastic Compliance Matrix: (Units=1/GPa)
#
#
# Indices 1 2 3 4 5 6 
#
# 1 0.017041 -0.002787 -0.000111 0.000000 -0.001286 0.000000
# 2 -0.002787 0.012958 -0.003902 0.000000 0.003362 0.000000
# 3 -0.000111 -0.003902 0.051804 0.000000 -0.005423 0.000000
# 4 0.000000 0.000000 0.000000 0.068798 0.000000 0.021724
# 5 -0.001286 0.003362 -0.005423 0.000000 0.033320 0.000000
# 6 0.000000 0.000000 0.000000 0.021724 0.000000 0.050676
#
#
# Mechanical properties :
#
#
# Convention : Reuss Voigt Hill
#
# Bulk Modulus (GPa) = 14.66195 22.71574 18.68884
# Shear Modulus (GPa) = 18.45476 23.79929 21.12702
#
# Velocity S-wave (km/s) = 3.06209 3.47732 3.27629
# Velocity P-wave (km/s) = 4.46667 5.25962 4.87928
#
# Compressibility (1/GPa) = 0.06820374
#
# Stress axis : x y z
#
# Youngs Moduli (GPa) = 58.68049 77.16954 19.30345
#
# Poissons Ratio (x) = 0.21505 0.00214
# Poissons Ratio (y) = 0.16352 0.07533
# Poissons Ratio (z) = 0.00651 0.30115
#
# Static dielectric constant tensor:
#      x y z
#    x 3.470500 0.000000 -0.215820 
#    y 0.000000 3.818080 0.000000 
#    z -0.215820 0.000000 3.327680 
# 
# 
# High freq. dielectric constant tensor:
#      x y z
#    x 1.758040 0.000000 -0.020190 
#    y 0.000000 1.775490 0.000000 
#    z -0.020190 0.000000 1.734600 
# 
# From -- ./inp_files/213313.got.cif
#   From: 2010.06.25/outbox.cif.g09.slc.cpg/sg15_107_cif.got.tgz:213313.got - 2010.06.28 07:06:18.
