data_PCOD8129660
_publ_section_title
;
Structure prediction by ZEFSAII (Michael W. Deem and Ramdas Pophale) SiO2 
 PCOD8129660
Probable space group: C 2/C
;
_chemical_formula_sum "Si O2"
_cell_formula_units_Z 64
_cell_length_a 15.319231
_cell_length_b 11.578303
_cell_length_c 19.182494
_cell_angle_alpha 90.000000
_cell_angle_beta 106.548407
_cell_angle_gamma 90.000000
_cell_volume 3261.482527
_symmetry_space_group_name_H-M "C 2/C"
_symmetry_group_IT_number 15
_symmetry_cell_setting 'monoclinic'
loop_
_space_group_symop_operation_xyz
x,y,z
-x,y,1/2-z
-x,-y,-z
x,-y,1/2+z
1/2+x,1/2+y,z
1/2-x,1/2+y,1/2-z
1/2-x,1/2-y,-z
1/2+x,1/2-y,1/2+z
loop_
_atom_site_type_symbol
_atom_site_label
_atom_site_fract_x
_atom_site_fract_y
_atom_site_fract_z
Si Si1 0.869818 0.362319 0.669269
Si Si2 0.101687 0.464937 0.534742
Si Si3 0.597667 0.625723 0.634770
Si Si4 0.754651 0.615001 0.015787
Si Si5 0.568534 0.883427 0.669856
Si Si6 0.152929 0.217213 0.507243
Si Si7 0.587281 0.493727 0.918062
Si Si8 0.606096 0.391504 0.285727
O O1 0.787395 0.409053 0.602781
O O2 0.867739 0.406530 0.748405
O O3 0.856967 0.223692 0.668740
O O4 0.962725 0.413953 0.657583
O O5 0.175285 0.552772 0.520945
O O6 0.117135 0.459335 0.621581
O O7 0.102198 0.337182 0.503278
O O8 0.000000 0.500000 0.500000
O O9 0.559738 0.749689 0.648057
O O10 0.662690 0.644915 0.582489
O O11 0.514522 0.541534 0.593764
O O12 0.647881 0.578947 0.717672
O O13 0.750000 0.750000 0.000000
O O14 0.654788 0.562219 0.985184
O O15 0.250000 0.250000 0.500000
O O16 0.094656 0.141276 0.439044
O O17 0.620619 0.505688 0.844910
O O18 0.500000 0.369676 0.250000
#
# Coordination Sequence:
#
# PCOD8129660 Si02
#       8
#     8   8   8   8   8   8   8   8
#     4  10  15  30  55  89 113 152 194 248 294 356
#     4  11  23  39  61  87 116 162 203 244 297 370
#     4   9  18  35  62  86 113 159 211 239 295 368
#     4  12  22  33  59  91 125 146 203 259 302 337
#     4   9  16  32  58  82 114 152 205 238 293 361
#     4  11  23  39  59  88 126 163 197 244 311 366
#     4  11  20  36  57  91 122 156 199 257 298 356
#     4   9  15  31  58  86 113 151 206 249 290 353
#
# _framework density 19.622978
#
# number of rings (size 3 to 8) (size 9 to 14) (size 15 to 20)
#    0.000    1.750    7.500    0.375    1.750    0.000 
#    0.000    1.250    0.000    4.500    0.000    0.000 
#    0.000    0.000    0.000    0.000    0.000    0.000 
#
# Total GULP energy -396421.091983 kJ/mol
# GULP energy per Si atom -12388.159124 kJ/mol
# Density = 1.957832 g / cm^3
# Si number density = 19.622978 Si / 1000 Ang^3
#
#
#
# Elastic Constant Matrix: (Units=GPa)
#
#
# Indices 1 2 3 4 5 6 
#
# 1 67.2964 35.3037 49.8972 0.0000 -13.7398 0.0000
# 2 35.3037 94.4478 51.7622 0.0000 -12.3512 0.0000
# 3 49.8972 51.7622 152.8528 0.0000 -17.5333 0.0000
# 4 0.0000 0.0000 0.0000 30.1918 0.0000 -1.1307
# 5 -13.7398 -12.3512 -17.5333 0.0000 32.7718 0.0000
# 6 0.0000 0.0000 0.0000 -1.1307 0.0000 29.7146
#
#
#
# Elastic Compliance Matrix: (Units=1/GPa)
#
#
# Indices 1 2 3 4 5 6 
#
# 1 0.022117 -0.004897 -0.005018 0.000000 0.004743 0.000000
# 2 -0.004897 0.014315 -0.003053 0.000000 0.001709 0.000000
# 3 -0.005018 -0.003053 0.009419 0.000000 0.001785 0.000000
# 4 0.000000 0.000000 0.000000 0.033169 0.000000 0.001262
# 5 0.004743 0.001709 0.001785 0.000000 0.034101 0.000000
# 6 0.000000 0.000000 0.000000 0.001262 0.000000 0.033701
#
#
# Mechanical properties :
#
#
# Convention : Reuss Voigt Hill
#
# Bulk Modulus (GPa) = 50.21187 65.39145 57.80166
# Shear Modulus (GPa) = 27.87118 30.37790 29.12454
#
# Velocity S-wave (km/s) = 3.77282 3.93883 3.85672
# Velocity P-wave (km/s) = 6.68003 7.35405 7.02513
#
# Compressibility (1/GPa) = 0.01991561
#
# Stress axis : x y z
#
# Youngs Moduli (GPa) = 45.21351 69.85668 106.17069
#
# Poissons Ratio (x) = 0.34210 0.53272
# Poissons Ratio (y) = 0.22142 0.32414
# Poissons Ratio (z) = 0.22686 0.21328
#
# Static dielectric constant tensor:
#      x y z
#    x 3.723680 0.000000 -0.828110 
#    y 0.000000 3.466490 0.000000 
#    z -0.828110 0.000000 5.158260 
# 
# 
# High freq. dielectric constant tensor:
#      x y z
#    x 1.739940 0.000000 -0.015400 
#    y 0.000000 1.742450 0.000000 
#    z -0.015400 0.000000 1.783280 
# 
# From -- ./inp_files/243743.got.cif
#   From: 2010.06.25/outbox.cif.g09.slc.cpg/sg15_122_cif.got.tgz:243743.got - 2010.06.28 07:06:18.
