data_PCOD8129141
_publ_section_title
;
Structure prediction by ZEFSAII (Michael W. Deem and Ramdas Pophale) SiO2 
 PCOD8129141
Probable space group: P 21/C
;
_chemical_formula_sum "Si O2"
_cell_formula_units_Z 32
_cell_length_a 17.076273
_cell_length_b 11.200083
_cell_length_c 14.609205
_cell_angle_alpha 90.000000
_cell_angle_beta 148.666068
_cell_angle_gamma 90.000000
_cell_volume 1452.998548
_symmetry_space_group_name_H-M "P 21/C"
_symmetry_group_IT_number 14
_symmetry_cell_setting 'monoclinic'
loop_
_space_group_symop_operation_xyz
x,y,z
-x,1/2+y,1/2-z
-x,-y,-z
x,1/2-y,1/2+z
loop_
_atom_site_type_symbol
_atom_site_label
_atom_site_fract_x
_atom_site_fract_y
_atom_site_fract_z
Si Si1 0.837406 0.700128 0.256271
Si Si2 0.478843 0.422512 0.068104
Si Si3 0.669846 0.491934 0.705046
Si Si4 0.196676 0.041510 0.845047
Si Si5 0.681854 0.233455 0.345846
Si Si6 0.972626 0.148526 0.211231
Si Si7 0.556619 0.884656 0.777082
Si Si8 0.796000 0.765143 0.410275
O O1 0.866792 0.827306 0.237592
O O2 0.881085 0.707072 0.407037
O O3 0.943629 0.613200 0.301417
O O4 0.663116 0.665019 0.076092
O O5 0.629360 0.342864 0.229330
O O6 0.457494 0.512668 0.130973
O O7 0.500000 0.500000 0.000000
O O8 0.500000 0.500000 0.500000
O O9 0.778761 0.472497 0.726291
O O10 0.702490 0.384229 0.805945
O O11 0.712329 0.613615 0.798869
O O12 0.078187 0.972985 0.790555
O O13 0.357637 0.050482 0.054695
O O14 0.833757 0.265288 0.550282
O O15 0.554444 0.215907 0.295647
O O16 0.084948 0.218099 0.390488
O O17 0.670686 0.827622 0.818472
#
# Coordination Sequence:
#
# PCOD8129141 Si02
#       8
#     4   4   4   4   4   4   4   4
#     4  11  25  49  71 104 149 192 247 297 373 439
#     4  12  25  48  73 105 138 194 238 304 362 426
#     4  11  25  44  75 106 140 187 253 302 363 423
#     4  11  24  45  72 101 145 191 244 304 362 445
#     4  12  27  43  71 113 141 185 249 307 355 452
#     4  12  28  43  73 108 153 194 245 293 387 444
#     4  12  24  46  76 101 148 185 252 302 370 423
#     4  11  26  47  74 103 148 202 231 316 370 436
#
# _framework density 22.023420000000002
#
# number of rings (size 3 to 8) (size 9 to 14) (size 15 to 20)
#    0.000    0.500    6.250    0.750    8.750    1.000 
#    0.000    1.250    0.000    0.000    0.000    0.000 
#    0.000    0.000    0.000    0.000    0.000    0.000 
#
# Total GULP energy -396891.793207 kJ/mol
# GULP energy per Si atom -12402.868538 kJ/mol
# Density = 2.197329 g / cm^3
# Si number density = 22.023420 Si / 1000 Ang^3
#
#
#
# Elastic Constant Matrix: (Units=GPa)
#
#
# Indices 1 2 3 4 5 6 
#
# 1 150.9727 52.8947 41.9829 0.0000 -6.1243 0.0000
# 2 52.8947 97.9099 26.1454 0.0000 -5.7191 0.0000
# 3 41.9829 26.1454 92.8088 0.0000 -2.9689 0.0000
# 4 0.0000 0.0000 0.0000 32.2184 0.0000 -3.3163
# 5 -6.1243 -5.7191 -2.9689 0.0000 32.8490 0.0000
# 6 0.0000 0.0000 0.0000 -3.3163 0.0000 45.7142
#
#
#
# Elastic Compliance Matrix: (Units=1/GPa)
#
#
# Indices 1 2 3 4 5 6 
#
# 1 0.008838 -0.003971 -0.002857 0.000000 0.000698 0.000000
# 2 -0.003971 0.012918 -0.001800 0.000000 0.001346 0.000000
# 3 -0.002857 -0.001800 0.012584 0.000000 0.000291 0.000000
# 4 0.000000 0.000000 0.000000 0.031272 0.000000 0.002269
# 5 0.000698 0.001346 0.000291 0.000000 0.030833 0.000000
# 6 0.000000 0.000000 0.000000 0.002269 0.000000 0.022040
#
#
# Mechanical properties :
#
#
# Convention : Reuss Voigt Hill
#
# Bulk Modulus (GPa) = 58.53390 64.85970 61.69680
# Shear Modulus (GPa) = 35.35237 36.86754 36.10995
#
# Velocity S-wave (km/s) = 4.01086 4.09591 4.05361
# Velocity P-wave (km/s) = 6.93434 7.20298 7.06994
#
# Compressibility (1/GPa) = 0.01708412
#
# Stress axis : x y z
#
# Youngs Moduli (GPa) = 113.15186 77.41198 79.46902
#
# Poissons Ratio (x) = 0.30739 0.22703
# Poissons Ratio (y) = 0.44930 0.14303
# Poissons Ratio (z) = 0.32326 0.13933
#
# Static dielectric constant tensor:
#      x y z
#    x 4.483070 0.000000 -0.168110 
#    y 0.000000 3.996940 0.000000 
#    z -0.168110 0.000000 4.085580 
# 
# 
# High freq. dielectric constant tensor:
#      x y z
#    x 1.880360 0.000000 -0.013770 
#    y 0.000000 1.865420 0.000000 
#    z -0.013770 0.000000 1.869240 
# 
# From -- ./inp_files/49045.got.cif
#   From: 2010.03.12/outbox.cif.g09.slc.cpg/sg14_25_cif.got.tgz:49045.got - 2010.03.31 13:35:05.
