data_PCOD8129557
_publ_section_title
;
Structure prediction by ZEFSAII (Michael W. Deem and Ramdas Pophale) SiO2 
 PCOD8129557
Probable space group: C 2/C
;
_chemical_formula_sum "Si O2"
_cell_formula_units_Z 24
_cell_length_a 15.000000
_cell_length_b 27.000000
_cell_length_c 12.000000
_cell_angle_alpha 90.000000
_cell_angle_beta 30.000000
_cell_angle_gamma 90.000000
_cell_volume 2430.000000
_symmetry_space_group_name_H-M "C 2/C"
_symmetry_group_IT_number 15
_symmetry_cell_setting 'monoclinic'
loop_
_space_group_symop_operation_xyz
x,y,z
-x,y,1/2-z
-x,-y,-z
x,-y,1/2+z
1/2+x,1/2+y,z
1/2-x,1/2+y,1/2-z
1/2-x,1/2-y,-z
1/2+x,1/2-y,1/2+z
loop_
_atom_site_type_symbol
_atom_site_label
_atom_site_fract_x
_atom_site_fract_y
_atom_site_fract_z
Si Si1 0.894566 0.973760 0.974313
Si Si2 0.535574 0.918581 0.335777
Si Si3 0.528390 0.677057 0.591343
Si Si4 0.661338 0.428073 0.861898
Si Si5 0.210164 0.755657 0.277703
Si Si6 0.063638 0.303020 0.301769
O O1 0.000000 0.959246 0.750000
O O2 0.022629 0.951936 0.928316
O O3 0.704638 0.947784 0.198912
O O4 0.853916 0.033086 0.019214
O O5 0.500000 0.938055 0.250000
O O6 0.362518 0.928191 0.598335
O O7 0.589501 0.861381 0.274674
O O8 0.500000 0.664093 0.750000
O O9 0.608056 0.628074 0.448148
O O10 0.646576 0.726324 0.450621
O O11 0.345847 0.694751 0.729655
O O12 0.258283 0.774811 0.350998
O O13 0.065873 0.713269 0.457640
O O14 0.000000 0.284482 0.250000
#
# Coordination Sequence:
#
# PCOD8129557 Si02
#       6
#     8   8   8   8   8   8
#     4  11  23  40  64  91 120 158 201 245 308 366
#     4  11  21  39  62  88 123 161 197 247 307 360
#     4  11  22  40  61  85 119 161 205 253 301 355
#     4  11  23  41  63  89 122 157 202 254 299 359
#     4  10  21  37  59  86 122 158 203 245 299 355
#     4  10  20  35  58  90 122 156 197 242 299 359
#
# _framework density 9.8765429999999999
#
# number of rings (size 3 to 8) (size 9 to 14) (size 15 to 20)
#    0.000    1.333    3.333    3.000    0.000    0.000 
#    0.000    0.833    0.000    0.000    0.000    0.000 
#    0.000    0.000    0.000    0.000    0.000    0.000 
#
# Total GULP energy -297343.841301 kJ/mol
# GULP energy per Si atom -12389.326721 kJ/mol
# Density = 0.985406 g / cm^3
# Si number density = 9.876543 Si / 1000 Ang^3
#
#
#
# Elastic Constant Matrix: (Units=GPa)
#
#
# Indices 1 2 3 4 5 6 
#
# 1 49.8692 37.0841 24.6811 0.0003 3.0728 0.0009
# 2 37.0841 117.2502 50.7663 0.0002 -7.9559 0.0008
# 3 24.6811 50.7663 100.2514 -0.0008 -2.1338 0.0033
# 4 0.0003 0.0002 -0.0008 32.5718 -0.0001 -0.6681
# 5 3.0728 -7.9559 -2.1338 -0.0001 29.3535 -0.0013
# 6 0.0009 0.0008 0.0033 -0.6681 -0.0013 36.8112
#
#
#
# Elastic Compliance Matrix: (Units=1/GPa)
#
#
# Indices 1 2 3 4 5 6 
#
# 1 0.027655 -0.007820 -0.002960 0.000000 -0.005230 0.000000
# 2 -0.007820 0.013331 -0.004739 0.000000 0.004087 0.000000
# 3 -0.002960 -0.004739 0.013103 0.000000 -0.000022 -0.000001
# 4 0.000000 0.000000 0.000000 0.030713 0.000000 0.000557
# 5 -0.005230 0.004087 -0.000022 0.000000 0.035721 0.000001
# 6 0.000000 0.000000 -0.000001 0.000557 0.000001 0.027176
#
#
# Mechanical properties :
#
#
# Convention : Reuss Voigt Hill
#
# Bulk Modulus (GPa) = 43.38025 54.71486 49.04756
# Shear Modulus (GPa) = 26.82135 30.06992 28.44564
#
# Velocity S-wave (km/s) = 3.68887 3.90589 3.79893
# Velocity P-wave (km/s) = 6.33661 6.93547 6.64279
#
# Compressibility (1/GPa) = 0.02305196
#
# Stress axis : x y z
#
# Youngs Moduli (GPa) = 36.16021 75.01251 76.32057
#
# Poissons Ratio (x) = 0.58660 0.22588
# Poissons Ratio (y) = 0.28278 0.36165
# Poissons Ratio (z) = 0.10702 0.35545
#
# Static dielectric constant tensor:
#      x y z
#    x 3.698190 0.000000 -0.203520 
#    y 0.000000 3.763990 0.000000 
#    z -0.203520 0.000000 3.464300 
# 
# 
# High freq. dielectric constant tensor:
#      x y z
#    x 1.764380 0.000000 -0.007870 
#    y 0.000000 1.783770 0.000000 
#    z -0.007870 0.000000 1.770990 
# 
# From -- ./inp_files/101199.got.cif
#   From: 2010.06.25/outbox.ucp.g09.slc.cvg/sg15_51_cif.got.tgz:101199.got - 2010.06.28 14:40:10.
