data_PCOD8129487
_publ_section_title
;
Structure prediction by ZEFSAII (Michael W. Deem and Ramdas Pophale) SiO2 
 PCOD8129487
Probable space group: P 21/C
;
_chemical_formula_sum "Si O2"
_cell_formula_units_Z 16
_cell_length_a 11.913410
_cell_length_b 8.360550
_cell_length_c 8.393235
_cell_angle_alpha 90.000000
_cell_angle_beta 134.790935
_cell_angle_gamma 90.000000
_cell_volume 593.286189
_symmetry_space_group_name_H-M "P 21/C"
_symmetry_group_IT_number 14
_symmetry_cell_setting 'monoclinic'
loop_
_space_group_symop_operation_xyz
x,y,z
-x,1/2+y,1/2-z
-x,-y,-z
x,1/2-y,1/2+z
loop_
_atom_site_type_symbol
_atom_site_label
_atom_site_fract_x
_atom_site_fract_y
_atom_site_fract_z
Si Si1 0.379321 0.333677 0.740206
Si Si2 0.673577 0.375470 0.519969
Si Si3 0.120678 0.666324 0.981562
Si Si4 0.173577 0.375469 0.827185
O O1 0.406657 0.460418 0.623382
O O2 0.302469 0.415617 0.819348
O O3 0.262636 0.195638 0.567292
O O4 0.543574 0.250048 0.953473
O O5 0.762643 0.304366 0.457991
O O6 0.802465 0.415617 0.785591
O O7 0.093342 0.539582 0.810067
O O8 0.956427 0.749952 0.866329
#
# Coordination Sequence:
#
# PCOD8129487 Si02
#       4
#     4   4   4   4
#     4  12  27  49  77 109 148 194 244 301 365 433
#     4  12  27  49  77 109 148 194 244 301 365 433
#     4  12  27  49  77 109 148 194 244 301 365 433
#     4  12  27  49  77 109 148 194 244 301 365 433
#
# _framework density 26.968433999999998
#
# number of rings (size 3 to 8) (size 9 to 14) (size 15 to 20)
#    0.000    0.000    0.000    9.000    0.000   12.000 
#    0.000   15.000    0.000    0.000    0.000    0.000 
#    0.000    0.000    0.000    0.000    0.000    0.000 
#
# Total GULP energy -198517.586933 kJ/mol
# GULP energy per Si atom -12407.349183 kJ/mol
# Density = 2.690705 g / cm^3
# Si number density = 26.968434 Si / 1000 Ang^3
#
#
#
# Elastic Constant Matrix: (Units=GPa)
#
#
# Indices 1 2 3 4 5 6 
#
# 1 110.9425 18.9061 7.2273 0.0000 3.1218 0.0000
# 2 18.9061 88.9569 19.2719 0.0000 -5.3597 0.0000
# 3 7.2273 19.2719 110.4487 0.0000 4.1971 0.0000
# 4 0.0000 0.0000 0.0000 43.2630 0.0000 -3.6444
# 5 3.1218 -5.3597 4.1971 0.0000 35.8587 0.0000
# 6 0.0000 0.0000 0.0000 -3.6444 0.0000 43.0168
#
#
#
# Elastic Compliance Matrix: (Units=1/GPa)
#
#
# Indices 1 2 3 4 5 6 
#
# 1 0.009402 -0.002016 -0.000222 0.000000 -0.001094 0.000000
# 2 -0.002016 0.012259 -0.002093 0.000000 0.002253 0.000000
# 3 -0.000222 -0.002093 0.009487 0.000000 -0.001404 0.000000
# 4 0.000000 0.000000 0.000000 0.023281 0.000000 0.001972
# 5 -0.001094 0.002253 -0.001404 0.000000 0.028483 0.000000
# 6 0.000000 0.000000 0.000000 0.001972 0.000000 0.023414
#
#
# Mechanical properties :
#
#
# Convention : Reuss Voigt Hill
#
# Bulk Modulus (GPa) = 44.47025 44.57320 44.52172
# Shear Modulus (GPa) = 40.82180 42.09057 41.45619
#
# Velocity S-wave (km/s) = 3.89484 3.95490 3.92498
# Velocity P-wave (km/s) = 6.06233 6.11709 6.08977
#
# Compressibility (1/GPa) = 0.02248694
#
# Stress axis : x y z
#
# Youngs Moduli (GPa) = 106.35476 81.57274 105.40740
#
# Poissons Ratio (x) = 0.16446 0.02339
# Poissons Ratio (y) = 0.21443 0.22059
# Poissons Ratio (z) = 0.02360 0.17071
#
# Static dielectric constant tensor:
#      x y z
#    x 4.818010 0.000000 0.158240 
#    y 0.000000 4.803120 0.000000 
#    z 0.158240 0.000000 4.807320 
# 
# 
# High freq. dielectric constant tensor:
#      x y z
#    x 2.086460 0.000000 -0.000090 
#    y 0.000000 2.091360 0.000000 
#    z -0.000090 0.000000 2.086470 
# 
# From -- ./inp_files/7284.got.cif
#   From: 2010.03.12/outbox.cif.g09.slc.cpg/sg14_4_cif.got.tgz:7284.got - 2010.03.31 13:35:05.
