data_PCOD8129563
_publ_section_title
;
Structure prediction by ZEFSAII (Michael W. Deem and Ramdas Pophale) SiO2 
 PCOD8129563
Probable space group: C 2/C
;
_chemical_formula_sum "Si O2"
_cell_formula_units_Z 16
_cell_length_a 15.000000
_cell_length_b 15.000000
_cell_length_c 21.000000
_cell_angle_alpha 90.000000
_cell_angle_beta 20.000000
_cell_angle_gamma 90.000000
_cell_volume 1616.045177
_symmetry_space_group_name_H-M "C 2/C"
_symmetry_group_IT_number 15
_symmetry_cell_setting 'monoclinic'
loop_
_space_group_symop_operation_xyz
x,y,z
-x,y,1/2-z
-x,-y,-z
x,-y,1/2+z
1/2+x,1/2+y,z
1/2-x,1/2+y,1/2-z
1/2-x,1/2-y,-z
1/2+x,1/2-y,1/2+z
loop_
_atom_site_type_symbol
_atom_site_label
_atom_site_fract_x
_atom_site_fract_y
_atom_site_fract_z
Si Si1 0.582631 0.317697 0.765168
Si Si2 0.098479 0.346067 0.353886
Si Si3 0.855364 0.464912 0.415200
Si Si4 0.097108 0.156211 0.611754
O O1 0.500000 0.282176 0.750000
O O2 0.567096 0.240463 0.828782
O O3 0.882059 0.347944 0.555409
O O4 0.401220 0.400933 0.909035
O O5 0.371176 0.347485 0.209003
O O6 0.056439 0.432644 0.336139
O O7 0.776693 0.568547 0.479756
O O8 0.000000 0.456639 0.250000
O O9 0.250000 0.250000 0.500000
O O10 0.000000 0.152779 0.750000
#
# Coordination Sequence:
#
# PCOD8129563 Si02
#       4
#     8   8   8   8
#     4  10  20  38  67  98 126 160 209 259 311 377
#     4  11  22  40  67  93 128 168 202 261 318 364
#     4  11  24  42  65  95 126 163 214 260 309 377
#     4  12  27  44  63  92 128 167 213 258 312 377
#
# _framework density 9.9007129999999997
#
# number of rings (size 3 to 8) (size 9 to 14) (size 15 to 20)
#    0.000    1.000    0.000    9.750    0.000    7.000 
#    0.000    0.000    0.000    0.000    0.000    0.000 
#    0.000    0.000    0.000    0.000    0.000    0.000 
#
# Total GULP energy -198276.969836 kJ/mol
# GULP energy per Si atom -12392.310615 kJ/mol
# Density = 0.987818 g / cm^3
# Si number density = 9.900713 Si / 1000 Ang^3
#
#
#
# Elastic Constant Matrix: (Units=GPa)
#
#
# Indices 1 2 3 4 5 6 
#
# 1 161.7668 76.0582 71.0818 -0.0192 -3.8277 0.0102
# 2 76.0582 187.6023 68.6569 -0.1098 -0.4316 0.0149
# 3 71.0818 68.6569 147.5295 -0.0543 15.6221 -0.0352
# 4 -0.0192 -0.1098 -0.0543 47.2411 0.0127 8.0067
# 5 -3.8277 -0.4316 15.6221 0.0127 59.7357 -0.0368
# 6 0.0102 0.0149 -0.0352 8.0067 -0.0368 37.1045
#
#
#
# Elastic Compliance Matrix: (Units=1/GPa)
#
#
# Indices 1 2 3 4 5 6 
#
# 1 0.008758 -0.002349 -0.003275 -0.000006 0.001401 -0.000002
# 2 -0.002349 0.007097 -0.002222 0.000014 0.000482 -0.000007
# 3 -0.003275 -0.002222 0.009682 0.000004 -0.002758 0.000007
# 4 -0.000006 0.000014 0.000004 0.021972 -0.000009 -0.004741
# 5 0.001401 0.000482 -0.002758 -0.000009 0.017555 0.000016
# 6 -0.000002 -0.000007 0.000007 -0.004741 0.000016 0.027974
#
#
# Mechanical properties :
#
#
# Convention : Reuss Voigt Hill
#
# Bulk Modulus (GPa) = 101.56799 103.16582 102.36691
# Shear Modulus (GPa) = 44.63779 47.55639 46.09709
#
# Velocity S-wave (km/s) = 4.75307 4.90599 4.83014
# Velocity P-wave (km/s) = 9.02922 9.18178 9.10582
#
# Compressibility (1/GPa) = 0.00984562
#
# Stress axis : x y z
#
# Youngs Moduli (GPa) = 114.17553 140.90237 103.27996
#
# Poissons Ratio (x) = 0.33099 0.33825
# Poissons Ratio (y) = 0.26821 0.22949
# Poissons Ratio (z) = 0.37393 0.31309
#
# Static dielectric constant tensor:
#      x y z
#    x 4.091560 -0.000030 0.103310 
#    y -0.000030 4.066790 0.000490 
#    z 0.103310 0.000490 4.172000 
# 
# 
# High freq. dielectric constant tensor:
#      x y z
#    x 1.807040 0.000000 0.013950 
#    y 0.000000 1.804070 0.000040 
#    z 0.013950 0.000040 1.805520 
# 
# From -- ./inp_files/244462.got.cif
#   From: 2010.06.25/outbox.ucp.g09.slc.cvg/sg15_123_cif.got.tgz:244462.got - 2010.06.28 14:40:10.
