data_PCOD8129232
_publ_section_title
;
Structure prediction by ZEFSAII (Michael W. Deem and Ramdas Pophale) SiO2 
 PCOD8129232
Probable space group: P 21/C
;
_chemical_formula_sum "Si O2"
_cell_formula_units_Z 24
_cell_length_a 9.662999
_cell_length_b 18.331624
_cell_length_c 9.255072
_cell_angle_alpha 90.000000
_cell_angle_beta 135.449591
_cell_angle_gamma 90.000000
_cell_volume 1150.119473
_symmetry_space_group_name_H-M "P 21/C"
_symmetry_group_IT_number 14
_symmetry_cell_setting 'monoclinic'
loop_
_space_group_symop_operation_xyz
x,y,z
-x,1/2+y,1/2-z
-x,-y,-z
x,1/2-y,1/2+z
loop_
_atom_site_type_symbol
_atom_site_label
_atom_site_fract_x
_atom_site_fract_y
_atom_site_fract_z
Si Si1 0.904617 0.316169 0.086035
Si Si2 0.213537 0.568380 0.541050
Si Si3 0.428632 0.162169 0.625880
Si Si4 0.525563 0.801310 0.658651
Si Si5 0.120533 0.402763 0.476799
Si Si6 0.986035 0.167437 0.313979
O O1 0.036180 0.378289 0.259287
O O2 0.953200 0.238596 0.192611
O O3 0.675256 0.336925 0.931499
O O4 0.954679 0.311349 0.955648
O O5 0.432381 0.591924 0.751394
O O6 0.215765 0.481863 0.529687
O O7 0.054729 0.597812 0.537714
O O8 0.162873 0.604171 0.348260
O O9 0.456538 0.218228 0.777263
O O10 0.485950 0.203797 0.522165
O O11 0.204436 0.134792 0.453505
O O12 0.710921 0.847790 0.848081
#
# Coordination Sequence:
#
# PCOD8129232 Si02
#       6
#     4   4   4   4   4   4
#     4  12  24  42  69  99 133 175 224 273 330 391
#     4  11  25  45  67  98 137 177 221 273 331 395
#     4  12  24  40  70 101 127 174 226 272 327 392
#     4  12  24  40  70 101 127 174 226 272 327 392
#     4  11  25  45  67  98 137 177 221 273 331 395
#     4  12  24  42  69  99 133 175 224 273 330 391
#
# _framework density 20.867397
#
# number of rings (size 3 to 8) (size 9 to 14) (size 15 to 20)
#    0.000    0.333    6.667    3.000    0.000    2.667 
#    0.000    1.667    0.000    0.000    0.000    0.000 
#    0.000    0.000    0.000    0.000    0.000    0.000 
#
# Total GULP energy -297751.612017 kJ/mol
# GULP energy per Si atom -12406.317167 kJ/mol
# Density = 2.081990 g / cm^3
# Si number density = 20.867397 Si / 1000 Ang^3
#
#
#
# Elastic Constant Matrix: (Units=GPa)
#
#
# Indices 1 2 3 4 5 6 
#
# 1 75.3885 -8.0175 14.4498 0.0000 5.9539 0.0000
# 2 -8.0175 43.8602 -5.4292 0.0000 0.2113 0.0000
# 3 14.4498 -5.4292 72.3395 0.0000 0.8147 0.0000
# 4 0.0000 0.0000 0.0000 24.2010 0.0000 3.7115
# 5 5.9539 0.2113 0.8147 0.0000 47.8724 0.0000
# 6 0.0000 0.0000 0.0000 3.7115 0.0000 28.5634
#
#
#
# Elastic Compliance Matrix: (Units=1/GPa)
#
#
# Indices 1 2 3 4 5 6 
#
# 1 0.014147 0.002268 -0.002636 0.000000 -0.001725 0.000000
# 2 0.002268 0.023378 0.001306 0.000000 -0.000407 0.000000
# 3 -0.002636 0.001306 0.014447 0.000000 0.000076 0.000000
# 4 0.000000 0.000000 0.000000 0.042161 0.000000 -0.005478
# 5 -0.001725 -0.000407 0.000076 0.000000 0.021104 0.000000
# 6 0.000000 0.000000 0.000000 -0.005478 0.000000 0.035722
#
#
# Mechanical properties :
#
#
# Convention : Reuss Voigt Hill
#
# Bulk Modulus (GPa) = 18.57061 21.51049 20.04055
# Shear Modulus (GPa) = 29.93424 32.83303 31.38363
#
# Velocity S-wave (km/s) = 3.79159 3.97093 3.88229
# Velocity P-wave (km/s) = 5.29970 5.59955 5.45169
#
# Compressibility (1/GPa) = 0.05384854
#
# Stress axis : x y z
#
# Youngs Moduli (GPa) = 70.68465 42.77533 69.21628
#
# Poissons Ratio (x) = -0.09702 0.18247
# Poissons Ratio (y) = -0.16032 -0.09040
# Poissons Ratio (z) = 0.18635 -0.05587
#
# Static dielectric constant tensor:
#      x y z
#    x 3.963850 0.000000 0.120710 
#    y 0.000000 3.586760 0.000000 
#    z 0.120710 0.000000 4.166020 
# 
# 
# High freq. dielectric constant tensor:
#      x y z
#    x 1.822390 0.000000 0.006700 
#    y 0.000000 1.800720 0.000000 
#    z 0.006700 0.000000 1.841340 
# 
# From -- ./inp_files/10271.got.cif
#   From: 2010.03.12/outbox.cif.g09.slc.cpg/sg14_6_cif.got.tgz:10271.got - 2010.03.31 13:35:05.
