data_PCOD8129517
_publ_section_title
;
Structure prediction by ZEFSAII (Michael W. Deem and Ramdas Pophale) SiO2 
 PCOD8129517
Probable space group: P 21/C
;
_chemical_formula_sum "Si O2"
_cell_formula_units_Z 32
_cell_length_a 15.738785
_cell_length_b 14.395548
_cell_length_c 22.401135
_cell_angle_alpha 90.000000
_cell_angle_beta 19.463353
_cell_angle_gamma 90.000000
_cell_volume 1691.139609
_symmetry_space_group_name_H-M "P 21/C"
_symmetry_group_IT_number 14
_symmetry_cell_setting 'monoclinic'
loop_
_space_group_symop_operation_xyz
x,y,z
-x,1/2+y,1/2-z
-x,-y,-z
x,1/2-y,1/2+z
loop_
_atom_site_type_symbol
_atom_site_label
_atom_site_fract_x
_atom_site_fract_y
_atom_site_fract_z
Si Si1 0.223886 0.290856 0.802737
Si Si2 0.463799 0.065762 0.936615
Si Si3 0.882651 0.290887 0.143967
Si Si4 0.079046 0.405453 0.374744
Si Si5 0.264060 0.905419 0.782232
Si Si6 0.733896 0.917500 0.547731
Si Si7 0.607386 0.082517 0.111008
Si Si8 0.862301 0.934170 0.737345
O O1 0.267414 0.182773 0.757021
O O2 0.492099 0.334313 0.646872
O O3 0.114529 0.340597 0.816348
O O4 0.009938 0.302480 0.995017
O O5 0.609028 0.159310 0.821835
O O6 0.363936 0.013285 0.944133
O O7 0.660164 0.999912 0.839804
O O8 0.226333 0.090202 0.136830
O O9 0.830293 0.182799 0.194098
O O10 0.063755 0.334305 0.075182
O O11 0.242642 0.500034 0.257351
O O12 0.912788 0.416210 0.543606
O O13 0.889670 0.388121 0.444518
O O14 0.553037 0.888045 0.612835
O O15 0.577346 0.938273 0.711330
O O16 0.868271 0.013325 0.439798
#
# Coordination Sequence:
#
# PCOD8129517 Si02
#       8
#     4   4   4   4   4   4   4   4
#     4   9  17  30  49  73  98 127 166 205 241 288
#     4   9  17  30  49  72  97 125 159 201 245 288
#     4   9  17  30  49  73  98 127 166 205 241 288
#     4   9  18  31  48  73 103 131 162 203 247 290
#     4   9  18  31  48  73 103 131 162 203 247 290
#     4   9  17  30  50  74  99 129 163 201 245 290
#     4   9  17  30  50  74  99 129 163 201 245 290
#     4   9  17  30  49  72  97 125 159 201 245 288
#
# _framework density 18.922152000000001
#
# number of rings (size 3 to 8) (size 9 to 14) (size 15 to 20)
#    0.000    3.000    0.000    0.750    0.000    5.000 
#    0.000    8.750    0.000    9.000    0.000    0.000 
#    0.000    0.000    0.000    0.000    0.000    0.000 
#
# Total GULP energy -396684.185128 kJ/mol
# GULP energy per Si atom -12396.380785 kJ/mol
# Density = 1.887908 g / cm^3
# Si number density = 18.922152 Si / 1000 Ang^3
#
#
#
# Elastic Constant Matrix: (Units=GPa)
#
#
# Indices 1 2 3 4 5 6 
#
# 1 71.3621 57.3546 40.5518 0.0000 -19.8768 0.0000
# 2 57.3546 156.4286 43.6525 0.0000 -17.2555 0.0000
# 3 40.5518 43.6525 49.9086 0.0000 -6.9897 0.0000
# 4 0.0000 0.0000 0.0000 13.9641 0.0000 -9.0237
# 5 -19.8768 -17.2555 -6.9897 0.0000 23.7798 0.0000
# 6 0.0000 0.0000 0.0000 -9.0237 0.0000 21.1719
#
#
#
# Elastic Compliance Matrix: (Units=1/GPa)
#
#
# Indices 1 2 3 4 5 6 
#
# 1 0.036243 -0.004803 -0.022415 0.000000 0.020221 0.000000
# 2 -0.004803 0.009501 -0.004177 0.000000 0.001652 0.000000
# 3 -0.022415 -0.004177 0.040522 0.000000 -0.009856 0.000000
# 4 0.000000 0.000000 0.000000 0.098833 0.000000 0.042124
# 5 0.020221 0.001652 -0.009856 0.000000 0.057256 0.000000
# 6 0.000000 0.000000 0.000000 0.042124 0.000000 0.065186
#
#
# Mechanical properties :
#
#
# Convention : Reuss Voigt Hill
#
# Bulk Modulus (GPa) = 42.59494 62.31301 52.45397
# Shear Modulus (GPa) = 13.22202 20.85919 17.04061
#
# Velocity S-wave (km/s) = 2.64627 3.32380 3.00420
# Velocity P-wave (km/s) = 5.64770 6.90890 6.30989
#
# Compressibility (1/GPa) = 0.02347697
#
# Stress axis : x y z
#
# Youngs Moduli (GPa) = 27.59158 105.24731 24.67774
#
# Poissons Ratio (x) = 0.50548 0.55316
# Poissons Ratio (y) = 0.13252 0.10307
# Poissons Ratio (z) = 0.61848 0.43958
#
# Static dielectric constant tensor:
#      x y z
#    x 3.400240 0.000000 -0.070010 
#    y 0.000000 3.614580 0.000000 
#    z -0.070010 0.000000 3.342000 
# 
# 
# High freq. dielectric constant tensor:
#      x y z
#    x 1.715840 0.000000 -0.010510 
#    y 0.000000 1.735280 0.000000 
#    z -0.010510 0.000000 1.707260 
# 
# From -- ./inp_files/68648.got.cif
#   From: 2010.03.12/outbox.cif.g09.slc.cpg/sg14_35_cif.got.tgz:68648.got - 2010.03.31 13:35:05.
