data_PCOD8129073
_publ_section_title
;
Structure prediction by ZEFSAII (Michael W. Deem and Ramdas Pophale) SiO2 
 PCOD8129073
Probable space group: P 21/C
;
_chemical_formula_sum "Si O2"
_cell_formula_units_Z 32
_cell_length_a 18.208571
_cell_length_b 15.008554
_cell_length_c 11.719984
_cell_angle_alpha 90.000000
_cell_angle_beta 151.071148
_cell_angle_gamma 90.000000
_cell_volume 1549.311084
_symmetry_space_group_name_H-M "P 21/C"
_symmetry_group_IT_number 14
_symmetry_cell_setting 'monoclinic'
loop_
_space_group_symop_operation_xyz
x,y,z
-x,1/2+y,1/2-z
-x,-y,-z
x,1/2-y,1/2+z
loop_
_atom_site_type_symbol
_atom_site_label
_atom_site_fract_x
_atom_site_fract_y
_atom_site_fract_z
Si Si1 0.767819 0.669284 0.455908
Si Si2 0.126103 0.656359 0.946437
Si Si3 0.143557 0.565351 0.202318
Si Si4 0.651287 0.915022 0.018145
Si Si5 0.681928 0.032030 0.441374
Si Si6 0.876578 0.355359 0.594222
Si Si7 0.672275 0.997355 0.695565
Si Si8 0.222847 0.131368 0.570051
O O1 0.683273 0.653484 0.460290
O O2 0.724120 0.602577 0.294831
O O3 0.715079 0.768425 0.353270
O O4 0.946461 0.658627 0.711431
O O5 0.186241 0.757711 0.023230
O O6 0.188641 0.609987 0.144615
O O7 0.182334 0.597142 0.915664
O O8 0.291097 0.511222 0.446570
O O9 0.118239 0.641618 0.261268
O O10 0.000000 0.500000 0.000000
O O11 0.473435 0.917851 0.804139
O O12 0.755438 0.894374 0.268994
O O13 0.693607 0.016958 0.591669
O O14 0.683977 0.936248 0.382716
O O15 0.770048 0.429929 0.395781
O O16 0.049323 0.373073 0.790002
O O17 0.500000 0.000000 0.500000
#
# Coordination Sequence:
#
# PCOD8129073 Si02
#       8
#     4   4   4   4   4   4   4   4
#     4  11  24  45  69  96 136 182 222 271 340 408
#     4  11  25  41  69 106 132 170 232 284 327 399
#     4  12  19  42  72  90 131 181 223 270 333 397
#     4  12  23  46  69  95 134 179 224 276 336 403
#     4  12  26  45  66 103 138 170 224 282 337 390
#     4  11  24  43  69 101 135 179 226 274 338 402
#     4  12  25  47  65  95 143 183 215 271 351 410
#     4  11  25  42  71 103 128 175 233 282 328 389
#
# _framework density 20.654340999999999
#
# number of rings (size 3 to 8) (size 9 to 14) (size 15 to 20)
#    0.000    0.500    6.250    1.125    3.500    3.000 
#    2.250    0.000    0.000    0.000    0.000    0.000 
#    0.000    0.000    0.000    0.000    0.000    0.000 
#
# Total GULP energy -396829.344744 kJ/mol
# GULP energy per Si atom -12400.917023 kJ/mol
# Density = 2.060733 g / cm^3
# Si number density = 20.654341 Si / 1000 Ang^3
#
#
#
# Elastic Constant Matrix: (Units=GPa)
#
#
# Indices 1 2 3 4 5 6 
#
# 1 136.2225 58.7900 29.7309 0.0000 -9.3725 0.0000
# 2 58.7900 155.1671 44.4676 0.0000 1.5510 0.0000
# 3 29.7309 44.4676 72.1082 0.0000 -2.9820 0.0000
# 4 0.0000 0.0000 0.0000 22.7347 0.0000 -4.0706
# 5 -9.3725 1.5510 -2.9820 0.0000 32.3956 0.0000
# 6 0.0000 0.0000 0.0000 -4.0706 0.0000 28.5628
#
#
#
# Elastic Compliance Matrix: (Units=1/GPa)
#
#
# Indices 1 2 3 4 5 6 
#
# 1 0.009216 -0.002989 -0.001848 0.000000 0.002639 0.000000
# 2 -0.002989 0.008819 -0.004276 0.000000 -0.001680 0.000000
# 3 -0.001848 -0.004276 0.017319 0.000000 0.001264 0.000000
# 4 0.000000 0.000000 0.000000 0.045137 0.000000 0.006433
# 5 0.002639 -0.001680 0.001264 0.000000 0.031829 0.000000
# 6 0.000000 0.000000 0.000000 0.006433 0.000000 0.035927
#
#
# Mechanical properties :
#
#
# Convention : Reuss Voigt Hill
#
# Bulk Modulus (GPa) = 58.37806 69.94165 64.15986
# Shear Modulus (GPa) = 29.03923 32.10590 30.57256
#
# Velocity S-wave (km/s) = 3.75368 3.94691 3.85151
# Velocity P-wave (km/s) = 6.86386 7.39644 7.13512
#
# Compressibility (1/GPa) = 0.01712972
#
# Stress axis : x y z
#
# Youngs Moduli (GPa) = 108.51274 113.38980 57.74017
#
# Poissons Ratio (x) = 0.33887 0.10668
# Poissons Ratio (y) = 0.32429 0.24689
# Poissons Ratio (z) = 0.20048 0.48484
#
# Static dielectric constant tensor:
#      x y z
#    x 3.890730 0.000000 0.028710 
#    y 0.000000 4.032340 0.000000 
#    z 0.028710 0.000000 3.697700 
# 
# 
# High freq. dielectric constant tensor:
#      x y z
#    x 1.818870 0.000000 0.000240 
#    y 0.000000 1.816320 0.000000 
#    z 0.000240 0.000000 1.804730 
# 
# From -- ./inp_files/34179.got.cif
#   From: 2010.03.12/outbox.cif.g09.slc.cpg/sg14_18_cif.got.tgz:34179.got - 2010.03.31 13:35:05.
