data_PCOD8129090
_publ_section_title
;
Structure prediction by ZEFSAII (Michael W. Deem and Ramdas Pophale) SiO2 
 PCOD8129090
Probable space group: P 21/C
;
_chemical_formula_sum "Si O2"
_cell_formula_units_Z 24
_cell_length_a 13.421352
_cell_length_b 5.049775
_cell_length_c 13.303885
_cell_angle_alpha 90.000000
_cell_angle_beta 116.689338
_cell_angle_gamma 90.000000
_cell_volume 805.599992
_symmetry_space_group_name_H-M "P 21/C"
_symmetry_group_IT_number 14
_symmetry_cell_setting 'monoclinic'
loop_
_space_group_symop_operation_xyz
x,y,z
-x,1/2+y,1/2-z
-x,-y,-z
x,1/2-y,1/2+z
loop_
_atom_site_type_symbol
_atom_site_label
_atom_site_fract_x
_atom_site_fract_y
_atom_site_fract_z
Si Si1 0.825147 0.321127 0.932077
Si Si2 0.738293 0.924319 0.731465
Si Si3 0.528675 0.631865 0.700930
Si Si4 0.330727 0.752258 0.981738
Si Si5 0.869712 0.866438 0.126494
Si Si6 0.986789 0.933597 0.360038
O O1 0.780627 0.072942 0.849527
O O2 0.877232 0.538284 0.880229
O O3 0.723683 0.439965 0.955345
O O4 0.925515 0.201400 0.058028
O O5 0.667930 0.124814 0.627580
O O6 0.656406 0.685788 0.728433
O O7 0.843633 0.819424 0.716951
O O8 0.517390 0.333624 0.735630
O O9 0.455249 0.662407 0.566223
O O10 0.248433 0.005764 0.954555
O O11 0.965013 0.026999 0.233659
O O12 0.923585 0.671609 0.067476
#
# Coordination Sequence:
#
# PCOD8129090 Si02
#       6
#     4   4   4   4   4   4
#     4  11  24  47  73 111 156 208 265 326 396 486
#     4  12  27  50  81 113 161 210 273 338 413 489
#     4  12  31  54  87 121 162 214 277 342 423 494
#     4  12  27  51  77 118 155 212 272 333 415 480
#     4  12  26  46  78 113 163 211 271 330 410 489
#     4  11  24  43  76 114 164 210 271 320 410 483
#
# _framework density 29.791457999999999
#
# number of rings (size 3 to 8) (size 9 to 14) (size 15 to 20)
#    0.000    0.333    5.000    2.500    7.000    4.667 
#    0.000    0.000    0.000    0.000    0.000    0.000 
#    0.000    0.000    0.000    0.000    0.000    0.000 
#
# Total GULP energy -297378.830402 kJ/mol
# GULP energy per Si atom -12390.784600 kJ/mol
# Density = 2.972365 g / cm^3
# Si number density = 29.791458 Si / 1000 Ang^3
#
#
#
# Elastic Constant Matrix: (Units=GPa)
#
#
# Indices 1 2 3 4 5 6 
#
# 1 110.8065 -21.8674 -14.2445 0.0000 2.6950 0.0000
# 2 -21.8674 32.1766 -18.1030 0.0000 -2.1683 0.0000
# 3 -14.2445 -18.1030 126.9565 0.0000 1.4279 0.0000
# 4 0.0000 0.0000 0.0000 29.1254 0.0000 8.3798
# 5 2.6950 -2.1683 1.4279 0.0000 50.0191 0.0000
# 6 0.0000 0.0000 0.0000 8.3798 0.0000 43.0373
#
#
#
# Elastic Compliance Matrix: (Units=1/GPa)
#
#
# Indices 1 2 3 4 5 6 
#
# 1 0.011126 0.008966 0.002530 0.000000 -0.000283 0.000000
# 2 0.008966 0.041102 0.006854 0.000000 0.001103 0.000000
# 3 0.002530 0.006854 0.009139 0.000000 -0.000100 0.000000
# 4 0.000000 0.000000 0.000000 0.036372 0.000000 -0.007082
# 5 -0.000283 0.001103 -0.000100 0.000000 0.020058 0.000000
# 6 0.000000 0.000000 0.000000 -0.007082 0.000000 0.024615
#
#
# Mechanical properties :
#
#
# Convention : Reuss Voigt Hill
#
# Bulk Modulus (GPa) = 10.19698 17.94553 14.07125
# Shear Modulus (GPa) = 36.12678 46.04667 41.08672
#
# Velocity S-wave (km/s) = 3.48610 3.93572 3.71771
# Velocity P-wave (km/s) = 4.43103 5.16623 4.81269
#
# Compressibility (1/GPa) = 0.09806828
#
# Stress axis : x y z
#
# Youngs Moduli (GPa) = 89.87757 24.32945 109.42004
#
# Poissons Ratio (x) = -0.21813 -0.27683
# Poissons Ratio (y) = -0.80582 -0.75001
# Poissons Ratio (z) = -0.22739 -0.16676
#
# Static dielectric constant tensor:
#      x y z
#    x 5.598010 0.000000 -0.119860 
#    y 0.000000 5.637930 0.000000 
#    z -0.119860 0.000000 6.953780 
# 
# 
# High freq. dielectric constant tensor:
#      x y z
#    x 2.223310 0.000000 -0.001350 
#    y 0.000000 2.207670 0.000000 
#    z -0.001350 0.000000 2.263750 
# 
# From -- ./inp_files/46000.got.cif
#   From: 2010.03.12/outbox.cif.g09.slc.cpg/sg14_23_cif.got.tgz:46000.got - 2010.03.31 13:35:05.
