data_PCOD8129457
_publ_section_title
;
Structure prediction by ZEFSAII (Michael W. Deem and Ramdas Pophale) SiO2 
 PCOD8129457
Probable space group: P 21/C
;
_chemical_formula_sum "Si O2"
_cell_formula_units_Z 20
_cell_length_a 6.867033
_cell_length_b 14.618058
_cell_length_c 14.731879
_cell_angle_alpha 90.000000
_cell_angle_beta 142.218543
_cell_angle_gamma 90.000000
_cell_volume 906.004421
_symmetry_space_group_name_H-M "P 21/C"
_symmetry_group_IT_number 14
_symmetry_cell_setting 'monoclinic'
loop_
_space_group_symop_operation_xyz
x,y,z
-x,1/2+y,1/2-z
-x,-y,-z
x,1/2-y,1/2+z
loop_
_atom_site_type_symbol
_atom_site_label
_atom_site_fract_x
_atom_site_fract_y
_atom_site_fract_z
Si Si1 0.182348 0.636123 0.672001
Si Si2 0.332908 0.524933 0.167725
Si Si3 0.916487 0.251810 0.188012
Si Si4 0.474849 0.575260 0.414361
Si Si5 0.395657 0.716847 0.103981
O O1 0.399243 0.547139 0.760674
O O2 0.212366 0.683614 0.780502
O O3 0.306709 0.702852 0.639979
O O4 0.823893 0.609501 0.514230
O O5 0.298533 0.529516 0.263652
O O6 0.446733 0.624026 0.177202
O O7 0.000000 0.500000 0.000000
O O8 0.739693 0.155525 0.125601
O O9 0.291356 0.240440 0.338529
O O10 0.872174 0.296119 0.071813
O O11 0.500000 0.500000 0.500000
#
# Coordination Sequence:
#
# PCOD8129457 Si02
#       5
#     4   4   4   4   4
#     4  12  27  50  75 109 153 202 249 307 382 447
#     4  12  28  45  79 112 152 191 252 318 366 445
#     4  12  26  45  78 107 145 205 246 305 374 449
#     4  12  26  50  75 110 150 203 252 304 382 449
#     4  12  26  48  74 109 153 193 250 308 377 439
#
# _framework density 22.074947999999999
#
# number of rings (size 3 to 8) (size 9 to 14) (size 15 to 20)
#    0.000    0.000    4.000    5.400    8.400    0.800 
#    0.000    0.000    0.000    0.000    0.000    0.000 
#    0.000    0.000    0.000    0.000    0.000    0.000 
#
# Total GULP energy -248166.229637 kJ/mol
# GULP energy per Si atom -12408.311482 kJ/mol
# Density = 2.202470 g / cm^3
# Si number density = 22.074948 Si / 1000 Ang^3
#
#
#
# Elastic Constant Matrix: (Units=GPa)
#
#
# Indices 1 2 3 4 5 6 
#
# 1 113.0076 50.9953 48.9328 0.0000 -6.3780 0.0000
# 2 50.9953 122.0758 40.3201 0.0000 -2.4269 0.0000
# 3 48.9328 40.3201 123.7180 0.0000 -12.3644 0.0000
# 4 0.0000 0.0000 0.0000 39.7666 0.0000 -4.3188
# 5 -6.3780 -2.4269 -12.3644 0.0000 54.1186 0.0000
# 6 0.0000 0.0000 0.0000 -4.3188 0.0000 38.2271
#
#
#
# Elastic Compliance Matrix: (Units=1/GPa)
#
#
# Indices 1 2 3 4 5 6 
#
# 1 0.012150 -0.003916 -0.003483 0.000000 0.000460 0.000000
# 2 -0.003916 0.010446 -0.001898 0.000000 -0.000427 0.000000
# 3 -0.003483 -0.001898 0.010264 0.000000 0.001849 0.000000
# 4 0.000000 0.000000 0.000000 0.025459 0.000000 0.002876
# 5 0.000460 -0.000427 0.001849 0.000000 0.018936 0.000000
# 6 0.000000 0.000000 0.000000 0.002876 0.000000 0.026484
#
#
# Mechanical properties :
#
#
# Convention : Reuss Voigt Hill
#
# Bulk Modulus (GPa) = 70.10036 71.03307 70.56672
# Shear Modulus (GPa) = 39.34226 40.99269 40.16747
#
# Velocity S-wave (km/s) = 4.22621 4.31394 4.27030
# Velocity P-wave (km/s) = 7.45915 7.55390 7.50668
#
# Compressibility (1/GPa) = 0.01426526
#
# Stress axis : x y z
#
# Youngs Moduli (GPa) = 82.30180 95.73125 97.42672
#
# Poissons Ratio (x) = 0.37488 0.33938
# Poissons Ratio (y) = 0.32229 0.18493
# Poissons Ratio (z) = 0.28670 0.18171
#
# Static dielectric constant tensor:
#      x y z
#    x 4.082210 0.000000 0.066500 
#    y 0.000000 4.147950 0.000000 
#    z 0.066500 0.000000 4.678070 
# 
# 
# High freq. dielectric constant tensor:
#      x y z
#    x 1.880930 0.000000 -0.006130 
#    y 0.000000 1.883920 0.000000 
#    z -0.006130 0.000000 1.887000 
# 
# From -- ./inp_files/5512.got.cif
#   From: 2010.03.12/outbox.cif.g09.slc.cpg/sg14_3_cif.got.tgz:5512.got - 2010.03.31 13:35:05.
