data_PCOD8129475
_publ_section_title
;
Structure prediction by ZEFSAII (Michael W. Deem and Ramdas Pophale) SiO2 
 PCOD8129475
Probable space group: P 21/C
;
_chemical_formula_sum "Si O2"
_cell_formula_units_Z 28
_cell_length_a 9.293838
_cell_length_b 20.095227
_cell_length_c 8.570520
_cell_angle_alpha 90.000000
_cell_angle_beta 48.529656
_cell_angle_gamma 90.000000
_cell_volume 1199.361496
_symmetry_space_group_name_H-M "P 21/C"
_symmetry_group_IT_number 14
_symmetry_cell_setting 'monoclinic'
loop_
_space_group_symop_operation_xyz
x,y,z
-x,1/2+y,1/2-z
-x,-y,-z
x,1/2-y,1/2+z
loop_
_atom_site_type_symbol
_atom_site_label
_atom_site_fract_x
_atom_site_fract_y
_atom_site_fract_z
Si Si1 0.095093 0.100345 0.542925
Si Si2 0.679934 0.156336 0.784131
Si Si3 0.054362 0.827338 0.807570
Si Si4 0.588625 0.264441 0.052369
Si Si5 0.993643 0.521527 0.329647
Si Si6 0.160359 0.215765 0.733669
Si Si7 0.363587 0.058996 0.066351
O O1 0.175912 0.162737 0.582201
O O2 0.243200 0.088468 0.297145
O O3 0.882777 0.117706 0.626453
O O4 0.092784 0.032238 0.644380
O O5 0.647121 0.216289 0.685458
O O6 0.661266 0.188409 0.970674
O O7 0.493058 0.112786 0.886571
O O8 0.277109 0.808479 0.656589
O O9 0.068989 0.904033 0.744711
O O10 0.932242 0.784316 0.766425
O O11 0.969362 0.816793 0.039738
O O12 0.367147 0.271296 0.162492
O O13 0.000000 0.500000 0.500000
O O14 0.768974 0.524976 0.464934
O O15 0.500000 0.000000 0.000000
#
# Coordination Sequence:
#
# PCOD8129475 Si02
#       7
#     4   4   4   4   4   4   4
#     4  12  28  51  77 110 157 205 251 329 382 463
#     4  12  28  49  75 113 152 198 259 317 391 461
#     4  12  27  48  77 111 157 197 249 326 376 461
#     4  12  27  45  78 111 149 200 254 313 387 461
#     4  12  26  50  77 110 156 201 255 316 390 459
#     4  12  27  48  77 115 152 199 258 314 390 452
#     4  12  28  49  76 107 152 203 257 310 387 464
#
# _framework density 23.345753999999999
#
# number of rings (size 3 to 8) (size 9 to 14) (size 15 to 20)
#    0.000    0.000    4.286    4.714    8.000    1.143 
#    0.000    1.429    0.000    0.000    0.000    0.000 
#    0.000    0.000    0.000    0.000    0.000    0.000 
#
# Total GULP energy -346927.736614 kJ/mol
# GULP energy per Si atom -12390.276308 kJ/mol
# Density = 2.329262 g / cm^3
# Si number density = 23.345754 Si / 1000 Ang^3
#
#
#
# Elastic Constant Matrix: (Units=GPa)
#
#
# Indices 1 2 3 4 5 6 
#
# 1 76.7136 24.0971 27.4788 0.0000 12.4262 0.0000
# 2 24.0971 126.5463 16.6759 0.0000 0.3115 0.0000
# 3 27.4788 16.6759 101.1114 0.0000 -3.3103 0.0000
# 4 0.0000 0.0000 0.0000 43.4970 0.0000 3.5280
# 5 12.4262 0.3115 -3.3103 0.0000 32.8910 0.0000
# 6 0.0000 0.0000 0.0000 3.5280 0.0000 40.6094
#
#
#
# Elastic Compliance Matrix: (Units=1/GPa)
#
#
# Indices 1 2 3 4 5 6 
#
# 1 0.016435 -0.002552 -0.004262 0.000000 -0.006614 0.000000
# 2 -0.002552 0.008475 -0.000678 0.000000 0.000816 0.000000
# 3 -0.004262 -0.000678 0.011250 0.000000 0.002749 0.000000
# 4 0.000000 0.000000 0.000000 0.023153 0.000000 -0.002011
# 5 -0.006614 0.000816 0.002749 0.000000 0.033171 0.000000
# 6 0.000000 0.000000 0.000000 -0.002011 0.000000 0.024800
#
#
# Mechanical properties :
#
#
# Convention : Reuss Voigt Hill
#
# Bulk Modulus (GPa) = 47.21964 48.98608 48.10286
# Shear Modulus (GPa) = 35.88681 39.14077 37.51379
#
# Velocity S-wave (km/s) = 3.92495 4.09903 4.01294
# Velocity P-wave (km/s) = 6.38831 6.59023 6.49006
#
# Compressibility (1/GPa) = 0.02117763
#
# Stress axis : x y z
#
# Youngs Moduli (GPa) = 60.84546 117.98813 88.88744
#
# Poissons Ratio (x) = 0.30106 0.37886
# Poissons Ratio (y) = 0.15526 0.06024
# Poissons Ratio (z) = 0.25934 0.07996
#
# Static dielectric constant tensor:
#      x y z
#    x 4.620370 0.000000 0.381820 
#    y 0.000000 4.631790 0.000000 
#    z 0.381820 0.000000 5.210220 
# 
# 
# High freq. dielectric constant tensor:
#      x y z
#    x 1.933290 0.000000 -0.002600 
#    y 0.000000 1.940580 0.000000 
#    z -0.002600 0.000000 1.937200 
# 
# From -- ./inp_files/10387.got.cif
#   From: 2010.03.12/outbox.cif.g09.slc.cpg/sg14_6_cif.got.tgz:10387.got - 2010.03.31 13:35:05.
