data_PCOD8129362
_publ_section_title
;
Structure prediction by ZEFSAII (Michael W. Deem and Ramdas Pophale) SiO2 
 PCOD8129362
Probable space group: P 21/C
;
_chemical_formula_sum "Si O2"
_cell_formula_units_Z 28
_cell_length_a 15.049879
_cell_length_b 9.232192
_cell_length_c 20.401770
_cell_angle_alpha 90.000000
_cell_angle_beta 153.518695
_cell_angle_gamma 90.000000
_cell_volume 1264.004986
_symmetry_space_group_name_H-M "P 21/C"
_symmetry_group_IT_number 14
_symmetry_cell_setting 'monoclinic'
loop_
_space_group_symop_operation_xyz
x,y,z
-x,1/2+y,1/2-z
-x,-y,-z
x,1/2-y,1/2+z
loop_
_atom_site_type_symbol
_atom_site_label
_atom_site_fract_x
_atom_site_fract_y
_atom_site_fract_z
Si Si1 0.458967 0.072554 0.541127
Si Si2 0.692255 0.405882 0.618813
Si Si3 0.172200 0.723619 0.670111
Si Si4 0.183091 0.338711 0.375148
Si Si5 0.245265 0.695132 0.944270
Si Si6 0.740431 0.874521 0.924393
Si Si7 0.346813 0.799102 0.151879
O O1 0.674836 0.090729 0.716917
O O2 0.356293 0.229913 0.464977
O O3 0.500000 0.000000 0.500000
O O4 0.316800 0.971747 0.491821
O O5 0.500000 0.500000 0.500000
O O6 0.785163 0.348339 0.748206
O O7 0.847003 0.518541 0.689041
O O8 0.620773 0.282308 0.519882
O O9 0.223335 0.777375 0.629844
O O10 0.945101 0.669748 0.523387
O O11 0.226751 0.389754 0.477061
O O12 0.968100 0.266556 0.228772
O O13 0.243499 0.754087 0.016298
O O14 0.576817 0.750497 0.802876
O O15 0.662067 0.027435 0.845297
#
# Coordination Sequence:
#
# PCOD8129362 Si02
#       7
#     4   4   4   4   4   4   4
#     4  12  23  44  75 108 148 191 251 305 361 443
#     4  12  22  45  72 106 143 188 242 302 356 429
#     4  12  26  48  77 106 152 196 245 304 377 446
#     4  12  24  46  76 107 149 194 249 306 366 439
#     4  12  26  43  75 109 145 195 246 302 371 435
#     4  12  26  51  77 102 154 199 245 307 375 443
#     4  12  28  49  73 111 153 193 246 311 372 446
#
# _framework density 22.151812
#
# number of rings (size 3 to 8) (size 9 to 14) (size 15 to 20)
#    0.000    0.000    7.143    2.143    2.000    0.000 
#    2.571    1.429    0.000    0.000    0.000    0.000 
#    0.000    0.000    0.000    0.000    0.000    0.000 
#
# Total GULP energy -347169.313133 kJ/mol
# GULP energy per Si atom -12398.904040 kJ/mol
# Density = 2.210139 g / cm^3
# Si number density = 22.151812 Si / 1000 Ang^3
#
#
#
# Elastic Constant Matrix: (Units=GPa)
#
#
# Indices 1 2 3 4 5 6 
#
# 1 131.0552 50.8503 44.8945 0.0000 -12.6056 0.0000
# 2 50.8503 117.1572 56.8917 0.0000 2.5750 0.0000
# 3 44.8945 56.8917 111.9969 0.0000 8.3745 0.0000
# 4 0.0000 0.0000 0.0000 29.7020 0.0000 -4.7980
# 5 -12.6056 2.5750 8.3745 0.0000 46.9218 0.0000
# 6 0.0000 0.0000 0.0000 -4.7980 0.0000 37.7463
#
#
#
# Elastic Compliance Matrix: (Units=1/GPa)
#
#
# Indices 1 2 3 4 5 6 
#
# 1 0.010101 -0.003146 -0.002703 0.000000 0.003369 0.000000
# 2 -0.003146 0.012318 -0.004949 0.000000 -0.000638 0.000000
# 3 -0.002703 -0.004949 0.012730 0.000000 -0.002727 0.000000
# 4 0.000000 0.000000 0.000000 0.034374 0.000000 0.004369
# 5 0.003369 -0.000638 -0.002727 0.000000 0.022739 0.000000
# 6 0.000000 0.000000 0.000000 0.004369 0.000000 0.027048
#
#
# Mechanical properties :
#
#
# Convention : Reuss Voigt Hill
#
# Bulk Modulus (GPa) = 73.77674 73.94250 73.85962
# Shear Modulus (GPa) = 34.38283 36.71220 35.54751
#
# Velocity S-wave (km/s) = 3.94400 4.07541 4.01024
# Velocity P-wave (km/s) = 7.35646 7.45638 7.40659
#
# Compressibility (1/GPa) = 0.01355441
#
# Stress axis : x y z
#
# Youngs Moduli (GPa) = 99.00180 81.18276 78.55494
#
# Poissons Ratio (x) = 0.25537 0.21233
# Poissons Ratio (y) = 0.31142 0.38873
# Poissons Ratio (z) = 0.26760 0.40174
#
# Static dielectric constant tensor:
#      x y z
#    x 4.762290 0.000000 -0.037440 
#    y 0.000000 5.895360 0.000000 
#    z -0.037440 0.000000 4.058630 
# 
# 
# High freq. dielectric constant tensor:
#      x y z
#    x 1.892050 0.000000 0.003070 
#    y 0.000000 1.876690 0.000000 
#    z 0.003070 0.000000 1.867640 
# 
# From -- ./inp_files/64956.got.cif
#   From: 2010.03.12/outbox.cif.g09.slc.cpg/sg14_33_cif.got.tgz:64956.got - 2010.03.31 13:35:05.
