data_PCOD8129874
_publ_section_title
;
Structure prediction by ZEFSAII (Michael W. Deem and Ramdas Pophale) SiO2 
 PCOD8129874
Probable space group: C 2/C
;
_chemical_formula_sum "Si O2"
_cell_formula_units_Z 52
_cell_length_a 18.378240
_cell_length_b 28.288142
_cell_length_c 5.368095
_cell_angle_alpha 90.000000
_cell_angle_beta 87.286244
_cell_angle_gamma 90.000000
_cell_volume 2787.669069
_symmetry_space_group_name_H-M "C 2/C"
_symmetry_group_IT_number 15
_symmetry_cell_setting 'monoclinic'
loop_
_space_group_symop_operation_xyz
x,y,z
-x,y,1/2-z
-x,-y,-z
x,-y,1/2+z
1/2+x,1/2+y,z
1/2-x,1/2+y,1/2-z
1/2-x,1/2-y,-z
1/2+x,1/2-y,1/2+z
loop_
_atom_site_type_symbol
_atom_site_label
_atom_site_fract_x
_atom_site_fract_y
_atom_site_fract_z
Si Si1 0.422736 0.667873 0.380321
Si Si2 0.500000 0.723738 0.750000
Si Si3 0.278664 0.623035 0.379294
Si Si4 0.634401 0.744552 0.466247
Si Si5 0.030360 0.553081 0.493609
Si Si6 0.746213 0.821747 0.378399
Si Si7 0.695396 0.029672 0.453575
O O1 0.500000 0.653086 0.250000
O O2 0.441076 0.687633 0.646639
O O3 0.367225 0.623822 0.388915
O O4 0.378017 0.710774 0.265302
O O5 0.551976 0.756401 0.574450
O O6 0.244838 0.649479 0.622617
O O7 0.257034 0.568607 0.399817
O O8 0.251495 0.644922 0.121552
O O9 0.669066 0.794617 0.391381
O O10 0.688673 0.716728 0.645445
O O11 0.117073 0.554625 0.463816
O O12 0.000000 0.578514 0.750000
O O13 0.000000 0.500000 0.500000
O O14 0.000000 0.579134 0.250000
O O15 0.704584 0.006589 0.723930
#
# Coordination Sequence:
#
# PCOD8129874 Si02
#       7
#     8   4   8   8   8   8   8
#     4   9  19  34  56  87 109 150 198 232 275 327
#     4  10  16  32  56  80 108 154 202 226 264 328
#     4  11  23  38  57  85 119 144 189 247 287 334
#     4   9  19  31  58  80 112 150 191 226 270 344
#     4  10  16  31  56  79  99 126 177 233 262 322
#     4  10  21  36  56  83 116 149 180 229 292 331
#     4  12  22  37  61  85 108 148 192 239 288 344
#
# _framework density 18.653576000000001
#
# number of rings (size 3 to 8) (size 9 to 14) (size 15 to 20)
#    0.000    1.846    4.615    0.923    2.154    1.846 
#    0.000    0.000    5.077    0.923    0.000    0.000 
#    0.000    0.000    0.000    0.000    0.000    0.000 
#
# Total GULP energy -322110.473128 kJ/mol
# GULP energy per Si atom -12388.864351 kJ/mol
# Density = 1.861112 g / cm^3
# Si number density = 18.653576 Si / 1000 Ang^3
#
#
#
# Elastic Constant Matrix: (Units=GPa)
#
#
# Indices 1 2 3 4 5 6 
#
# 1 127.6738 46.1640 30.8135 0.0000 -5.6939 0.0000
# 2 46.1640 52.3690 21.3183 0.0000 -8.8398 0.0000
# 3 30.8135 21.3183 114.9377 0.0000 -8.6931 0.0000
# 4 0.0000 0.0000 0.0000 13.0858 0.0000 -4.0354
# 5 -5.6939 -8.8398 -8.6931 0.0000 25.6309 0.0000
# 6 0.0000 0.0000 0.0000 -4.0354 0.0000 28.7437
#
#
#
# Elastic Compliance Matrix: (Units=1/GPa)
#
#
# Indices 1 2 3 4 5 6 
#
# 1 0.011721 -0.009988 -0.001389 0.000000 -0.001312 0.000000
# 2 -0.009988 0.030099 -0.002348 0.000000 0.007366 0.000000
# 3 -0.001389 -0.002348 0.009672 0.000000 0.002162 0.000000
# 4 0.000000 0.000000 0.000000 0.079877 0.000000 0.011214
# 5 -0.001312 0.007366 0.002162 0.000000 0.041997 0.000000
# 6 0.000000 0.000000 0.000000 0.011214 0.000000 0.036365
#
#
# Mechanical properties :
#
#
# Convention : Reuss Voigt Hill
#
# Bulk Modulus (GPa) = 41.59438 54.61913 48.10675
# Shear Modulus (GPa) = 20.39209 26.60441 23.49825
#
# Velocity S-wave (km/s) = 3.30994 3.78065 3.55310
# Velocity P-wave (km/s) = 6.07901 6.95716 6.53286
#
# Compressibility (1/GPa) = 0.02404171
#
# Stress axis : x y z
#
# Youngs Moduli (GPa) = 85.32014 33.22387 103.39443
#
# Poissons Ratio (x) = 0.33184 0.14360
# Poissons Ratio (y) = 0.85217 0.24276
# Poissons Ratio (z) = 0.11850 0.07801
#
# Static dielectric constant tensor:
#      x y z
#    x 4.168260 0.000000 -0.172140 
#    y 0.000000 2.988410 0.000000 
#    z -0.172140 0.000000 4.428150 
# 
# 
# High freq. dielectric constant tensor:
#      x y z
#    x 1.736380 0.000000 -0.001930 
#    y 0.000000 1.663770 0.000000 
#    z -0.001930 0.000000 1.745060 
# 
# From -- ./inp_files/11838.got.cif
#   From: 2010.06.25/outbox.cif.g09.slc.cpg/sg15_6_cif.got.tgz:11838.got - 2010.06.28 07:06:18.
