data_PCOD8129224
_publ_section_title
;
Structure prediction by ZEFSAII (Michael W. Deem and Ramdas Pophale) SiO2 
 PCOD8129224
Probable space group: P 21/C
;
_chemical_formula_sum "Si O2"
_cell_formula_units_Z 32
_cell_length_a 11.491807
_cell_length_b 14.978948
_cell_length_c 8.667758
_cell_angle_alpha 90.000000
_cell_angle_beta 75.001258
_cell_angle_gamma 90.000000
_cell_volume 1441.195002
_symmetry_space_group_name_H-M "P 21/C"
_symmetry_group_IT_number 14
_symmetry_cell_setting 'monoclinic'
loop_
_space_group_symop_operation_xyz
x,y,z
-x,1/2+y,1/2-z
-x,-y,-z
x,1/2-y,1/2+z
loop_
_atom_site_type_symbol
_atom_site_label
_atom_site_fract_x
_atom_site_fract_y
_atom_site_fract_z
Si Si1 0.996394 0.876510 0.749048
Si Si2 0.618154 0.311064 0.801417
Si Si3 0.002549 0.701172 0.579420
Si Si4 0.764515 0.654198 0.822652
Si Si5 0.344486 0.194812 0.332791
Si Si6 0.728806 0.149691 0.935606
Si Si7 0.757021 0.038943 0.403802
Si Si8 0.239065 0.022405 0.252579
O O1 0.890520 0.947221 0.764748
O O2 0.998268 0.808109 0.604464
O O3 0.120615 0.929131 0.718767
O O4 0.977139 0.819104 0.910066
O O5 0.475318 0.301745 0.863489
O O6 0.682434 0.218848 0.823174
O O7 0.655020 0.337335 0.616867
O O8 0.654363 0.387729 0.910380
O O9 0.129836 0.662927 0.589408
O O10 0.901601 0.655262 0.719927
O O11 0.676117 0.713918 0.750621
O O12 0.716467 0.552672 0.835076
O O13 0.757806 0.689847 0.000358
O O14 0.328570 0.107735 0.228942
O O15 0.705319 0.049170 0.884766
O O16 0.777106 0.025736 0.577882
#
# Coordination Sequence:
#
# PCOD8129224 Si02
#       8
#     4   4   4   4   4   4   4   4
#     4  12  25  44  70 108 144 180 228 287 351 426
#     4  12  26  46  73  99 141 183 243 278 346 408
#     4  12  24  42  75 100 140 179 224 285 355 411
#     4  11  25  44  71  98 141 180 229 289 354 407
#     4  11  26  47  68 104 135 191 234 290 336 414
#     4  12  25  45  71 104 137 187 224 297 344 419
#     4  11  25  44  69 103 139 185 224 289 345 418
#     4  11  27  43  71 100 145 178 233 283 355 410
#
# _framework density 22.203796000000001
#
# number of rings (size 3 to 8) (size 9 to 14) (size 15 to 20)
#    0.000    0.500    3.750    3.375    5.250    4.500 
#    0.000    0.000    0.000    0.000    0.000    0.000 
#    0.000    0.000    0.000    0.000    0.000    0.000 
#
# Total GULP energy -397006.181043 kJ/mol
# GULP energy per Si atom -12406.443158 kJ/mol
# Density = 2.215326 g / cm^3
# Si number density = 22.203796 Si / 1000 Ang^3
#
#
#
# Elastic Constant Matrix: (Units=GPa)
#
#
# Indices 1 2 3 4 5 6 
#
# 1 96.4929 33.9101 32.8430 0.0000 1.7281 0.0000
# 2 33.9101 128.1099 49.1898 0.0000 17.8124 0.0000
# 3 32.8430 49.1898 121.7699 0.0000 8.2529 0.0000
# 4 0.0000 0.0000 0.0000 41.4499 0.0000 16.9040
# 5 1.7281 17.8124 8.2529 0.0000 26.3951 0.0000
# 6 0.0000 0.0000 0.0000 16.9040 0.0000 28.1018
#
#
#
# Elastic Compliance Matrix: (Units=1/GPa)
#
#
# Indices 1 2 3 4 5 6 
#
# 1 0.012012 -0.002510 -0.002337 0.000000 0.001638 0.000000
# 2 -0.002510 0.010512 -0.003167 0.000000 -0.005939 0.000000
# 3 -0.002337 -0.003167 0.010182 0.000000 -0.000894 0.000000
# 4 0.000000 0.000000 0.000000 0.031968 0.000000 -0.019229
# 5 0.001638 -0.005939 -0.000894 0.000000 0.042066 0.000000
# 6 0.000000 0.000000 0.000000 -0.019229 0.000000 0.047152
#
#
# Mechanical properties :
#
#
# Convention : Reuss Voigt Hill
#
# Bulk Modulus (GPa) = 59.95695 64.25095 62.10395
# Shear Modulus (GPa) = 28.49358 34.55135 31.52246
#
# Velocity S-wave (km/s) = 3.58617 3.94902 3.77196
# Velocity P-wave (km/s) = 6.64899 7.05640 6.85572
#
# Compressibility (1/GPa) = 0.01667863
#
# Stress axis : x y z
#
# Youngs Moduli (GPa) = 83.25333 95.12987 98.20948
#
# Poissons Ratio (x) = 0.23877 0.22950
# Poissons Ratio (y) = 0.20896 0.31102
# Poissons Ratio (z) = 0.19455 0.30127
#
# Static dielectric constant tensor:
#      x y z
#    x 3.920760 0.000000 0.043180 
#    y 0.000000 4.231550 0.000000 
#    z 0.043180 0.000000 4.020400 
# 
# 
# High freq. dielectric constant tensor:
#      x y z
#    x 1.872780 0.000000 0.005830 
#    y 0.000000 1.889490 0.000000 
#    z 0.005830 0.000000 1.876580 
# 
# From -- ./inp_files/13305.got.cif
#   From: 2010.03.12/outbox.cif.g09.slc.cpg/sg14_7_cif.got.tgz:13305.got - 2010.03.31 13:35:05.
