data_PCOD8129706
_publ_section_title
;
Structure prediction by ZEFSAII (Michael W. Deem and Ramdas Pophale) SiO2 
 PCOD8129706
Probable space group: C 2/C
;
_chemical_formula_sum "Si O2"
_cell_formula_units_Z 64
_cell_length_a 11.686426
_cell_length_b 16.124525
_cell_length_c 18.549446
_cell_angle_alpha 90.000000
_cell_angle_beta 72.079276
_cell_angle_gamma 90.000000
_cell_volume 3325.834987
_symmetry_space_group_name_H-M "C 2/C"
_symmetry_group_IT_number 15
_symmetry_cell_setting 'monoclinic'
loop_
_space_group_symop_operation_xyz
x,y,z
-x,y,1/2-z
-x,-y,-z
x,-y,1/2+z
1/2+x,1/2+y,z
1/2-x,1/2+y,1/2-z
1/2-x,1/2-y,-z
1/2+x,1/2-y,1/2+z
loop_
_atom_site_type_symbol
_atom_site_label
_atom_site_fract_x
_atom_site_fract_y
_atom_site_fract_z
Si Si1 0.043149 0.684294 0.041097
Si Si2 0.853387 0.907312 0.061030
Si Si3 0.904837 0.779812 0.324870
Si Si4 0.717936 0.233058 0.424196
Si Si5 0.761318 0.435366 0.964398
Si Si6 0.343466 0.712755 0.107196
Si Si7 0.565016 0.369537 0.616726
Si Si8 0.429041 0.449991 0.379467
O O1 0.069763 0.749694 0.099168
O O2 0.100866 0.594237 0.048578
O O3 0.900311 0.675188 0.058957
O O4 0.102182 0.718723 0.956863
O O5 0.801905 0.823436 0.108353
O O6 0.957849 0.942969 0.089758
O O7 0.746424 0.975457 0.074309
O O8 0.910696 0.885064 0.972815
O O9 0.769969 0.752880 0.328494
O O10 0.923030 0.879415 0.319642
O O11 0.000000 0.740401 0.250000
O O12 0.750000 0.250000 0.500000
O O13 0.828269 0.183661 0.366715
O O14 0.696199 0.367046 0.929329
O O15 0.695289 0.443370 0.053192
O O16 0.441864 0.683247 0.147031
O O17 0.559519 0.458344 0.658433
#
# Coordination Sequence:
#
# PCOD8129706 Si02
#       8
#     8   8   8   8   8   8   8   8
#     4  11  18  32  53  79 112 142 170 223 268 314
#     4  10  16  27  48  80 109 130 170 211 259 313
#     4  11  22  33  54  80 106 135 179 223 270 313
#     4  10  18  30  47  81 113 137 164 215 269 315
#     4  10  16  26  49  81 101 130 173 214 262 300
#     4  11  16  32  54  82 107 133 175 225 266 308
#     4  10  18  28  52  80 108 133 170 211 268 318
#     4  11  16  31  51  76 102 134 175 221 251 308
#
# _framework density 19.243288
#
# number of rings (size 3 to 8) (size 9 to 14) (size 15 to 20)
#    0.000    1.500    8.750    1.500    0.000    0.000 
#    0.000    6.875    2.750    0.000    0.000    0.000 
#    0.000    0.000    0.000    0.000    0.000    0.000 
#
# Total GULP energy -396619.859704 kJ/mol
# GULP energy per Si atom -12394.370616 kJ/mol
# Density = 1.919949 g / cm^3
# Si number density = 19.243288 Si / 1000 Ang^3
#
#
#
# Elastic Constant Matrix: (Units=GPa)
#
#
# Indices 1 2 3 4 5 6 
#
# 1 138.0340 51.9543 16.6595 0.0000 -33.4490 0.0000
# 2 51.9543 100.9288 17.4764 0.0000 -16.1313 0.0000
# 3 16.6595 17.4764 39.5577 0.0000 -21.1638 0.0000
# 4 0.0000 0.0000 0.0000 7.1827 0.0000 -5.5372
# 5 -33.4490 -16.1313 -21.1638 0.0000 17.1851 0.0000
# 6 0.0000 0.0000 0.0000 -5.5372 0.0000 38.0037
#
#
#
# Elastic Compliance Matrix: (Units=1/GPa)
#
#
# Indices 1 2 3 4 5 6 
#
# 1 0.039611 -0.007523 0.070684 0.000000 0.157085 0.000000
# 2 -0.007523 0.013143 -0.011350 0.000000 -0.016283 0.000000
# 3 0.070684 -0.011350 0.200607 0.000000 0.373976 0.000000
# 4 0.000000 0.000000 0.000000 0.156841 0.000000 0.022852
# 5 0.157085 -0.016283 0.373976 0.000000 0.809212 0.000000
# 6 0.000000 0.000000 0.000000 0.022852 0.000000 0.029643
#
#
# Mechanical properties :
#
#
# Convention : Reuss Voigt Hill
#
# Bulk Modulus (GPa) = 2.80125 50.07789 26.43957
# Shear Modulus (GPa) = 3.95436 25.30299 14.62867
#
# Velocity S-wave (km/s) = 1.43506 3.63009 2.76016
# Velocity P-wave (km/s) = 2.05054 6.60682 4.89157
#
# Compressibility (1/GPa) = 0.35698316
#
# Stress axis : x y z
#
# Youngs Moduli (GPa) = 25.24578 76.08428 4.98487
#
# Poissons Ratio (x) = 0.57237 -0.35235
# Poissons Ratio (y) = 0.18992 0.05658
# Poissons Ratio (z) = -1.78447 0.86355
#
# Static dielectric constant tensor:
#      x y z
#    x 3.860290 0.000000 -0.292670 
#    y 0.000000 4.178250 0.000000 
#    z -0.292670 0.000000 2.974090 
# 
# 
# High freq. dielectric constant tensor:
#      x y z
#    x 1.750240 0.000000 -0.013580 
#    y 0.000000 1.755080 0.000000 
#    z -0.013580 0.000000 1.683690 
# 
# From -- ./inp_files/239562.got.cif
#   From: 2010.06.25/outbox.cif.g09.slc.cpg/sg15_120_cif.got.tgz:239562.got - 2010.06.28 07:06:18.
