data_PCOD8129977
_publ_section_title
;
Structure prediction by ZEFSAII (Michael W. Deem and Ramdas Pophale) SiO2 
 PCOD8129977
Probable space group: C 2/C
;
_chemical_formula_sum "Si O2"
_cell_formula_units_Z 60
_cell_length_a 14.237592
_cell_length_b 17.173413
_cell_length_c 11.990940
_cell_angle_alpha 90.000000
_cell_angle_beta 102.292182
_cell_angle_gamma 90.000000
_cell_volume 2864.666873
_symmetry_space_group_name_H-M "C 2/C"
_symmetry_group_IT_number 15
_symmetry_cell_setting 'monoclinic'
loop_
_space_group_symop_operation_xyz
x,y,z
-x,y,1/2-z
-x,-y,-z
x,-y,1/2+z
1/2+x,1/2+y,z
1/2-x,1/2+y,1/2-z
1/2-x,1/2-y,-z
1/2+x,1/2-y,1/2+z
loop_
_atom_site_type_symbol
_atom_site_label
_atom_site_fract_x
_atom_site_fract_y
_atom_site_fract_z
Si Si1 0.812026 0.376015 0.846151
Si Si2 0.000000 0.778155 0.250000
Si Si3 0.805052 0.077377 0.388361
Si Si4 0.217589 0.669989 0.550746
Si Si5 0.175600 0.915271 0.004445
Si Si6 0.805269 0.196497 0.800604
Si Si7 0.504797 0.670690 0.122693
Si Si8 0.989989 0.313582 0.539363
O O1 0.784447 0.417771 0.721750
O O2 0.785440 0.285971 0.823989
O O3 0.924944 0.375429 0.911140
O O4 0.752726 0.422542 0.924769
O O5 0.085590 0.825419 0.211733
O O6 0.048586 0.725263 0.356279
O O7 0.773654 0.101794 0.503951
O O8 0.890669 0.133903 0.371296
O O9 0.837745 0.989132 0.417404
O O10 0.250000 0.750000 0.500000
O O11 0.235729 0.670061 0.686098
O O12 0.105878 0.644882 0.525081
O O13 0.217906 0.847629 0.092399
O O14 0.073043 0.895632 0.923979
O O15 0.500000 0.696758 0.250000
O O16 0.480040 0.746092 0.040943
#
# Coordination Sequence:
#
# PCOD8129977 Si02
#       8
#     8   4   8   8   8   8   8   8
#     4  11  23  45  68  93 136 179 226 281 329 397
#     4  10  16  34  60  96 128 160 204 278 320 386
#     4  12  26  44  66 100 138 181 219 275 350 407
#     4  12  21  40  68 100 131 170 230 283 322 399
#     4  12  27  43  65 100 142 181 216 277 349 418
#     4  11  22  38  69  96 132 172 227 270 335 392
#     4  12  23  42  69 101 142 171 216 277 351 418
#     4  11  22  39  70 103 122 175 233 281 330 387
#
# _framework density 20.944844
#
# number of rings (size 3 to 8) (size 9 to 14) (size 15 to 20)
#    0.000    0.533    8.000    1.600    1.867    0.000 
#    1.200    0.667    2.933    0.000    0.000    0.000 
#    0.000    0.000    0.000    0.000    0.000    0.000 
#
# Total GULP energy -371788.543305 kJ/mol
# GULP energy per Si atom -12392.951443 kJ/mol
# Density = 2.089717 g / cm^3
# Si number density = 20.944844 Si / 1000 Ang^3
#
#
#
# Elastic Constant Matrix: (Units=GPa)
#
#
# Indices 1 2 3 4 5 6 
#
# 1 100.9776 4.7178 14.8144 0.0000 20.4786 0.0000
# 2 4.7178 45.2208 15.9785 0.0000 -0.5625 0.0000
# 3 14.8144 15.9785 115.5671 0.0000 9.6839 0.0000
# 4 0.0000 0.0000 0.0000 22.4983 0.0000 2.7743
# 5 20.4786 -0.5625 9.6839 0.0000 39.9518 0.0000
# 6 0.0000 0.0000 0.0000 2.7743 0.0000 19.3599
#
#
#
# Elastic Compliance Matrix: (Units=1/GPa)
#
#
# Indices 1 2 3 4 5 6 
#
# 1 0.011196 -0.000940 -0.000840 0.000000 -0.005548 0.000000
# 2 -0.000940 0.023379 -0.003246 0.000000 0.001598 0.000000
# 3 -0.000840 -0.003246 0.009367 0.000000 -0.001886 0.000000
# 4 0.000000 0.000000 0.000000 0.045247 0.000000 -0.006484
# 5 -0.005548 0.001598 -0.001886 0.000000 0.028354 0.000000
# 6 0.000000 0.000000 0.000000 -0.006484 0.000000 0.052582
#
#
# Mechanical properties :
#
#
# Convention : Reuss Voigt Hill
#
# Bulk Modulus (GPa) = 29.50780 36.97631 33.24205
# Shear Modulus (GPa) = 26.11329 31.44567 28.77948
#
# Velocity S-wave (km/s) = 3.53479 3.87894 3.71085
# Velocity P-wave (km/s) = 5.54784 6.14443 5.85374
#
# Compressibility (1/GPa) = 0.03388935
#
# Stress axis : x y z
#
# Youngs Moduli (GPa) = 89.32095 42.77433 106.75261
#
# Poissons Ratio (x) = 0.04021 0.08970
# Poissons Ratio (y) = 0.08397 0.34649
# Poissons Ratio (z) = 0.07505 0.13883
#
# Static dielectric constant tensor:
#      x y z
#    x 3.810870 0.000000 0.264590 
#    y 0.000000 3.444190 0.000000 
#    z 0.264590 0.000000 3.828180 
# 
# 
# High freq. dielectric constant tensor:
#      x y z
#    x 1.822420 0.000000 0.008720 
#    y 0.000000 1.775910 0.000000 
#    z 0.008720 0.000000 1.847920 
# 
# From -- ./inp_files/98354.got.cif
#   From: 2010.06.25/outbox.cif.g09.slc.cpg/sg15_50_cif.got.tgz:98354.got - 2010.06.28 07:06:18.
