data_PCOD8129280
_publ_section_title
;
Structure prediction by ZEFSAII (Michael W. Deem and Ramdas Pophale) SiO2 
 PCOD8129280
Probable space group: P 21/C
;
_chemical_formula_sum "Si O2"
_cell_formula_units_Z 20
_cell_length_a 9.106315
_cell_length_b 5.568383
_cell_length_c 15.603001
_cell_angle_alpha 90.000000
_cell_angle_beta 79.145370
_cell_angle_gamma 90.000000
_cell_volume 777.032556
_symmetry_space_group_name_H-M "P 21/C"
_symmetry_group_IT_number 14
_symmetry_cell_setting 'monoclinic'
loop_
_space_group_symop_operation_xyz
x,y,z
-x,1/2+y,1/2-z
-x,-y,-z
x,1/2-y,1/2+z
loop_
_atom_site_type_symbol
_atom_site_label
_atom_site_fract_x
_atom_site_fract_y
_atom_site_fract_z
Si Si1 0.772434 0.131401 0.478735
Si Si2 0.081444 0.467609 0.762789
Si Si3 0.094090 0.249162 0.432029
Si Si4 0.361851 0.689634 0.673927
Si Si5 0.652559 0.410035 0.638738
O O1 0.695511 0.131137 0.394189
O O2 0.653397 0.205277 0.565342
O O3 0.917840 0.315608 0.464625
O O4 0.831250 0.860520 0.490016
O O5 0.101704 0.472561 0.863071
O O6 0.242963 0.473093 0.698658
O O7 0.001814 0.216315 0.750039
O O8 0.184996 0.467312 0.381372
O O9 0.521567 0.592031 0.626862
O O10 0.378766 0.825675 0.761905
#
# Coordination Sequence:
#
# PCOD8129280 Si02
#       5
#     4   4   4   4   4
#     4  11  26  47  76 115 146 209 264 326 398 475
#     4  12  25  47  79 116 154 210 270 327 397 474
#     4  11  25  48  76 113 154 199 266 333 390 485
#     4  12  27  48  79 110 155 212 256 333 397 478
#     4  12  27  52  71 113 159 201 267 325 406 473
#
# _framework density 25.738945000000001
#
# number of rings (size 3 to 8) (size 9 to 14) (size 15 to 20)
#    0.000    0.400    4.000    3.600    0.000    4.000 
#    3.600    0.000    0.000    0.000    0.000    0.000 
#    0.000    0.000    0.000    0.000    0.000    0.000 
#
# Total GULP energy -247945.630859 kJ/mol
# GULP energy per Si atom -12397.281543 kJ/mol
# Density = 2.568036 g / cm^3
# Si number density = 25.738945 Si / 1000 Ang^3
#
#
#
# Elastic Constant Matrix: (Units=GPa)
#
#
# Indices 1 2 3 4 5 6 
#
# 1 88.4329 29.0272 35.4500 0.0000 -0.5682 0.0000
# 2 29.0272 82.2168 15.9593 0.0000 -2.5177 0.0000
# 3 35.4500 15.9593 145.8152 0.0000 13.7950 0.0000
# 4 0.0000 0.0000 0.0000 28.8787 0.0000 -14.5846
# 5 -0.5682 -2.5177 13.7950 0.0000 35.2632 0.0000
# 6 0.0000 0.0000 0.0000 -14.5846 0.0000 33.0111
#
#
#
# Elastic Compliance Matrix: (Units=1/GPa)
#
#
# Indices 1 2 3 4 5 6 
#
# 1 0.013938 -0.004301 -0.003022 0.000000 0.001100 0.000000
# 2 -0.004301 0.013828 -0.000576 0.000000 0.001143 0.000000
# 3 -0.003022 -0.000576 0.007959 0.000000 -0.003203 0.000000
# 4 0.000000 0.000000 0.000000 0.044573 0.000000 0.019693
# 5 0.001100 0.001143 -0.003203 0.000000 0.029711 0.000000
# 6 0.000000 0.000000 0.000000 0.019693 0.000000 0.038993
#
#
# Mechanical properties :
#
#
# Convention : Reuss Voigt Hill
#
# Bulk Modulus (GPa) = 50.18131 53.03752 51.60941
# Shear Modulus (GPa) = 29.16438 35.16583 32.16510
#
# Velocity S-wave (km/s) = 3.36978 3.70029 3.53890
# Velocity P-wave (km/s) = 5.88890 6.23754 6.06573
#
# Compressibility (1/GPa) = 0.01992774
#
# Stress axis : x y z
#
# Youngs Moduli (GPa) = 71.74570 72.31604 125.64755
#
# Poissons Ratio (x) = 0.31101 0.37970
# Poissons Ratio (y) = 0.30856 0.07238
# Poissons Ratio (z) = 0.21681 0.04166
#
# Static dielectric constant tensor:
#      x y z
#    x 4.841690 0.000000 -0.121610 
#    y 0.000000 4.217300 0.000000 
#    z -0.121610 0.000000 5.055160 
# 
# 
# High freq. dielectric constant tensor:
#      x y z
#    x 2.034190 0.000000 -0.005090 
#    y 0.000000 2.006720 0.000000 
#    z -0.005090 0.000000 2.052120 
# 
# From -- ./inp_files/53969.got.cif
#   From: 2010.03.12/outbox.cif.g09.slc.cpg/sg14_27_cif.got.tgz:53969.got - 2010.03.31 13:35:05.
