data_PCOD8129650
_publ_section_title
;
Structure prediction by ZEFSAII (Michael W. Deem and Ramdas Pophale) SiO2 
 PCOD8129650
Probable space group: C 2/C
;
_chemical_formula_sum "Si O2"
_cell_formula_units_Z 60
_cell_length_a 13.673938
_cell_length_b 12.520591
_cell_length_c 29.956835
_cell_angle_alpha 90.000000
_cell_angle_beta 39.597937
_cell_angle_gamma 90.000000
_cell_volume 3269.067321
_symmetry_space_group_name_H-M "C 2/C"
_symmetry_group_IT_number 15
_symmetry_cell_setting 'monoclinic'
loop_
_space_group_symop_operation_xyz
x,y,z
-x,y,1/2-z
-x,-y,-z
x,-y,1/2+z
1/2+x,1/2+y,z
1/2-x,1/2+y,1/2-z
1/2-x,1/2-y,-z
1/2+x,1/2-y,1/2+z
loop_
_atom_site_type_symbol
_atom_site_label
_atom_site_fract_x
_atom_site_fract_y
_atom_site_fract_z
Si Si1 0.438859 0.642596 0.856000
Si Si2 0.919549 0.702711 0.436950
Si Si3 0.500000 0.763308 0.750000
Si Si4 0.019746 0.045534 0.096392
Si Si5 0.262321 0.419313 0.625203
Si Si6 0.328312 0.985312 0.430276
Si Si7 0.400009 0.780998 0.039917
Si Si8 0.075255 0.278819 0.066630
O O1 0.502987 0.718304 0.873203
O O2 0.532513 0.682310 0.779756
O O3 0.471427 0.520685 0.860337
O O4 0.258139 0.652288 0.908130
O O5 0.750000 0.750000 0.500000
O O6 0.923213 0.584113 0.416350
O O7 0.993851 0.703706 0.460426
O O8 0.644099 0.840659 0.691658
O O9 0.996268 0.172578 0.114767
O O10 0.865240 0.013675 0.123849
O O11 0.167701 0.024588 0.013292
O O12 0.186841 0.502928 0.617765
O O13 0.368941 0.344973 0.556395
O O14 0.435113 0.880656 0.397364
O O15 0.502894 0.818703 0.045148
O O16 0.250000 0.250000 0.000000
#
# Coordination Sequence:
#
# PCOD8129650 Si02
#       8
#     8   8   4   8   8   8   8   8
#     4  10  18  33  58  76  99 133 184 230 257 312
#     4  10  15  28  53  83 102 129 177 227 255 301
#     4  10  20  36  54  76  98 132 188 228 268 300
#     4  10  19  34  54  80 109 139 173 213 274 330
#     4  10  19  33  56  76 103 139 179 223 265 316
#     4  11  17  32  53  83 113 140 170 218 266 327
#     4   9  16  32  51  74 105 140 170 214 263 311
#     4   9  21  31  45  78 118 145 162 201 267 336
#
# _framework density 18.353859
#
# number of rings (size 3 to 8) (size 9 to 14) (size 15 to 20)
#    0.000    2.133    6.667    0.400    0.000    2.667 
#    0.000    4.000    0.000    0.800    0.000    0.000 
#    0.000    0.000    0.000    0.000    0.000    0.000 
#
# Total GULP energy -371677.128509 kJ/mol
# GULP energy per Si atom -12389.237617 kJ/mol
# Density = 1.831208 g / cm^3
# Si number density = 18.353859 Si / 1000 Ang^3
#
#
#
# Elastic Constant Matrix: (Units=GPa)
#
#
# Indices 1 2 3 4 5 6 
#
# 1 129.4536 55.2072 29.3171 0.0000 25.2554 0.0000
# 2 55.2072 113.6870 26.3209 0.0000 20.0010 0.0000
# 3 29.3171 26.3209 66.8985 -0.0001 24.4331 0.0000
# 4 0.0000 0.0000 -0.0001 18.8776 0.0000 13.5099
# 5 25.2554 20.0010 24.4331 0.0000 22.0878 0.0000
# 6 0.0000 0.0000 0.0000 13.5099 0.0000 34.8467
#
#
#
# Elastic Compliance Matrix: (Units=1/GPa)
#
#
# Indices 1 2 3 4 5 6 
#
# 1 0.011156 -0.003775 0.000011 0.000000 -0.009350 0.000000
# 2 -0.003775 0.011789 -0.001110 0.000000 -0.005131 0.000000
# 3 0.000011 -0.001110 0.025197 0.000000 -0.026880 0.000000
# 4 0.000000 0.000000 0.000000 0.073314 0.000000 -0.028424
# 5 -0.009350 -0.005131 -0.026880 0.000000 0.090345 0.000000
# 6 0.000000 0.000000 0.000000 -0.028424 0.000000 0.039717
#
#
# Mechanical properties :
#
#
# Convention : Reuss Voigt Hill
#
# Bulk Modulus (GPa) = 26.04545 59.08106 42.56326
# Shear Modulus (GPa) = 18.24382 28.44201 23.34291
#
# Velocity S-wave (km/s) = 3.15620 3.94083 3.57014
# Velocity P-wave (km/s) = 5.24440 7.27782 6.34312
#
# Compressibility (1/GPa) = 0.03839443
#
# Stress axis : x y z
#
# Youngs Moduli (GPa) = 89.63476 84.82484 39.68687
#
# Poissons Ratio (x) = 0.32023 -0.00044
# Poissons Ratio (y) = 0.33839 0.04405
# Poissons Ratio (z) = -0.00100 0.09416
#
# Static dielectric constant tensor:
#      x y z
#    x 3.647600 0.000000 0.391350 
#    y 0.000000 3.881800 0.000000 
#    z 0.391350 0.000000 3.243760 
# 
# 
# High freq. dielectric constant tensor:
#      x y z
#    x 1.709600 0.000000 0.024130 
#    y 0.000000 1.711430 0.000000 
#    z 0.024130 0.000000 1.661500 
# 
# From -- ./inp_files/313328.got.cif
#   From: 2010.06.25/outbox.cif.g09.slc.cpg/sg15_157_cif.got.tgz:313328.got - 2010.06.28 07:06:18.
