data_PCOD8129012
_publ_section_title
;
Structure prediction by ZEFSAII (Michael W. Deem and Ramdas Pophale) SiO2 
 PCOD8129012
Probable space group: P 21/C
;
_chemical_formula_sum "Si O2"
_cell_formula_units_Z 28
_cell_length_a 8.519431
_cell_length_b 9.320380
_cell_length_c 19.216920
_cell_angle_alpha 90.000000
_cell_angle_beta 56.606023
_cell_angle_gamma 90.000000
_cell_volume 1273.988274
_symmetry_space_group_name_H-M "P 21/C"
_symmetry_group_IT_number 14
_symmetry_cell_setting 'monoclinic'
loop_
_space_group_symop_operation_xyz
x,y,z
-x,1/2+y,1/2-z
-x,-y,-z
x,1/2-y,1/2+z
loop_
_atom_site_type_symbol
_atom_site_label
_atom_site_fract_x
_atom_site_fract_y
_atom_site_fract_z
Si Si1 0.981325 0.463484 0.819973
Si Si2 0.998475 0.985294 0.156677
Si Si3 0.613052 0.165409 0.602820
Si Si4 0.703651 0.743389 0.214490
Si Si5 0.312627 0.765152 0.062214
Si Si6 0.001435 0.784205 0.414675
Si Si7 0.374543 0.161001 0.416766
O O1 0.817583 0.372995 0.895525
O O2 0.946669 0.464128 0.746429
O O3 0.182941 0.396591 0.788796
O O4 0.968868 0.624785 0.852302
O O5 0.202706 0.911229 0.106680
O O6 0.841510 0.876445 0.167481
O O7 0.997534 0.117694 0.104483
O O8 0.445961 0.223041 0.690285
O O9 0.622481 0.268495 0.533616
O O10 0.805819 0.167245 0.597836
O O11 0.567226 0.004561 0.589045
O O12 0.594285 0.709225 0.170185
O O13 0.494012 0.758807 0.067121
O O14 0.841625 0.815573 0.510142
#
# Coordination Sequence:
#
# PCOD8129012 Si02
#       7
#     4   4   4   4   4   4   4
#     4  11  23  47  74 101 139 186 233 283 350 420
#     4  11  27  45  70 108 143 181 236 294 357 407
#     4  12  26  45  74 105 139 186 239 288 355 422
#     4  11  27  45  72 103 141 179 237 290 350 419
#     4  11  26  46  73 103 141 183 234 292 348 423
#     4  12  25  45  74  99 143 190 231 294 346 427
#     4  12  26  46  73 104 138 189 238 283 356 426
#
# _framework density 21.978223
#
# number of rings (size 3 to 8) (size 9 to 14) (size 15 to 20)
#    0.000    0.571    2.857    5.143   10.000    2.857 
#    0.000    0.000    0.000    0.000    0.000    0.000 
#    0.000    0.000    0.000    0.000    0.000    0.000 
#
# Total GULP energy -347485.870278 kJ/mol
# GULP energy per Si atom -12410.209653 kJ/mol
# Density = 2.192820 g / cm^3
# Si number density = 21.978223 Si / 1000 Ang^3
#
#
#
# Elastic Constant Matrix: (Units=GPa)
#
#
# Indices 1 2 3 4 5 6 
#
# 1 71.1092 3.8736 7.7073 0.0000 -3.1651 0.0000
# 2 3.8736 76.1118 39.1023 0.0000 -7.5973 0.0000
# 3 7.7073 39.1023 112.7970 0.0000 -3.8189 0.0000
# 4 0.0000 0.0000 0.0000 61.1029 0.0000 -16.2358
# 5 -3.1651 -7.5973 -3.8189 0.0000 43.1145 0.0000
# 6 0.0000 0.0000 0.0000 -16.2358 0.0000 44.7311
#
#
#
# Elastic Compliance Matrix: (Units=1/GPa)
#
#
# Indices 1 2 3 4 5 6 
#
# 1 0.014209 -0.000179 -0.000877 0.000000 0.000934 0.000000
# 2 -0.000179 0.016225 -0.005533 0.000000 0.002356 0.000000
# 3 -0.000877 -0.005533 0.010841 0.000000 -0.000079 0.000000
# 4 0.000000 0.000000 0.000000 0.018113 0.000000 0.006574
# 5 0.000934 0.002356 -0.000079 0.000000 0.023671 0.000000
# 6 0.000000 0.000000 0.000000 0.006574 0.000000 0.024742
#
#
# Mechanical properties :
#
#
# Convention : Reuss Voigt Hill
#
# Bulk Modulus (GPa) = 35.59094 40.15381 37.87238
# Shear Modulus (GPa) = 38.35988 43.74536 41.05262
#
# Velocity S-wave (km/s) = 4.18228 4.46623 4.32658
# Velocity P-wave (km/s) = 6.28895 6.70117 6.49833
#
# Compressibility (1/GPa) = 0.02809704
#
# Stress axis : x y z
#
# Youngs Moduli (GPa) = 70.37658 61.63242 92.24513
#
# Poissons Ratio (x) = 0.01105 0.08091
# Poissons Ratio (y) = 0.01262 0.51036
# Poissons Ratio (z) = 0.06173 0.34099
#
# Static dielectric constant tensor:
#      x y z
#    x 3.926560 0.000000 -0.054140 
#    y 0.000000 3.998690 0.000000 
#    z -0.054140 0.000000 4.041590 
# 
# 
# High freq. dielectric constant tensor:
#      x y z
#    x 1.871880 0.000000 0.000660 
#    y 0.000000 1.865690 0.000000 
#    z 0.000660 0.000000 1.878840 
# 
# From -- ./inp_files/64991.got.cif
#   From: 2010.03.12/outbox.cif.g09.slc.cpg/sg14_33_cif.got.tgz:64991.got - 2010.03.31 13:35:05.
