data_PCOD8129846
_publ_section_title
;
Structure prediction by ZEFSAII (Michael W. Deem and Ramdas Pophale) SiO2 
 PCOD8129846
Probable space group: C 2/C
;
_chemical_formula_sum "Si O2"
_cell_formula_units_Z 56
_cell_length_a 11.800904
_cell_length_b 20.218839
_cell_length_c 25.040254
_cell_angle_alpha 90.000000
_cell_angle_beta 150.291718
_cell_angle_gamma 90.000000
_cell_volume 2960.926950
_symmetry_space_group_name_H-M "C 2/C"
_symmetry_group_IT_number 15
_symmetry_cell_setting 'monoclinic'
loop_
_space_group_symop_operation_xyz
x,y,z
-x,y,1/2-z
-x,-y,-z
x,-y,1/2+z
1/2+x,1/2+y,z
1/2-x,1/2+y,1/2-z
1/2-x,1/2-y,-z
1/2+x,1/2-y,1/2+z
loop_
_atom_site_type_symbol
_atom_site_label
_atom_site_fract_x
_atom_site_fract_y
_atom_site_fract_z
Si Si1 0.541086 0.408027 0.353216
Si Si2 0.949017 0.432868 0.644514
Si Si3 0.790867 0.182510 0.488207
Si Si4 0.649713 0.410633 0.620942
Si Si5 0.270725 0.730684 0.364808
Si Si6 0.858350 0.374398 0.386885
Si Si7 0.241627 0.532197 0.010635
O O1 0.536607 0.364344 0.406219
O O2 0.737645 0.380244 0.394804
O O3 0.295843 0.402782 0.224445
O O4 0.599203 0.485407 0.387391
O O5 0.943524 0.360383 0.614050
O O6 0.722858 0.429543 0.590525
O O7 0.937153 0.488203 0.594838
O O8 0.177890 0.449558 0.769605
O O9 0.750000 0.250000 0.500000
O O10 0.874710 0.206443 0.464299
O O11 0.681513 0.333825 0.651265
O O12 0.392470 0.431143 0.527685
O O13 0.403771 0.795612 0.397927
O O14 0.000000 0.747241 0.250000
O O15 0.098373 0.414210 0.486220
#
# Coordination Sequence:
#
# PCOD8129846 Si02
#       7
#     8   8   8   8   8   8   8
#     4  10  21  35  56  79 109 147 187 223 264 329
#     4   9  19  33  55  79 104 142 180 223 264 324
#     4  10  16  30  57  85  95 131 189 231 258 310
#     4  10  19  35  56  81 108 140 182 228 270 322
#     4  11  18  35  60  82 104 141 185 230 270 324
#     4  11  21  36  56  80 113 147 183 230 267 321
#     4  11  22  34  52  84 113 146 179 220 280 326
#
# _framework density 18.912996
#
# number of rings (size 3 to 8) (size 9 to 14) (size 15 to 20)
#    0.000    1.714    5.714    1.714    0.000    0.571 
#    0.000    0.000    0.000    0.000    0.000    0.000 
#    0.000    0.000    0.000    0.000    0.000    0.000 
#
# Total GULP energy -346869.810847 kJ/mol
# GULP energy per Si atom -12388.207530 kJ/mol
# Density = 1.886995 g / cm^3
# Si number density = 18.912996 Si / 1000 Ang^3
#
#
#
# Elastic Constant Matrix: (Units=GPa)
#
#
# Indices 1 2 3 4 5 6 
#
# 1 49.9828 19.8070 25.7828 -0.0013 -4.8576 -0.0007
# 2 19.8070 99.1430 22.1957 -0.0006 1.1705 -0.0007
# 3 25.7828 22.1957 56.3859 -0.0120 -14.5307 -0.0040
# 4 -0.0013 -0.0006 -0.0120 15.2707 -0.0019 -4.2656
# 5 -4.8576 1.1705 -14.5307 -0.0019 28.6303 -0.0015
# 6 -0.0007 -0.0007 -0.0040 -4.2656 -0.0015 29.0585
#
#
#
# Elastic Compliance Matrix: (Units=1/GPa)
#
#
# Indices 1 2 3 4 5 6 
#
# 1 0.026942 -0.002790 -0.011521 -0.000008 -0.001162 -0.000002
# 2 -0.002790 0.011589 -0.004061 -0.000004 -0.003008 -0.000001
# 3 -0.011521 -0.004061 0.027773 0.000024 0.012307 0.000008
# 4 -0.000008 -0.000004 0.000024 0.068285 0.000016 0.010024
# 5 -0.001162 -0.003008 0.012307 0.000016 0.041100 0.000006
# 6 -0.000002 -0.000001 0.000008 0.010024 0.000006 0.035885
#
#
# Mechanical properties :
#
#
# Convention : Reuss Voigt Hill
#
# Bulk Modulus (GPa) = 33.82918 37.89806 35.86362
# Shear Modulus (GPa) = 19.36703 23.77364 21.57034
#
# Velocity S-wave (km/s) = 3.20348 3.54927 3.38080
# Velocity P-wave (km/s) = 5.62216 6.07273 5.85178
#
# Compressibility (1/GPa) = 0.02956028
#
# Stress axis : x y z
#
# Youngs Moduli (GPa) = 37.11642 86.29224 36.00601
#
# Poissons Ratio (x) = 0.24072 0.41482
# Poissons Ratio (y) = 0.10354 0.14623
# Poissons Ratio (z) = 0.42761 0.35047
#
# Static dielectric constant tensor:
#      x y z
#    x 3.611990 0.000010 -0.554710 
#    y 0.000010 3.805390 -0.000020 
#    z -0.554710 -0.000020 3.499710 
# 
# 
# High freq. dielectric constant tensor:
#      x y z
#    x 1.703700 0.000000 -0.033370 
#    y 0.000000 1.754380 0.000000 
#    z -0.033370 0.000000 1.714010 
# 
# From -- ./inp_files/293691.got.cif
#   From: 2010.06.25/outbox.cif.g09.slc.cpg/sg15_147_cif.got.tgz:293691.got - 2010.06.28 07:06:18.
