data_PCOD8129933
_publ_section_title
;
Structure prediction by ZEFSAII (Michael W. Deem and Ramdas Pophale) SiO2 
 PCOD8129933
Probable space group: C 2/C
;
_chemical_formula_sum "Si O2"
_cell_formula_units_Z 60
_cell_length_a 21.891465
_cell_length_b 8.905438
_cell_length_c 17.541282
_cell_angle_alpha 90.000000
_cell_angle_beta 117.270930
_cell_angle_gamma 90.000000
_cell_volume 3039.623760
_symmetry_space_group_name_H-M "C 2/C"
_symmetry_group_IT_number 15
_symmetry_cell_setting 'monoclinic'
loop_
_space_group_symop_operation_xyz
x,y,z
-x,y,1/2-z
-x,-y,-z
x,-y,1/2+z
1/2+x,1/2+y,z
1/2-x,1/2+y,1/2-z
1/2-x,1/2-y,-z
1/2+x,1/2-y,1/2+z
loop_
_atom_site_type_symbol
_atom_site_label
_atom_site_fract_x
_atom_site_fract_y
_atom_site_fract_z
Si Si1 0.766161 0.910779 0.541724
Si Si2 0.400928 0.683115 0.408375
Si Si3 0.398243 0.464823 0.533516
Si Si4 0.430046 0.319617 0.174192
Si Si5 0.533388 0.840802 0.427346
Si Si6 0.000000 0.736998 0.750000
Si Si7 0.130959 0.396802 0.983359
Si Si8 0.628758 0.424376 0.774537
O O1 0.750000 0.750000 0.500000
O O2 0.820456 0.996137 0.517845
O O3 0.798443 0.886676 0.644500
O O4 0.698724 0.010712 0.505467
O O5 0.414055 0.525855 0.458301
O O6 0.470295 0.780043 0.441099
O O7 0.353308 0.783076 0.437502
O O8 0.365872 0.633566 0.309252
O O9 0.448719 0.551913 0.621549
O O10 0.409070 0.287797 0.539961
O O11 0.500000 0.253950 0.250000
O O12 0.385989 0.397066 0.218408
O O13 0.388953 0.187996 0.106682
O O14 0.506638 0.870599 0.326504
O O15 0.568628 0.993877 0.475718
O O16 0.932465 0.838942 0.717603
#
# Coordination Sequence:
#
# PCOD8129933 Si02
#       8
#     8   8   8   8   8   4   8   8
#     4  11  21  42  67  86 122 172 215 248 314 377
#     4  10  23  38  60  92 127 159 207 258 323 359
#     4  10  20  37  66  87 117 170 211 252 301 382
#     4  10  19  36  60  92 120 158 213 261 296 362
#     4  11  19  36  61  88 126 162 200 261 320 363
#     4  10  16  32  62  92 112 156 226 252 300 360
#     4  11  24  38  60  96 134 162 202 263 319 374
#     4  10  19  38  65  86 120 166 208 263 297 375
#
# _framework density 19.739284999999999
#
# number of rings (size 3 to 8) (size 9 to 14) (size 15 to 20)
#    0.000    1.600    4.667    1.600    0.933    5.867 
#    2.400    0.000    0.000    0.000    0.000    0.000 
#    0.000    0.000    0.000    0.000    0.000    0.000 
#
# Total GULP energy -371721.202495 kJ/mol
# GULP energy per Si atom -12390.706750 kJ/mol
# Density = 1.969436 g / cm^3
# Si number density = 19.739285 Si / 1000 Ang^3
#
#
#
# Elastic Constant Matrix: (Units=GPa)
#
#
# Indices 1 2 3 4 5 6 
#
# 1 73.8122 33.9827 55.2377 0.0000 -0.2314 0.0000
# 2 33.9827 98.2843 63.0092 0.0000 0.4275 0.0000
# 3 55.2377 63.0092 148.3535 0.0000 0.9299 0.0000
# 4 0.0000 0.0000 0.0000 32.9607 0.0000 -0.4331
# 5 -0.2314 0.4275 0.9299 0.0000 31.6799 0.0000
# 6 0.0000 0.0000 0.0000 -0.4331 0.0000 30.4947
#
#
#
# Elastic Compliance Matrix: (Units=1/GPa)
#
#
# Indices 1 2 3 4 5 6 
#
# 1 0.019347 -0.002846 -0.005997 0.000000 0.000356 0.000000
# 2 -0.002846 0.014400 -0.005056 0.000000 -0.000067 0.000000
# 3 -0.005997 -0.005056 0.011123 0.000000 -0.000302 0.000000
# 4 0.000000 0.000000 0.000000 0.030345 0.000000 0.000431
# 5 0.000356 -0.000067 -0.000302 0.000000 0.031578 0.000000
# 6 0.000000 0.000000 0.000000 0.000431 0.000000 0.032799
#
#
# Mechanical properties :
#
#
# Convention : Reuss Voigt Hill
#
# Bulk Modulus (GPa) = 58.57616 69.43436 64.00526
# Shear Modulus (GPa) = 28.88809 30.24175 29.56492
#
# Velocity S-wave (km/s) = 3.82970 3.91840 3.87430
# Velocity P-wave (km/s) = 7.02103 7.46484 7.24633
#
# Compressibility (1/GPa) = 0.01707179
#
# Stress axis : x y z
#
# Youngs Moduli (GPa) = 51.68644 69.44293 89.90502
#
# Poissons Ratio (x) = 0.19766 0.53917
# Poissons Ratio (y) = 0.14712 0.45455
# Poissons Ratio (z) = 0.30997 0.35110
#
# Static dielectric constant tensor:
#      x y z
#    x 3.441970 0.000000 -0.041100 
#    y 0.000000 3.640410 0.000000 
#    z -0.041100 0.000000 3.742180 
# 
# 
# High freq. dielectric constant tensor:
#      x y z
#    x 1.748970 0.000000 -0.003550 
#    y 0.000000 1.768810 0.000000 
#    z -0.003550 0.000000 1.770400 
# 
# From -- ./inp_files/214310.got.cif
#   From: 2010.06.25/outbox.cif.g09.slc.cpg/sg15_108_cif.got.tgz:214310.got - 2010.06.28 07:06:18.
