data_PCOD8129824
_publ_section_title
;
Structure prediction by ZEFSAII (Michael W. Deem and Ramdas Pophale) SiO2 
 PCOD8129824
Probable space group: C 2/C
;
_chemical_formula_sum "Si O2"
_cell_formula_units_Z 44
_cell_length_a 31.621933
_cell_length_b 9.111860
_cell_length_c 8.766342
_cell_angle_alpha 90.000000
_cell_angle_beta 71.730102
_cell_angle_gamma 90.000000
_cell_volume 2398.557517
_symmetry_space_group_name_H-M "C 2/C"
_symmetry_group_IT_number 15
_symmetry_cell_setting 'monoclinic'
loop_
_space_group_symop_operation_xyz
x,y,z
-x,y,1/2-z
-x,-y,-z
x,-y,1/2+z
1/2+x,1/2+y,z
1/2-x,1/2+y,1/2-z
1/2-x,1/2-y,-z
1/2+x,1/2-y,1/2+z
loop_
_atom_site_type_symbol
_atom_site_label
_atom_site_fract_x
_atom_site_fract_y
_atom_site_fract_z
Si Si1 0.650012 0.319154 0.427549
Si Si2 0.359006 0.605058 0.213181
Si Si3 0.285991 0.893024 0.797501
Si Si4 0.797405 0.312422 0.123924
Si Si5 0.500000 0.537037 0.750000
Si Si6 0.561682 0.413084 0.432296
O O1 0.668168 0.457958 0.307783
O O2 0.653639 0.359573 0.600100
O O3 0.678352 0.176248 0.359182
O O4 0.598027 0.290282 0.439146
O O5 0.344359 0.742140 0.124343
O O6 0.411655 0.568187 0.129886
O O7 0.238660 0.816541 0.831793
O O8 0.281522 0.063323 0.760191
O O9 0.303901 0.879250 0.949151
O O10 0.526561 0.431071 0.606639
O O11 0.465057 0.634451 0.691017
#
# Coordination Sequence:
#
# PCOD8129824 Si02
#       6
#     8   8   8   8   4   8
#     4  10  19  34  54  82 116 149 184 232 280 325
#     4  10  19  34  54  82 116 149 184 232 280 325
#     4  11  24  39  57  81 110 151 192 235 279 334
#     4  11  24  39  57  81 110 151 192 235 279 334
#     4  10  16  30  52  86 118 142 188 222 296 332
#     4   9  18  30  52  86 118 148 178 238 278 339
#
# _framework density 18.344360000000002
#
# number of rings (size 3 to 8) (size 9 to 14) (size 15 to 20)
#    1.091    0.727    1.818    3.273    2.545    5.818 
#    0.000    0.000    0.000    0.000    0.000    7.636 
#    0.000    0.000    0.000    0.000    0.000    0.000 
#
# Total GULP energy -272630.839615 kJ/mol
# GULP energy per Si atom -12392.310892 kJ/mol
# Density = 1.830261 g / cm^3
# Si number density = 18.344360 Si / 1000 Ang^3
#
#
#
# Elastic Constant Matrix: (Units=GPa)
#
#
# Indices 1 2 3 4 5 6 
#
# 1 85.4671 21.3731 44.0899 0.0000 17.6584 0.0000
# 2 21.3731 54.8451 11.8962 0.0000 7.1261 0.0000
# 3 44.0899 11.8962 92.0167 0.0000 13.1271 0.0000
# 4 0.0000 0.0000 0.0000 24.3011 0.0000 2.8722
# 5 17.6584 7.1261 13.1271 0.0000 35.4093 0.0000
# 6 0.0000 0.0000 0.0000 2.8722 0.0000 17.6651
#
#
#
# Elastic Compliance Matrix: (Units=1/GPa)
#
#
# Indices 1 2 3 4 5 6 
#
# 1 0.017594 -0.004642 -0.007086 0.000000 -0.005213 0.000000
# 2 -0.004642 0.020298 -0.000156 0.000000 -0.001712 0.000000
# 3 -0.007086 -0.000156 0.014544 0.000000 -0.001826 0.000000
# 4 0.000000 0.000000 0.000000 0.041957 0.000000 -0.006822
# 5 -0.005213 -0.001712 -0.001826 0.000000 0.031862 0.000000
# 6 0.000000 0.000000 0.000000 -0.006822 0.000000 0.057718
#
#
# Mechanical properties :
#
#
# Convention : Reuss Voigt Hill
#
# Bulk Modulus (GPa) = 34.88225 43.00526 38.94375
# Shear Modulus (GPa) = 23.00998 25.80642 24.40820
#
# Velocity S-wave (km/s) = 3.54550 3.75477 3.65164
# Velocity P-wave (km/s) = 5.98476 6.50323 6.24937
#
# Compressibility (1/GPa) = 0.02866788
#
# Stress axis : x y z
#
# Youngs Moduli (GPa) = 56.83801 49.26494 68.75814
#
# Poissons Ratio (x) = 0.22868 0.48724
# Poissons Ratio (y) = 0.26384 0.01071
# Poissons Ratio (z) = 0.40277 0.00767
#
# Static dielectric constant tensor:
#      x y z
#    x 3.584500 0.000000 0.222150 
#    y 0.000000 3.009510 0.000000 
#    z 0.222150 0.000000 3.403440 
# 
# 
# High freq. dielectric constant tensor:
#      x y z
#    x 1.718980 0.000000 0.015900 
#    y 0.000000 1.660630 0.000000 
#    z 0.015900 0.000000 1.726090 
# 
# From -- ./inp_files/68300.got.cif
#   From: 2010.06.25/outbox.cif.g09.slc.cpg/sg15_35_cif.got.tgz:68300.got - 2010.06.28 07:06:18.
