data_PCOD8129542
_publ_section_title
;
Structure prediction by ZEFSAII (Michael W. Deem and Ramdas Pophale) SiO2 
 PCOD8129542
Probable space group: C 2/C
;
_chemical_formula_sum "Si O2"
_cell_formula_units_Z 32
_cell_length_a 9.000000
_cell_length_b 18.000000
_cell_length_c 30.000000
_cell_angle_alpha 90.000000
_cell_angle_beta 40.000000
_cell_angle_gamma 90.000000
_cell_volume 3123.947783
_symmetry_space_group_name_H-M "C 2/C"
_symmetry_group_IT_number 15
_symmetry_cell_setting 'monoclinic'
loop_
_space_group_symop_operation_xyz
x,y,z
-x,y,1/2-z
-x,-y,-z
x,-y,1/2+z
1/2+x,1/2+y,z
1/2-x,1/2+y,1/2-z
1/2-x,1/2-y,-z
1/2+x,1/2-y,1/2+z
loop_
_atom_site_type_symbol
_atom_site_label
_atom_site_fract_x
_atom_site_fract_y
_atom_site_fract_z
Si Si1 0.472688 0.387673 0.092205
Si Si2 0.746178 0.825280 0.327497
Si Si3 0.877499 0.410432 0.931355
Si Si4 0.906664 0.253433 0.226585
Si Si5 0.738283 0.006222 0.717346
Si Si6 0.080413 0.744870 0.126199
Si Si7 0.589265 0.403612 0.681933
Si Si8 0.550519 0.058430 0.635352
O O1 0.393026 0.438993 0.151634
O O2 0.532619 0.306143 0.098556
O O3 0.258819 0.389343 0.106427
O O4 0.702481 0.416434 0.013490
O O5 0.595580 0.792923 0.320611
O O6 0.752447 0.777092 0.372114
O O7 0.592773 0.899960 0.371766
O O8 0.000000 0.842751 0.250000
O O9 0.825807 0.331951 0.917362
O O10 0.838943 0.480278 0.906562
O O11 0.140305 0.420384 0.888523
O O12 0.653046 0.222113 0.295237
O O13 0.000000 0.299636 0.250000
O O14 0.079908 0.185000 0.181682
O O15 0.500000 0.975180 0.750000
O O16 0.651371 0.048604 0.781226
O O17 0.915987 0.938965 0.685527
O O18 0.500000 0.434035 0.750000
#
# Coordination Sequence:
#
# PCOD8129542 Si02
#       8
#     8   8   8   8   8   8   8   8
#     4  11  26  43  68  95 134 182 227 271 346 408
#     4  10  23  36  67 100 130 163 222 286 332 387
#     4  12  25  43  69  94 136 182 223 280 339 409
#     4  10  18  37  64 101 127 168 219 275 333 393
#     4  10  22  40  65 100 128 170 220 281 332 403
#     4  11  22  42  65  93 134 172 224 275 335 399
#     4  11  21  38  69  97 133 169 226 275 339 395
#     4  11  23  43  68  94 133 172 223 278 337 401
#
# _framework density 10.243449
#
# number of rings (size 3 to 8) (size 9 to 14) (size 15 to 20)
#    0.000    1.250    3.750    3.000    3.500    5.000 
#    0.000    0.625    0.000    0.000    0.000    0.000 
#    0.000    0.000    0.000    0.000    0.000    0.000 
#
# Total GULP energy -396450.089828 kJ/mol
# GULP energy per Si atom -12389.065307 kJ/mol
# Density = 1.022013 g / cm^3
# Si number density = 10.243449 Si / 1000 Ang^3
#
#
#
# Elastic Constant Matrix: (Units=GPa)
#
#
# Indices 1 2 3 4 5 6 
#
# 1 145.1422 64.2321 27.2716 -0.0026 -5.6786 0.0123
# 2 64.2321 111.5105 34.2041 -0.0004 9.0609 0.0077
# 3 27.2716 34.2041 136.3595 -0.0159 -3.3007 0.0111
# 4 -0.0026 -0.0004 -0.0159 27.1155 0.0114 -1.3665
# 5 -5.6786 9.0609 -3.3007 0.0114 32.6732 -0.0074
# 6 0.0123 0.0077 0.0111 -1.3665 -0.0074 44.6917
#
#
#
# Elastic Compliance Matrix: (Units=1/GPa)
#
#
# Indices 1 2 3 4 5 6 
#
# 1 0.009599 -0.005659 -0.000423 -0.000001 0.003195 -0.000001
# 2 -0.005659 0.013343 -0.002334 0.000000 -0.004920 -0.000001
# 3 -0.000423 -0.002334 0.008037 0.000004 0.001386 -0.000001
# 4 -0.000001 0.000000 0.000004 0.036936 -0.000012 0.001129
# 5 0.003195 -0.004920 0.001386 -0.000012 0.032666 0.000005
# 6 -0.000001 -0.000001 -0.000001 0.001129 0.000005 0.022410
#
#
# Mechanical properties :
#
#
# Convention : Reuss Voigt Hill
#
# Bulk Modulus (GPa) = 70.68718 71.60306 71.14512
# Shear Modulus (GPa) = 34.59289 38.71638 36.65464
#
# Velocity S-wave (km/s) = 4.11364 4.35191 4.23445
# Velocity P-wave (km/s) = 7.55918 7.76394 7.66224
#
# Compressibility (1/GPa) = 0.01414684
#
# Stress axis : x y z
#
# Youngs Moduli (GPa) = 104.18258 74.94518 124.42129
#
# Poissons Ratio (x) = 0.42410 0.05262
# Poissons Ratio (y) = 0.58955 0.29043
# Poissons Ratio (z) = 0.04406 0.17494
#
# Static dielectric constant tensor:
#      x y z
#    x 4.143730 -0.000010 -0.016270 
#    y -0.000010 3.827490 0.000030 
#    z -0.016270 0.000030 3.744410 
# 
# 
# High freq. dielectric constant tensor:
#      x y z
#    x 1.823370 0.000000 -0.008830 
#    y 0.000000 1.810370 0.000000 
#    z -0.008830 0.000000 1.792490 
# 
# From -- ./inp_files/308744.got.cif
#   From: 2010.06.25/outbox.ucp.g09.slc.cvg/sg15_155_cif.got.tgz:308744.got - 2010.06.28 14:40:10.
