data_PCOD8129307
_publ_section_title
;
Structure prediction by ZEFSAII (Michael W. Deem and Ramdas Pophale) SiO2 
 PCOD8129307
Probable space group: P 21/C
;
_chemical_formula_sum "Si O2"
_cell_formula_units_Z 12
_cell_length_a 4.762827
_cell_length_b 13.303882
_cell_length_c 7.411635
_cell_angle_alpha 90.000000
_cell_angle_beta 109.494502
_cell_angle_gamma 90.000000
_cell_volume 442.709174
_symmetry_space_group_name_H-M "P 21/C"
_symmetry_group_IT_number 14
_symmetry_cell_setting 'monoclinic'
loop_
_space_group_symop_operation_xyz
x,y,z
-x,1/2+y,1/2-z
-x,-y,-z
x,1/2-y,1/2+z
loop_
_atom_site_type_symbol
_atom_site_label
_atom_site_fract_x
_atom_site_fract_y
_atom_site_fract_z
Si Si1 0.517429 0.875420 0.199042
Si Si2 0.495325 0.152825 0.393432
Si Si3 0.893965 0.058656 0.199283
O O1 0.619424 0.766896 0.147333
O O2 0.415349 0.871066 0.383712
O O3 0.805865 0.946336 0.239568
O O4 0.235165 0.917225 0.026468
O O5 0.779361 0.137781 0.325483
O O6 0.249243 0.073176 0.268217
#
# Coordination Sequence:
#
# PCOD8129307 Si02
#       3
#     4   4   4
#     4  11  26  47  73 103 140 184 230 284 347 406
#     4  12  26  45  73 102 141 180 233 284 343 410
#     4  11  28  47  71 103 140 183 232 284 341 415
#
# _framework density 27.105830000000001
#
# number of rings (size 3 to 8) (size 9 to 14) (size 15 to 20)
#    0.000    0.667    3.333    2.000    4.667   10.667 
#    0.000    0.000    0.000    0.000    0.000    0.000 
#    0.000    0.000    0.000    0.000    0.000    0.000 
#
# Total GULP energy -148950.292861 kJ/mol
# GULP energy per Si atom -12412.524405 kJ/mol
# Density = 2.704414 g / cm^3
# Si number density = 27.105830 Si / 1000 Ang^3
#
#
#
# Elastic Constant Matrix: (Units=GPa)
#
#
# Indices 1 2 3 4 5 6 
#
# 1 48.0300 -21.5260 17.5620 0.0000 -1.5741 0.0000
# 2 -21.5260 121.0585 14.0476 0.0000 -11.8030 0.0000
# 3 17.5620 14.0476 162.2667 0.0000 -34.8611 0.0000
# 4 0.0000 0.0000 0.0000 44.3962 0.0000 -7.3570
# 5 -1.5741 -11.8030 -34.8611 0.0000 37.6239 0.0000
# 6 0.0000 0.0000 0.0000 -7.3570 0.0000 21.7172
#
#
#
# Elastic Compliance Matrix: (Units=1/GPa)
#
#
# Indices 1 2 3 4 5 6 
#
# 1 0.023987 0.004583 -0.003082 0.000000 -0.000414 0.000000
# 2 0.004583 0.009402 -0.000793 0.000000 0.002407 0.000000
# 3 -0.003082 -0.000793 0.008095 0.000000 0.007123 0.000000
# 4 0.000000 0.000000 0.000000 0.023864 0.000000 0.008084
# 5 -0.000414 0.002407 0.007123 0.000000 0.033917 0.000000
# 6 0.000000 0.000000 0.000000 0.008084 0.000000 0.048785
#
#
# Mechanical properties :
#
#
# Convention : Reuss Voigt Hill
#
# Bulk Modulus (GPa) = 23.30995 39.05803 31.18399
# Shear Modulus (GPa) = 31.06847 42.16556 36.61701
#
# Velocity S-wave (km/s) = 3.38922 3.94838 3.67943
# Velocity P-wave (km/s) = 4.89224 5.93523 5.43879
#
# Compressibility (1/GPa) = 0.04290014
#
# Stress axis : x y z
#
# Youngs Moduli (GPa) = 41.68854 106.36087 123.53004
#
# Poissons Ratio (x) = -0.48740 0.38070
# Poissons Ratio (y) = -0.19104 0.09794
# Poissons Ratio (z) = 0.12848 0.08433
#
# Static dielectric constant tensor:
#      x y z
#    x 4.407000 0.000000 -0.317710 
#    y 0.000000 5.235160 0.000000 
#    z -0.317710 0.000000 4.991900 
# 
# 
# High freq. dielectric constant tensor:
#      x y z
#    x 2.079950 0.000000 -0.021010 
#    y 0.000000 2.112540 0.000000 
#    z -0.021010 0.000000 2.106050 
# 
# From -- ./inp_files/4595.got.cif
#   From: 2010.03.12/outbox.cif.g09.slc.cpg/sg14_3_cif.got.tgz:4595.got - 2010.03.31 13:35:05.
