data_PCOD8129568
_publ_section_title
;
Structure prediction by ZEFSAII (Michael W. Deem and Ramdas Pophale) SiO2 
 PCOD8129568
Probable space group: C 2/C
;
_chemical_formula_sum "Si O2"
_cell_formula_units_Z 28
_cell_length_a 15.000000
_cell_length_b 15.000000
_cell_length_c 24.000000
_cell_angle_alpha 90.000000
_cell_angle_beta 30.000000
_cell_angle_gamma 90.000000
_cell_volume 2700.000000
_symmetry_space_group_name_H-M "C 2/C"
_symmetry_group_IT_number 15
_symmetry_cell_setting 'monoclinic'
loop_
_space_group_symop_operation_xyz
x,y,z
-x,y,1/2-z
-x,-y,-z
x,-y,1/2+z
1/2+x,1/2+y,z
1/2-x,1/2+y,1/2-z
1/2-x,1/2-y,-z
1/2+x,1/2-y,1/2+z
loop_
_atom_site_type_symbol
_atom_site_label
_atom_site_fract_x
_atom_site_fract_y
_atom_site_fract_z
Si Si1 0.434692 0.003120 0.598274
Si Si2 0.660584 0.649369 0.877260
Si Si3 0.956975 0.972455 0.155238
Si Si4 0.907934 0.189037 0.857921
Si Si5 0.007772 0.695032 0.088553
Si Si6 0.019489 0.663596 0.626283
Si Si7 0.904082 0.155438 0.462208
O O1 0.227137 0.027035 0.711254
O O2 0.541077 0.082004 0.571457
O O3 0.500000 0.000000 0.500000
O O4 0.462537 0.909396 0.614896
O O5 0.560259 0.575720 0.894778
O O6 0.619729 0.752184 0.884415
O O7 0.871818 0.639537 0.752584
O O8 0.588388 0.629563 0.977466
O O9 0.090967 0.911768 0.118598
O O10 0.028628 0.072369 0.110604
O O11 0.011990 0.261136 0.839670
O O12 0.000000 0.193520 0.750000
O O13 0.704698 0.215696 0.959830
O O14 0.977500 0.756733 0.616282
O O15 0.200150 0.677822 0.561305
#
# Coordination Sequence:
#
# PCOD8129568 Si02
#       7
#     8   8   8   8   8   8   8
#     4  11  21  37  58  84 116 153 192 241 287 338
#     4  10  21  39  58  82 113 148 187 239 288 335
#     4  10  22  36  58  85 112 147 194 232 282 352
#     4  10  21  39  58  84 117 146 181 242 291 330
#     4  10  21  36  59  85 111 146 195 230 282 354
#     4  10  23  37  56  84 115 149 192 234 282 346
#     4  11  21  38  58  81 115 152 188 234 284 341
#
# _framework density 10.370369999999999
#
# number of rings (size 3 to 8) (size 9 to 14) (size 15 to 20)
#    0.000    1.714    0.000    4.286    0.000    3.429 
#    0.000   10.000    0.000    0.000    0.000    0.000 
#    0.000    0.000    0.000    0.000    0.000    0.000 
#
# Total GULP energy -347212.238371 kJ/mol
# GULP energy per Si atom -12400.437085 kJ/mol
# Density = 1.034677 g / cm^3
# Si number density = 10.370370 Si / 1000 Ang^3
#
#
#
# Elastic Constant Matrix: (Units=GPa)
#
#
# Indices 1 2 3 4 5 6 
#
# 1 53.3364 22.9585 26.8404 0.0009 14.4872 -0.0004
# 2 22.9585 157.5691 8.3276 -0.0019 14.9061 -0.0003
# 3 26.8404 8.3276 54.2848 0.0009 19.8793 -0.0010
# 4 0.0009 -0.0019 0.0009 33.6174 -0.0013 -4.1498
# 5 14.4872 14.9061 19.8793 -0.0013 33.3584 0.0002
# 6 -0.0004 -0.0003 -0.0010 -4.1498 0.0002 21.0102
#
#
#
# Elastic Compliance Matrix: (Units=1/GPa)
#
#
# Indices 1 2 3 4 5 6 
#
# 1 0.026752 -0.002965 -0.011516 -0.000001 -0.003431 0.000000
# 2 -0.002965 0.006955 0.001363 0.000000 -0.002633 0.000000
# 3 -0.011516 0.001363 0.028522 -0.000001 -0.012605 0.000001
# 4 -0.000001 0.000000 -0.000001 0.030490 0.000002 0.006022
# 5 -0.003431 -0.002633 -0.012605 0.000002 0.040156 -0.000001
# 6 0.000000 0.000000 0.000001 0.006022 -0.000001 0.048785
#
#
# Mechanical properties :
#
#
# Convention : Reuss Voigt Hill
#
# Bulk Modulus (GPa) = 27.78236 42.38260 35.08248
# Shear Modulus (GPa) = 22.73819 31.40145 27.06982
#
# Velocity S-wave (km/s) = 3.31464 3.89523 3.61661
# Velocity P-wave (km/s) = 5.29842 6.38038 5.86441
#
# Compressibility (1/GPa) = 0.03599407
#
# Stress axis : x y z
#
# Youngs Moduli (GPa) = 37.38022 143.77281 35.06034
#
# Poissons Ratio (x) = 0.42625 0.40376
# Poissons Ratio (y) = 0.11082 -0.04779
# Poissons Ratio (z) = 0.43047 -0.19596
#
# Static dielectric constant tensor:
#      x y z
#    x 3.567870 0.000000 -0.021380 
#    y 0.000000 4.045800 0.000010 
#    z -0.021380 0.000010 3.654910 
# 
# 
# High freq. dielectric constant tensor:
#      x y z
#    x 1.793720 0.000000 0.000180 
#    y 0.000000 1.827180 0.000000 
#    z 0.000180 0.000000 1.813410 
# 
# From -- ./inp_files/105418.got.cif
#   From: 2010.06.25/outbox.ucp.g09.slc.cvg/sg15_53_cif.got.tgz:105418.got - 2010.06.28 14:40:10.
