data_PCOD8129900
_publ_section_title
;
Structure prediction by ZEFSAII (Michael W. Deem and Ramdas Pophale) SiO2 
 PCOD8129900
Probable space group: C 2/C
;
_chemical_formula_sum "Si O2"
_cell_formula_units_Z 52
_cell_length_a 11.680239
_cell_length_b 27.078606
_cell_length_c 9.263326
_cell_angle_alpha 90.000000
_cell_angle_beta 91.735030
_cell_angle_gamma 90.000000
_cell_volume 2928.504034
_symmetry_space_group_name_H-M "C 2/C"
_symmetry_group_IT_number 15
_symmetry_cell_setting 'monoclinic'
loop_
_space_group_symop_operation_xyz
x,y,z
-x,y,1/2-z
-x,-y,-z
x,-y,1/2+z
1/2+x,1/2+y,z
1/2-x,1/2+y,1/2-z
1/2-x,1/2-y,-z
1/2+x,1/2-y,1/2+z
loop_
_atom_site_type_symbol
_atom_site_label
_atom_site_fract_x
_atom_site_fract_y
_atom_site_fract_z
Si Si1 0.378828 0.444873 0.924002
Si Si2 0.317921 0.669512 0.454503
Si Si3 0.871047 0.308903 0.770669
Si Si4 0.856707 0.035535 0.100158
Si Si5 0.297375 0.364121 0.540339
Si Si6 0.871834 0.195337 0.768881
Si Si7 0.500000 0.330739 0.750000
O O1 0.342372 0.388915 0.955098
O O2 0.514425 0.450070 0.937156
O O3 0.332300 0.463571 0.769076
O O4 0.323500 0.481218 0.041493
O O5 0.196790 0.682463 0.380100
O O6 0.306174 0.689650 0.615266
O O7 0.422214 0.697641 0.367792
O O8 0.815714 0.339932 0.897411
O O9 0.867951 0.251880 0.819237
O O10 0.000000 0.327094 0.750000
O O11 0.777518 0.077310 0.019124
O O12 0.316628 0.338271 0.388874
O O13 0.405376 0.361939 0.656938
O O14 0.000000 0.176251 0.750000
#
# Coordination Sequence:
#
# PCOD8129900 Si02
#       7
#     8   8   8   8   8   8   4
#     4  10  18  30  49  81 113 139 168 211 279 341
#     4  11  19  36  56  79 116 146 178 223 281 330
#     4  10  23  39  56  74 108 154 195 225 262 315
#     4  10  18  30  49  81 113 139 168 211 279 341
#     4  11  19  36  56  79 116 146 178 223 281 330
#     4  11  21  33  56  90 110 134 189 229 281 330
#     4  10  16  32  54  78 106 156 166 208 282 334
#
# _framework density 17.756506999999999
#
# number of rings (size 3 to 8) (size 9 to 14) (size 15 to 20)
#    0.000    1.538    6.154    0.923    2.154    0.000 
#    0.000    0.769    0.000    0.923    0.000    0.000 
#    0.000    0.000    0.000    0.000    0.000    0.000 
#
# Total GULP energy -322213.313127 kJ/mol
# GULP energy per Si atom -12392.819736 kJ/mol
# Density = 1.771609 g / cm^3
# Si number density = 17.756507 Si / 1000 Ang^3
#
#
#
# Elastic Constant Matrix: (Units=GPa)
#
#
# Indices 1 2 3 4 5 6 
#
# 1 87.0916 24.5743 36.8487 0.0000 -5.8084 0.0000
# 2 24.5743 69.9707 29.4228 0.0000 -11.0576 0.0000
# 3 36.8487 29.4228 93.8777 0.0000 -12.0658 0.0000
# 4 0.0000 0.0000 0.0000 27.7720 0.0000 1.3101
# 5 -5.8084 -11.0576 -12.0658 0.0000 19.4074 0.0000
# 6 0.0000 0.0000 0.0000 1.3101 0.0000 13.3131
#
#
#
# Elastic Compliance Matrix: (Units=1/GPa)
#
#
# Indices 1 2 3 4 5 6 
#
# 1 0.014322 -0.003120 -0.004697 0.000000 -0.000411 0.000000
# 2 -0.003120 0.017985 -0.003494 0.000000 0.007141 0.000000
# 3 -0.004697 -0.003494 0.014297 0.000000 0.005492 0.000000
# 4 0.000000 0.000000 0.000000 0.036175 0.000000 -0.003560
# 5 -0.000411 0.007141 0.005492 0.000000 0.058887 0.000000
# 6 0.000000 0.000000 0.000000 -0.003560 0.000000 0.075464
#
#
# Mechanical properties :
#
#
# Convention : Reuss Voigt Hill
#
# Bulk Modulus (GPa) = 41.69798 48.07020 44.88409
# Shear Modulus (GPa) = 20.18184 22.77145 21.47665
#
# Velocity S-wave (km/s) = 3.37499 3.58499 3.48157
# Velocity P-wave (km/s) = 6.22267 6.65333 6.44160
#
# Compressibility (1/GPa) = 0.02398198
#
# Stress axis : x y z
#
# Youngs Moduli (GPa) = 69.82105 55.60056 69.94594
#
# Poissons Ratio (x) = 0.17348 0.32852
# Poissons Ratio (y) = 0.21785 0.24442
# Poissons Ratio (z) = 0.32793 0.19429
#
# Static dielectric constant tensor:
#      x y z
#    x 3.058540 0.000000 -0.092060 
#    y 0.000000 3.380610 0.000000 
#    z -0.092060 0.000000 3.512160 
# 
# 
# High freq. dielectric constant tensor:
#      x y z
#    x 1.643510 0.000000 -0.005120 
#    y 0.000000 1.682850 0.000000 
#    z -0.005120 0.000000 1.696740 
# 
# From -- ./inp_files/33617.got.cif
#   From: 2010.06.25/outbox.cif.g09.slc.cpg/sg15_17_cif.got.tgz:33617.got - 2010.06.28 07:06:18.
