data_PCOD8129208
_publ_section_title
;
Structure prediction by ZEFSAII (Michael W. Deem and Ramdas Pophale) SiO2 
 PCOD8129208
Probable space group: P 21/C
;
_chemical_formula_sum "Si O2"
_cell_formula_units_Z 8
_cell_length_a 13.608621
_cell_length_b 4.793141
_cell_length_c 12.580160
_cell_angle_alpha 90.000000
_cell_angle_beta 22.293310
_cell_angle_gamma 90.000000
_cell_volume 311.285171
_symmetry_space_group_name_H-M "P 21/C"
_symmetry_group_IT_number 14
_symmetry_cell_setting 'monoclinic'
loop_
_space_group_symop_operation_xyz
x,y,z
-x,1/2+y,1/2-z
-x,-y,-z
x,1/2-y,1/2+z
loop_
_atom_site_type_symbol
_atom_site_label
_atom_site_fract_x
_atom_site_fract_y
_atom_site_fract_z
Si Si1 0.999878 0.500281 0.177411
Si Si2 0.749534 0.691700 0.750640
O O1 0.110918 0.750195 0.139000
O O2 0.761547 0.610582 0.342874
O O3 0.238001 0.390369 0.865815
O O4 0.000000 0.500000 0.500000
O O5 0.500000 0.500000 0.000000
#
# Coordination Sequence:
#
# PCOD8129208 Si02
#       2
#     4   4
#     4  11  24  51  78 120 156 209 262 323 388 470
#     4  11  26  52  77 113 160 205 257 326 389 463
#
# _framework density 25.699907
#
# number of rings (size 3 to 8) (size 9 to 14) (size 15 to 20)
#    0.000    1.000    5.000    0.000    0.000    8.000 
#   18.000    0.000    0.000    0.000    0.000    0.000 
#    0.000    0.000    0.000    0.000    0.000    0.000 
#
# Total GULP energy -99190.166355 kJ/mol
# GULP energy per Si atom -12398.770794 kJ/mol
# Density = 2.564141 g / cm^3
# Si number density = 25.699907 Si / 1000 Ang^3
#
#
#
# Elastic Constant Matrix: (Units=GPa)
#
#
# Indices 1 2 3 4 5 6 
#
# 1 160.9765 118.5778 118.0781 0.0000 36.4049 0.0000
# 2 118.5778 230.6288 103.3505 0.0000 14.2445 0.0000
# 3 118.0781 103.3505 135.1484 0.0000 -12.8844 0.0000
# 4 0.0000 0.0000 0.0000 69.2411 0.0000 10.1978
# 5 36.4049 14.2445 -12.8844 0.0000 52.4404 0.0000
# 6 0.0000 0.0000 0.0000 10.1978 0.0000 79.8926
#
#
#
# Elastic Compliance Matrix: (Units=1/GPa)
#
#
# Indices 1 2 3 4 5 6 
#
# 1 0.075698 -0.003160 -0.070295 0.000000 -0.068964 0.000000
# 2 -0.003160 0.007262 -0.002838 0.000000 -0.000476 0.000000
# 3 -0.070295 -0.002838 0.077528 0.000000 0.068619 0.000000
# 4 0.000000 0.000000 0.000000 0.014719 0.000000 -0.001879
# 5 -0.068964 -0.000476 0.068619 0.000000 0.083934 0.000000
# 6 0.000000 0.000000 0.000000 -0.001879 0.000000 0.012757
#
#
# Mechanical properties :
#
#
# Convention : Reuss Voigt Hill
#
# Bulk Modulus (GPa) = 126.55421 134.08515 130.31968
# Shear Modulus (GPa) = 11.70640 52.76465 32.23552
#
# Velocity S-wave (km/s) = 2.13657 4.53604 3.54546
# Velocity P-wave (km/s) = 7.44557 8.92865 8.22063
#
# Compressibility (1/GPa) = 0.00790175
#
# Stress axis : x y z
#
# Youngs Moduli (GPa) = 13.21036 137.70852 12.89860
#
# Poissons Ratio (x) = 0.43511 0.90671
# Poissons Ratio (y) = 0.04174 0.03661
# Poissons Ratio (z) = 0.92863 0.39082
#
# Static dielectric constant tensor:
#      x y z
#    x 4.836270 0.000000 1.070550 
#    y 0.000000 5.434840 0.000000 
#    z 1.070550 0.000000 3.763050 
# 
# 
# High freq. dielectric constant tensor:
#      x y z
#    x 2.029440 0.000000 0.034170 
#    y 0.000000 2.069840 0.000000 
#    z 0.034170 0.000000 1.994500 
# 
# From -- ./inp_files/20065.got.cif
#   From: 2010.03.12/outbox.cif.g09.slc.cpg/sg14_11_cif.got.tgz:20065.got - 2010.03.31 13:35:05.
