data_PCOD8129967
_publ_section_title
;
Structure prediction by ZEFSAII (Michael W. Deem and Ramdas Pophale) SiO2 
 PCOD8129967
Probable space group: C 2/C
;
_chemical_formula_sum "Si O2"
_cell_formula_units_Z 64
_cell_length_a 32.061055
_cell_length_b 20.193055
_cell_length_c 15.420830
_cell_angle_alpha 90.000000
_cell_angle_beta 19.427748
_cell_angle_gamma 90.000000
_cell_volume 3320.727135
_symmetry_space_group_name_H-M "C 2/C"
_symmetry_group_IT_number 15
_symmetry_cell_setting 'monoclinic'
loop_
_space_group_symop_operation_xyz
x,y,z
-x,y,1/2-z
-x,-y,-z
x,-y,1/2+z
1/2+x,1/2+y,z
1/2-x,1/2+y,1/2-z
1/2-x,1/2-y,-z
1/2+x,1/2-y,1/2+z
loop_
_atom_site_type_symbol
_atom_site_label
_atom_site_fract_x
_atom_site_fract_y
_atom_site_fract_z
Si Si1 0.520266 0.117607 0.309236
Si Si2 0.140330 0.794032 0.477511
Si Si3 0.243247 0.956317 0.082334
Si Si4 0.640282 0.552916 0.961947
Si Si5 0.839726 0.195881 0.366182
Si Si6 0.225740 0.434338 0.121936
Si Si7 0.881764 0.169057 0.729597
Si Si8 0.322303 0.759697 0.985433
O O1 0.500000 0.092308 0.250000
O O2 0.403138 0.101189 0.599439
O O3 0.553486 0.195809 0.241186
O O4 0.633013 0.081931 0.135226
O O5 0.143313 0.868486 0.431335
O O6 0.191261 0.795453 0.473170
O O7 0.240161 0.747567 0.232804
O O8 0.000000 0.764341 0.750000
O O9 0.192826 0.985614 0.273661
O O10 0.133742 0.909768 0.254535
O O11 0.286176 0.008314 0.925624
O O12 0.713299 0.538254 0.908240
O O13 0.500000 0.527899 0.250000
O O14 0.750000 0.250000 0.500000
O O15 0.805042 0.120109 0.413021
O O16 0.987368 0.201691 0.058061
O O17 0.866775 0.188745 0.860580
O O18 0.770007 0.204018 0.899148
#
# Coordination Sequence:
#
# PCOD8129967 Si02
#       8
#     8   8   8   8   8   8   8   8
#     4  11  19  37  61  89 116 155 203 251 289 351
#     4  10  16  34  59  82 110 149 195 239 284 351
#     4  11  21  39  60  86 120 156 203 242 298 363
#     4  10  19  35  57  84 110 148 201 247 285 351
#     4  11  22  37  57  87 120 147 195 249 299 345
#     4  11  23  36  61  86 117 157 198 249 303 349
#     4  10  20  35  55  85 120 150 186 240 292 354
#     4  10  19  33  59  86 114 149 192 236 296 346
#
# _framework density 19.272887999999998
#
# number of rings (size 3 to 8) (size 9 to 14) (size 15 to 20)
#    0.000    1.500    5.000    3.375    0.000    2.000 
#    0.000    1.250    0.000    0.750    0.000    0.000 
#    0.000    0.000    0.000    0.000    0.000    0.000 
#
# Total GULP energy -396472.549126 kJ/mol
# GULP energy per Si atom -12389.767160 kJ/mol
# Density = 1.922902 g / cm^3
# Si number density = 19.272888 Si / 1000 Ang^3
#
#
#
# Elastic Constant Matrix: (Units=GPa)
#
#
# Indices 1 2 3 4 5 6 
#
# 1 86.2609 47.1699 48.2052 -0.0009 7.8415 0.0001
# 2 47.1699 53.9714 18.2061 -0.0020 4.6535 -0.0002
# 3 48.2052 18.2061 102.7841 -0.0029 10.3807 -0.0001
# 4 -0.0009 -0.0020 -0.0029 10.3193 -0.0003 2.2864
# 5 7.8415 4.6535 10.3807 -0.0003 35.7140 -0.0001
# 6 0.0001 -0.0002 -0.0001 2.2864 -0.0001 30.6559
#
#
#
# Elastic Compliance Matrix: (Units=1/GPa)
#
#
# Indices 1 2 3 4 5 6 
#
# 1 0.029219 -0.022204 -0.009699 -0.000005 -0.000703 0.000000
# 2 -0.022204 0.036668 0.004027 0.000006 -0.001073 0.000000
# 3 -0.009699 0.004027 0.013808 0.000004 -0.002409 0.000000
# 4 -0.000005 0.000006 0.000004 0.098534 0.000000 -0.007349
# 5 -0.000703 -0.001073 -0.002409 0.000000 0.028994 0.000000
# 6 0.000000 0.000000 0.000000 -0.007349 0.000000 0.033168
#
#
# Mechanical properties :
#
#
# Convention : Reuss Voigt Hill
#
# Bulk Modulus (GPa) = 41.76766 52.24211 47.00488
# Shear Modulus (GPa) = 16.44054 23.96685 20.20370
#
# Velocity S-wave (km/s) = 2.92385 3.53023 3.24125
# Velocity P-wave (km/s) = 5.75477 6.61680 6.20078
#
# Compressibility (1/GPa) = 0.02394197
#
# Stress axis : x y z
#
# Youngs Moduli (GPa) = 34.22448 27.27145 72.42130
#
# Poissons Ratio (x) = 0.60554 0.70245
# Poissons Ratio (y) = 0.75993 -0.29164
# Poissons Ratio (z) = 0.33196 -0.10982
#
# Static dielectric constant tensor:
#      x y z
#    x 3.919910 -0.000010 0.390430 
#    y -0.000010 3.589860 -0.000010 
#    z 0.390430 -0.000010 4.266460 
# 
# 
# High freq. dielectric constant tensor:
#      x y z
#    x 1.755990 0.000000 0.003210 
#    y 0.000000 1.694280 0.000000 
#    z 0.003210 0.000000 1.772130 
# 
# From -- ./inp_files/183133.got.cif
#   From: 2010.06.25/outbox.cif.g09.slc.cpg/sg15_92_cif.got.tgz:183133.got - 2010.06.28 07:06:18.
