data_PCOD8129860
_publ_section_title
;
Structure prediction by ZEFSAII (Michael W. Deem and Ramdas Pophale) SiO2 
 PCOD8129860
Probable space group: C 2/C
;
_chemical_formula_sum "Si O2"
_cell_formula_units_Z 64
_cell_length_a 16.262438
_cell_length_b 12.082221
_cell_length_c 18.357136
_cell_angle_alpha 90.000000
_cell_angle_beta 84.886405
_cell_angle_gamma 90.000000
_cell_volume 3592.571246
_symmetry_space_group_name_H-M "C 2/C"
_symmetry_group_IT_number 15
_symmetry_cell_setting 'monoclinic'
loop_
_space_group_symop_operation_xyz
x,y,z
-x,y,1/2-z
-x,-y,-z
x,-y,1/2+z
1/2+x,1/2+y,z
1/2-x,1/2+y,1/2-z
1/2-x,1/2-y,-z
1/2+x,1/2-y,1/2+z
loop_
_atom_site_type_symbol
_atom_site_label
_atom_site_fract_x
_atom_site_fract_y
_atom_site_fract_z
Si Si1 0.773418 0.146260 0.796951
Si Si2 0.898578 0.222904 0.410657
Si Si3 0.744014 0.423940 0.640945
Si Si4 0.292512 0.110728 0.846520
Si Si5 0.061333 0.861680 0.302965
Si Si6 0.038421 0.892383 0.824202
Si Si7 0.644364 0.249416 0.420628
Si Si8 0.767044 0.119376 0.189978
O O1 0.703641 0.146438 0.738938
O O2 0.854467 0.108506 0.745958
O O3 0.775962 0.266714 0.833897
O O4 0.757566 0.057619 0.862716
O O5 0.839504 0.126705 0.384488
O O6 0.877445 0.343039 0.375690
O O7 0.891184 0.232273 0.497384
O O8 0.991535 0.182687 0.387550
O O9 0.823260 0.376718 0.591067
O O10 0.755431 0.391766 0.723965
O O11 0.220790 0.169572 0.898834
O O12 0.275793 0.978852 0.853492
O O13 0.072763 0.775760 0.367872
O O14 0.000000 0.804735 0.250000
O O15 0.022779 0.976217 0.336391
O O16 0.135060 0.870437 0.827700
O O17 0.000000 0.855341 0.750000
#
# Coordination Sequence:
#
# PCOD8129860 Si02
#       8
#     8   8   8   8   8   8   8   8
#     4  10  17  30  54  78 105 141 181 233 277 314
#     4  11  20  32  55  80 112 143 177 227 292 330
#     4  10  16  31  51  80 105 137 184 225 269 325
#     4   9  17  32  49  81 108 137 185 225 267 330
#     4  10  18  31  51  83 110 129 175 238 280 321
#     4  11  18  31  52  82 111 138 182 239 278 315
#     4  10  19  33  53  79 109 145 175 223 286 345
#     4  11  17  31  56  77 110 142 186 236 270 318
#
# _framework density 17.814539
#
# number of rings (size 3 to 8) (size 9 to 14) (size 15 to 20)
#    0.000    1.750    8.750    2.250    0.000    0.500 
#    0.000    0.000    2.750    3.750    0.000    0.000 
#    0.000    0.000    0.000    0.000    0.000    0.000 
#
# Total GULP energy -396571.297646 kJ/mol
# GULP energy per Si atom -12392.853051 kJ/mol
# Density = 1.777399 g / cm^3
# Si number density = 17.814539 Si / 1000 Ang^3
#
#
#
# Elastic Constant Matrix: (Units=GPa)
#
#
# Indices 1 2 3 4 5 6 
#
# 1 55.5072 36.2228 20.9599 0.0000 0.5937 0.0000
# 2 36.2228 136.6068 32.6465 0.0000 1.7229 0.0000
# 3 20.9599 32.6465 62.4117 0.0000 0.5910 0.0000
# 4 0.0000 0.0000 0.0000 18.8726 0.0000 2.5582
# 5 0.5937 1.7229 0.5910 0.0000 18.1960 0.0000
# 6 0.0000 0.0000 0.0000 2.5582 0.0000 24.8526
#
#
#
# Elastic Compliance Matrix: (Units=1/GPa)
#
#
# Indices 1 2 3 4 5 6 
#
# 1 0.023186 -0.004898 -0.005223 0.000000 -0.000123 0.000000
# 2 -0.004898 0.009409 -0.003271 0.000000 -0.000625 0.000000
# 3 -0.005223 -0.003271 0.019489 0.000000 -0.000153 0.000000
# 4 0.000000 0.000000 0.000000 0.053737 0.000000 -0.005531
# 5 -0.000123 -0.000625 -0.000153 0.000000 0.055025 0.000000
# 6 0.000000 0.000000 0.000000 -0.005531 0.000000 0.040807
#
#
# Mechanical properties :
#
#
# Convention : Reuss Voigt Hill
#
# Bulk Modulus (GPa) = 39.52667 48.24269 43.88468
# Shear Modulus (GPa) = 21.10872 23.36401 22.23637
#
# Velocity S-wave (km/s) = 3.44599 3.62541 3.53684
# Velocity P-wave (km/s) = 6.17003 6.68312 6.43169
#
# Compressibility (1/GPa) = 0.02529937
#
# Stress axis : x y z
#
# Youngs Moduli (GPa) = 43.12990 106.28614 51.31099
#
# Poissons Ratio (x) = 0.52060 0.26801
# Poissons Ratio (y) = 0.21126 0.16782
# Poissons Ratio (z) = 0.22528 0.34762
#
# Static dielectric constant tensor:
#      x y z
#    x 3.250920 0.000000 0.068110 
#    y 0.000000 3.602130 0.000000 
#    z 0.068110 0.000000 3.077850 
# 
# 
# High freq. dielectric constant tensor:
#      x y z
#    x 1.663730 0.000000 0.001480 
#    y 0.000000 1.685910 0.000000 
#    z 0.001480 0.000000 1.660140 
# 
# From -- ./inp_files/210308.got.cif
#   From: 2010.06.25/outbox.cif.g09.slc.cpg/sg15_106_cif.got.tgz:210308.got - 2010.06.28 07:06:18.
