data_PCOD8129336
_publ_section_title
;
Structure prediction by ZEFSAII (Michael W. Deem and Ramdas Pophale) SiO2 
 PCOD8129336
Probable space group: P 21/C
;
_chemical_formula_sum "Si O2"
_cell_formula_units_Z 16
_cell_length_a 8.365585
_cell_length_b 8.368495
_cell_length_c 15.930894
_cell_angle_alpha 90.000000
_cell_angle_beta 144.924751
_cell_angle_gamma 90.000000
_cell_volume 640.897493
_symmetry_space_group_name_H-M "P 21/C"
_symmetry_group_IT_number 14
_symmetry_cell_setting 'monoclinic'
loop_
_space_group_symop_operation_xyz
x,y,z
-x,1/2+y,1/2-z
-x,-y,-z
x,1/2-y,1/2+z
loop_
_atom_site_type_symbol
_atom_site_label
_atom_site_fract_x
_atom_site_fract_y
_atom_site_fract_z
Si Si1 0.699961 0.915429 0.364619
Si Si2 0.831811 0.360918 0.625346
Si Si3 0.544066 0.894154 0.599160
Si Si4 0.557038 0.592308 0.392005
O O1 0.695419 0.727909 0.390706
O O2 0.479071 0.000774 0.328777
O O3 0.571950 0.944546 0.217195
O O4 0.000000 0.000000 0.500000
O O5 0.696456 0.237014 0.502719
O O6 0.786730 0.531400 0.558672
O O7 0.696162 0.343798 0.659299
O O8 0.152135 0.315404 0.772918
O O9 0.500000 0.000000 0.500000
#
# Coordination Sequence:
#
# PCOD8129336 Si02
#       4
#     4   4   4   4
#     4  12  28  47  78 114 159 200 258 322 396 461
#     4  11  28  49  78 112 153 207 260 322 386 468
#     4  12  27  48  80 110 156 206 262 318 390 462
#     4  11  27  49  77 110 155 202 261 323 387 462
#
# _framework density 24.964991000000001
#
# number of rings (size 3 to 8) (size 9 to 14) (size 15 to 20)
#    0.000    0.500    2.500    3.000   17.500    1.000 
#    0.000    0.000    0.000    0.000    0.000    0.000 
#    0.000    0.000    0.000    0.000    0.000    0.000 
#
# Total GULP energy -198343.809071 kJ/mol
# GULP energy per Si atom -12396.488067 kJ/mol
# Density = 2.490817 g / cm^3
# Si number density = 24.964991 Si / 1000 Ang^3
#
#
#
# Elastic Constant Matrix: (Units=GPa)
#
#
# Indices 1 2 3 4 5 6 
#
# 1 66.5101 22.8212 30.2093 0.0000 -10.0573 0.0000
# 2 22.8212 108.4594 41.1827 0.0000 2.4494 0.0000
# 3 30.2093 41.1827 156.6848 0.0000 18.0677 0.0000
# 4 0.0000 0.0000 0.0000 43.5874 0.0000 -10.2197
# 5 -10.0573 2.4494 18.0677 0.0000 48.1288 0.0000
# 6 0.0000 0.0000 0.0000 -10.2197 0.0000 53.0991
#
#
#
# Elastic Compliance Matrix: (Units=1/GPa)
#
#
# Indices 1 2 3 4 5 6 
#
# 1 0.018303 -0.002666 -0.003434 0.000000 0.005249 0.000000
# 2 -0.002666 0.010643 -0.002254 0.000000 -0.000253 0.000000
# 3 -0.003434 -0.002254 0.008055 0.000000 -0.003627 0.000000
# 4 0.000000 0.000000 0.000000 0.024027 0.000000 0.004624
# 5 0.005249 -0.000253 -0.003627 0.000000 0.023249 0.000000
# 6 0.000000 0.000000 0.000000 0.004624 0.000000 0.019723
#
#
# Mechanical properties :
#
#
# Convention : Reuss Voigt Hill
#
# Bulk Modulus (GPa) = 49.27697 57.78673 53.53185
# Shear Modulus (GPa) = 39.22458 44.79247 42.00852
#
# Velocity S-wave (km/s) = 3.96812 4.24041 4.10652
# Velocity P-wave (km/s) = 6.38560 6.86820 6.63129
#
# Compressibility (1/GPa) = 0.02029346
#
# Stress axis : x y z
#
# Youngs Moduli (GPa) = 54.63457 93.96172 124.14803
#
# Poissons Ratio (x) = 0.25051 0.42627
# Poissons Ratio (y) = 0.14566 0.27985
# Poissons Ratio (z) = 0.18759 0.21180
#
# Static dielectric constant tensor:
#      x y z
#    x 4.257660 0.000000 -0.166560 
#    y 0.000000 4.320830 0.000000 
#    z -0.166560 0.000000 4.372130 
# 
# 
# High freq. dielectric constant tensor:
#      x y z
#    x 2.007500 0.000000 -0.013650 
#    y 0.000000 1.997640 0.000000 
#    z -0.013650 0.000000 1.995080 
# 
# From -- ./inp_files/7320.got.cif
#   From: 2010.03.12/outbox.cif.g09.slc.cpg/sg14_4_cif.got.tgz:7320.got - 2010.03.31 13:35:05.
