data_PCOD8129777
_publ_section_title
;
Structure prediction by ZEFSAII (Michael W. Deem and Ramdas Pophale) SiO2 
 PCOD8129777
Probable space group: C 2/C
;
_chemical_formula_sum "Si O2"
_cell_formula_units_Z 64
_cell_length_a 16.137928
_cell_length_b 22.732257
_cell_length_c 11.184703
_cell_angle_alpha 90.000000
_cell_angle_beta 87.475581
_cell_angle_gamma 90.000000
_cell_volume 4099.143455
_symmetry_space_group_name_H-M "C 2/C"
_symmetry_group_IT_number 15
_symmetry_cell_setting 'monoclinic'
loop_
_space_group_symop_operation_xyz
x,y,z
-x,y,1/2-z
-x,-y,-z
x,-y,1/2+z
1/2+x,1/2+y,z
1/2-x,1/2+y,1/2-z
1/2-x,1/2-y,-z
1/2+x,1/2-y,1/2+z
loop_
_atom_site_type_symbol
_atom_site_label
_atom_site_fract_x
_atom_site_fract_y
_atom_site_fract_z
Si Si1 0.794711 0.239469 0.120679
Si Si2 0.724021 0.814398 0.150743
Si Si3 0.128450 0.574324 0.690976
Si Si4 0.946955 0.730132 0.478743
Si Si5 0.463337 0.100462 0.568834
Si Si6 0.154109 0.325067 0.725261
Si Si7 0.629101 0.247476 0.454122
Si Si8 0.584644 0.050252 0.173671
O O1 0.780580 0.294156 0.211150
O O2 0.751682 0.181741 0.182435
O O3 0.750000 0.250000 0.000000
O O4 0.891483 0.233258 0.078322
O O5 0.704553 0.884261 0.143707
O O6 0.815583 0.803497 0.089954
O O7 0.656733 0.775352 0.082647
O O8 0.105026 0.595507 0.824318
O O9 0.148497 0.504449 0.687896
O O10 0.052837 0.580160 0.604540
O O11 0.970759 0.667602 0.531138
O O12 0.901476 0.718074 0.355025
O O13 0.032410 0.766519 0.458434
O O14 0.434888 0.058526 0.463775
O O15 0.142228 0.306281 0.862068
O O16 0.128938 0.392473 0.722600
O O17 0.500000 0.036431 0.250000
#
# Coordination Sequence:
#
# PCOD8129777 Si02
#       8
#     8   8   8   8   8   8   8   8
#     4   9  18  31  47  64  88 120 155 195 236 280
#     4  10  20  31  44  67  92 125 152 194 238 275
#     4  11  20  30  45  64  96 128 155 194 222 275
#     4  10  16  29  50  65  89 123 155 192 233 280
#     4  10  19  30  43  68  92 122 163 186 225 271
#     4   9  19  31  43  66  94 124 153 191 231 274
#     4  10  19  30  46  66  94 119 154 192 239 280
#     4  11  21  29  45  67  94 129 161 186 225 279
#
# _framework density 15.613019
#
# number of rings (size 3 to 8) (size 9 to 14) (size 15 to 20)
#    0.000    2.000    3.750    2.250    0.000    0.500 
#    0.000    0.000    0.000    0.000    0.000    0.875 
#    0.000    0.000   27.000    0.000    0.000    8.125 
#
# Total GULP energy -396600.396855 kJ/mol
# GULP energy per Si atom -12393.762402 kJ/mol
# Density = 1.557748 g / cm^3
# Si number density = 15.613019 Si / 1000 Ang^3
#
#
#
# Elastic Constant Matrix: (Units=GPa)
#
#
# Indices 1 2 3 4 5 6 
#
# 1 91.2055 43.9883 17.9906 0.0000 -18.9501 0.0000
# 2 43.9883 82.9194 19.9641 0.0000 -7.7046 0.0000
# 3 17.9906 19.9641 61.0902 0.0000 -1.2000 0.0000
# 4 0.0000 0.0000 0.0000 9.4168 0.0000 -1.6473
# 5 -18.9501 -7.7046 -1.2000 0.0000 19.5719 0.0000
# 6 0.0000 0.0000 0.0000 -1.6473 0.0000 27.5845
#
#
#
# Elastic Compliance Matrix: (Units=1/GPa)
#
#
# Indices 1 2 3 4 5 6 
#
# 1 0.018168 -0.007684 -0.002556 0.000000 0.014410 0.000000
# 2 -0.007684 0.016826 -0.003256 0.000000 -0.001016 0.000000
# 3 -0.002556 -0.003256 0.018134 0.000000 -0.002645 0.000000
# 4 0.000000 0.000000 0.000000 0.107314 0.000000 0.006409
# 5 0.014410 -0.001016 -0.002645 0.000000 0.064483 0.000000
# 6 0.000000 0.000000 0.000000 0.006409 0.000000 0.036635
#
#
# Mechanical properties :
#
#
# Convention : Reuss Voigt Hill
#
# Bulk Modulus (GPa) = 38.26098 44.34458 41.30278
# Shear Modulus (GPa) = 16.82006 21.53278 19.17642
#
# Velocity S-wave (km/s) = 3.28580 3.71773 3.50842
# Velocity P-wave (km/s) = 6.24134 6.84782 6.55160
#
# Compressibility (1/GPa) = 0.02613629
#
# Stress axis : x y z
#
# Youngs Moduli (GPa) = 55.04075 59.43313 55.14489
#
# Poissons Ratio (x) = 0.45668 0.14097
# Poissons Ratio (y) = 0.42293 0.17954
# Poissons Ratio (z) = 0.14070 0.19350
#
# Static dielectric constant tensor:
#      x y z
#    x 3.222880 0.000000 -0.138810 
#    y 0.000000 2.940450 0.000000 
#    z -0.138810 0.000000 3.271960 
# 
# 
# High freq. dielectric constant tensor:
#      x y z
#    x 1.576390 0.000000 -0.002000 
#    y 0.000000 1.566050 0.000000 
#    z -0.002000 0.000000 1.623270 
# 
# From -- ./inp_files/107132.got.cif
#   From: 2010.06.25/outbox.cif.g09.slc.cpg/sg15_54_cif.got.tgz:107132.got - 2010.06.28 07:06:18.
