data_PCOD8129589
_publ_section_title
;
Structure prediction by ZEFSAII (Michael W. Deem and Ramdas Pophale) SiO2 
 PCOD8129589
Probable space group: C 2/C
;
_chemical_formula_sum "Si O2"
_cell_formula_units_Z 32
_cell_length_a 9.000000
_cell_length_b 18.000000
_cell_length_c 30.000000
_cell_angle_alpha 90.000000
_cell_angle_beta 40.000000
_cell_angle_gamma 90.000000
_cell_volume 3123.947783
_symmetry_space_group_name_H-M "C 2/C"
_symmetry_group_IT_number 15
_symmetry_cell_setting 'monoclinic'
loop_
_space_group_symop_operation_xyz
x,y,z
-x,y,1/2-z
-x,-y,-z
x,-y,1/2+z
1/2+x,1/2+y,z
1/2-x,1/2+y,1/2-z
1/2-x,1/2-y,-z
1/2+x,1/2-y,1/2+z
loop_
_atom_site_type_symbol
_atom_site_label
_atom_site_fract_x
_atom_site_fract_y
_atom_site_fract_z
Si Si1 0.315220 0.394772 0.572236
Si Si2 0.818677 0.178804 0.456215
Si Si3 0.649863 0.198976 0.321000
Si Si4 0.056486 0.016420 0.685262
Si Si5 0.475261 0.349753 0.825508
Si Si6 0.718174 0.627601 0.811691
Si Si7 0.946870 0.536826 0.966136
Si Si8 0.974200 0.047267 0.557818
O O1 0.437295 0.353872 0.584768
O O2 0.281898 0.482858 0.592428
O O3 0.493161 0.391888 0.489020
O O4 0.082525 0.348411 0.618194
O O5 0.750000 0.250000 0.500000
O O6 0.865867 0.193183 0.392988
O O7 0.608513 0.122584 0.512355
O O8 0.810390 0.169515 0.322908
O O9 0.622538 0.288290 0.329894
O O10 0.767486 0.179922 0.246070
O O11 0.328657 0.035531 0.617520
O O12 0.000000 0.006180 0.750000
O O13 0.882513 0.079707 0.706351
O O14 0.011784 0.938741 0.669548
O O15 0.599120 0.591450 0.881993
O O16 0.000000 0.625731 0.750000
O O17 0.725871 0.492498 0.998631
O O18 0.000000 0.500000 0.000000
#
# Coordination Sequence:
#
# PCOD8129589 Si02
#       8
#     8   8   8   8   8   8   8   8
#     4  10  24  43  67 102 129 180 229 277 351 409
#     4  11  26  41  67 101 138 175 220 291 347 397
#     4  11  25  45  69  96 140 183 226 287 345 419
#     4  12  25  43  77 102 130 189 238 280 346 414
#     4  11  23  47  68  99 134 184 232 270 346 421
#     4  12  27  44  65 104 142 177 228 294 349 405
#     4  11  21  44  68 100 134 173 239 285 329 425
#     4  10  23  43  71  99 136 178 235 291 334 414
#
# _framework density 10.243449
#
# number of rings (size 3 to 8) (size 9 to 14) (size 15 to 20)
#    0.000    1.000    5.000    1.500    5.250    4.000 
#    0.000    0.000    0.000    0.000    0.000    0.000 
#    0.000    0.000    0.000    0.000    0.000    0.000 
#
# Total GULP energy -396596.886726 kJ/mol
# GULP energy per Si atom -12393.652710 kJ/mol
# Density = 1.022013 g / cm^3
# Si number density = 10.243449 Si / 1000 Ang^3
#
#
#
# Elastic Constant Matrix: (Units=GPa)
#
#
# Indices 1 2 3 4 5 6 
#
# 1 64.0724 36.4018 35.7365 0.0140 -2.0233 -0.0259
# 2 36.4018 163.5614 62.9153 0.0103 -4.6580 -0.0189
# 3 35.7365 62.9153 165.3871 0.0307 5.9519 -0.0561
# 4 0.0140 0.0103 0.0307 34.8303 -0.0257 1.7944
# 5 -2.0233 -4.6580 5.9519 -0.0257 37.6991 0.0266
# 6 -0.0259 -0.0189 -0.0561 1.7944 0.0266 29.2984
#
#
#
# Elastic Compliance Matrix: (Units=1/GPa)
#
#
# Indices 1 2 3 4 5 6 
#
# 1 0.019049 -0.003056 -0.002994 -0.000004 0.001117 0.000008
# 2 -0.003056 0.007718 -0.002317 0.000002 0.001156 -0.000003
# 3 -0.002994 -0.002317 0.007634 -0.000007 -0.001652 0.000012
# 4 -0.000004 0.000002 -0.000007 0.028802 0.000022 -0.001764
# 5 0.001117 0.001156 -0.001652 0.000022 0.026989 -0.000027
# 6 0.000008 -0.000003 0.000012 -0.001764 -0.000027 0.034240
#
#
# Mechanical properties :
#
#
# Convention : Reuss Voigt Hill
#
# Bulk Modulus (GPa) = 56.60240 73.68093 65.14166
# Shear Modulus (GPa) = 34.00085 37.56338 35.78212
#
# Velocity S-wave (km/s) = 4.07829 4.28662 4.18375
# Velocity P-wave (km/s) = 7.06152 7.78095 7.42995
#
# Compressibility (1/GPa) = 0.01766710
#
# Stress axis : x y z
#
# Youngs Moduli (GPa) = 52.49736 129.56093 130.98750
#
# Poissons Ratio (x) = 0.39595 0.39213
# Poissons Ratio (y) = 0.16043 0.30355
# Poissons Ratio (z) = 0.15716 0.30025
#
# Static dielectric constant tensor:
#      x y z
#    x 0.335150 0.000140 2.922900 
#    y 0.000140 3.964880 -0.000110 
#    z 2.922900 -0.000110 1.374470 
# 
# 
# High freq. dielectric constant tensor:
#      x y z
#    x 1.802620 0.000000 0.003390 
#    y 0.000000 1.813700 0.000000 
#    z 0.003390 0.000000 1.820650 
# 
# From -- ./inp_files/308751.got.cif
#   From: 2010.06.25/outbox.ucp.g09.slc.cvg/sg15_155_cif.got.tgz:308751.got - 2010.06.28 14:40:10.
