data_PCOD8129263
_publ_section_title
;
Structure prediction by ZEFSAII (Michael W. Deem and Ramdas Pophale) SiO2 
 PCOD8129263
Probable space group: P 21/C
;
_chemical_formula_sum "Si O2"
_cell_formula_units_Z 28
_cell_length_a 8.679062
_cell_length_b 24.267144
_cell_length_c 9.289432
_cell_angle_alpha 90.000000
_cell_angle_beta 43.128012
_cell_angle_gamma 90.000000
_cell_volume 1337.525763
_symmetry_space_group_name_H-M "P 21/C"
_symmetry_group_IT_number 14
_symmetry_cell_setting 'monoclinic'
loop_
_space_group_symop_operation_xyz
x,y,z
-x,1/2+y,1/2-z
-x,-y,-z
x,1/2-y,1/2+z
loop_
_atom_site_type_symbol
_atom_site_label
_atom_site_fract_x
_atom_site_fract_y
_atom_site_fract_z
Si Si1 0.293268 0.391300 0.380551
Si Si2 0.898282 0.091816 0.942987
Si Si3 0.904818 0.949702 0.478213
Si Si4 0.598316 0.308956 0.531598
Si Si5 0.670472 0.200379 0.654443
Si Si6 0.561037 0.489819 0.794658
Si Si7 0.116805 0.145970 0.296008
O O1 0.487488 0.345601 0.235084
O O2 0.403503 0.451616 0.305946
O O3 0.156522 0.386402 0.621419
O O4 0.120136 0.383001 0.366704
O O5 0.973540 0.054559 0.757710
O O6 0.733679 0.140478 0.007920
O O7 0.778896 0.049489 0.134647
O O8 0.960472 0.894776 0.526234
O O9 0.637664 0.957218 0.648497
O O10 0.000000 0.000000 0.500000
O O11 0.598958 0.258787 0.641220
O O12 0.699863 0.294207 0.306437
O O13 0.336920 0.321893 0.693590
O O14 0.909769 0.187652 0.417345
O O15 0.500000 0.500000 0.000000
#
# Coordination Sequence:
#
# PCOD8129263 Si02
#       7
#     4   4   4   4   4   4   4
#     4  11  27  44  71 106 139 181 236 278 350 415
#     4  12  26  46  68 107 141 184 232 288 346 421
#     4  12  25  42  73  98 143 186 224 287 345 411
#     4  11  27  46  70 102 136 183 236 285 349 413
#     4  11  27  47  72 100 137 183 235 287 347 411
#     4  12  26  43  69 106 141 185 228 283 346 417
#     4  11  25  47  68 102 139 180 231 286 345 412
#
# _framework density 20.934176000000001
#
# number of rings (size 3 to 8) (size 9 to 14) (size 15 to 20)
#    0.000    0.571    4.286    2.143   10.000    3.429 
#    0.000    0.000    0.000    0.000    0.000    0.000 
#    0.000    0.000    0.000    0.000    0.000    0.000 
#
# Total GULP energy -347376.232462 kJ/mol
# GULP energy per Si atom -12406.294017 kJ/mol
# Density = 2.088653 g / cm^3
# Si number density = 20.934176 Si / 1000 Ang^3
#
#
#
# Elastic Constant Matrix: (Units=GPa)
#
#
# Indices 1 2 3 4 5 6 
#
# 1 108.0804 42.7827 42.5083 0.0000 0.0851 0.0000
# 2 42.7827 117.8849 55.2370 0.0000 7.2924 0.0000
# 3 42.5083 55.2370 118.6595 0.0000 7.3833 0.0000
# 4 0.0000 0.0000 0.0000 29.8253 0.0000 7.0292
# 5 0.0851 7.2924 7.3833 0.0000 39.0822 0.0000
# 6 0.0000 0.0000 0.0000 7.0292 0.0000 40.4405
#
#
#
# Elastic Compliance Matrix: (Units=1/GPa)
#
#
# Indices 1 2 3 4 5 6 
#
# 1 0.011522 -0.002919 -0.002835 0.000000 0.001055 0.000000
# 2 -0.002919 0.011634 -0.004286 0.000000 -0.001355 0.000000
# 3 -0.002835 -0.004286 0.011523 0.000000 -0.001371 0.000000
# 4 0.000000 0.000000 0.000000 0.034961 0.000000 -0.006077
# 5 0.001055 -0.001355 -0.001371 0.000000 0.026097 0.000000
# 6 0.000000 0.000000 0.000000 -0.006077 0.000000 0.025784
#
#
# Mechanical properties :
#
#
# Convention : Reuss Voigt Hill
#
# Bulk Modulus (GPa) = 68.48799 69.52012 69.00405
# Shear Modulus (GPa) = 34.13774 35.47604 34.80689
#
# Velocity S-wave (km/s) = 4.04260 4.12108 4.08202
# Velocity P-wave (km/s) = 7.38763 7.47833 7.43311
#
# Compressibility (1/GPa) = 0.01460110
#
# Stress axis : x y z
#
# Youngs Moduli (GPa) = 86.79315 85.95420 86.78007
#
# Poissons Ratio (x) = 0.25086 0.24598
# Poissons Ratio (y) = 0.25331 0.37194
# Poissons Ratio (z) = 0.24602 0.36840
#
# Static dielectric constant tensor:
#      x y z
#    x 4.000630 0.000000 -0.250370 
#    y 0.000000 3.732690 0.000000 
#    z -0.250370 0.000000 4.542140 
# 
# 
# High freq. dielectric constant tensor:
#      x y z
#    x 1.834080 0.000000 -0.004060 
#    y 0.000000 1.825280 0.000000 
#    z -0.004060 0.000000 1.834570 
# 
# From -- ./inp_files/11153.got.cif
#   From: 2010.03.12/outbox.cif.g09.slc.cpg/sg14_6_cif.got.tgz:11153.got - 2010.03.31 13:35:05.
