data_PCOD8129085
_publ_section_title
;
Structure prediction by ZEFSAII (Michael W. Deem and Ramdas Pophale) SiO2 
 PCOD8129085
Probable space group: P 21/C
;
_chemical_formula_sum "Si O2"
_cell_formula_units_Z 32
_cell_length_a 8.913660
_cell_length_b 11.131260
_cell_length_c 14.734455
_cell_angle_alpha 90.000000
_cell_angle_beta 80.153253
_cell_angle_gamma 90.000000
_cell_volume 1440.420036
_symmetry_space_group_name_H-M "P 21/C"
_symmetry_group_IT_number 14
_symmetry_cell_setting 'monoclinic'
loop_
_space_group_symop_operation_xyz
x,y,z
-x,1/2+y,1/2-z
-x,-y,-z
x,1/2-y,1/2+z
loop_
_atom_site_type_symbol
_atom_site_label
_atom_site_fract_x
_atom_site_fract_y
_atom_site_fract_z
Si Si1 0.884716 0.542483 0.875778
Si Si2 0.555410 0.257853 0.163395
Si Si3 0.883462 0.831850 0.862817
Si Si4 0.208878 0.571902 0.301296
Si Si5 0.406637 0.379844 0.518993
Si Si6 0.331953 0.169355 0.842238
Si Si7 0.644957 0.020519 0.548705
Si Si8 0.815792 0.602283 0.173100
O O1 0.887901 0.685719 0.857914
O O2 0.807095 0.476056 0.799147
O O3 0.049185 0.482639 0.876563
O O4 0.792376 0.511737 0.975307
O O5 0.670655 0.179974 0.211094
O O6 0.452600 0.182635 0.106542
O O7 0.439723 0.323702 0.243040
O O8 0.648172 0.345138 0.086847
O O9 0.778566 0.885932 0.953873
O O10 0.812920 0.897738 0.781571
O O11 0.053788 0.877779 0.859567
O O12 0.269288 0.465702 0.358805
O O13 0.500000 0.500000 0.500000
O O14 0.431954 0.305046 0.423069
O O15 0.182968 0.256079 0.853486
O O16 0.500000 0.000000 0.500000
O O17 0.657477 0.941926 0.641123
#
# Coordination Sequence:
#
# PCOD8129085 Si02
#       8
#     4   4   4   4   4   4   4   4
#     4  11  24  48  73 104 142 188 249 294 356 436
#     4  12  27  46  71 107 147 184 245 297 357 436
#     4  11  24  48  71 104 149 185 244 298 354 437
#     4  11  25  46  72 105 142 193 234 298 363 422
#     4  12  26  47  71 104 145 192 240 293 366 428
#     4  12  25  46  74 103 149 189 234 299 363 428
#     4  12  26  43  72 106 141 190 244 296 354 427
#     4  11  24  43  74 100 142 192 229 300 364 410
#
# _framework density 22.215744000000001
#
# number of rings (size 3 to 8) (size 9 to 14) (size 15 to 20)
#    0.000    0.500    3.750    4.125    7.000    1.500 
#    2.250    0.000    0.000    0.000    0.000    0.000 
#    0.000    0.000    0.000    0.000    0.000    0.000 
#
# Total GULP energy -396478.967072 kJ/mol
# GULP energy per Si atom -12389.967721 kJ/mol
# Density = 2.216518 g / cm^3
# Si number density = 22.215744 Si / 1000 Ang^3
#
#
#
# Elastic Constant Matrix: (Units=GPa)
#
#
# Indices 1 2 3 4 5 6 
#
# 1 115.9594 67.4773 56.0681 0.0000 6.0837 0.0000
# 2 67.4773 123.0553 44.1605 0.0000 -21.4551 0.0000
# 3 56.0681 44.1605 110.5918 0.0000 -2.7373 0.0000
# 4 0.0000 0.0000 0.0000 36.6957 0.0000 2.0315
# 5 6.0837 -21.4551 -2.7373 0.0000 34.3899 0.0000
# 6 0.0000 0.0000 0.0000 2.0315 0.0000 50.4331
#
#
#
# Elastic Compliance Matrix: (Units=1/GPa)
#
#
# Indices 1 2 3 4 5 6 
#
# 1 0.016769 -0.008896 -0.005170 0.000000 -0.008928 0.000000
# 2 -0.008896 0.015433 -0.001378 0.000000 0.011093 0.000000
# 3 -0.005170 -0.001378 0.012239 0.000000 0.001029 0.000000
# 4 0.000000 0.000000 0.000000 0.027312 0.000000 -0.001100
# 5 -0.008928 0.011093 0.001029 0.000000 0.037660 0.000000
# 6 0.000000 0.000000 0.000000 -0.001100 0.000000 0.019873
#
#
# Mechanical properties :
#
#
# Convention : Reuss Voigt Hill
#
# Bulk Modulus (GPa) = 73.78679 76.11316 74.94997
# Shear Modulus (GPa) = 30.35972 36.43043 33.39507
#
# Velocity S-wave (km/s) = 3.70075 4.05390 3.88134
# Velocity P-wave (km/s) = 7.17959 7.49983 7.34146
#
# Compressibility (1/GPa) = 0.01355256
#
# Stress axis : x y z
#
# Youngs Moduli (GPa) = 59.63450 64.79503 81.70603
#
# Poissons Ratio (x) = 0.57645 0.42242
# Poissons Ratio (y) = 0.53054 0.11257
# Poissons Ratio (z) = 0.30831 0.08927
#
# Static dielectric constant tensor:
#      x y z
#    x 4.398800 0.000000 -0.622720 
#    y 0.000000 3.841470 0.000000 
#    z -0.622720 0.000000 7.944220 
# 
# 
# High freq. dielectric constant tensor:
#      x y z
#    x 1.879770 0.000000 0.018740 
#    y 0.000000 1.878560 0.000000 
#    z 0.018740 0.000000 1.887370 
# 
# From -- ./inp_files/40288.got.cif
#   From: 2010.03.12/outbox.cif.g09.slc.cpg/sg14_21_cif.got.tgz:40288.got - 2010.03.31 13:35:05.
