data_PCOD8129890
_publ_section_title
;
Structure prediction by ZEFSAII (Michael W. Deem and Ramdas Pophale) SiO2 
 PCOD8129890
Probable space group: C 2/C
;
_chemical_formula_sum "Si O2"
_cell_formula_units_Z 60
_cell_length_a 23.756119
_cell_length_b 12.660286
_cell_length_c 10.269065
_cell_angle_alpha 90.000000
_cell_angle_beta 111.909789
_cell_angle_gamma 90.000000
_cell_volume 2865.440627
_symmetry_space_group_name_H-M "C 2/C"
_symmetry_group_IT_number 15
_symmetry_cell_setting 'monoclinic'
loop_
_space_group_symop_operation_xyz
x,y,z
-x,y,1/2-z
-x,-y,-z
x,-y,1/2+z
1/2+x,1/2+y,z
1/2-x,1/2+y,1/2-z
1/2-x,1/2-y,-z
1/2+x,1/2-y,1/2+z
loop_
_atom_site_type_symbol
_atom_site_label
_atom_site_fract_x
_atom_site_fract_y
_atom_site_fract_z
Si Si1 0.921146 0.785576 0.313254
Si Si2 0.000000 0.621559 0.250000
Si Si3 0.388913 0.044293 0.003846
Si Si4 0.446160 0.188758 0.862383
Si Si5 0.107123 0.884796 0.577891
Si Si6 0.065380 0.999496 0.787238
Si Si7 0.916235 0.318364 0.058413
Si Si8 0.818688 0.259908 0.518232
O O1 0.971321 0.694211 0.338361
O O2 0.952707 0.896331 0.310302
O O3 0.898837 0.776421 0.444393
O O4 0.862544 0.776247 0.171713
O O5 0.946023 0.550738 0.150191
O O6 0.332119 0.116709 0.998928
O O7 0.373154 0.919800 0.987862
O O8 0.409984 0.086402 0.882040
O O9 0.443267 0.289745 0.959121
O O10 0.513663 0.150060 0.897709
O O11 0.409586 0.223330 0.699657
O O12 0.093725 0.972064 0.453326
O O13 0.168720 0.820415 0.592718
O O14 0.110183 0.936453 0.726021
O O15 0.000000 0.939321 0.750000
O O16 0.750000 0.250000 0.500000
#
# Coordination Sequence:
#
# PCOD8129890 Si02
#       8
#     8   4   8   8   8   8   8   8
#     4  10  20  33  56  82 114 154 205 242 302 360
#     4  10  16  32  52  78 118 154 194 238 296 376
#     4  10  20  33  56  83 117 157 197 241 309 366
#     4  10  21  33  50  86 133 156 191 242 306 367
#     4  10  23  38  59  87 116 168 201 255 306 364
#     4  11  21  35  58  86 120 158 206 244 305 375
#     4  11  21  30  54  87 124 162 189 240 303 378
#     4   9  21  43  63  80 113 158 206 260 307 357
#
# _framework density 20.939187
#
# number of rings (size 3 to 8) (size 9 to 14) (size 15 to 20)
#    0.000    1.867    2.000    3.200    7.467    0.000 
#    0.000    2.667    0.000    3.200    0.000    0.000 
#    0.000    0.000    0.000    0.000    0.000    0.000 
#
# Total GULP energy -371643.589044 kJ/mol
# GULP energy per Si atom -12388.119635 kJ/mol
# Density = 2.089153 g / cm^3
# Si number density = 20.939187 Si / 1000 Ang^3
#
#
#
# Elastic Constant Matrix: (Units=GPa)
#
#
# Indices 1 2 3 4 5 6 
#
# 1 101.3030 26.1999 19.4178 0.0000 -10.7012 0.0000
# 2 26.1999 60.5133 17.8625 0.0000 -10.5603 0.0000
# 3 19.4178 17.8625 83.2315 0.0000 -33.2674 0.0000
# 4 0.0000 0.0000 0.0000 31.6054 0.0000 -11.4133
# 5 -10.7012 -10.5603 -33.2674 0.0000 25.6799 0.0000
# 6 0.0000 0.0000 0.0000 -11.4133 0.0000 23.2811
#
#
#
# Elastic Compliance Matrix: (Units=1/GPa)
#
#
# Indices 1 2 3 4 5 6 
#
# 1 0.011364 -0.004327 -0.001122 0.000000 0.001503 0.000000
# 2 -0.004327 0.019590 -0.001442 0.000000 0.004384 0.000000
# 3 -0.001122 -0.001442 0.025222 0.000000 0.031613 0.000000
# 4 0.000000 0.000000 0.000000 0.038447 0.000000 0.018848
# 5 0.001503 0.004384 0.031613 0.000000 0.082324 0.000000
# 6 0.000000 0.000000 0.000000 0.018848 0.000000 0.052193
#
#
# Mechanical properties :
#
#
# Convention : Reuss Voigt Hill
#
# Bulk Modulus (GPa) = 23.58876 41.33426 32.46151
# Shear Modulus (GPa) = 19.45128 28.21778 23.83453
#
# Velocity S-wave (km/s) = 3.05116 3.67496 3.37749
# Velocity P-wave (km/s) = 4.86853 6.14736 5.54494
#
# Compressibility (1/GPa) = 0.04239308
#
# Stress axis : x y z
#
# Youngs Moduli (GPa) = 87.99535 51.04773 39.64842
#
# Poissons Ratio (x) = 0.22087 0.04449
# Poissons Ratio (y) = 0.38074 0.05719
# Poissons Ratio (z) = 0.09873 0.07363
#
# Static dielectric constant tensor:
#      x y z
#    x 3.419440 0.000000 -0.544720 
#    y 0.000000 3.834360 0.000000 
#    z -0.544720 0.000000 3.923270 
# 
# 
# High freq. dielectric constant tensor:
#      x y z
#    x 1.763320 0.000000 -0.047800 
#    y 0.000000 1.824250 0.000000 
#    z -0.047800 0.000000 1.815830 
# 
# From -- ./inp_files/117637.got.cif
#   From: 2010.06.25/outbox.cif.g09.slc.cpg/sg15_59_cif.got.tgz:117637.got - 2010.06.28 07:06:18.
