data_PCOD8129205
_publ_section_title
;
Structure prediction by ZEFSAII (Michael W. Deem and Ramdas Pophale) SiO2 
 PCOD8129205
Probable space group: P 21/C
;
_chemical_formula_sum "Si O2"
_cell_formula_units_Z 16
_cell_length_a 16.916817
_cell_length_b 7.403288
_cell_length_c 13.692596
_cell_angle_alpha 90.000000
_cell_angle_beta 157.350562
_cell_angle_gamma 90.000000
_cell_volume 660.379123
_symmetry_space_group_name_H-M "P 21/C"
_symmetry_group_IT_number 14
_symmetry_cell_setting 'monoclinic'
loop_
_space_group_symop_operation_xyz
x,y,z
-x,1/2+y,1/2-z
-x,-y,-z
x,1/2-y,1/2+z
loop_
_atom_site_type_symbol
_atom_site_label
_atom_site_fract_x
_atom_site_fract_y
_atom_site_fract_z
Si Si1 0.885893 0.485050 0.768501
Si Si2 0.385894 0.485049 0.768502
Si Si3 0.458229 0.389442 0.241247
Si Si4 0.958232 0.389439 0.241249
O O1 0.640553 0.501631 0.504410
O O2 0.933969 0.295857 0.770516
O O3 0.964514 0.640756 0.783435
O O4 0.000000 0.500000 0.000000
O O5 0.464519 0.640753 0.783440
O O6 0.433967 0.295854 0.770516
O O7 0.140552 0.501631 0.504410
O O8 0.500000 0.500000 0.000000
O O9 0.250000 0.500003 0.000001
#
# Coordination Sequence:
#
# PCOD8129205 Si02
#       4
#     4   4   4   4
#     4  11  26  47  76 107 145 195 238 301 363 425
#     4  11  26  47  76 107 145 195 238 301 363 425
#     4  11  24  50  71 108 146 188 247 296 354 441
#     4  11  24  50  71 108 146 188 247 296 354 441
#
# _framework density 24.228504999999998
#
# number of rings (size 3 to 8) (size 9 to 14) (size 15 to 20)
#    0.000    1.000    5.000    0.000    0.000   10.000 
#    0.000    0.000    0.000    0.000    0.000    0.000 
#    0.000    0.000    0.000    0.000    0.000    0.000 
#
# Total GULP energy -198241.298738 kJ/mol
# GULP energy per Si atom -12390.081171 kJ/mol
# Density = 2.417336 g / cm^3
# Si number density = 24.228505 Si / 1000 Ang^3
#
#
#
# Elastic Constant Matrix: (Units=GPa)
#
#
# Indices 1 2 3 4 5 6 
#
# 1 112.8006 61.8361 116.6776 0.0000 -8.1750 0.0000
# 2 61.8361 111.5611 56.7642 0.0000 -7.7093 0.0000
# 3 116.6776 56.7642 286.9161 0.0000 -14.3396 0.0000
# 4 0.0000 0.0000 0.0000 27.5391 0.0000 -1.3184
# 5 -8.1750 -7.7093 -14.3396 0.0000 73.1748 0.0000
# 6 0.0000 0.0000 0.0000 -1.3184 0.0000 49.5908
#
#
#
# Elastic Compliance Matrix: (Units=1/GPa)
#
#
# Indices 1 2 3 4 5 6 
#
# 1 0.019849 -0.007660 -0.006550 0.000000 0.000127 0.000000
# 2 -0.007660 0.012956 0.000583 0.000000 0.000623 0.000000
# 3 -0.006550 0.000583 0.006059 0.000000 0.000517 0.000000
# 4 0.000000 0.000000 0.000000 0.036358 0.000000 0.000967
# 5 0.000127 0.000623 0.000517 0.000000 0.013847 0.000000
# 6 0.000000 0.000000 0.000000 0.000967 0.000000 0.020191
#
#
# Mechanical properties :
#
#
# Convention : Reuss Voigt Hill
#
# Bulk Modulus (GPa) = 86.13274 109.09263 97.61268
# Shear Modulus (GPa) = 35.61657 48.46093 42.03875
#
# Velocity S-wave (km/s) = 3.83825 4.47717 4.16997
# Velocity P-wave (km/s) = 7.43440 8.47650 7.97249
#
# Compressibility (1/GPa) = 0.01160999
#
# Stress axis : x y z
#
# Youngs Moduli (GPa) = 50.38152 77.18399 165.03360
#
# Poissons Ratio (x) = 0.59125 1.08093
# Poissons Ratio (y) = 0.38594 -0.09622
# Poissons Ratio (z) = 0.32999 -0.04500
#
# Static dielectric constant tensor:
#      x y z
#    x 4.783610 0.000000 0.481440 
#    y 0.000000 5.120470 0.000000 
#    z 0.481440 0.000000 5.010540 
# 
# 
# High freq. dielectric constant tensor:
#      x y z
#    x 1.953110 0.000000 0.025770 
#    y 0.000000 1.959640 0.000000 
#    z 0.025770 0.000000 1.994120 
# 
# From -- ./inp_files/49957.got.cif
#   From: 2010.03.12/outbox.cif.g09.slc.cpg/sg14_25_cif.got.tgz:49957.got - 2010.03.31 13:35:05.
