data_PCOD8129025
_publ_section_title
;
Structure prediction by ZEFSAII (Michael W. Deem and Ramdas Pophale) SiO2 
 PCOD8129025
Probable space group: P 21/C
;
_chemical_formula_sum "Si O2"
_cell_formula_units_Z 28
_cell_length_a 6.526549
_cell_length_b 15.987213
_cell_length_c 14.838811
_cell_angle_alpha 90.000000
_cell_angle_beta 129.746802
_cell_angle_gamma 90.000000
_cell_volume 1190.454036
_symmetry_space_group_name_H-M "P 21/C"
_symmetry_group_IT_number 14
_symmetry_cell_setting 'monoclinic'
loop_
_space_group_symop_operation_xyz
x,y,z
-x,1/2+y,1/2-z
-x,-y,-z
x,1/2-y,1/2+z
loop_
_atom_site_type_symbol
_atom_site_label
_atom_site_fract_x
_atom_site_fract_y
_atom_site_fract_z
Si Si1 0.921378 0.024650 0.718361
Si Si2 0.773268 0.378257 0.345454
Si Si3 0.144108 0.578318 0.992071
Si Si4 0.692715 0.723418 0.527058
Si Si5 0.715972 0.721543 0.842163
Si Si6 0.506247 0.572108 0.573473
Si Si7 0.290990 0.352737 0.810161
O O1 0.753822 0.065282 0.752015
O O2 0.772737 0.047376 0.584001
O O3 0.216485 0.063026 0.794320
O O4 0.927030 0.925733 0.738666
O O5 0.511155 0.321780 0.280535
O O6 0.745049 0.434659 0.428657
O O7 0.030877 0.321572 0.418872
O O8 0.962041 0.660873 0.933617
O O9 0.414190 0.606165 0.119130
O O10 0.000000 0.500000 0.000000
O O11 0.580200 0.752211 0.398831
O O12 0.487934 0.659533 0.515087
O O13 0.732523 0.800281 0.604951
O O14 0.799221 0.800734 0.803686
O O15 0.500000 0.500000 0.500000
#
# Coordination Sequence:
#
# PCOD8129025 Si02
#       7
#     4   4   4   4   4   4   4
#     4  11  25  44  72 100 139 192 243 290 371 439
#     4  11  23  49  68  99 142 188 235 295 362 440
#     4  12  25  47  74 104 149 200 244 304 373 455
#     4  11  26  44  68 104 140 181 232 303 362 428
#     4  12  24  43  73 101 140 186 238 305 364 428
#     4  11  26  44  71 100 144 187 239 296 364 443
#     4  12  26  44  70 112 138 188 249 306 365 438
#
# _framework density 23.520439
#
# number of rings (size 3 to 8) (size 9 to 14) (size 15 to 20)
#    0.000    0.571    2.857    4.714    4.000    2.286 
#    0.000    0.000    0.000    0.000    0.000    0.000 
#    0.000    0.000    0.000    0.000    0.000    0.000 
#
# Total GULP energy -347257.925182 kJ/mol
# GULP energy per Si atom -12402.068756 kJ/mol
# Density = 2.346691 g / cm^3
# Si number density = 23.520439 Si / 1000 Ang^3
#
#
#
# Elastic Constant Matrix: (Units=GPa)
#
#
# Indices 1 2 3 4 5 6 
#
# 1 129.7902 45.8870 31.2263 0.0000 -30.5750 0.0000
# 2 45.8870 131.1817 29.1908 0.0000 -22.6677 0.0000
# 3 31.2263 29.1908 68.3524 0.0000 -25.2541 0.0000
# 4 0.0000 0.0000 0.0000 44.7244 0.0000 -13.9878
# 5 -30.5750 -22.6677 -25.2541 0.0000 50.3559 0.0000
# 6 0.0000 0.0000 0.0000 -13.9878 0.0000 45.6354
#
#
#
# Elastic Compliance Matrix: (Units=1/GPa)
#
#
# Indices 1 2 3 4 5 6 
#
# 1 0.009965 -0.002337 -0.002096 0.000000 0.003947 0.000000
# 2 -0.002337 0.009223 -0.002285 0.000000 0.001587 0.000000
# 3 -0.002096 -0.002285 0.019287 0.000000 0.007371 0.000000
# 4 0.000000 0.000000 0.000000 0.024730 0.000000 0.007580
# 5 0.003947 0.001587 0.007371 0.000000 0.026667 0.000000
# 6 0.000000 0.000000 0.000000 0.007580 0.000000 0.024236
#
#
# Mechanical properties :
#
#
# Convention : Reuss Voigt Hill
#
# Bulk Modulus (GPa) = 39.93744 60.21473 50.07609
# Shear Modulus (GPa) = 36.79430 43.01114 39.90272
#
# Velocity S-wave (km/s) = 3.95948 4.28094 4.12334
# Velocity P-wave (km/s) = 6.15793 7.07756 6.63370
#
# Compressibility (1/GPa) = 0.02503916
#
# Stress axis : x y z
#
# Youngs Moduli (GPa) = 100.34861 108.42195 51.84872
#
# Poissons Ratio (x) = 0.25342 0.10867
# Poissons Ratio (y) = 0.23455 0.11847
# Poissons Ratio (z) = 0.21032 0.24773
#
# Static dielectric constant tensor:
#      x y z
#    x 4.358990 0.000000 -0.213630 
#    y 0.000000 4.610990 0.000000 
#    z -0.213630 0.000000 4.827110 
# 
# 
# High freq. dielectric constant tensor:
#      x y z
#    x 1.936280 0.000000 -0.019380 
#    y 0.000000 1.946510 0.000000 
#    z -0.019380 0.000000 1.929940 
# 
# From -- ./inp_files/37910.got.cif
#   From: 2010.03.12/outbox.cif.g09.slc.cpg/sg14_19_cif.got.tgz:37910.got - 2010.03.31 13:35:05.
