data_PCOD8129433
_publ_section_title
;
Structure prediction by ZEFSAII (Michael W. Deem and Ramdas Pophale) SiO2 
 PCOD8129433
Probable space group: P 21/C
;
_chemical_formula_sum "Si O2"
_cell_formula_units_Z 16
_cell_length_a 4.628854
_cell_length_b 18.996524
_cell_length_c 7.890123
_cell_angle_alpha 90.000000
_cell_angle_beta 115.358675
_cell_angle_gamma 90.000000
_cell_volume 626.944322
_symmetry_space_group_name_H-M "P 21/C"
_symmetry_group_IT_number 14
_symmetry_cell_setting 'monoclinic'
loop_
_space_group_symop_operation_xyz
x,y,z
-x,1/2+y,1/2-z
-x,-y,-z
x,1/2-y,1/2+z
loop_
_atom_site_type_symbol
_atom_site_label
_atom_site_fract_x
_atom_site_fract_y
_atom_site_fract_z
Si Si1 0.341866 0.315187 0.626125
Si Si2 0.042519 0.318732 0.887959
Si Si3 0.104137 0.055913 0.884535
Si Si4 0.427819 0.444365 0.129481
O O1 0.664802 0.307362 0.819607
O O2 0.063434 0.327708 0.691677
O O3 0.260355 0.246384 0.498890
O O4 0.346518 0.383884 0.508228
O O5 0.160555 0.388367 0.011708
O O6 0.769678 0.092878 0.746665
O O7 0.285527 0.019701 0.767635
O O8 0.000000 0.000000 0.000000
O O9 0.500000 0.500000 0.000000
#
# Coordination Sequence:
#
# PCOD8129433 Si02
#       4
#     4   4   4   4
#     4  12  25  46  73 105 141 187 239 295 355 424
#     4  12  25  46  73 105 141 187 239 295 355 424
#     4  12  26  46  71 105 145 191 238 293 356 426
#     4  12  26  46  71 105 145 191 238 293 356 426
#
# _framework density 25.520607999999999
#
# number of rings (size 3 to 8) (size 9 to 14) (size 15 to 20)
#    0.000    0.000    0.000   10.500    0.000    4.000 
#    0.000    0.000    0.000    0.000    0.000    0.000 
#    0.000    0.000    0.000    0.000    0.000    0.000 
#
# Total GULP energy -198379.477998 kJ/mol
# GULP energy per Si atom -12398.717375 kJ/mol
# Density = 2.546252 g / cm^3
# Si number density = 25.520608 Si / 1000 Ang^3
#
#
#
# Elastic Constant Matrix: (Units=GPa)
#
#
# Indices 1 2 3 4 5 6 
#
# 1 135.7099 39.3210 51.6227 0.0000 -15.1265 0.0000
# 2 39.3210 148.9907 62.7412 0.0000 -1.8878 0.0000
# 3 51.6227 62.7412 118.9499 0.0000 2.5722 0.0000
# 4 0.0000 0.0000 0.0000 23.8518 0.0000 5.0917
# 5 -15.1265 -1.8878 2.5722 0.0000 84.8521 0.0000
# 6 0.0000 0.0000 0.0000 5.0917 0.0000 35.1242
#
#
#
# Elastic Compliance Matrix: (Units=1/GPa)
#
#
# Indices 1 2 3 4 5 6 
#
# 1 0.009169 -0.000908 -0.003537 0.000000 0.001722 0.000000
# 2 -0.000908 0.008728 -0.004213 0.000000 0.000160 0.000000
# 3 -0.003537 -0.004213 0.012188 0.000000 -0.001094 0.000000
# 4 0.000000 0.000000 0.000000 0.043264 0.000000 -0.006272
# 5 0.001722 0.000160 -0.001094 0.000000 0.012129 0.000000
# 6 0.000000 0.000000 0.000000 -0.006272 0.000000 0.029380
#
#
# Mechanical properties :
#
#
# Convention : Reuss Voigt Hill
#
# Bulk Modulus (GPa) = 78.32315 79.00224 78.66270
# Shear Modulus (GPa) = 36.64869 45.43000 41.03934
#
# Velocity S-wave (km/s) = 3.79363 4.22374 4.01445
# Velocity P-wave (km/s) = 7.06722 7.40338 7.23725
#
# Compressibility (1/GPa) = 0.01276762
#
# Stress axis : x y z
#
# Youngs Moduli (GPa) = 109.05850 114.57907 82.04963
#
# Poissons Ratio (x) = 0.10409 0.29024
# Poissons Ratio (y) = 0.09908 0.34565
# Poissons Ratio (z) = 0.38579 0.48268
#
# Static dielectric constant tensor:
#      x y z
#    x 7.615290 0.000000 0.921910 
#    y 0.000000 4.264540 0.000000 
#    z 0.921910 0.000000 5.317230 
# 
# 
# High freq. dielectric constant tensor:
#      x y z
#    x 2.045660 0.000000 0.001560 
#    y 0.000000 1.998160 0.000000 
#    z 0.001560 0.000000 2.042000 
# 
# From -- ./inp_files/5375.got.cif
#   From: 2010.03.12/outbox.cif.g09.slc.cpg/sg14_3_cif.got.tgz:5375.got - 2010.03.31 13:35:05.
