data_PCOD8129056
_publ_section_title
;
Structure prediction by ZEFSAII (Michael W. Deem and Ramdas Pophale) SiO2 
 PCOD8129056
Probable space group: P 21/C
;
_chemical_formula_sum "Si O2"
_cell_formula_units_Z 20
_cell_length_a 13.235049
_cell_length_b 7.701854
_cell_length_c 11.039856
_cell_angle_alpha 90.000000
_cell_angle_beta 47.816399
_cell_angle_gamma 90.000000
_cell_volume 833.874302
_symmetry_space_group_name_H-M "P 21/C"
_symmetry_group_IT_number 14
_symmetry_cell_setting 'monoclinic'
loop_
_space_group_symop_operation_xyz
x,y,z
-x,1/2+y,1/2-z
-x,-y,-z
x,1/2-y,1/2+z
loop_
_atom_site_type_symbol
_atom_site_label
_atom_site_fract_x
_atom_site_fract_y
_atom_site_fract_z
Si Si1 0.873405 0.503359 0.250091
Si Si2 0.818280 0.823728 0.154656
Si Si3 0.060584 0.607850 0.296972
Si Si4 0.483983 0.402113 0.139328
Si Si5 0.581159 0.047112 0.057303
O O1 0.865470 0.623737 0.137022
O O2 0.878755 0.297337 0.222019
O O3 0.730944 0.539835 0.436696
O O4 0.011999 0.576233 0.198967
O O5 0.664171 0.814439 0.235617
O O6 0.831948 0.953588 0.260235
O O7 0.916494 0.917519 0.980668
O O8 0.599533 0.254735 0.044924
O O9 0.500914 0.506295 0.251728
O O10 0.500000 0.500000 0.000000
O O11 0.500000 0.000000 0.000000
#
# Coordination Sequence:
#
# PCOD8129056 Si02
#       5
#     4   4   4   4   4
#     4  12  23  45  70 101 139 185 234 292 358 427
#     4  11  24  46  69  98 148 178 236 298 347 429
#     4  11  24  42  70 106 135 183 233 288 365 425
#     4  12  26  47  73 106 145 192 243 299 359 432
#     4  12  26  47  72 104 142 192 243 296 363 430
#
# _framework density 23.984431000000001
#
# number of rings (size 3 to 8) (size 9 to 14) (size 15 to 20)
#    0.000    0.400    6.000    3.000    0.000    0.000 
#    3.600    0.000    0.000    0.000    0.000    0.000 
#    0.000    0.000    0.000    0.000    0.000    0.000 
#
# Total GULP energy -247802.943432 kJ/mol
# GULP energy per Si atom -12390.147172 kJ/mol
# Density = 2.392984 g / cm^3
# Si number density = 23.984431 Si / 1000 Ang^3
#
#
#
# Elastic Constant Matrix: (Units=GPa)
#
#
# Indices 1 2 3 4 5 6 
#
# 1 102.6751 29.8577 16.4518 0.0000 14.2229 0.0000
# 2 29.8577 131.5896 -10.2015 0.0000 5.8578 0.0000
# 3 16.4518 -10.2015 58.8649 0.0000 18.6649 0.0000
# 4 0.0000 0.0000 0.0000 37.3370 0.0000 2.2118
# 5 14.2229 5.8578 18.6649 0.0000 43.4283 0.0000
# 6 0.0000 0.0000 0.0000 2.2118 0.0000 41.5026
#
#
#
# Elastic Compliance Matrix: (Units=1/GPa)
#
#
# Indices 1 2 3 4 5 6 
#
# 1 0.011285 -0.002699 -0.002970 0.000000 -0.002055 0.000000
# 2 -0.002699 0.008482 0.002671 0.000000 -0.001408 0.000000
# 3 -0.002970 0.002671 0.020940 0.000000 -0.008387 0.000000
# 4 0.000000 0.000000 0.000000 0.026868 0.000000 -0.001432
# 5 -0.002055 -0.001408 -0.008387 0.000000 0.027494 0.000000
# 6 0.000000 0.000000 0.000000 -0.001432 0.000000 0.024171
#
#
# Mechanical properties :
#
#
# Convention : Reuss Voigt Hill
#
# Bulk Modulus (GPa) = 28.81046 40.59395 34.70221
# Shear Modulus (GPa) = 36.54762 41.58835 39.06798
#
# Velocity S-wave (km/s) = 3.90783 4.16862 4.04033
# Velocity P-wave (km/s) = 5.69208 6.33496 6.02210
#
# Compressibility (1/GPa) = 0.03470961
#
# Stress axis : x y z
#
# Youngs Moduli (GPa) = 88.61298 117.90253 47.75439
#
# Poissons Ratio (x) = 0.31826 0.14184
# Poissons Ratio (y) = 0.23920 -0.12754
# Poissons Ratio (z) = 0.26319 -0.31488
#
# Static dielectric constant tensor:
#      x y z
#    x 4.307500 0.000000 -0.049390 
#    y 0.000000 4.240020 0.000000 
#    z -0.049390 0.000000 4.239290 
# 
# 
# High freq. dielectric constant tensor:
#      x y z
#    x 1.953710 0.000000 -0.004230 
#    y 0.000000 1.955700 0.000000 
#    z -0.004230 0.000000 1.943860 
# 
# From -- ./inp_files/23130.got.cif
#   From: 2010.03.12/outbox.cif.g09.slc.cpg/sg14_12_cif.got.tgz:23130.got - 2010.03.31 13:35:05.
