data_PCOD8129016
_publ_section_title
;
Structure prediction by ZEFSAII (Michael W. Deem and Ramdas Pophale) SiO2 
 PCOD8129016
Probable space group: P 21/C
;
_chemical_formula_sum "Si O2"
_cell_formula_units_Z 32
_cell_length_a 20.951057
_cell_length_b 9.614589
_cell_length_c 13.404782
_cell_angle_alpha 90.000000
_cell_angle_beta 152.727428
_cell_angle_gamma 90.000000
_cell_volume 1237.298131
_symmetry_space_group_name_H-M "P 21/C"
_symmetry_group_IT_number 14
_symmetry_cell_setting 'monoclinic'
loop_
_space_group_symop_operation_xyz
x,y,z
-x,1/2+y,1/2-z
-x,-y,-z
x,1/2-y,1/2+z
loop_
_atom_site_type_symbol
_atom_site_label
_atom_site_fract_x
_atom_site_fract_y
_atom_site_fract_z
Si Si1 0.179611 0.170740 0.108907
Si Si2 0.786822 0.554505 0.555990
Si Si3 0.898537 0.506393 0.001385
Si Si4 0.127630 0.589120 0.818810
Si Si5 0.531661 0.595118 0.908901
Si Si6 0.478955 0.785799 0.535607
Si Si7 0.259315 0.667730 0.373499
Si Si8 0.314152 0.168901 0.547398
O O1 0.159199 0.336827 0.066035
O O2 0.296937 0.125970 0.350367
O O3 0.242886 0.095684 0.098513
O O4 0.034767 0.095643 0.936223
O O5 0.677187 0.435785 0.449021
O O6 0.770425 0.691551 0.602288
O O7 0.935342 0.480924 0.771582
O O8 0.854312 0.432693 0.836709
O O9 0.856978 0.407938 0.038763
O O10 0.204082 0.707563 0.862889
O O11 0.199146 0.448650 0.882602
O O12 0.457709 0.696246 0.887115
O O13 0.493920 0.434962 0.874294
O O14 0.532292 0.646081 0.794626
O O15 0.345316 0.715733 0.397857
O O16 0.618929 0.694165 0.748621
#
# Coordination Sequence:
#
# PCOD8129016 Si02
#       8
#     4   4   4   4   4   4   4   4
#     4  11  23  47  76 109 153 191 245 312 382 445
#     4  11  24  42  76 106 151 194 242 311 380 446
#     4  11  24  46  71 110 160 192 243 317 385 442
#     4  11  25  45  73 112 148 190 251 309 378 450
#     4  11  25  47  74 103 148 197 243 308 367 450
#     4  11  27  48  69 108 145 195 253 298 365 440
#     4  12  26  44  75 112 146 202 254 305 377 448
#     4  12  25  47  72 106 146 194 250 307 369 446
#
# _framework density 25.862805999999999
#
# number of rings (size 3 to 8) (size 9 to 14) (size 15 to 20)
#    0.000    0.750    5.000    1.125    3.500    3.500 
#    0.000    3.125    0.000    0.000    0.000    0.000 
#    0.000    0.000    0.000    0.000    0.000    0.000 
#
# Total GULP energy -396423.074242 kJ/mol
# GULP energy per Si atom -12388.221070 kJ/mol
# Density = 2.580394 g / cm^3
# Si number density = 25.862806 Si / 1000 Ang^3
#
#
#
# Elastic Constant Matrix: (Units=GPa)
#
#
# Indices 1 2 3 4 5 6 
#
# 1 122.9142 51.7892 20.2821 0.0000 14.8893 0.0000
# 2 51.7892 145.5091 34.1037 0.0000 17.3329 0.0000
# 3 20.2821 34.1037 49.5071 0.0000 2.8256 0.0000
# 4 0.0000 0.0000 0.0000 37.0995 0.0000 6.4569
# 5 14.8893 17.3329 2.8256 0.0000 38.0571 0.0000
# 6 0.0000 0.0000 0.0000 6.4569 0.0000 53.9307
#
#
#
# Elastic Compliance Matrix: (Units=1/GPa)
#
#
# Indices 1 2 3 4 5 6 
#
# 1 0.009935 -0.002767 -0.002023 0.000000 -0.002477 0.000000
# 2 -0.002767 0.009409 -0.005187 0.000000 -0.002817 0.000000
# 3 -0.002023 -0.005187 0.024525 0.000000 0.001333 0.000000
# 4 0.000000 0.000000 0.000000 0.027528 0.000000 -0.003296
# 5 -0.002477 -0.002817 0.001333 0.000000 0.028429 0.000000
# 6 0.000000 0.000000 0.000000 -0.003296 0.000000 0.018937
#
#
# Mechanical properties :
#
#
# Convention : Reuss Voigt Hill
#
# Bulk Modulus (GPa) = 41.81423 58.92005 50.36714
# Shear Modulus (GPa) = 34.08580 39.93446 37.01013
#
# Velocity S-wave (km/s) = 3.63429 3.93375 3.78698
# Velocity P-wave (km/s) = 5.81494 6.59271 6.21600
#
# Compressibility (1/GPa) = 0.02391530
#
# Stress axis : x y z
#
# Youngs Moduli (GPa) = 100.64960 106.28650 40.77505
#
# Poissons Ratio (x) = 0.29410 0.08248
# Poissons Ratio (y) = 0.27850 0.21149
# Poissons Ratio (z) = 0.20360 0.55129
#
# Static dielectric constant tensor:
#      x y z
#    x 5.292650 0.000000 0.029440 
#    y 0.000000 4.748120 0.000000 
#    z 0.029440 0.000000 4.978090 
# 
# 
# High freq. dielectric constant tensor:
#      x y z
#    x 2.077390 0.000000 0.009060 
#    y 0.000000 2.030200 0.000000 
#    z 0.009060 0.000000 2.052630 
# 
# From -- ./inp_files/51373.got.cif
#   From: 2010.03.12/outbox.cif.g09.slc.cpg/sg14_26_cif.got.tgz:51373.got - 2010.03.31 13:35:05.
