data_PCOD8129971
_publ_section_title
;
Structure prediction by ZEFSAII (Michael W. Deem and Ramdas Pophale) SiO2 
 PCOD8129971
Probable space group: C 2/C
;
_chemical_formula_sum "Si O2"
_cell_formula_units_Z 56
_cell_length_a 16.152925
_cell_length_b 10.766693
_cell_length_c 28.140649
_cell_angle_alpha 90.000000
_cell_angle_beta 35.766097
_cell_angle_gamma 90.000000
_cell_volume 2860.457667
_symmetry_space_group_name_H-M "C 2/C"
_symmetry_group_IT_number 15
_symmetry_cell_setting 'monoclinic'
loop_
_space_group_symop_operation_xyz
x,y,z
-x,y,1/2-z
-x,-y,-z
x,-y,1/2+z
1/2+x,1/2+y,z
1/2-x,1/2+y,1/2-z
1/2-x,1/2-y,-z
1/2+x,1/2-y,1/2+z
loop_
_atom_site_type_symbol
_atom_site_label
_atom_site_fract_x
_atom_site_fract_y
_atom_site_fract_z
Si Si1 0.379220 0.839958 0.118777
Si Si2 0.132903 0.252834 0.473564
Si Si3 0.974063 0.906155 0.604916
Si Si4 0.335346 0.376790 0.112212
Si Si5 0.243110 0.219698 0.239038
Si Si6 0.484117 0.066563 0.401089
Si Si7 0.754406 0.500931 0.940727
O O1 0.311997 0.831958 0.097454
O O2 0.491523 0.725892 0.070047
O O3 0.263055 0.820558 0.214937
O O4 0.454985 0.971865 0.088369
O O5 0.129351 0.343821 0.520579
O O6 0.242379 0.142499 0.431540
O O7 0.977011 0.199034 0.535619
O O8 0.890528 0.877306 0.693718
O O9 0.874620 0.994286 0.619251
O O10 0.130058 0.965318 0.536904
O O11 0.235210 0.291906 0.192510
O O12 0.253227 0.409111 0.101576
O O13 0.389315 0.147660 0.179255
O O14 0.406090 0.987318 0.395953
#
# Coordination Sequence:
#
# PCOD8129971 Si02
#       7
#     8   8   8   8   8   8   8
#     4  10  19  36  56  76 113 150 187 224 279 343
#     4  10  19  37  56  81 108 150 187 222 276 349
#     4   9  18  34  58  77 108 152 191 220 284 334
#     4  10  16  34  60  78 105 153 192 219 271 355
#     4   9  20  35  54  80 110 153 194 226 273 345
#     4  11  23  33  58  92 112 138 191 246 281 314
#     4  11  19  36  60  87 112 142 188 244 278 322
#
# _framework density 19.577286000000001
#
# number of rings (size 3 to 8) (size 9 to 14) (size 15 to 20)
#    0.857    1.143    2.857    2.571    0.000    0.571 
#    0.000    6.429    0.000    0.000    0.000    0.000 
#    0.000    0.000    0.000    0.000    0.000    0.000 
#
# Total GULP energy -346894.011810 kJ/mol
# GULP energy per Si atom -12389.071850 kJ/mol
# Density = 1.953273 g / cm^3
# Si number density = 19.577286 Si / 1000 Ang^3
#
#
#
# Elastic Constant Matrix: (Units=GPa)
#
#
# Indices 1 2 3 4 5 6 
#
# 1 64.3331 23.8490 41.3865 0.0000 9.4467 0.0000
# 2 23.8490 64.4289 28.3998 0.0000 5.3301 0.0000
# 3 41.3865 28.3998 94.7817 0.0001 15.9879 0.0000
# 4 0.0000 0.0000 0.0001 32.2875 0.0000 5.1275
# 5 9.4467 5.3301 15.9879 0.0000 21.8013 0.0000
# 6 0.0000 0.0000 0.0000 5.1275 0.0000 27.8786
#
#
#
# Elastic Compliance Matrix: (Units=1/GPa)
#
#
# Indices 1 2 3 4 5 6 
#
# 1 0.022921 -0.004665 -0.008134 0.000000 -0.002826 0.000000
# 2 -0.004665 0.018837 -0.003619 0.000000 0.000070 0.000000
# 3 -0.008134 -0.003619 0.016482 0.000000 -0.007677 0.000000
# 4 0.000000 0.000000 0.000000 0.031904 0.000000 -0.005868
# 5 -0.002826 0.000070 -0.007677 0.000000 0.052707 0.000000
# 6 0.000000 0.000000 0.000000 -0.005868 0.000000 0.036949
#
#
# Mechanical properties :
#
#
# Convention : Reuss Voigt Hill
#
# Bulk Modulus (GPa) = 39.36427 45.64603 42.50515
# Shear Modulus (GPa) = 22.61379 25.05406 23.83392
#
# Velocity S-wave (km/s) = 3.40237 3.58124 3.49295
# Velocity P-wave (km/s) = 5.96536 6.36135 6.16654
#
# Compressibility (1/GPa) = 0.02540375
#
# Stress axis : x y z
#
# Youngs Moduli (GPa) = 43.62750 53.08608 60.67338
#
# Poissons Ratio (x) = 0.24766 0.49352
# Poissons Ratio (y) = 0.20354 0.21958
# Poissons Ratio (z) = 0.35486 0.19212
#
# Static dielectric constant tensor:
#      x y z
#    x 3.113880 0.000000 0.264180 
#    y 0.000000 3.649320 0.000000 
#    z 0.264180 0.000000 3.579640 
# 
# 
# High freq. dielectric constant tensor:
#      x y z
#    x 1.717390 0.000000 0.024570 
#    y 0.000000 1.771570 0.000000 
#    z 0.024570 0.000000 1.755160 
# 
# From -- ./inp_files/295916.got.cif
#   From: 2010.06.25/outbox.cif.g09.slc.cpg/sg15_148_cif.got.tgz:295916.got - 2010.06.28 07:06:18.
