data_PCOD8129728
_publ_section_title
;
Structure prediction by ZEFSAII (Michael W. Deem and Ramdas Pophale) SiO2 
 PCOD8129728
Probable space group: C 2/C
;
_chemical_formula_sum "Si O2"
_cell_formula_units_Z 64
_cell_length_a 19.803928
_cell_length_b 10.522184
_cell_length_c 17.459227
_cell_angle_alpha 90.000000
_cell_angle_beta 90.000029
_cell_angle_gamma 90.000000
_cell_volume 3638.163750
_symmetry_space_group_name_H-M "C 2/C"
_symmetry_group_IT_number 15
_symmetry_cell_setting 'monoclinic'
loop_
_space_group_symop_operation_xyz
x,y,z
-x,y,1/2-z
-x,-y,-z
x,-y,1/2+z
1/2+x,1/2+y,z
1/2-x,1/2+y,1/2-z
1/2-x,1/2-y,-z
1/2+x,1/2-y,1/2+z
loop_
_atom_site_type_symbol
_atom_site_label
_atom_site_fract_x
_atom_site_fract_y
_atom_site_fract_z
Si Si1 0.786221 0.418456 0.138138
Si Si2 0.850117 0.824701 0.415000
Si Si3 0.577365 0.645957 0.735941
Si Si4 0.149883 0.824701 0.915000
Si Si5 0.077365 0.854043 0.764059
Si Si6 0.187574 0.321965 0.805055
Si Si7 0.312426 0.821966 0.305055
Si Si8 0.286220 0.918456 0.861862
O O1 0.708606 0.424482 0.109469
O O2 0.824367 0.321096 0.082414
O O3 0.824846 0.554789 0.140465
O O4 0.783791 0.364002 0.223351
O O5 0.910340 0.829481 0.353888
O O6 0.876646 0.859966 0.500000
O O7 0.824367 0.678905 0.417586
O O8 0.500000 0.679555 0.750000
O O9 0.595318 0.500000 0.750000
O O10 0.621082 0.735639 0.793066
O O11 0.089660 0.829481 0.853888
O O12 0.208606 0.924482 0.890531
O O13 0.121082 0.764361 0.706934
O O14 0.000000 0.820445 0.750000
O O15 0.250000 0.250000 0.845471
O O16 0.216209 0.364002 0.723351
O O17 0.324846 0.945211 0.359535
#
# Coordination Sequence:
#
# PCOD8129728 Si02
#       8
#     8   8   8   8   8   8   8   8
#     4   9  16  27  48  79 106 133 171 221 259 308
#     4  10  18  32  54  77 106 141 175 216 271 325
#     4  10  20  35  54  78 105 140 182 225 265 321
#     4  10  18  32  54  77 106 141 175 216 271 325
#     4  10  20  35  54  78 105 140 182 225 265 321
#     4  10  16  27  50  77 105 133 180 223 262 296
#     4  10  16  27  50  77 105 133 180 223 262 296
#     4   9  16  27  48  79 106 133 171 221 259 308
#
# _framework density 17.591291999999999
#
# number of rings (size 3 to 8) (size 9 to 14) (size 15 to 20)
#    0.000    2.250    5.000    3.000    0.000    0.000 
#    0.000   12.500    0.000   18.000    0.000    0.000 
#    0.000    0.000    0.000    0.000    0.000    0.000 
#
# Total GULP energy -396488.254282 kJ/mol
# GULP energy per Si atom -12390.257946 kJ/mol
# Density = 1.755125 g / cm^3
# Si number density = 17.591292 Si / 1000 Ang^3
#
#
#
# Elastic Constant Matrix: (Units=GPa)
#
#
# Indices 1 2 3 4 5 6 
#
# 1 113.4640 54.3724 42.5800 0.0000 -4.4314 0.0000
# 2 54.3724 122.3361 20.9800 0.0000 -2.9016 0.0000
# 3 42.5800 20.9800 71.7037 0.0000 0.8027 0.0000
# 4 0.0000 0.0000 0.0000 15.3900 0.0000 -0.7777
# 5 -4.4314 -2.9016 0.8027 0.0000 10.3979 0.0000
# 6 0.0000 0.0000 0.0000 -0.7777 0.0000 24.3402
#
#
#
# Elastic Compliance Matrix: (Units=1/GPa)
#
#
# Indices 1 2 3 4 5 6 
#
# 1 0.013952 -0.004895 -0.006910 0.000000 0.005114 0.000000
# 2 -0.004895 0.010394 -0.000144 0.000000 0.000826 0.000000
# 3 -0.006910 -0.000144 0.018141 0.000000 -0.004386 0.000000
# 4 0.000000 0.000000 0.000000 0.065082 0.000000 0.002080
# 5 0.005114 0.000826 -0.004386 0.000000 0.098921 0.000000
# 6 0.000000 0.000000 0.000000 0.002080 0.000000 0.041151
#
#
# Mechanical properties :
#
#
# Convention : Reuss Voigt Hill
#
# Bulk Modulus (GPa) = 53.79402 60.37430 57.08416
# Shear Modulus (GPa) = 18.00282 22.66373 20.33327
#
# Velocity S-wave (km/s) = 3.20252 3.59325 3.40350
# Velocity P-wave (km/s) = 6.65742 7.18403 6.92573
#
# Compressibility (1/GPa) = 0.01858943
#
# Stress axis : x y z
#
# Youngs Moduli (GPa) = 71.67549 96.21085 55.12393
#
# Poissons Ratio (x) = 0.47091 0.38092
# Poissons Ratio (y) = 0.35082 0.00793
# Poissons Ratio (z) = 0.49529 0.01384
#
# Static dielectric constant tensor:
#      x y z
#    x 3.007800 0.000000 0.004540 
#    y 0.000000 3.647070 0.000000 
#    z 0.004540 0.000000 3.060050 
# 
# 
# High freq. dielectric constant tensor:
#      x y z
#    x 1.651140 0.000000 0.000080 
#    y 0.000000 1.685240 0.000000 
#    z 0.000080 0.000000 1.652070 
# 
# From -- ./inp_files/214559.got.cif
#   From: 2010.06.25/outbox.cif.g09.slc.cpg/sg15_108_cif.got.tgz:214559.got - 2010.06.28 07:06:18.
