data_PCOD8129248
_publ_section_title
;
Structure prediction by ZEFSAII (Michael W. Deem and Ramdas Pophale) SiO2 
 PCOD8129248
Probable space group: P 21/C
;
_chemical_formula_sum "Si O2"
_cell_formula_units_Z 28
_cell_length_a 20.206266
_cell_length_b 11.461092
_cell_length_c 9.112689
_cell_angle_alpha 90.000000
_cell_angle_beta 141.322316
_cell_angle_gamma 90.000000
_cell_volume 1318.851786
_symmetry_space_group_name_H-M "P 21/C"
_symmetry_group_IT_number 14
_symmetry_cell_setting 'monoclinic'
loop_
_space_group_symop_operation_xyz
x,y,z
-x,1/2+y,1/2-z
-x,-y,-z
x,1/2-y,1/2+z
loop_
_atom_site_type_symbol
_atom_site_label
_atom_site_fract_x
_atom_site_fract_y
_atom_site_fract_z
Si Si1 0.723212 0.699731 0.702919
Si Si2 0.623916 0.136613 0.705826
Si Si3 0.381325 0.130775 0.264181
Si Si4 0.066775 0.268408 0.594750
Si Si5 0.259456 0.813410 0.379580
Si Si6 0.824106 0.519166 0.065666
Si Si7 0.070301 0.822990 0.406359
O O1 0.635226 0.681684 0.427064
O O2 0.696741 0.813881 0.751083
O O3 0.837047 0.712307 0.825399
O O4 0.728668 0.591235 0.824982
O O5 0.500308 0.161878 0.517024
O O6 0.650136 0.154790 0.580520
O O7 0.647223 0.004636 0.792011
O O8 0.694987 0.219441 0.928839
O O9 0.096152 0.394621 0.711821
O O10 0.964376 0.280224 0.314691
O O11 0.031748 0.179462 0.663455
O O12 0.228277 0.929893 0.411873
O O13 0.158948 0.764422 0.118801
O O14 0.886064 0.453770 0.040550
#
# Coordination Sequence:
#
# PCOD8129248 Si02
#       7
#     4   4   4   4   4   4   4
#     4  12  24  47  70 104 136 181 226 286 343 409
#     4  11  25  46  71 102 133 181 226 288 347 404
#     4  11  25  46  72 100 137 175 232 285 344 412
#     4  12  24  44  66 100 139 180 227 271 335 399
#     4  12  24  46  69 102 140 177 228 286 339 413
#     4  12  25  43  72  98 144 178 229 279 345 401
#     4  12  24  42  68  99 137 180 222 274 331 404
#
# _framework density 21.230589999999999
#
# number of rings (size 3 to 8) (size 9 to 14) (size 15 to 20)
#    0.000    0.286    5.714    3.000    0.000    0.571 
#    0.000    1.429    0.000    0.000    0.000    0.000 
#    0.000    0.000    0.000    0.000    0.000    0.000 
#
# Total GULP energy -347328.341337 kJ/mol
# GULP energy per Si atom -12404.583619 kJ/mol
# Density = 2.118227 g / cm^3
# Si number density = 21.230590 Si / 1000 Ang^3
#
#
#
# Elastic Constant Matrix: (Units=GPa)
#
#
# Indices 1 2 3 4 5 6 
#
# 1 121.8274 44.9586 21.1422 0.0000 -4.8786 0.0000
# 2 44.9586 101.1535 44.2572 0.0000 -3.6819 0.0000
# 3 21.1422 44.2572 98.5867 0.0000 -18.0108 0.0000
# 4 0.0000 0.0000 0.0000 37.1179 0.0000 -6.0866
# 5 -4.8786 -3.6819 -18.0108 0.0000 29.0166 0.0000
# 6 0.0000 0.0000 0.0000 -6.0866 0.0000 45.8772
#
#
#
# Elastic Compliance Matrix: (Units=1/GPa)
#
#
# Indices 1 2 3 4 5 6 
#
# 1 0.009854 -0.004361 0.000052 0.000000 0.001136 0.000000
# 2 -0.004361 0.014348 -0.005986 0.000000 -0.002628 0.000000
# 3 0.000052 -0.005986 0.014304 0.000000 0.008128 0.000000
# 4 0.000000 0.000000 0.000000 0.027540 0.000000 0.003654
# 5 0.001136 -0.002628 0.008128 0.000000 0.039365 0.000000
# 6 0.000000 0.000000 0.000000 0.003654 0.000000 0.022282
#
#
# Mechanical properties :
#
#
# Convention : Reuss Voigt Hill
#
# Bulk Modulus (GPa) = 55.81545 60.25374 58.03460
# Shear Modulus (GPa) = 32.41371 36.48299 34.44835
#
# Velocity S-wave (km/s) = 3.91160 4.14988 4.03250
# Velocity P-wave (km/s) = 6.83725 7.16967 7.00543
#
# Compressibility (1/GPa) = 0.01791618
#
# Stress axis : x y z
#
# Youngs Moduli (GPa) = 101.47922 69.69811 69.90976
#
# Poissons Ratio (x) = 0.30397 -0.00364
# Poissons Ratio (y) = 0.44258 0.41846
# Poissons Ratio (z) = -0.00528 0.41719
#
# Static dielectric constant tensor:
#      x y z
#    x 4.002310 0.000000 -0.165410 
#    y 0.000000 3.857290 0.000000 
#    z -0.165410 0.000000 4.005000 
# 
# 
# High freq. dielectric constant tensor:
#      x y z
#    x 1.844590 0.000000 -0.009730 
#    y 0.000000 1.832970 0.000000 
#    z -0.009730 0.000000 1.845300 
# 
# From -- ./inp_files/18975.got.cif
#   From: 2010.03.12/outbox.cif.g09.slc.cpg/sg14_10_cif.got.tgz:18975.got - 2010.03.31 13:35:05.
