data_PCOD8129502
_publ_section_title
;
Structure prediction by ZEFSAII (Michael W. Deem and Ramdas Pophale) SiO2 
 PCOD8129502
Probable space group: P 21/C
;
_chemical_formula_sum "Si O2"
_cell_formula_units_Z 32
_cell_length_a 13.534086
_cell_length_b 20.164014
_cell_length_c 9.128165
_cell_angle_alpha 90.000000
_cell_angle_beta 132.411313
_cell_angle_gamma 90.000000
_cell_volume 1839.226953
_symmetry_space_group_name_H-M "P 21/C"
_symmetry_group_IT_number 14
_symmetry_cell_setting 'monoclinic'
loop_
_space_group_symop_operation_xyz
x,y,z
-x,1/2+y,1/2-z
-x,-y,-z
x,1/2-y,1/2+z
loop_
_atom_site_type_symbol
_atom_site_label
_atom_site_fract_x
_atom_site_fract_y
_atom_site_fract_z
Si Si1 0.346621 0.195957 0.951214
Si Si2 0.150001 0.414947 0.296275
Si Si3 0.150000 0.585053 0.003728
Si Si4 0.346798 0.671444 0.580442
Si Si5 0.149903 0.439614 0.952400
Si Si6 0.653195 0.671444 0.886836
Si Si7 0.149898 0.560386 0.347402
Si Si8 0.653383 0.195958 0.257973
O O1 0.255355 0.142067 0.944463
O O2 0.320963 0.195070 0.752699
O O3 0.306920 0.268672 0.966865
O O4 0.500002 0.179414 0.144286
O O5 0.157562 0.427975 0.132166
O O6 0.186704 0.483469 0.416928
O O7 1.000000 0.392133 0.189840
O O8 0.186708 0.516531 0.956485
O O9 0.157558 0.572024 0.182955
O O10 0.255354 0.642068 0.066250
O O11 0.499997 0.649539 0.756003
O O12 0.254682 0.608834 0.532259
O O13 0.320958 0.695070 0.389226
O O14 0.306912 0.731328 0.646972
O O15 0.254690 0.391166 0.977115
O O16 0.000004 0.424171 0.745231
#
# Coordination Sequence:
#
# PCOD8129502 Si02
#       8
#     4   4   4   4   4   4   4   4
#     4   9  17  28  42  61  84 108 134 165 200 238
#     4   8  14  25  41  61  83 105 132 168 205 237
#     4   8  14  25  41  61  83 105 132 168 205 237
#     4   9  17  28  42  61  84 108 134 165 200 238
#     4   8  14  25  41  61  83 105 132 168 205 237
#     4   9  17  28  42  61  84 108 134 165 200 238
#     4   8  14  25  41  61  83 105 132 168 205 237
#     4   9  17  28  42  61  84 108 134 165 200 238
#
# _framework density 17.398613999999998
#
# number of rings (size 3 to 8) (size 9 to 14) (size 15 to 20)
#    0.000    3.500    0.000    1.500    0.000    2.000 
#    0.000    5.000    0.000    1.500    0.000   10.500 
#    0.000    0.000    0.000    0.000    0.000    0.000 
#
# Total GULP energy -396629.211665 kJ/mol
# GULP energy per Si atom -12394.662865 kJ/mol
# Density = 1.735901 g / cm^3
# Si number density = 17.398614 Si / 1000 Ang^3
#
#
#
# Elastic Constant Matrix: (Units=GPa)
#
#
# Indices 1 2 3 4 5 6 
#
# 1 32.2265 10.0069 7.5576 0.0000 14.7047 0.0000
# 2 10.0069 22.2807 8.9576 0.0000 13.2665 0.0000
# 3 7.5576 8.9576 29.9339 0.0000 14.2654 0.0000
# 4 0.0000 0.0000 0.0000 32.3096 0.0000 11.0524
# 5 14.7047 13.2665 14.2654 0.0000 17.3080 0.0000
# 6 0.0000 0.0000 0.0000 11.0524 0.0000 33.1852
#
#
#
# Elastic Compliance Matrix: (Units=1/GPa)
#
#
# Indices 1 2 3 4 5 6 
#
# 1 0.054562 0.008074 0.014573 0.000000 -0.064555 0.000000
# 2 0.008074 0.085250 0.011298 0.000000 -0.081515 0.000000
# 3 0.014573 0.011298 0.059904 0.000000 -0.070414 0.000000
# 4 0.000000 0.000000 0.000000 0.034930 0.000000 -0.011634
# 5 -0.064555 -0.081515 -0.070414 0.000000 0.233139 0.000000
# 6 0.000000 0.000000 0.000000 -0.011634 0.000000 0.034009
#
#
# Mechanical properties :
#
#
# Convention : Reuss Voigt Hill
#
# Bulk Modulus (GPa) = 3.73686 15.27613 9.50650
# Shear Modulus (GPa) = 9.55831 20.42182 14.99006
#
# Velocity S-wave (km/s) = 2.34641 3.42974 2.93843
# Velocity P-wave (km/s) = 3.08112 4.94806 4.12169
#
# Compressibility (1/GPa) = 0.26760430
#
# Stress axis : x y z
#
# Youngs Moduli (GPa) = 18.32787 11.73026 16.69343
#
# Poissons Ratio (x) = -0.09471 -0.24328
# Poissons Ratio (y) = -0.14797 -0.18860
# Poissons Ratio (z) = -0.26709 -0.13253
#
# Static dielectric constant tensor:
#      x y z
#    x 3.098120 0.000000 0.364030 
#    y 0.000000 3.543900 0.000000 
#    z 0.364030 0.000000 3.069270 
# 
# 
# High freq. dielectric constant tensor:
#      x y z
#    x 1.646650 0.000000 0.030640 
#    y 0.000000 1.676970 0.000000 
#    z 0.030640 0.000000 1.644220 
# 
# From -- ./inp_files/10226.got.cif
#   From: 2010.03.12/outbox.cif.g09.slc.cpg/sg14_6_cif.got.tgz:10226.got - 2010.03.31 13:35:05.
