data_PCOD8129376
_publ_section_title
;
Structure prediction by ZEFSAII (Michael W. Deem and Ramdas Pophale) SiO2 
 PCOD8129376
Probable space group: P 21/C
;
_chemical_formula_sum "Si O2"
_cell_formula_units_Z 16
_cell_length_a 18.288517
_cell_length_b 7.492607
_cell_length_c 9.606773
_cell_angle_alpha 90.000000
_cell_angle_beta 145.939900
_cell_angle_gamma 90.000000
_cell_volume 737.267758
_symmetry_space_group_name_H-M "P 21/C"
_symmetry_group_IT_number 14
_symmetry_cell_setting 'monoclinic'
loop_
_space_group_symop_operation_xyz
x,y,z
-x,1/2+y,1/2-z
-x,-y,-z
x,1/2-y,1/2+z
loop_
_atom_site_type_symbol
_atom_site_label
_atom_site_fract_x
_atom_site_fract_y
_atom_site_fract_z
Si Si1 0.979875 0.195334 0.414081
Si Si2 0.198211 0.796871 0.128828
Si Si3 0.353416 0.054946 0.797124
Si Si4 0.262643 0.148597 0.347213
O O1 0.904552 0.309195 0.408528
O O2 0.113641 0.292079 0.584566
O O3 0.884549 0.170087 0.136498
O O4 0.000000 0.000000 0.500000
O O5 0.277277 0.613981 0.240260
O O6 0.293243 0.963859 0.313164
O O7 0.289391 0.130447 0.554279
O O8 0.354798 0.204117 0.920172
O O9 0.500000 0.000000 0.000000
#
# Coordination Sequence:
#
# PCOD8129376 Si02
#       4
#     4   4   4   4
#     4  12  23  43  74 108 145 180 231 295 365 420
#     4  12  25  45  73 108 145 184 234 292 364 423
#     4  12  30  49  72 104 142 197 243 288 350 424
#     4  12  27  48  74 107 144 186 238 298 356 424
#
# _framework density 21.701747999999998
#
# number of rings (size 3 to 8) (size 9 to 14) (size 15 to 20)
#    0.000    0.000    5.000    5.250    3.500    1.000 
#    0.000    0.000    0.000    0.000    0.000    0.000 
#    0.000    0.000    0.000    0.000    0.000    0.000 
#
# Total GULP energy -198422.964916 kJ/mol
# GULP energy per Si atom -12401.435307 kJ/mol
# Density = 2.165235 g / cm^3
# Si number density = 21.701748 Si / 1000 Ang^3
#
#
#
# Elastic Constant Matrix: (Units=GPa)
#
#
# Indices 1 2 3 4 5 6 
#
# 1 121.8137 46.1813 28.1130 0.0000 -2.7349 0.0000
# 2 46.1813 154.6810 18.2317 0.0000 -5.2004 0.0000
# 3 28.1130 18.2317 58.4702 0.0000 -7.7593 0.0000
# 4 0.0000 0.0000 0.0000 27.9164 0.0000 -9.7075
# 5 -2.7349 -5.2004 -7.7593 0.0000 44.7153 0.0000
# 6 0.0000 0.0000 0.0000 -9.7075 0.0000 48.2913
#
#
#
# Elastic Compliance Matrix: (Units=1/GPa)
#
#
# Indices 1 2 3 4 5 6 
#
# 1 0.010118 -0.002548 -0.004122 0.000000 -0.000393 0.000000
# 2 -0.002548 0.007361 -0.001000 0.000000 0.000527 0.000000
# 3 -0.004122 -0.001000 0.019804 0.000000 0.003068 0.000000
# 4 0.000000 0.000000 0.000000 0.038513 0.000000 0.007742
# 5 -0.000393 0.000527 0.003068 0.000000 0.022933 0.000000
# 6 0.000000 0.000000 0.000000 0.007742 0.000000 0.022264
#
#
# Mechanical properties :
#
#
# Convention : Reuss Voigt Hill
#
# Bulk Modulus (GPa) = 45.57575 57.77965 51.67770
# Shear Modulus (GPa) = 34.80708 40.34720 37.57714
#
# Velocity S-wave (km/s) = 4.00920 4.31648 4.16568
# Velocity P-wave (km/s) = 6.51752 7.17809 6.85577
#
# Compressibility (1/GPa) = 0.02194149
#
# Stress axis : x y z
#
# Youngs Moduli (GPa) = 98.83535 135.84601 50.49520
#
# Poissons Ratio (x) = 0.34615 0.20816
# Poissons Ratio (y) = 0.25184 0.05051
# Poissons Ratio (z) = 0.40743 0.13589
#
# Static dielectric constant tensor:
#      x y z
#    x 4.374410 0.000000 -0.463050 
#    y 0.000000 4.335370 0.000000 
#    z -0.463050 0.000000 5.670310 
# 
# 
# High freq. dielectric constant tensor:
#      x y z
#    x 1.862820 0.000000 -0.014440 
#    y 0.000000 1.879980 0.000000 
#    z -0.014440 0.000000 1.847720 
# 
# From -- ./inp_files/11532.got.cif
#   From: 2010.03.12/outbox.cif.g09.slc.cpg/sg14_6_cif.got.tgz:11532.got - 2010.03.31 13:35:05.
