data_PCOD8129315
_publ_section_title
;
Structure prediction by ZEFSAII (Michael W. Deem and Ramdas Pophale) SiO2 
 PCOD8129315
Probable space group: P 21/C
;
_chemical_formula_sum "Si O2"
_cell_formula_units_Z 20
_cell_length_a 9.530723
_cell_length_b 8.793991
_cell_length_c 10.782618
_cell_angle_alpha 90.000000
_cell_angle_beta 105.325522
_cell_angle_gamma 90.000000
_cell_volume 871.587916
_symmetry_space_group_name_H-M "P 21/C"
_symmetry_group_IT_number 14
_symmetry_cell_setting 'monoclinic'
loop_
_space_group_symop_operation_xyz
x,y,z
-x,1/2+y,1/2-z
-x,-y,-z
x,1/2-y,1/2+z
loop_
_atom_site_type_symbol
_atom_site_label
_atom_site_fract_x
_atom_site_fract_y
_atom_site_fract_z
Si Si1 0.650144 0.075368 0.184424
Si Si2 0.666160 0.847684 0.971725
Si Si3 0.081760 0.074493 0.131882
Si Si4 0.133885 0.820918 0.337137
Si Si5 0.650177 0.988668 0.463142
O O1 0.504303 0.150671 0.097286
O O2 0.772252 0.205366 0.225171
O O3 0.620012 0.000233 0.309686
O O4 0.705947 0.947821 0.101195
O O5 0.751035 0.904561 0.869667
O O6 0.716981 0.675894 0.012114
O O7 0.007843 0.236424 0.143463
O O8 0.075830 0.963899 0.247421
O O9 0.000000 0.000000 0.000000
O O10 0.236004 0.880728 0.472374
O O11 0.500000 0.000000 0.500000
#
# Coordination Sequence:
#
# PCOD8129315 Si02
#       5
#     4   4   4   4   4
#     4  11  26  48  74 109 146 188 247 302 358 433
#     4  11  27  46  77 106 148 195 242 299 363 431
#     4  12  28  50  72 107 152 194 240 301 366 435
#     4  12  28  48  75 108 147 191 245 298 367 440
#     4  12  27  46  78 109 143 190 247 302 364 428
#
# _framework density 22.946622999999999
#
# number of rings (size 3 to 8) (size 9 to 14) (size 15 to 20)
#    0.000    0.400    4.000    2.400   11.200    0.800 
#    0.000    0.000    0.000    0.000    0.000    0.000 
#    0.000    0.000    0.000    0.000    0.000    0.000 
#
# Total GULP energy -248137.122775 kJ/mol
# GULP energy per Si atom -12406.856139 kJ/mol
# Density = 2.289440 g / cm^3
# Si number density = 22.946623 Si / 1000 Ang^3
#
#
#
# Elastic Constant Matrix: (Units=GPa)
#
#
# Indices 1 2 3 4 5 6 
#
# 1 104.0808 35.9653 39.1731 0.0000 -18.9642 0.0000
# 2 35.9653 138.0332 49.2223 0.0000 -13.2672 0.0000
# 3 39.1731 49.2223 119.0387 0.0000 -16.6434 0.0000
# 4 0.0000 0.0000 0.0000 37.7150 0.0000 1.2049
# 5 -18.9642 -13.2672 -16.6434 0.0000 37.2832 0.0000
# 6 0.0000 0.0000 0.0000 1.2049 0.0000 48.4868
#
#
#
# Elastic Compliance Matrix: (Units=1/GPa)
#
#
# Indices 1 2 3 4 5 6 
#
# 1 0.011988 -0.001780 -0.002608 0.000000 0.004300 0.000000
# 2 -0.001780 0.008847 -0.002942 0.000000 0.000929 0.000000
# 3 -0.002608 -0.002942 0.010819 0.000000 0.002456 0.000000
# 4 0.000000 0.000000 0.000000 0.026536 0.000000 -0.000659
# 5 0.004300 0.000929 0.002456 0.000000 0.030436 0.000000
# 6 0.000000 0.000000 0.000000 -0.000659 0.000000 0.020641
#
#
# Mechanical properties :
#
#
# Convention : Reuss Voigt Hill
#
# Bulk Modulus (GPa) = 58.84737 67.76380 63.30558
# Shear Modulus (GPa) = 38.58273 40.48314 39.53293
#
# Velocity S-wave (km/s) = 4.10495 4.20483 4.15519
# Velocity P-wave (km/s) = 6.94035 7.29173 7.11821
#
# Compressibility (1/GPa) = 0.01699311
#
# Stress axis : x y z
#
# Youngs Moduli (GPa) = 83.41619 113.03133 92.43130
#
# Poissons Ratio (x) = 0.20124 0.24102
# Poissons Ratio (y) = 0.14851 0.27198
# Poissons Ratio (z) = 0.21752 0.33259
#
# Static dielectric constant tensor:
#      x y z
#    x 5.799880 0.000000 -0.462230 
#    y 0.000000 4.163590 0.000000 
#    z -0.462230 0.000000 4.347560 
# 
# 
# High freq. dielectric constant tensor:
#      x y z
#    x 1.917320 0.000000 -0.005290 
#    y 0.000000 1.921490 0.000000 
#    z -0.005290 0.000000 1.901930 
# 
# From -- ./inp_files/23123.got.cif
#   From: 2010.03.12/outbox.cif.g09.slc.cpg/sg14_12_cif.got.tgz:23123.got - 2010.03.31 13:35:05.
