data_PCOD8129754
_publ_section_title
;
Structure prediction by ZEFSAII (Michael W. Deem and Ramdas Pophale) SiO2 
 PCOD8129754
Probable space group: C 2/C
;
_chemical_formula_sum "Si O2"
_cell_formula_units_Z 48
_cell_length_a 9.830599
_cell_length_b 20.829255
_cell_length_c 13.445487
_cell_angle_alpha 90.000000
_cell_angle_beta 69.200885
_cell_angle_gamma 90.000000
_cell_volume 2573.732672
_symmetry_space_group_name_H-M "C 2/C"
_symmetry_group_IT_number 15
_symmetry_cell_setting 'monoclinic'
loop_
_space_group_symop_operation_xyz
x,y,z
-x,y,1/2-z
-x,-y,-z
x,-y,1/2+z
1/2+x,1/2+y,z
1/2-x,1/2+y,1/2-z
1/2-x,1/2-y,-z
1/2+x,1/2-y,1/2+z
loop_
_atom_site_type_symbol
_atom_site_label
_atom_site_fract_x
_atom_site_fract_y
_atom_site_fract_z
Si Si1 0.340466 0.430273 0.625511
Si Si2 0.369078 0.835109 0.720527
Si Si3 0.837175 0.893198 0.410497
Si Si4 0.495502 0.903924 0.520245
Si Si5 0.500000 0.712199 0.750000
Si Si6 0.500000 0.495300 0.250000
Si Si7 0.920318 0.483911 0.367339
O O1 0.275625 0.368810 0.701038
O O2 0.403851 0.406642 0.503058
O O3 0.459495 0.460141 0.667362
O O4 0.233699 0.488206 0.624533
O O5 0.500000 0.868142 0.750000
O O6 0.401462 0.847391 0.595442
O O7 0.373603 0.757912 0.735148
O O8 0.663262 0.883091 0.459620
O O9 0.918871 0.829294 0.354101
O O10 0.868398 0.950713 0.324240
O O11 0.410092 0.921735 0.441599
O O12 0.483575 0.963571 0.599467
O O13 0.000000 0.458371 0.250000
#
# Coordination Sequence:
#
# PCOD8129754 Si02
#       7
#     8   8   8   8   4   4   8
#     4  11  20  34  53  80 114 142 183 220 279 324
#     4  10  18  34  55  84 101 137 186 233 260 307
#     4  10  20  35  53  82 109 145 177 223 269 328
#     4  10  18  28  53  81 108 134 172 222 280 309
#     4   9  20  36  56  82 108 141 192 226 252 319
#     4  11  24  34  50  80 116 149 172 220 284 337
#     4  10  16  28  48  78 112 134 164 218 264 332
#
# _framework density 18.649956
#
# number of rings (size 3 to 8) (size 9 to 14) (size 15 to 20)
#    0.500    1.333    5.000    1.500    4.667    2.667 
#    0.000    0.000    0.000    1.000   13.000    0.000 
#    0.000    0.000    0.000    0.000    0.000    0.000 
#
# Total GULP energy -297403.243714 kJ/mol
# GULP energy per Si atom -12391.801821 kJ/mol
# Density = 1.860751 g / cm^3
# Si number density = 18.649956 Si / 1000 Ang^3
#
#
#
# Elastic Constant Matrix: (Units=GPa)
#
#
# Indices 1 2 3 4 5 6 
#
# 1 38.0816 28.0276 29.2389 0.0000 10.8951 0.0000
# 2 28.0276 101.5654 63.5070 0.0000 1.2495 0.0000
# 3 29.2389 63.5070 151.1800 0.0000 -0.0167 0.0000
# 4 0.0000 0.0000 0.0000 23.1211 0.0000 -1.2689
# 5 10.8951 1.2495 -0.0167 0.0000 28.9681 0.0000
# 6 0.0000 0.0000 0.0000 -1.2689 0.0000 11.7315
#
#
#
# Elastic Compliance Matrix: (Units=1/GPa)
#
#
# Indices 1 2 3 4 5 6 
#
# 1 0.039667 -0.008096 -0.004273 0.000000 -0.014573 0.000000
# 2 -0.008096 0.015015 -0.004742 0.000000 0.002394 0.000000
# 3 -0.004273 -0.004742 0.009433 0.000000 0.001817 0.000000
# 4 0.000000 0.000000 0.000000 0.043509 0.000000 0.004706
# 5 -0.014573 0.002394 0.001817 0.000000 0.039899 0.000000
# 6 0.000000 0.000000 0.000000 0.004706 0.000000 0.085750
#
#
# Mechanical properties :
#
#
# Convention : Reuss Voigt Hill
#
# Bulk Modulus (GPa) = 33.44931 59.15269 46.30100
# Shear Modulus (GPa) = 18.02070 24.10102 21.06086
#
# Velocity S-wave (km/s) = 3.11184 3.59873 3.36411
# Velocity P-wave (km/s) = 5.55749 7.00386 6.32217
#
# Compressibility (1/GPa) = 0.02989598
#
# Stress axis : x y z
#
# Youngs Moduli (GPa) = 25.20964 66.59901 106.01062
#
# Poissons Ratio (x) = 0.53915 0.45296
# Poissons Ratio (y) = 0.20409 0.50266
# Poissons Ratio (z) = 0.10771 0.31578
#
# Static dielectric constant tensor:
#      x y z
#    x 3.000850 0.000000 0.067260 
#    y 0.000000 3.204540 0.000000 
#    z 0.067260 0.000000 3.812620 
# 
# 
# High freq. dielectric constant tensor:
#      x y z
#    x 1.679680 0.000000 -0.005050 
#    y 0.000000 1.697070 0.000000 
#    z -0.005050 0.000000 1.748590 
# 
# From -- ./inp_files/88387.got.cif
#   From: 2010.06.25/outbox.cif.g09.slc.cpg/sg15_45_cif.got.tgz:88387.got - 2010.06.28 07:06:18.
