data_PCOD8129344
_publ_section_title
;
Structure prediction by ZEFSAII (Michael W. Deem and Ramdas Pophale) SiO2 
 PCOD8129344
Probable space group: P 21/C
;
_chemical_formula_sum "Si O2"
_cell_formula_units_Z 32
_cell_length_a 15.211152
_cell_length_b 19.451607
_cell_length_c 15.237179
_cell_angle_alpha 90.000000
_cell_angle_beta 18.516441
_cell_angle_gamma 90.000000
_cell_volume 1431.762165
_symmetry_space_group_name_H-M "P 21/C"
_symmetry_group_IT_number 14
_symmetry_cell_setting 'monoclinic'
loop_
_space_group_symop_operation_xyz
x,y,z
-x,1/2+y,1/2-z
-x,-y,-z
x,1/2-y,1/2+z
loop_
_atom_site_type_symbol
_atom_site_label
_atom_site_fract_x
_atom_site_fract_y
_atom_site_fract_z
Si Si1 0.050189 0.184584 0.946617
Si Si2 0.579655 0.961071 0.097403
Si Si3 0.572895 0.124298 0.116683
Si Si4 0.472260 0.154154 0.406758
Si Si5 0.981709 0.437456 0.952779
Si Si6 0.882257 0.574383 0.470210
Si Si7 0.017494 0.330934 0.060629
Si Si8 0.578365 0.504816 0.023865
O O1 0.258913 0.200584 0.666702
O O2 0.169374 0.129367 0.903726
O O3 0.763162 0.156150 0.181036
O O4 0.008246 0.251196 0.045738
O O5 0.252720 0.946351 0.400205
O O6 0.614204 0.042162 0.089816
O O7 0.733741 0.907498 0.018510
O O8 0.716404 0.939517 0.876444
O O9 0.521552 0.167704 0.256305
O O10 0.322593 0.140278 0.288588
O O11 0.842528 0.155365 0.814221
O O12 0.315331 0.080772 0.556609
O O13 0.909863 0.369221 0.075335
O O14 0.000000 0.500000 0.000000
O O15 0.712307 0.505282 0.652764
O O16 0.201898 0.553372 0.155062
O O17 0.500000 0.500000 0.000000
#
# Coordination Sequence:
#
# PCOD8129344 Si02
#       8
#     4   4   4   4   4   4   4   4
#     4  12  26  48  65  97 143 196 222 264 343 436
#     4  12  24  40  70 108 133 164 230 297 347 392
#     4  12  24  44  72 103 129 170 226 301 341 397
#     4  12  25  42  73 100 136 174 235 276 338 415
#     4  12  23  44  71  98 132 175 228 294 345 395
#     4  12  24  40  66 100 144 174 219 280 344 399
#     4  12  27  47  71  93 141 187 231 275 349 408
#     4  12  21  37  67 100 131 180 216 275 334 398
#
# _framework density 22.350080999999999
#
# number of rings (size 3 to 8) (size 9 to 14) (size 15 to 20)
#    0.000    0.000    6.250    4.500    1.750    0.000 
#    6.750    0.000    0.000    0.000    0.000    0.000 
#    0.000    0.000    0.000    0.000    0.000    0.000 
#
# Total GULP energy -396506.898993 kJ/mol
# GULP energy per Si atom -12390.840594 kJ/mol
# Density = 2.229921 g / cm^3
# Si number density = 22.350081 Si / 1000 Ang^3
#
#
#
# Elastic Constant Matrix: (Units=GPa)
#
#
# Indices 1 2 3 4 5 6 
#
# 1 117.9278 31.4299 23.0612 0.0000 -3.7003 0.0000
# 2 31.4299 78.2827 23.4976 0.0000 2.6500 0.0000
# 3 23.0612 23.4976 85.0536 0.0000 -6.9558 0.0000
# 4 0.0000 0.0000 0.0000 18.2616 0.0000 1.4657
# 5 -3.7003 2.6500 -6.9558 0.0000 39.6506 0.0000
# 6 0.0000 0.0000 0.0000 1.4657 0.0000 22.5452
#
#
#
# Elastic Compliance Matrix: (Units=1/GPa)
#
#
# Indices 1 2 3 4 5 6 
#
# 1 0.009744 -0.003456 -0.001617 0.000000 0.000857 0.000000
# 2 -0.003456 0.015259 -0.003438 0.000000 -0.001945 0.000000
# 3 -0.001617 -0.003438 0.013343 0.000000 0.002420 0.000000
# 4 0.000000 0.000000 0.000000 0.055047 0.000000 -0.003579
# 5 0.000857 -0.001945 0.002420 0.000000 0.025855 0.000000
# 6 0.000000 0.000000 0.000000 -0.003579 0.000000 0.044588
#
#
# Mechanical properties :
#
#
# Convention : Reuss Voigt Hill
#
# Bulk Modulus (GPa) = 46.89256 48.58238 47.73747
# Shear Modulus (GPa) = 26.60055 29.64319 28.12187
#
# Velocity S-wave (km/s) = 3.45364 3.64581 3.55102
# Velocity P-wave (km/s) = 6.07700 6.28544 6.18210
#
# Compressibility (1/GPa) = 0.02132534
#
# Stress axis : x y z
#
# Youngs Moduli (GPa) = 102.62838 65.53336 74.94331
#
# Poissons Ratio (x) = 0.22646 0.12120
# Poissons Ratio (y) = 0.35465 0.25764
# Poissons Ratio (z) = 0.16597 0.22529
#
# Static dielectric constant tensor:
#      x y z
#    x 3.978510 0.000000 0.046990 
#    y 0.000000 3.461240 0.000000 
#    z 0.046990 0.000000 3.971310 
# 
# 
# High freq. dielectric constant tensor:
#      x y z
#    x 1.901530 0.000000 0.007430 
#    y 0.000000 1.843050 0.000000 
#    z 0.007430 0.000000 1.898810 
# 
# From -- ./inp_files/47657.got.cif
#   From: 2010.03.12/outbox.cif.g09.slc.cpg/sg14_24_cif.got.tgz:47657.got - 2010.03.31 13:35:05.
