data_PCOD8129222
_publ_section_title
;
Structure prediction by ZEFSAII (Michael W. Deem and Ramdas Pophale) SiO2 
 PCOD8129222
Probable space group: P 21/C
;
_chemical_formula_sum "Si O2"
_cell_formula_units_Z 32
_cell_length_a 28.191268
_cell_length_b 11.090317
_cell_length_c 8.950995
_cell_angle_alpha 90.000000
_cell_angle_beta 147.386368
_cell_angle_gamma 90.000000
_cell_volume 1508.326812
_symmetry_space_group_name_H-M "P 21/C"
_symmetry_group_IT_number 14
_symmetry_cell_setting 'monoclinic'
loop_
_space_group_symop_operation_xyz
x,y,z
-x,1/2+y,1/2-z
-x,-y,-z
x,1/2-y,1/2+z
loop_
_atom_site_type_symbol
_atom_site_label
_atom_site_fract_x
_atom_site_fract_y
_atom_site_fract_z
Si Si1 0.421504 0.141992 0.723489
Si Si2 0.663034 0.660352 0.304378
Si Si3 0.223873 0.510915 0.220371
Si Si4 0.621985 0.379076 0.812306
Si Si5 0.082812 0.133148 0.812337
Si Si6 0.824745 0.688018 0.140107
Si Si7 0.726871 0.259544 0.822171
Si Si8 0.113318 0.914801 0.683313
O O1 0.410668 0.132429 0.515454
O O2 0.370985 0.255833 0.653923
O O3 0.380504 0.024479 0.694960
O O4 0.523130 0.165623 0.026732
O O5 0.693144 0.537234 0.463869
O O6 0.744326 0.719722 0.433740
O O7 0.247621 0.645396 0.237001
O O8 0.138406 0.511063 0.100951
O O9 0.202756 0.430680 0.021617
O O10 0.685210 0.330487 0.850487
O O11 0.656501 0.332856 0.064332
O O12 0.096359 0.242276 0.732727
O O13 0.981979 0.143217 0.596685
O O14 0.107503 0.003499 0.809332
O O15 0.147322 0.148333 0.122180
O O16 0.814732 0.188971 0.101194
#
# Coordination Sequence:
#
# PCOD8129222 Si02
#       8
#     4   4   4   4   4   4   4   4
#     4  11  25  44  72 101 132 176 223 283 331 395
#     4  12  22  44  71 100 132 173 226 275 337 392
#     4  12  25  43  69 101 126 182 225 267 336 403
#     4  11  26  46  68 101 138 174 225 273 337 405
#     4  11  25  44  69 101 135 177 226 284 332 391
#     4  12  23  42  72  98 136 172 230 277 331 399
#     4  12  26  46  69  97 139 180 219 272 341 406
#     4  11  26  47  67  96 140 178 224 279 336 399
#
# _framework density 21.215563
#
# number of rings (size 3 to 8) (size 9 to 14) (size 15 to 20)
#    0.000    0.500    5.000    2.250    5.250    0.500 
#    2.250    1.250    0.000    0.000    0.000    0.000 
#    0.000    0.000    0.000    0.000    0.000    0.000 
#
# Total GULP energy -396983.694673 kJ/mol
# GULP energy per Si atom -12405.740459 kJ/mol
# Density = 2.116728 g / cm^3
# Si number density = 21.215563 Si / 1000 Ang^3
#
#
#
# Elastic Constant Matrix: (Units=GPa)
#
#
# Indices 1 2 3 4 5 6 
#
# 1 83.4684 25.4971 26.7784 0.0000 -3.0642 0.0000
# 2 25.4971 68.9665 28.0901 0.0000 7.7285 0.0000
# 3 26.7784 28.0901 81.9433 0.0000 2.3135 0.0000
# 4 0.0000 0.0000 0.0000 35.7221 0.0000 2.3308
# 5 -3.0642 7.7285 2.3135 0.0000 34.0276 0.0000
# 6 0.0000 0.0000 0.0000 2.3308 0.0000 39.1560
#
#
#
# Elastic Compliance Matrix: (Units=1/GPa)
#
#
# Indices 1 2 3 4 5 6 
#
# 1 0.014442 -0.004263 -0.003329 0.000000 0.002495 0.000000
# 2 -0.004263 0.018523 -0.004836 0.000000 -0.004262 0.000000
# 3 -0.003329 -0.004836 0.014955 0.000000 -0.000218 0.000000
# 4 0.000000 0.000000 0.000000 0.028103 0.000000 -0.001673
# 5 0.002495 -0.004262 -0.000218 0.000000 0.030595 0.000000
# 6 0.000000 0.000000 0.000000 -0.001673 0.000000 0.025638
#
#
# Mechanical properties :
#
#
# Convention : Reuss Voigt Hill
#
# Bulk Modulus (GPa) = 43.35616 43.90106 43.62861
# Shear Modulus (GPa) = 30.33933 32.04866 31.19399
#
# Velocity S-wave (km/s) = 3.78570 3.89089 3.83866
# Velocity P-wave (km/s) = 6.29199 6.39712 6.34477
#
# Compressibility (1/GPa) = 0.02306477
#
# Stress axis : x y z
#
# Youngs Moduli (GPa) = 69.24072 53.98590 66.86565
#
# Poissons Ratio (x) = 0.23015 0.22257
# Poissons Ratio (y) = 0.29519 0.32338
# Poissons Ratio (z) = 0.23048 0.26109
#
# Static dielectric constant tensor:
#      x y z
#    x 3.921850 0.000000 0.016150 
#    y 0.000000 3.877310 0.000000 
#    z 0.016150 0.000000 3.881980 
# 
# 
# High freq. dielectric constant tensor:
#      x y z
#    x 1.840690 0.000000 -0.006740 
#    y 0.000000 1.839920 0.000000 
#    z -0.006740 0.000000 1.836920 
# 
# From -- ./inp_files/20007.got.cif
#   From: 2010.03.12/outbox.cif.g09.slc.cpg/sg14_11_cif.got.tgz:20007.got - 2010.03.31 13:35:05.
