data_PCOD8129703
_publ_section_title
;
Structure prediction by ZEFSAII (Michael W. Deem and Ramdas Pophale) SiO2 
 PCOD8129703
Probable space group: C 2/C
;
_chemical_formula_sum "Si O2"
_cell_formula_units_Z 52
_cell_length_a 20.030427
_cell_length_b 17.253963
_cell_length_c 12.081447
_cell_angle_alpha 90.000000
_cell_angle_beta 47.336656
_cell_angle_gamma 90.000000
_cell_volume 3070.372879
_symmetry_space_group_name_H-M "C 2/C"
_symmetry_group_IT_number 15
_symmetry_cell_setting 'monoclinic'
loop_
_space_group_symop_operation_xyz
x,y,z
-x,y,1/2-z
-x,-y,-z
x,-y,1/2+z
1/2+x,1/2+y,z
1/2-x,1/2+y,1/2-z
1/2-x,1/2-y,-z
1/2+x,1/2-y,1/2+z
loop_
_atom_site_type_symbol
_atom_site_label
_atom_site_fract_x
_atom_site_fract_y
_atom_site_fract_z
Si Si1 0.653881 0.027988 0.203289
Si Si2 0.603677 0.605231 0.170187
Si Si3 0.216286 0.227163 0.156606
Si Si4 0.257125 0.613592 0.684171
Si Si5 0.852122 0.394700 0.570524
Si Si6 0.000000 0.448121 0.250000
Si Si7 0.719076 0.475152 0.127898
O O1 0.627727 0.091908 0.323244
O O2 0.685855 0.950124 0.227385
O O3 0.562760 0.008369 0.242782
O O4 0.733292 0.062148 0.034303
O O5 0.500000 0.609562 0.250000
O O6 0.628205 0.671318 0.235821
O O7 0.626267 0.520234 0.197635
O O8 0.660760 0.618705 0.994522
O O9 0.200355 0.305004 0.247776
O O10 0.299760 0.185609 0.123239
O O11 0.250000 0.250000 0.000000
O O12 0.297200 0.590898 0.760758
O O13 0.945121 0.392196 0.395429
O O14 0.788918 0.460634 0.591012
#
# Coordination Sequence:
#
# PCOD8129703 Si02
#       7
#     8   8   8   8   8   4   8
#     4   9  17  30  47  68  92 121 159 191 223 271
#     4   9  17  29  47  72  93 116 153 202 240 272
#     4   9  17  32  45  65  98 120 151 188 236 285
#     4   9  17  32  46  65  94 125 156 189 231 279
#     4   9  17  29  46  69  94 121 155 190 226 278
#     4  10  16  26  46  72  94 118 150 192 234 270
#     4   8  16  30  49  65  90 125 158 190 227 276
#
# _framework density 16.936053000000001
#
# number of rings (size 3 to 8) (size 9 to 14) (size 15 to 20)
#    0.000    3.077    0.000    3.231    0.000    0.615 
#   12.462    0.769    0.000    0.000    2.000    0.000 
#    0.000    0.000    0.000    0.000    0.000    0.000 
#
# Total GULP energy -322140.203501 kJ/mol
# GULP energy per Si atom -12390.007827 kJ/mol
# Density = 1.689751 g / cm^3
# Si number density = 16.936053 Si / 1000 Ang^3
#
#
#
# Elastic Constant Matrix: (Units=GPa)
#
#
# Indices 1 2 3 4 5 6 
#
# 1 111.0446 51.0860 44.2370 0.0000 -3.5395 0.0000
# 2 51.0860 77.7038 38.6844 0.0000 9.7006 0.0000
# 3 44.2370 38.6844 64.5411 0.0000 8.9561 0.0000
# 4 0.0000 0.0000 0.0000 15.5805 0.0000 6.4091
# 5 -3.5395 9.7006 8.9561 0.0000 31.0788 0.0000
# 6 0.0000 0.0000 0.0000 6.4091 0.0000 21.6515
#
#
#
# Elastic Compliance Matrix: (Units=1/GPa)
#
#
# Indices 1 2 3 4 5 6 
#
# 1 0.015370 -0.007409 -0.006935 0.000000 0.006061 0.000000
# 2 -0.007409 0.022128 -0.007406 0.000000 -0.005617 0.000000
# 3 -0.006935 -0.007406 0.025494 0.000000 -0.005825 0.000000
# 4 0.000000 0.000000 0.000000 0.073082 0.000000 -0.021633
# 5 0.006061 -0.005617 -0.005825 0.000000 0.036298 0.000000
# 6 0.000000 0.000000 0.000000 -0.021633 0.000000 0.052590
#
#
# Mechanical properties :
#
#
# Convention : Reuss Voigt Hill
#
# Bulk Modulus (GPa) = 51.29943 57.92270 54.61106
# Shear Modulus (GPa) = 18.18448 21.61429 19.89939
#
# Velocity S-wave (km/s) = 3.28031 3.57631 3.43150
# Velocity P-wave (km/s) = 6.68604 7.16438 6.92934
#
# Compressibility (1/GPa) = 0.01949340
#
# Stress axis : x y z
#
# Youngs Moduli (GPa) = 65.06278 45.19073 39.22427
#
# Poissons Ratio (x) = 0.33482 0.27202
# Poissons Ratio (y) = 0.48205 0.29048
# Poissons Ratio (z) = 0.45121 0.33467
#
# Static dielectric constant tensor:
#      x y z
#    x 3.400200 0.000000 0.268980 
#    y 0.000000 2.692280 0.000000 
#    z 0.268980 0.000000 3.193190 
# 
# 
# High freq. dielectric constant tensor:
#      x y z
#    x 1.654290 0.000000 0.008410 
#    y 0.000000 1.629350 0.000000 
#    z 0.008410 0.000000 1.631550 
# 
# From -- ./inp_files/113630.got.cif
#   From: 2010.06.25/outbox.cif.g09.slc.cpg/sg15_57_cif.got.tgz:113630.got - 2010.06.28 07:06:18.
