data_PCOD8129214
_publ_section_title
;
Structure prediction by ZEFSAII (Michael W. Deem and Ramdas Pophale) SiO2 
 PCOD8129214
Probable space group: P 21/C
;
_chemical_formula_sum "Si O2"
_cell_formula_units_Z 16
_cell_length_a 17.485739
_cell_length_b 5.521041
_cell_length_c 9.375023
_cell_angle_alpha 90.000000
_cell_angle_beta 42.468629
_cell_angle_gamma 90.000000
_cell_volume 611.084135
_symmetry_space_group_name_H-M "P 21/C"
_symmetry_group_IT_number 14
_symmetry_cell_setting 'monoclinic'
loop_
_space_group_symop_operation_xyz
x,y,z
-x,1/2+y,1/2-z
-x,-y,-z
x,1/2-y,1/2+z
loop_
_atom_site_type_symbol
_atom_site_label
_atom_site_fract_x
_atom_site_fract_y
_atom_site_fract_z
Si Si1 0.900569 0.972301 0.962855
Si Si2 0.568113 0.610752 0.656277
Si Si3 0.854308 0.183668 0.304956
Si Si4 0.711158 0.861161 0.684394
O O1 0.872742 0.046378 0.838058
O O2 0.848921 0.178908 0.141007
O O3 0.034718 0.968630 0.798855
O O4 0.830504 0.728919 0.088267
O O5 0.494967 0.368427 0.783898
O O6 0.647721 0.646295 0.684920
O O7 0.636554 0.543960 0.418044
O O8 0.739861 0.072285 0.530776
#
# Coordination Sequence:
#
# PCOD8129214 Si02
#       4
#     4   4   4   4
#     4  11  25  43  69 109 151 192 241 295 372 466
#     4  12  30  52  74 106 146 198 266 324 370 434
#     4  11  25  43  69 109 151 192 241 295 372 466
#     4  12  26  46  74 106 144 198 244 310 386 438
#
# _framework density 26.182973
#
# number of rings (size 3 to 8) (size 9 to 14) (size 15 to 20)
#    0.000    0.500    5.000    1.500   10.500    1.000 
#    0.000    0.000    0.000    0.000    0.000    0.000 
#    0.000    0.000    0.000    0.000    0.000    0.000 
#
# Total GULP energy -198285.646501 kJ/mol
# GULP energy per Si atom -12392.852906 kJ/mol
# Density = 2.612338 g / cm^3
# Si number density = 26.182973 Si / 1000 Ang^3
#
#
#
# Elastic Constant Matrix: (Units=GPa)
#
#
# Indices 1 2 3 4 5 6 
#
# 1 56.7457 -10.8633 5.6936 0.0000 -3.8289 0.0000
# 2 -10.8633 57.4340 5.8444 0.0000 -21.6973 0.0000
# 3 5.6936 5.8444 132.1825 0.0000 -10.7195 0.0000
# 4 0.0000 0.0000 0.0000 43.0941 0.0000 -5.6396
# 5 -3.8289 -21.6973 -10.7195 0.0000 35.1076 0.0000
# 6 0.0000 0.0000 0.0000 -5.6396 0.0000 45.0423
#
#
#
# Elastic Compliance Matrix: (Units=1/GPa)
#
#
# Indices 1 2 3 4 5 6 
#
# 1 0.019154 0.005744 -0.000637 0.000000 0.005444 0.000000
# 2 0.005744 0.024440 -0.000054 0.000000 0.015715 0.000000
# 3 -0.000637 -0.000054 0.007779 0.000000 0.002273 0.000000
# 4 0.000000 0.000000 0.000000 0.023592 0.000000 0.002954
# 5 0.005444 0.015715 0.002273 0.000000 0.039483 0.000000
# 6 0.000000 0.000000 0.000000 0.002954 0.000000 0.022571
#
#
# Mechanical properties :
#
#
# Convention : Reuss Voigt Hill
#
# Bulk Modulus (GPa) = 16.26559 27.52352 21.89455
# Shear Modulus (GPa) = 33.92003 41.02799 37.47401
#
# Velocity S-wave (km/s) = 3.60321 3.96279 3.78727
# Velocity P-wave (km/s) = 4.85145 5.61009 5.24451
#
# Compressibility (1/GPa) = 0.06147947
#
# Stress axis : x y z
#
# Youngs Moduli (GPa) = 52.20973 40.91673 128.54418
#
# Poissons Ratio (x) = -0.23504 0.08194
# Poissons Ratio (y) = -0.29992 0.00690
# Poissons Ratio (z) = 0.03328 0.00220
#
# Static dielectric constant tensor:
#      x y z
#    x 4.804830 0.000000 -0.037870 
#    y 0.000000 4.220250 0.000000 
#    z -0.037870 0.000000 5.031530 
# 
# 
# High freq. dielectric constant tensor:
#      x y z
#    x 2.049480 0.000000 -0.001870 
#    y 0.000000 2.031570 0.000000 
#    z -0.001870 0.000000 2.069030 
# 
# From -- ./inp_files/11427.got.cif
#   From: 2010.03.12/outbox.cif.g09.slc.cpg/sg14_6_cif.got.tgz:11427.got - 2010.03.31 13:35:05.
