data_PCOD8129462
_publ_section_title
;
Structure prediction by ZEFSAII (Michael W. Deem and Ramdas Pophale) SiO2 
 PCOD8129462
Probable space group: P 21/C
;
_chemical_formula_sum "Si O2"
_cell_formula_units_Z 16
_cell_length_a 7.477176
_cell_length_b 9.467284
_cell_length_c 8.123251
_cell_angle_alpha 90.000000
_cell_angle_beta 87.637449
_cell_angle_gamma 90.000000
_cell_volume 574.544363
_symmetry_space_group_name_H-M "P 21/C"
_symmetry_group_IT_number 14
_symmetry_cell_setting 'monoclinic'
loop_
_space_group_symop_operation_xyz
x,y,z
-x,1/2+y,1/2-z
-x,-y,-z
x,1/2-y,1/2+z
loop_
_atom_site_type_symbol
_atom_site_label
_atom_site_fract_x
_atom_site_fract_y
_atom_site_fract_z
Si Si1 0.529898 0.862083 0.388883
Si Si2 0.034580 0.652702 0.931223
Si Si3 0.729061 0.857419 0.070470
Si Si4 0.760272 0.352949 0.381297
O O1 0.547747 0.721427 0.503020
O O2 0.389293 0.851302 0.249729
O O3 0.500000 0.000000 0.500000
O O4 0.715380 0.870648 0.270982
O O5 0.053496 0.643096 0.732797
O O6 0.889132 0.761859 0.000302
O O7 0.224955 0.712452 0.003800
O O8 0.000000 0.500000 0.000000
O O9 0.746334 0.011660 0.996452
#
# Coordination Sequence:
#
# PCOD8129462 Si02
#       4
#     4   4   4   4
#     4  12  26  48  77 113 155 204 259 325 390 461
#     4  12  26  47  75 111 154 204 258 320 386 461
#     4  12  27  50  77 113 156 204 260 320 388 468
#     4  12  27  47  75 111 153 206 258 317 387 462
#
# _framework density 27.848154000000001
#
# number of rings (size 3 to 8) (size 9 to 14) (size 15 to 20)
#    0.000    0.000    0.000   10.500    0.000    8.000 
#    0.000    0.000    0.000    0.000    0.000    0.000 
#    0.000    0.000    0.000    0.000    0.000    0.000 
#
# Total GULP energy -198406.380432 kJ/mol
# GULP energy per Si atom -12400.398777 kJ/mol
# Density = 2.778477 g / cm^3
# Si number density = 27.848154 Si / 1000 Ang^3
#
#
#
# Elastic Constant Matrix: (Units=GPa)
#
#
# Indices 1 2 3 4 5 6 
#
# 1 19.2225 22.9364 1.1260 0.0000 4.7653 0.0000
# 2 22.9364 235.5146 108.3316 0.0000 7.4372 0.0000
# 3 1.1260 108.3316 247.0400 0.0000 -24.8750 0.0000
# 4 0.0000 0.0000 0.0000 67.1693 0.0000 2.3803
# 5 4.7653 7.4372 -24.8750 0.0000 41.8009 0.0000
# 6 0.0000 0.0000 0.0000 2.3803 0.0000 48.2958
#
#
#
# Elastic Compliance Matrix: (Units=1/GPa)
#
#
# Indices 1 2 3 4 5 6 
#
# 1 0.061178 -0.006875 0.002294 0.000000 -0.004386 0.000000
# 2 -0.006875 0.006345 -0.002964 0.000000 -0.002109 0.000000
# 3 0.002294 -0.002964 0.005706 0.000000 0.003661 0.000000
# 4 0.000000 0.000000 0.000000 0.014914 0.000000 -0.000735
# 5 -0.004386 -0.002109 0.003661 0.000000 0.026977 0.000000
# 6 0.000000 0.000000 0.000000 -0.000735 0.000000 0.020742
#
#
# Mechanical properties :
#
#
# Convention : Reuss Voigt Hill
#
# Bulk Modulus (GPa) = 17.19957 85.17388 51.18673
# Shear Modulus (GPa) = 29.35474 56.07876 42.71675
#
# Velocity S-wave (km/s) = 3.25021 4.49233 3.92077
# Velocity P-wave (km/s) = 4.50275 7.58680 6.23836
#
# Compressibility (1/GPa) = 0.05814099
#
# Stress axis : x y z
#
# Youngs Moduli (GPa) = 16.34569 157.59678 175.26409
#
# Poissons Ratio (x) = 1.08346 -0.40211
# Poissons Ratio (y) = 0.11237 0.51940
# Poissons Ratio (z) = -0.03750 0.46704
#
# Static dielectric constant tensor:
#      x y z
#    x 7.421470 0.000000 -1.382870 
#    y 0.000000 4.264160 0.000000 
#    z -1.382870 0.000000 7.175850 
# 
# 
# High freq. dielectric constant tensor:
#      x y z
#    x 2.186950 0.000000 -0.019020 
#    y 0.000000 2.114100 0.000000 
#    z -0.019020 0.000000 2.174730 
# 
# From -- ./inp_files/7607.got.cif
#   From: 2010.03.12/outbox.cif.g09.slc.cpg/sg14_4_cif.got.tgz:7607.got - 2010.03.31 13:35:05.
