data_PCOD8129748
_publ_section_title
;
Structure prediction by ZEFSAII (Michael W. Deem and Ramdas Pophale) SiO2 
 PCOD8129748
Probable space group: C 2/C
;
_chemical_formula_sum "Si O2"
_cell_formula_units_Z 40
_cell_length_a 17.123511
_cell_length_b 24.737712
_cell_length_c 9.992741
_cell_angle_alpha 90.000000
_cell_angle_beta 149.211678
_cell_angle_gamma 90.000000
_cell_volume 2166.679987
_symmetry_space_group_name_H-M "C 2/C"
_symmetry_group_IT_number 15
_symmetry_cell_setting 'monoclinic'
loop_
_space_group_symop_operation_xyz
x,y,z
-x,y,1/2-z
-x,-y,-z
x,-y,1/2+z
1/2+x,1/2+y,z
1/2-x,1/2+y,1/2-z
1/2-x,1/2-y,-z
1/2+x,1/2-y,1/2+z
loop_
_atom_site_type_symbol
_atom_site_label
_atom_site_fract_x
_atom_site_fract_y
_atom_site_fract_z
Si Si1 0.080732 0.862212 0.003171
Si Si2 0.673819 0.251921 0.031846
Si Si3 0.332251 0.526079 0.764194
Si Si4 0.878322 0.165762 0.459534
Si Si5 0.318432 0.448559 0.961485
O O1 0.000000 0.882475 0.750000
O O2 0.959237 0.846610 0.938071
O O3 0.185498 0.810875 0.118757
O O4 0.176445 0.913024 0.193524
O O5 0.753362 0.211907 0.253657
O O6 0.500000 0.234940 0.750000
O O7 0.750000 0.250000 0.000000
O O8 0.246121 0.530462 0.494767
O O9 0.500000 0.500000 0.000000
O O10 0.245514 0.486300 0.738724
O O11 0.785408 0.113683 0.377118
O O12 0.000000 0.185241 0.750000
O O13 0.500000 0.454223 0.250000
#
# Coordination Sequence:
#
# PCOD8129748 Si02
#       5
#     8   8   8   8   8
#     4  11  19  32  55  79 118 149 191 236 293 341
#     4  11  23  40  58  83 116 160 200 234 288 355
#     4  10  16  28  47  82 114 145 176 242 302 333
#     4  11  20  37  55  86 117 147 191 245 286 335
#     4   9  17  27  47  77 118 136 185 231 300 330
#
# _framework density 18.461424999999998
#
# number of rings (size 3 to 8) (size 9 to 14) (size 15 to 20)
#    0.000    1.600   10.000    1.800    0.000    0.800 
#    0.000    0.000    0.000    0.000    0.000    7.000 
#    0.000    0.000    0.000    0.000    0.000    0.000 
#
# Total GULP energy -247794.994979 kJ/mol
# GULP energy per Si atom -12389.749749 kJ/mol
# Density = 1.841941 g / cm^3
# Si number density = 18.461425 Si / 1000 Ang^3
#
#
#
# Elastic Constant Matrix: (Units=GPa)
#
#
# Indices 1 2 3 4 5 6 
#
# 1 76.5560 38.5834 47.2787 0.0000 -30.8260 0.0000
# 2 38.5834 156.0373 58.7674 0.0000 -16.9451 0.0000
# 3 47.2787 58.7674 83.4685 0.0000 -24.5589 0.0000
# 4 0.0000 0.0000 0.0000 30.5013 0.0000 -12.7257
# 5 -30.8260 -16.9451 -24.5589 0.0000 36.7475 0.0000
# 6 0.0000 0.0000 0.0000 -12.7257 0.0000 33.0049
#
#
#
# Elastic Compliance Matrix: (Units=1/GPa)
#
#
# Indices 1 2 3 4 5 6 
#
# 1 0.025112 -0.001203 -0.009139 0.000000 0.014403 0.000000
# 2 -0.001203 0.008779 -0.005733 0.000000 -0.000792 0.000000
# 3 -0.009139 -0.005733 0.022605 0.000000 0.004797 0.000000
# 4 0.000000 0.000000 0.000000 0.039071 0.000000 0.015065
# 5 0.014403 -0.000792 0.004797 0.000000 0.042135 0.000000
# 6 0.000000 0.000000 0.000000 0.015065 0.000000 0.036107
#
#
# Mechanical properties :
#
#
# Convention : Reuss Voigt Hill
#
# Bulk Modulus (GPa) = 41.07457 67.25786 54.16622
# Shear Modulus (GPa) = 23.35618 31.47956 27.41787
#
# Velocity S-wave (km/s) = 3.56073 4.13383 3.85794
# Velocity P-wave (km/s) = 6.26117 7.70035 7.01775
#
# Compressibility (1/GPa) = 0.02434596
#
# Stress axis : x y z
#
# Youngs Moduli (GPa) = 39.82085 113.90404 44.23798
#
# Poissons Ratio (x) = 0.13707 0.40430
# Poissons Ratio (y) = 0.04792 0.25361
# Poissons Ratio (z) = 0.36393 0.65298
#
# Static dielectric constant tensor:
#      x y z
#    x 3.732580 0.000000 -0.983460 
#    y 0.000000 3.764820 0.000000 
#    z -0.983460 0.000000 3.396980 
# 
# 
# High freq. dielectric constant tensor:
#      x y z
#    x 1.696670 0.000000 -0.060670 
#    y 0.000000 1.731690 0.000000 
#    z -0.060670 0.000000 1.682680 
# 
# From -- ./inp_files/31321.got.cif
#   From: 2010.06.25/outbox.cif.g09.slc.cpg/sg15_16_cif.got.tgz:31321.got - 2010.06.28 07:06:18.
