data_PCOD8129630
_publ_section_title
;
Structure prediction by ZEFSAII (Michael W. Deem and Ramdas Pophale) SiO2 
 PCOD8129630
Probable space group: C 2/C
;
_chemical_formula_sum "Si O2"
_cell_formula_units_Z 64
_cell_length_a 13.086785
_cell_length_b 18.931569
_cell_length_c 19.235768
_cell_angle_alpha 90.000000
_cell_angle_beta 50.756932
_cell_angle_gamma 90.000000
_cell_volume 3690.908257
_symmetry_space_group_name_H-M "C 2/C"
_symmetry_group_IT_number 15
_symmetry_cell_setting 'monoclinic'
loop_
_space_group_symop_operation_xyz
x,y,z
-x,y,1/2-z
-x,-y,-z
x,-y,1/2+z
1/2+x,1/2+y,z
1/2-x,1/2+y,1/2-z
1/2-x,1/2-y,-z
1/2+x,1/2-y,1/2+z
loop_
_atom_site_type_symbol
_atom_site_label
_atom_site_fract_x
_atom_site_fract_y
_atom_site_fract_z
Si Si1 0.800093 0.999990 0.133818
Si Si2 0.210591 0.398029 0.569313
Si Si3 0.925677 0.210617 0.028821
Si Si4 0.475650 0.773056 0.864180
Si Si5 0.640056 0.487509 0.105047
Si Si6 0.152468 0.944672 0.246868
Si Si7 0.435654 0.410265 0.970065
Si Si8 0.808990 0.213640 0.817970
O O1 0.756203 0.973985 0.229513
O O2 0.688391 0.046996 0.143147
O O3 0.832643 0.930683 0.074647
O O4 0.929482 0.047595 0.080447
O O5 0.328243 0.345420 0.536506
O O6 0.076986 0.353804 0.614587
O O7 0.252052 0.441535 0.482769
O O8 0.844341 0.265544 0.111230
O O9 0.033321 0.172984 0.033191
O O10 0.996595 0.250517 0.934813
O O11 0.375077 0.720130 0.866372
O O12 0.616991 0.768878 0.765061
O O13 0.682485 0.494349 0.167297
O O14 0.499422 0.447075 0.163157
O O15 0.626683 0.566451 0.077681
O O16 0.184678 0.864627 0.214174
#
# Coordination Sequence:
#
# PCOD8129630 Si02
#       8
#     8   8   8   8   8   8   8   8
#     4   8  14  22  35  50  71 105 132 161 195 237
#     4   9  15  24  34  49  74 107 135 156 197 239
#     4  10  16  24  36  50  78 112 133 158 196 238
#     4  10  17  24  34  51  79 111 133 159 193 238
#     4   9  15  22  35  51  73 104 131 162 196 239
#     4  10  15  22  33  52  79 103 129 162 195 223
#     4   8  14  23  33  49  72 105 134 156 197 238
#     4  10  18  23  33  54  79 107 136 159 188 245
#
# _framework density 17.339905000000002
#
# number of rings (size 3 to 8) (size 9 to 14) (size 15 to 20)
#    0.000    2.750    0.000    8.250    0.000    0.000 
#    0.000    0.000    0.000    0.000    0.000    0.000 
#    0.000  177.000    0.000  639.000    0.000    0.000 
#
# Total GULP energy -396462.960450 kJ/mol
# GULP energy per Si atom -12389.467514 kJ/mol
# Density = 1.730044 g / cm^3
# Si number density = 17.339905 Si / 1000 Ang^3
#
#
#
# Elastic Constant Matrix: (Units=GPa)
#
#
# Indices 1 2 3 4 5 6 
#
# 1 31.5547 39.5942 43.1042 0.0000 18.0176 0.0000
# 2 39.5942 80.6032 54.2255 0.0000 20.2930 0.0000
# 3 43.1042 54.2255 109.6089 -0.0002 31.0315 0.0001
# 4 0.0000 0.0000 -0.0002 24.8033 0.0001 3.7689
# 5 18.0176 20.2930 31.0315 0.0001 18.9900 0.0000
# 6 0.0000 0.0000 0.0001 3.7689 0.0000 18.9968
#
#
#
# Elastic Compliance Matrix: (Units=1/GPa)
#
#
# Indices 1 2 3 4 5 6 
#
# 1 0.150539 -0.045276 -0.018724 0.000000 -0.063851 0.000000
# 2 -0.045276 0.033079 -0.001328 0.000000 0.009781 0.000000
# 3 -0.018724 -0.001328 0.021796 0.000000 -0.016432 0.000000
# 4 0.000000 0.000000 0.000000 0.041570 -0.000001 -0.008247
# 5 -0.063851 0.009781 -0.016432 -0.000001 0.129640 0.000000
# 6 0.000000 0.000000 0.000000 -0.008247 0.000000 0.054277
#
#
# Mechanical properties :
#
#
# Convention : Reuss Voigt Hill
#
# Bulk Modulus (GPa) = 13.37696 55.06827 34.22262
# Shear Modulus (GPa) = 8.52548 18.21420 13.36984
#
# Velocity S-wave (km/s) = 2.21976 3.24454 2.77978
# Velocity P-wave (km/s) = 3.78168 6.77223 5.48471
#
# Compressibility (1/GPa) = 0.07475540
#
# Stress axis : x y z
#
# Youngs Moduli (GPa) = 6.64279 30.23105 45.88016
#
# Poissons Ratio (x) = 1.36875 0.85907
# Poissons Ratio (y) = 0.30076 0.06095
# Poissons Ratio (z) = 0.12438 0.04016
#
# Static dielectric constant tensor:
#      x y z
#    x 2.935640 0.000000 0.299810 
#    y 0.000000 3.317510 0.000000 
#    z 0.299810 0.000000 3.411160 
# 
# 
# High freq. dielectric constant tensor:
#      x y z
#    x 1.595690 0.000000 0.025100 
#    y 0.000000 1.648420 0.000000 
#    z 0.025100 0.000000 1.677360 
# 
# From -- ./inp_files/200181.got.cif
#   From: 2010.06.25/outbox.cif.g09.slc.cpg/sg15_101_cif.got.tgz:200181.got - 2010.06.28 07:06:18.
