data_PCOD8129814
_publ_section_title
;
Structure prediction by ZEFSAII (Michael W. Deem and Ramdas Pophale) SiO2 
 PCOD8129814
Probable space group: C 2/C
;
_chemical_formula_sum "Si O2"
_cell_formula_units_Z 52
_cell_length_a 14.463356
_cell_length_b 30.140209
_cell_length_c 9.015133
_cell_angle_alpha 90.000000
_cell_angle_beta 133.201314
_cell_angle_gamma 90.000000
_cell_volume 2864.751520
_symmetry_space_group_name_H-M "C 2/C"
_symmetry_group_IT_number 15
_symmetry_cell_setting 'monoclinic'
loop_
_space_group_symop_operation_xyz
x,y,z
-x,y,1/2-z
-x,-y,-z
x,-y,1/2+z
1/2+x,1/2+y,z
1/2-x,1/2+y,1/2-z
1/2-x,1/2-y,-z
1/2+x,1/2-y,1/2+z
loop_
_atom_site_type_symbol
_atom_site_label
_atom_site_fract_x
_atom_site_fract_y
_atom_site_fract_z
Si Si1 0.670365 0.181676 0.686797
Si Si2 0.890907 0.867392 0.311857
Si Si3 0.500000 0.794320 0.750000
Si Si4 0.826207 0.731843 0.307705
Si Si5 0.162797 0.147765 0.079191
Si Si6 0.922531 0.940201 0.929018
Si Si7 0.500000 0.505279 0.250000
Si Si8 0.500000 0.206455 0.750000
O O1 0.787792 0.147583 0.820383
O O2 0.570359 0.173129 0.444090
O O3 0.719259 0.231499 0.708429
O O4 0.600013 0.176698 0.767147
O O5 0.017998 0.836469 0.457929
O O6 0.936247 0.917989 0.390685
O O7 0.822373 0.860404 0.079616
O O8 0.599600 0.763257 0.767974
O O9 0.763205 0.682994 0.248540
O O10 0.924289 0.737254 0.551165
O O11 0.183278 0.098884 0.177684
O O12 0.907015 0.975941 0.044241
O O13 0.912987 0.963702 0.759296
#
# Coordination Sequence:
#
# PCOD8129814 Si02
#       8
#     8   8   4   8   8   8   4   4
#     4  11  22  37  54  70 106 140 185 233 265 315
#     4   9  18  33  53  81 106 140 173 218 269 320
#     4  10  22  30  53  80  86 127 190 217 265 300
#     4  11  22  37  54  70 106 140 185 233 265 315
#     4   9  18  33  53  81 106 140 173 218 269 320
#     4   9  18  30  51  83 117 145 166 208 269 336
#     4  10  16  30  50  80 122 144 164 206 262 344
#     4  10  26  38  43  72  98 141 188 219 269 304
#
# _framework density 18.15166
#
# number of rings (size 3 to 8) (size 9 to 14) (size 15 to 20)
#    0.923    1.231    3.077    0.923    4.308    1.231 
#    0.000    0.000    0.000    0.000    0.000    0.000 
#    0.000   86.154    0.000    0.000    0.000    0.000 
#
# Total GULP energy -322104.495637 kJ/mol
# GULP energy per Si atom -12388.634448 kJ/mol
# Density = 1.811035 g / cm^3
# Si number density = 18.151660 Si / 1000 Ang^3
#
#
#
# Elastic Constant Matrix: (Units=GPa)
#
#
# Indices 1 2 3 4 5 6 
#
# 1 136.7149 33.0944 27.8252 0.0000 -10.2592 0.0000
# 2 33.0944 88.6223 22.4668 0.0000 -0.2948 0.0000
# 3 27.8252 22.4668 62.2491 0.0000 -13.1542 0.0000
# 4 0.0000 0.0000 0.0000 8.5102 0.0000 -2.8264
# 5 -10.2592 -0.2948 -13.1542 0.0000 26.3021 0.0000
# 6 0.0000 0.0000 0.0000 -2.8264 0.0000 24.3130
#
#
#
# Elastic Compliance Matrix: (Units=1/GPa)
#
#
# Indices 1 2 3 4 5 6 
#
# 1 0.008598 -0.002577 -0.002472 0.000000 0.002089 0.000000
# 2 -0.002577 0.013324 -0.004291 0.000000 -0.003002 0.000000
# 3 -0.002472 -0.004291 0.020691 0.000000 0.009336 0.000000
# 4 0.000000 0.000000 0.000000 0.122224 0.000000 0.014209
# 5 0.002089 -0.003002 0.009336 0.000000 0.043470 0.000000
# 6 0.000000 0.000000 0.000000 0.014209 0.000000 0.042782
#
#
# Mechanical properties :
#
#
# Convention : Reuss Voigt Hill
#
# Bulk Modulus (GPa) = 41.78403 50.48435 46.13419
# Shear Modulus (GPa) = 18.00193 25.43838 21.72016
#
# Velocity S-wave (km/s) = 3.15262 3.74764 3.46293
# Velocity P-wave (km/s) = 6.02673 6.82637 6.43897
#
# Compressibility (1/GPa) = 0.02393259
#
# Stress axis : x y z
#
# Youngs Moduli (GPa) = 116.30365 75.05157 48.33029
#
# Poissons Ratio (x) = 0.19343 0.11946
# Poissons Ratio (y) = 0.29974 0.20740
# Poissons Ratio (z) = 0.28748 0.32207
#
# Static dielectric constant tensor:
#      x y z
#    x 3.469570 0.000000 -0.119100 
#    y 0.000000 3.092420 0.000000 
#    z -0.119100 0.000000 3.178360 
# 
# 
# High freq. dielectric constant tensor:
#      x y z
#    x 1.701330 0.000000 -0.019360 
#    y 0.000000 1.668710 0.000000 
#    z -0.019360 0.000000 1.690430 
# 
# From -- ./inp_files/44355.got.cif
#   From: 2010.06.25/outbox.cif.g09.slc.cpg/sg15_23_cif.got.tgz:44355.got - 2010.06.28 07:06:18.
