data_PCOD8129945
_publ_section_title
;
Structure prediction by ZEFSAII (Michael W. Deem and Ramdas Pophale) SiO2 
 PCOD8129945
Probable space group: C 2/C
;
_chemical_formula_sum "Si O2"
_cell_formula_units_Z 56
_cell_length_a 25.521810
_cell_length_b 21.681539
_cell_length_c 11.946550
_cell_angle_alpha 90.000000
_cell_angle_beta 27.445305
_cell_angle_gamma 90.000000
_cell_volume 3046.858955
_symmetry_space_group_name_H-M "C 2/C"
_symmetry_group_IT_number 15
_symmetry_cell_setting 'monoclinic'
loop_
_space_group_symop_operation_xyz
x,y,z
-x,y,1/2-z
-x,-y,-z
x,-y,1/2+z
1/2+x,1/2+y,z
1/2-x,1/2+y,1/2-z
1/2-x,1/2-y,-z
1/2+x,1/2-y,1/2+z
loop_
_atom_site_type_symbol
_atom_site_label
_atom_site_fract_x
_atom_site_fract_y
_atom_site_fract_z
Si Si1 0.268528 0.818683 0.255655
Si Si2 0.225216 0.125037 0.075631
Si Si3 0.104287 0.290076 0.133897
Si Si4 0.854767 0.886027 0.191994
Si Si5 0.000000 0.737217 0.250000
Si Si6 0.375754 0.497729 0.288093
Si Si7 0.000000 0.961652 0.750000
Si Si8 0.488489 0.293693 0.498198
O O1 0.254713 0.855751 0.394947
O O2 0.185865 0.759039 0.416275
O O3 0.246970 0.865788 0.194824
O O4 0.398326 0.801952 0.993836
O O5 0.204803 0.051434 0.110135
O O6 0.110375 0.156897 0.335916
O O7 0.326008 0.147190 0.968566
O O8 0.000000 0.307237 0.250000
O O9 0.059834 0.262636 0.336019
O O10 0.904423 0.822874 0.144166
O O11 0.815973 0.933235 0.364278
O O12 0.953362 0.917499 0.933562
O O13 0.041078 0.776313 0.278348
O O14 0.398389 0.499478 0.380793
O O15 0.500000 0.500000 0.000000
#
# Coordination Sequence:
#
# PCOD8129945 Si02
#       8
#     8   8   8   8   4   8   4   8
#     4  11  21  37  63  81 123 164 202 244 307 373
#     4  11  19  38  61  89 115 165 209 242 295 375
#     4  11  20  37  65  90 114 163 210 248 295 370
#     4  11  20  35  56  87 118 157 194 247 303 363
#     4  12  24  37  54  90 124 165 196 250 308 360
#     4  10  20  32  59  88 117 145 198 247 301 353
#     4  10  16  33  58  82 114 149 190 240 300 360
#     4  11  20  35  58  90 122 154 200 246 304 366
#
# _framework density 18.379584000000001
#
# number of rings (size 3 to 8) (size 9 to 14) (size 15 to 20)
#    0.000    1.143    8.571    1.714    0.000    1.143 
#    0.000    0.000    1.571    0.857    0.000    0.000 
#    0.000    0.000    0.000    0.000    0.000    0.000 
#
# Total GULP energy -346968.733957 kJ/mol
# GULP energy per Si atom -12391.740498 kJ/mol
# Density = 1.833775 g / cm^3
# Si number density = 18.379584 Si / 1000 Ang^3
#
#
#
# Elastic Constant Matrix: (Units=GPa)
#
#
# Indices 1 2 3 4 5 6 
#
# 1 106.2266 42.9621 15.3932 -0.0001 -6.7019 0.0001
# 2 42.9621 79.9328 23.0861 0.0000 -4.9932 0.0000
# 3 15.3932 23.0861 53.7308 -0.0003 -0.7652 0.0001
# 4 -0.0001 0.0000 -0.0003 15.7960 0.0001 -0.5436
# 5 -6.7019 -4.9932 -0.7652 0.0001 28.5638 -0.0001
# 6 0.0001 0.0000 0.0001 -0.5436 -0.0001 27.2322
#
#
#
# Elastic Compliance Matrix: (Units=1/GPa)
#
#
# Indices 1 2 3 4 5 6 
#
# 1 0.012142 -0.006187 -0.000795 0.000000 0.001746 0.000000
# 2 -0.006187 0.017593 -0.005766 0.000000 0.001469 0.000000
# 3 -0.000795 -0.005766 0.021307 0.000000 -0.000624 0.000000
# 4 0.000000 0.000000 0.000000 0.063351 0.000000 0.001265
# 5 0.001746 0.001469 -0.000624 0.000000 0.035659 0.000000
# 6 0.000000 0.000000 0.000000 0.001265 0.000000 0.036747
#
#
# Mechanical properties :
#
#
# Convention : Reuss Voigt Hill
#
# Bulk Modulus (GPa) = 39.14467 44.75255 41.94861
# Shear Modulus (GPa) = 22.64398 24.88165 23.76281
#
# Velocity S-wave (km/s) = 3.51382 3.68335 3.59958
# Velocity P-wave (km/s) = 6.14872 6.51854 6.33632
#
# Compressibility (1/GPa) = 0.02554626
#
# Stress axis : x y z
#
# Youngs Moduli (GPa) = 82.36214 56.84112 46.93193
#
# Poissons Ratio (x) = 0.35168 0.03732
# Poissons Ratio (y) = 0.50958 0.27059
# Poissons Ratio (z) = 0.06549 0.32772
#
# Static dielectric constant tensor:
#      x y z
#    x 3.199500 0.000000 -0.764720 
#    y 0.000000 3.612040 0.000000 
#    z -0.764720 0.000000 2.428100 
# 
# 
# High freq. dielectric constant tensor:
#      x y z
#    x 1.731630 0.000000 0.006370 
#    y 0.000000 1.693990 0.000000 
#    z 0.006370 0.000000 1.674800 
# 
# From -- ./inp_files/90439.got.cif
#   From: 2010.06.25/outbox.cif.g09.slc.cpg/sg15_46_cif.got.tgz:90439.got - 2010.06.28 07:06:18.
