data_PCOD8129106
_publ_section_title
;
Structure prediction by ZEFSAII (Michael W. Deem and Ramdas Pophale) SiO2 
 PCOD8129106
Probable space group: P 21/C
;
_chemical_formula_sum "Si O2"
_cell_formula_units_Z 16
_cell_length_a 9.623883
_cell_length_b 7.024578
_cell_length_c 17.814357
_cell_angle_alpha 90.000000
_cell_angle_beta 151.426745
_cell_angle_gamma 90.000000
_cell_volume 576.002990
_symmetry_space_group_name_H-M "P 21/C"
_symmetry_group_IT_number 14
_symmetry_cell_setting 'monoclinic'
loop_
_space_group_symop_operation_xyz
x,y,z
-x,1/2+y,1/2-z
-x,-y,-z
x,1/2-y,1/2+z
loop_
_atom_site_type_symbol
_atom_site_label
_atom_site_fract_x
_atom_site_fract_y
_atom_site_fract_z
Si Si1 0.070352 0.111132 0.306677
Si Si2 0.915028 0.265559 0.382177
Si Si3 0.572996 0.992941 0.822059
Si Si4 0.633457 0.261078 0.495731
O O1 0.318393 0.214904 0.377365
O O2 0.933629 0.262008 0.301090
O O3 0.797049 0.072947 0.121252
O O4 0.167733 0.928280 0.400585
O O5 0.697721 0.439009 0.301155
O O6 0.236855 0.303286 0.567635
O O7 0.763579 0.070460 0.341121
O O8 0.615470 0.165965 0.901620
#
# Coordination Sequence:
#
# PCOD8129106 Si02
#       4
#     4   4   4   4
#     4  11  24  44  72 104 140 179 226 281 340 407
#     4  11  26  46  70  99 138 181 229 282 340 404
#     4  11  27  47  70 100 137 182 230 282 342 406
#     4  11  25  45  72 105 139 180 227 280 342 407
#
# _framework density 27.777632000000001
#
# number of rings (size 3 to 8) (size 9 to 14) (size 15 to 20)
#    0.000    1.000    0.000    4.500    0.000   21.000 
#    0.000    0.000    0.000    0.000    0.000    0.000 
#    0.000    0.000    0.000    0.000    0.000    0.000 
#
# Total GULP energy -198315.320667 kJ/mol
# GULP energy per Si atom -12394.707542 kJ/mol
# Density = 2.771441 g / cm^3
# Si number density = 27.777632 Si / 1000 Ang^3
#
#
#
# Elastic Constant Matrix: (Units=GPa)
#
#
# Indices 1 2 3 4 5 6 
#
# 1 114.2910 35.3391 24.0698 0.0000 16.5667 0.0000
# 2 35.3391 107.7818 36.0315 0.0000 9.3179 0.0000
# 3 24.0698 36.0315 100.0924 0.0000 21.8257 0.0000
# 4 0.0000 0.0000 0.0000 52.6190 0.0000 -2.7219
# 5 16.5667 9.3179 21.8257 0.0000 27.6658 0.0000
# 6 0.0000 0.0000 0.0000 -2.7219 0.0000 30.8274
#
#
#
# Elastic Compliance Matrix: (Units=1/GPa)
#
#
# Indices 1 2 3 4 5 6 
#
# 1 0.010438 -0.002860 -0.000396 0.000000 -0.004975 0.000000
# 2 -0.002860 0.011341 -0.003545 0.000000 0.000690 0.000000
# 3 -0.000396 -0.003545 0.013346 0.000000 -0.009098 0.000000
# 4 0.000000 0.000000 0.000000 0.019092 0.000000 0.001686
# 5 -0.004975 0.000690 -0.009098 0.000000 0.046070 0.000000
# 6 0.000000 0.000000 0.000000 0.001686 0.000000 0.032588
#
#
# Mechanical properties :
#
#
# Convention : Reuss Voigt Hill
#
# Bulk Modulus (GPa) = 46.46090 57.00509 51.73300
# Shear Modulus (GPa) = 32.54113 37.33741 34.93927
#
# Velocity S-wave (km/s) = 3.42641 3.67025 3.55042
# Velocity P-wave (km/s) = 5.69351 6.20705 5.95582
#
# Compressibility (1/GPa) = 0.02152347
#
# Stress axis : x y z
#
# Youngs Moduli (GPa) = 95.79953 88.17303 74.92891
#
# Poissons Ratio (x) = 0.25219 0.02965
# Poissons Ratio (y) = 0.27400 0.26565
# Poissons Ratio (z) = 0.03791 0.31260
#
# Static dielectric constant tensor:
#      x y z
#    x 4.965610 0.000000 0.241390 
#    y 0.000000 5.097820 0.000000 
#    z 0.241390 0.000000 5.075330 
# 
# 
# High freq. dielectric constant tensor:
#      x y z
#    x 2.130650 0.000000 0.020860 
#    y 0.000000 2.128390 0.000000 
#    z 0.020860 0.000000 2.120110 
# 
# From -- ./inp_files/54736.got.cif
#   From: 2010.03.12/outbox.cif.g09.slc.cpg/sg14_28_cif.got.tgz:54736.got - 2010.03.31 13:35:05.
