data_PCOD8129524
_publ_section_title
;
Structure prediction by ZEFSAII (Michael W. Deem and Ramdas Pophale) SiO2 
 PCOD8129524
Probable space group: P 21/C
;
_chemical_formula_sum "Si O2"
_cell_formula_units_Z 32
_cell_length_a 15.000000
_cell_length_b 12.000000
_cell_length_c 18.000000
_cell_angle_alpha 90.000000
_cell_angle_beta 150.000000
_cell_angle_gamma 90.000000
_cell_volume 1620.000000
_symmetry_space_group_name_H-M "P 21/C"
_symmetry_group_IT_number 14
_symmetry_cell_setting 'monoclinic'
loop_
_space_group_symop_operation_xyz
x,y,z
-x,1/2+y,1/2-z
-x,-y,-z
x,1/2-y,1/2+z
loop_
_atom_site_type_symbol
_atom_site_label
_atom_site_fract_x
_atom_site_fract_y
_atom_site_fract_z
Si Si1 0.178552 0.273189 0.272885
Si Si2 0.552107 0.074339 0.238163
Si Si3 0.318336 0.504768 0.323196
Si Si4 0.178980 0.725490 0.565794
Si Si5 0.850032 0.245074 0.286435
Si Si6 0.514303 0.891087 0.316958
Si Si7 0.780786 0.713183 0.523896
Si Si8 0.498445 0.627729 0.979321
O O1 0.199154 0.397015 0.254752
O O2 0.177689 0.269740 0.360174
O O3 0.340903 0.193253 0.363140
O O4 0.989605 0.224827 0.109786
O O5 0.625495 0.001744 0.222428
O O6 0.683633 0.174883 0.345251
O O7 0.570568 0.011633 0.329843
O O8 0.344151 0.103709 0.073033
O O9 0.500000 0.500000 0.500000
O O10 0.198891 0.613803 0.256697
O O11 0.111765 0.721962 0.601362
O O12 0.309905 0.622635 0.640500
O O13 0.025979 0.288817 0.373277
O O14 0.686788 0.313839 0.132448
O O15 0.666725 0.807122 0.397843
O O16 0.521998 0.865631 0.408970
O O17 0.500000 0.500000 0.000000
#
# Coordination Sequence:
#
# PCOD8129524 Si02
#       8
#     4   4   4   4   4   4   4   4
#     4  11  22  40  62  90 119 153 199 249 293 350
#     4  10  21  39  61  87 120 156 196 245 297 348
#     4  11  20  39  66  88 118 155 198 250 298 346
#     4   9  22  39  58  88 121 153 198 242 295 357
#     4  10  22  40  60  87 119 156 195 242 298 352
#     4   9  21  41  58  82 123 157 192 245 293 349
#     4  10  22  39  58  87 121 151 193 245 295 347
#     4  10  22  42  60  82 121 162 196 237 297 360
#
# _framework density 19.753086
#
# number of rings (size 3 to 8) (size 9 to 14) (size 15 to 20)
#    0.000    2.000    2.500    1.500    3.500    5.000 
#    4.500    2.500    0.000    0.000    0.000    0.000 
#    0.000    0.000    0.000    0.000    0.000    0.000 
#
# Total GULP energy -396471.734592 kJ/mol
# GULP energy per Si atom -12389.741706 kJ/mol
# Density = 1.970813 g / cm^3
# Si number density = 19.753086 Si / 1000 Ang^3
#
#
#
# Elastic Constant Matrix: (Units=GPa)
#
#
# Indices 1 2 3 4 5 6 
#
# 1 78.7308 38.9407 47.3345 0.0000 35.2901 0.0000
# 2 38.9407 88.2878 29.0814 0.0000 10.3621 0.0000
# 3 47.3345 29.0814 134.3953 0.0000 15.6594 0.0000
# 4 0.0000 0.0000 0.0000 17.1890 0.0000 -8.4709
# 5 35.2901 10.3621 15.6594 0.0000 26.9543 0.0000
# 6 0.0000 0.0000 0.0000 -8.4709 0.0000 25.2076
#
#
#
# Elastic Compliance Matrix: (Units=1/GPa)
#
#
# Indices 1 2 3 4 5 6 
#
# 1 0.046372 -0.011837 -0.007752 0.000000 -0.051659 0.000000
# 2 -0.011837 0.015512 -0.000320 0.000000 0.009720 0.000000
# 3 -0.007752 -0.000320 0.009700 0.000000 0.004637 0.000000
# 4 0.000000 0.000000 0.000000 0.069724 0.000000 0.023430
# 5 -0.051659 0.009720 0.004637 0.000000 0.098304 0.000000
# 6 0.000000 0.000000 0.000000 0.023430 0.000000 0.047544
#
#
# Mechanical properties :
#
#
# Convention : Reuss Voigt Hill
#
# Bulk Modulus (GPa) = 31.47974 59.12524 45.30249
# Shear Modulus (GPa) = 14.81209 26.27398 20.54304
#
# Velocity S-wave (km/s) = 2.74133 3.65104 3.22839
# Velocity P-wave (km/s) = 5.09814 6.91163 6.07296
#
# Compressibility (1/GPa) = 0.03176647
#
# Stress axis : x y z
#
# Youngs Moduli (GPa) = 21.56475 64.46631 103.09277
#
# Poissons Ratio (x) = 0.76306 0.79917
# Poissons Ratio (y) = 0.25525 0.03302
# Poissons Ratio (z) = 0.16717 0.02065
#
# Static dielectric constant tensor:
#      x y z
#    x 3.687470 0.000000 0.172540 
#    y 0.000000 3.509050 0.000000 
#    z 0.172540 0.000000 3.806220 
# 
# 
# High freq. dielectric constant tensor:
#      x y z
#    x 1.762440 0.000000 0.013420 
#    y 0.000000 1.761810 0.000000 
#    z 0.013420 0.000000 1.783060 
# 
# From -- ./inp_files/55388.got.cif
#   From: 2010.03.12/outbox.ucp.g09.slc.cvg/sg14_28_cif.got.tgz:55388.got - 2010.05.04 20:10:03.
