data_PCOD8129452
_publ_section_title
;
Structure prediction by ZEFSAII (Michael W. Deem and Ramdas Pophale) SiO2 
 PCOD8129452
Probable space group: P 21/C
;
_chemical_formula_sum "Si O2"
_cell_formula_units_Z 16
_cell_length_a 10.657714
_cell_length_b 4.992198
_cell_length_c 17.397967
_cell_angle_alpha 90.000000
_cell_angle_beta 138.306378
_cell_angle_gamma 90.000000
_cell_volume 615.704259
_symmetry_space_group_name_H-M "P 21/C"
_symmetry_group_IT_number 14
_symmetry_cell_setting 'monoclinic'
loop_
_space_group_symop_operation_xyz
x,y,z
-x,1/2+y,1/2-z
-x,-y,-z
x,1/2-y,1/2+z
loop_
_atom_site_type_symbol
_atom_site_label
_atom_site_fract_x
_atom_site_fract_y
_atom_site_fract_z
Si Si1 0.489817 0.163646 0.193488
Si Si2 0.677444 0.141175 0.121999
Si Si3 0.958022 0.097596 0.655883
Si Si4 0.086432 0.412747 0.460222
O O1 0.437654 0.439523 0.213188
O O2 0.640007 0.219387 0.194050
O O3 0.309276 0.042997 0.068622
O O4 0.753719 0.399228 0.108063
O O5 0.864706 0.950823 0.206088
O O6 0.500000 0.000000 0.000000
O O7 0.998245 0.390496 0.641330
O O8 0.955165 0.890211 0.584000
O O9 0.000000 0.500000 0.500000
#
# Coordination Sequence:
#
# PCOD8129452 Si02
#       4
#     4   4   4   4
#     4  12  27  49  77 118 160 213 271 338 412 491
#     4  12  28  53  83 120 167 216 280 344 414 498
#     4  12  27  50  77 119 157 218 271 339 410 488
#     4  12  25  49  78 115 163 209 271 342 412 493
#
# _framework density 25.986502999999999
#
# number of rings (size 3 to 8) (size 9 to 14) (size 15 to 20)
#    0.000    0.000    2.500    6.750    0.000    5.000 
#    0.000    0.000    0.000    0.000    0.000    0.000 
#    0.000    0.000    0.000    0.000    0.000    0.000 
#
# Total GULP energy -198348.539967 kJ/mol
# GULP energy per Si atom -12396.783748 kJ/mol
# Density = 2.592736 g / cm^3
# Si number density = 25.986503 Si / 1000 Ang^3
#
#
#
# Elastic Constant Matrix: (Units=GPa)
#
#
# Indices 1 2 3 4 5 6 
#
# 1 219.4627 61.8895 47.6119 0.0000 -20.8920 0.0000
# 2 61.8895 105.5705 37.3371 0.0000 -10.4385 0.0000
# 3 47.6119 37.3371 132.1630 0.0000 11.1215 0.0000
# 4 0.0000 0.0000 0.0000 46.5114 0.0000 -4.9416
# 5 -20.8920 -10.4385 11.1215 0.0000 49.9780 0.0000
# 6 0.0000 0.0000 0.0000 -4.9416 0.0000 48.8871
#
#
#
# Elastic Compliance Matrix: (Units=1/GPa)
#
#
# Indices 1 2 3 4 5 6 
#
# 1 0.005856 -0.002666 -0.001545 0.000000 0.002235 0.000000
# 2 -0.002666 0.012171 -0.002648 0.000000 0.002017 0.000000
# 3 -0.001545 -0.002648 0.009143 0.000000 -0.003233 0.000000
# 4 0.000000 0.000000 0.000000 0.021733 0.000000 0.002197
# 5 0.002235 0.002017 -0.003233 0.000000 0.022084 0.000000
# 6 0.000000 0.000000 0.000000 0.002197 0.000000 0.020677
#
#
# Mechanical properties :
#
#
# Convention : Reuss Voigt Hill
#
# Bulk Modulus (GPa) = 74.32906 83.43034 78.87970
# Shear Modulus (GPa) = 45.50998 49.76582 47.63790
#
# Velocity S-wave (km/s) = 4.18939 4.38089 4.28621
# Velocity P-wave (km/s) = 7.21570 7.60030 7.41050
#
# Compressibility (1/GPa) = 0.01345369
#
# Stress axis : x y z
#
# Youngs Moduli (GPa) = 170.75799 82.16238 109.37363
#
# Poissons Ratio (x) = 0.21903 0.16895
# Poissons Ratio (y) = 0.45522 0.28959
# Poissons Ratio (z) = 0.26376 0.21754
#
# Static dielectric constant tensor:
#      x y z
#    x 5.058540 0.000000 -0.377310 
#    y 0.000000 4.501820 0.000000 
#    z -0.377310 0.000000 4.581420 
# 
# 
# High freq. dielectric constant tensor:
#      x y z
#    x 2.065210 0.000000 -0.011160 
#    y 0.000000 2.033560 0.000000 
#    z -0.011160 0.000000 2.053160 
# 
# From -- ./inp_files/56487.got.cif
#   From: 2010.03.12/outbox.cif.g09.slc.cpg/sg14_29_cif.got.tgz:56487.got - 2010.03.31 13:35:05.
