data_PCOD8129161
_publ_section_title
;
Structure prediction by ZEFSAII (Michael W. Deem and Ramdas Pophale) SiO2 
 PCOD8129161
Probable space group: P 21/C
;
_chemical_formula_sum "Si O2"
_cell_formula_units_Z 32
_cell_length_a 15.578544
_cell_length_b 8.667001
_cell_length_c 23.067061
_cell_angle_alpha 90.000000
_cell_angle_beta 151.663015
_cell_angle_gamma 90.000000
_cell_volume 1478.316344
_symmetry_space_group_name_H-M "P 21/C"
_symmetry_group_IT_number 14
_symmetry_cell_setting 'monoclinic'
loop_
_space_group_symop_operation_xyz
x,y,z
-x,1/2+y,1/2-z
-x,-y,-z
x,1/2-y,1/2+z
loop_
_atom_site_type_symbol
_atom_site_label
_atom_site_fract_x
_atom_site_fract_y
_atom_site_fract_z
Si Si1 0.075051 0.713337 0.663802
Si Si2 0.977236 0.593035 0.305170
Si Si3 0.796227 0.045827 0.864808
Si Si4 0.770551 0.246550 0.959145
Si Si5 0.255855 0.884083 0.868283
Si Si6 0.387694 0.270175 0.271375
Si Si7 0.851663 0.561887 0.956089
Si Si8 0.645043 0.792670 0.117484
O O1 0.007438 0.588531 0.671279
O O2 0.214878 0.631980 0.703345
O O3 0.177614 0.846590 0.758756
O O4 0.914116 0.789785 0.530695
O O5 0.769282 0.648387 0.169630
O O6 0.047395 0.682397 0.403814
O O7 0.101537 0.637021 0.324721
O O8 0.726954 0.162102 0.872779
O O9 0.668378 0.898908 0.783690
O O10 0.000000 0.000000 0.000000
O O11 0.604022 0.217939 0.903301
O O12 0.793552 0.428552 0.965107
O O13 0.308982 0.062875 0.896149
O O14 0.427517 0.770269 0.982255
O O15 0.319600 0.392075 0.183939
O O16 0.309551 0.315693 0.287614
O O17 0.000000 0.500000 0.000000
#
# Coordination Sequence:
#
# PCOD8129161 Si02
#       8
#     4   4   4   4   4   4   4   4
#     4  12  24  41  72  98 132 180 230 278 343 409
#     4  12  23  46  71  97 139 181 227 285 340 400
#     4  12  21  43  66  96 137 177 220 273 345 406
#     4  12  24  40  67 103 138 176 222 278 341 408
#     4  11  26  46  67 103 132 181 240 276 338 405
#     4  12  23  43  65 101 140 175 224 275 340 404
#     4  12  23  40  68 100 133 176 223 275 339 411
#     4  11  24  46  71  94 138 183 222 288 337 396
#
# _framework density 21.646246000000001
#
# number of rings (size 3 to 8) (size 9 to 14) (size 15 to 20)
#    0.000    0.250    6.250    3.750    0.000    0.500 
#    0.000    3.750    0.000    0.000    0.000    0.000 
#    0.000    0.000    0.000    0.000    0.000    0.000 
#
# Total GULP energy -396844.945516 kJ/mol
# GULP energy per Si atom -12401.404547 kJ/mol
# Density = 2.159698 g / cm^3
# Si number density = 21.646246 Si / 1000 Ang^3
#
#
#
# Elastic Constant Matrix: (Units=GPa)
#
#
# Indices 1 2 3 4 5 6 
#
# 1 100.4601 17.4703 28.0978 0.0000 9.7853 0.0000
# 2 17.4703 83.6368 14.8019 0.0000 5.3722 0.0000
# 3 28.0978 14.8019 81.2810 0.0000 8.9984 0.0000
# 4 0.0000 0.0000 0.0000 35.8058 0.0000 -7.3385
# 5 9.7853 5.3722 8.9984 0.0000 38.1745 0.0000
# 6 0.0000 0.0000 0.0000 -7.3385 0.0000 38.6414
#
#
#
# Elastic Compliance Matrix: (Units=1/GPa)
#
#
# Indices 1 2 3 4 5 6 
#
# 1 0.011382 -0.001651 -0.003426 0.000000 -0.001878 0.000000
# 2 -0.001651 0.012652 -0.001625 0.000000 -0.000974 0.000000
# 3 -0.003426 -0.001625 0.014027 0.000000 -0.002199 0.000000
# 4 0.000000 0.000000 0.000000 0.029060 0.000000 0.005519
# 5 -0.001878 -0.000974 -0.002199 0.000000 0.027332 0.000000
# 6 0.000000 0.000000 0.000000 0.005519 0.000000 0.026927
#
#
# Mechanical properties :
#
#
# Convention : Reuss Voigt Hill
#
# Bulk Modulus (GPa) = 40.55795 42.90199 41.72997
# Shear Modulus (GPa) = 34.96422 36.19152 35.57787
#
# Velocity S-wave (km/s) = 4.02338 4.09339 4.05854
# Velocity P-wave (km/s) = 6.35302 6.49644 6.42513
#
# Compressibility (1/GPa) = 0.02465608
#
# Stress axis : x y z
#
# Youngs Moduli (GPa) = 87.85451 79.04201 71.29148
#
# Poissons Ratio (x) = 0.13047 0.24427
# Poissons Ratio (y) = 0.14501 0.11588
# Poissons Ratio (z) = 0.30102 0.12848
#
# Static dielectric constant tensor:
#      x y z
#    x 3.923570 0.000000 0.029680 
#    y 0.000000 4.372420 0.000000 
#    z 0.029680 0.000000 4.012710 
# 
# 
# High freq. dielectric constant tensor:
#      x y z
#    x 1.856110 0.000000 -0.003410 
#    y 0.000000 1.850110 0.000000 
#    z -0.003410 0.000000 1.845580 
# 
# From -- ./inp_files/73881.got.cif
#   From: 2010.03.12/outbox.cif.g09.slc.cpg/sg14_37_cif.got.tgz:73881.got - 2010.03.31 13:35:05.
