data_PCOD8129708
_publ_section_title
;
Structure prediction by ZEFSAII (Michael W. Deem and Ramdas Pophale) SiO2 
 PCOD8129708
Probable space group: C 2/C
;
_chemical_formula_sum "Si O2"
_cell_formula_units_Z 52
_cell_length_a 25.627183
_cell_length_b 19.906201
_cell_length_c 13.391372
_cell_angle_alpha 90.000000
_cell_angle_beta 154.093606
_cell_angle_gamma 90.000000
_cell_volume 2984.685216
_symmetry_space_group_name_H-M "C 2/C"
_symmetry_group_IT_number 15
_symmetry_cell_setting 'monoclinic'
loop_
_space_group_symop_operation_xyz
x,y,z
-x,y,1/2-z
-x,-y,-z
x,-y,1/2+z
1/2+x,1/2+y,z
1/2-x,1/2+y,1/2-z
1/2-x,1/2-y,-z
1/2+x,1/2-y,1/2+z
loop_
_atom_site_type_symbol
_atom_site_label
_atom_site_fract_x
_atom_site_fract_y
_atom_site_fract_z
Si Si1 0.878283 0.448780 0.593071
Si Si2 0.503500 0.155034 0.436471
Si Si3 0.421531 0.742071 0.946753
Si Si4 0.733446 0.158556 0.720038
Si Si5 0.827337 0.814950 0.595058
Si Si6 0.500000 0.838095 0.250000
Si Si7 0.846105 0.414312 0.131626
O O1 0.783471 0.419356 0.347799
O O2 0.827323 0.506728 0.577914
O O3 0.000000 0.474639 0.750000
O O4 0.903257 0.385640 0.706497
O O5 0.431680 0.216279 0.361976
O O6 0.601408 0.184120 0.526239
O O7 0.570787 0.105139 0.630578
O O8 0.534210 0.692177 0.142738
O O9 0.428328 0.793383 0.049209
O O10 0.296224 0.701870 0.739556
O O11 0.818118 0.168348 0.961584
O O12 0.750000 0.750000 0.500000
O O13 0.783075 0.880934 0.576809
O O14 0.400055 0.884431 0.124650
#
# Coordination Sequence:
#
# PCOD8129708 Si02
#       7
#     8   8   8   8   8   4   8
#     4  10  20  34  47  72 108 137 170 197 257 316
#     4   9  20  32  51  76 100 135 167 214 252 301
#     4  11  18  31  53  76 103 123 171 215 257 299
#     4  10  19  32  51  74 104 137 161 208 261 304
#     4  11  17  32  52  78 101 124 172 219 255 292
#     4  10  16  26  50  78  94 118 162 214 258 280
#     4  10  18  30  51  74 102 128 166 214 249 297
#
# _framework density 17.422272
#
# number of rings (size 3 to 8) (size 9 to 14) (size 15 to 20)
#    0.000    1.846    6.923    0.462    0.000    0.615 
#    0.000    0.769    0.000    0.000    0.000    0.000 
#    0.000    0.000    0.000    0.000    0.000    0.000 
#
# Total GULP energy -322118.107797 kJ/mol
# GULP energy per Si atom -12389.157992 kJ/mol
# Density = 1.738262 g / cm^3
# Si number density = 17.422272 Si / 1000 Ang^3
#
#
#
# Elastic Constant Matrix: (Units=GPa)
#
#
# Indices 1 2 3 4 5 6 
#
# 1 94.4885 53.4683 32.6515 0.0000 18.8371 0.0000
# 2 53.4683 95.2977 39.6110 0.0000 13.6368 0.0000
# 3 32.6515 39.6110 40.9741 0.0000 3.4197 0.0000
# 4 0.0000 0.0000 0.0000 13.7140 0.0000 6.1086
# 5 18.8371 13.6368 3.4197 0.0000 22.1159 0.0000
# 6 0.0000 0.0000 0.0000 6.1086 0.0000 28.5639
#
#
#
# Elastic Compliance Matrix: (Units=1/GPa)
#
#
# Indices 1 2 3 4 5 6 
#
# 1 0.018988 -0.005202 -0.009138 0.000000 -0.011552 0.000000
# 2 -0.005202 0.020613 -0.015288 0.000000 -0.005915 0.000000
# 3 -0.009138 -0.015288 0.045620 0.000000 0.010156 0.000000
# 4 0.000000 0.000000 0.000000 0.080596 0.000000 -0.017236
# 5 -0.011552 -0.005915 0.010156 0.000000 0.057133 0.000000
# 6 0.000000 0.000000 0.000000 -0.017236 0.000000 0.038695
#
#
# Mechanical properties :
#
#
# Convention : Reuss Voigt Hill
#
# Bulk Modulus (GPa) = 38.51485 53.58022 46.04753
# Shear Modulus (GPa) = 15.17194 19.88073 17.52634
#
# Velocity S-wave (km/s) = 2.95419 3.38170 3.17515
# Velocity P-wave (km/s) = 5.81300 6.78738 6.31900
#
# Compressibility (1/GPa) = 0.02596401
#
# Stress axis : x y z
#
# Youngs Moduli (GPa) = 52.66580 48.51214 21.92044
#
# Poissons Ratio (x) = 0.25237 0.20030
# Poissons Ratio (y) = 0.27397 0.33513
# Poissons Ratio (z) = 0.48124 0.74168
#
# Static dielectric constant tensor:
#      x y z
#    x 3.674230 0.000000 -0.003120 
#    y 0.000000 3.260420 0.000000 
#    z -0.003120 0.000000 2.997550 
# 
# 
# High freq. dielectric constant tensor:
#      x y z
#    x 1.691190 0.000000 -0.000110 
#    y 0.000000 1.655480 0.000000 
#    z -0.000110 0.000000 1.636490 
# 
# From -- ./inp_files/146471.got.cif
#   From: 2010.06.25/outbox.cif.g09.slc.cpg/sg15_74_cif.got.tgz:146471.got - 2010.06.28 07:06:18.
