data_PCOD8129292
_publ_section_title
;
Structure prediction by ZEFSAII (Michael W. Deem and Ramdas Pophale) SiO2 
 PCOD8129292
Probable space group: P 21/C
;
_chemical_formula_sum "Si O2"
_cell_formula_units_Z 20
_cell_length_a 5.016651
_cell_length_b 9.979807
_cell_length_c 18.562432
_cell_angle_alpha 90.000000
_cell_angle_beta 116.820988
_cell_angle_gamma 90.000000
_cell_volume 829.355049
_symmetry_space_group_name_H-M "P 21/C"
_symmetry_group_IT_number 14
_symmetry_cell_setting 'monoclinic'
loop_
_space_group_symop_operation_xyz
x,y,z
-x,1/2+y,1/2-z
-x,-y,-z
x,1/2-y,1/2+z
loop_
_atom_site_type_symbol
_atom_site_label
_atom_site_fract_x
_atom_site_fract_y
_atom_site_fract_z
Si Si1 0.582111 0.921606 0.079434
Si Si2 0.672270 0.734340 0.783852
Si Si3 0.167535 0.008635 0.597159
Si Si4 0.253978 0.154265 0.358597
Si Si5 0.757697 0.025892 0.827559
O O1 0.621342 0.762971 0.068723
O O2 0.300240 0.933076 0.097592
O O3 0.891913 0.984277 0.148149
O O4 0.500000 0.000000 0.000000
O O5 0.864446 0.656393 0.869428
O O6 0.827480 0.759976 0.724095
O O7 0.592278 0.882939 0.800402
O O8 0.382668 0.640060 0.740303
O O9 0.510685 0.964740 0.627034
O O10 0.039335 0.905957 0.640774
O O11 0.000000 0.000000 0.500000
#
# Coordination Sequence:
#
# PCOD8129292 Si02
#       5
#     4   4   4   4   4
#     4  11  26  44  73 103 145 187 247 307 377 441
#     4  11  26  48  75 104 148 193 257 299 376 450
#     4  12  28  47  75 111 152 196 248 320 377 442
#     4  11  26  47  71 104 147 194 254 303 374 451
#     4  11  26  44  74 103 139 198 243 307 367 451
#
# _framework density 24.115120999999998
#
# number of rings (size 3 to 8) (size 9 to 14) (size 15 to 20)
#    0.000    0.800    2.000    3.600   11.200    4.800 
#    0.000    0.000    0.000    0.000    0.000    0.000 
#    0.000    0.000    0.000    0.000    0.000    0.000 
#
# Total GULP energy -247791.332287 kJ/mol
# GULP energy per Si atom -12389.566614 kJ/mol
# Density = 2.406023 g / cm^3
# Si number density = 24.115121 Si / 1000 Ang^3
#
#
#
# Elastic Constant Matrix: (Units=GPa)
#
#
# Indices 1 2 3 4 5 6 
#
# 1 84.0315 13.8787 17.2393 0.0000 -7.4300 0.0000
# 2 13.8787 146.7050 18.9295 0.0000 4.1033 0.0000
# 3 17.2393 18.9295 99.9740 0.0000 -1.7161 0.0000
# 4 0.0000 0.0000 0.0000 36.0049 0.0000 -8.1304
# 5 -7.4300 4.1033 -1.7161 0.0000 16.9827 0.0000
# 6 0.0000 0.0000 0.0000 -8.1304 0.0000 41.0232
#
#
#
# Elastic Compliance Matrix: (Units=1/GPa)
#
#
# Indices 1 2 3 4 5 6 
#
# 1 0.012994 -0.001142 -0.001925 0.000000 0.005766 0.000000
# 2 -0.001142 0.007144 -0.001196 0.000000 -0.002347 0.000000
# 3 -0.001925 -0.001196 0.010570 0.000000 0.000515 0.000000
# 4 0.000000 0.000000 0.000000 0.029075 0.000000 0.005762
# 5 0.005766 -0.002347 0.000515 0.000000 0.062025 0.000000
# 6 0.000000 0.000000 0.000000 0.005762 0.000000 0.025519
#
#
# Mechanical properties :
#
#
# Convention : Reuss Voigt Hill
#
# Bulk Modulus (GPa) = 45.08371 47.86726 46.47549
# Shear Modulus (GPa) = 30.62828 37.51303 34.07065
#
# Velocity S-wave (km/s) = 3.56769 3.94836 3.76285
# Velocity P-wave (km/s) = 5.97554 6.37798 6.18004
#
# Compressibility (1/GPa) = 0.02218096
#
# Stress axis : x y z
#
# Youngs Moduli (GPa) = 76.95997 139.96942 94.60808
#
# Poissons Ratio (x) = 0.15986 0.18216
# Poissons Ratio (y) = 0.08790 0.11316
# Poissons Ratio (z) = 0.14818 0.16742
#
# Static dielectric constant tensor:
#      x y z
#    x 4.241080 0.000000 -0.075950 
#    y 0.000000 4.422690 0.000000 
#    z -0.075950 0.000000 4.582560 
# 
# 
# High freq. dielectric constant tensor:
#      x y z
#    x 1.951710 0.000000 -0.012910 
#    y 0.000000 1.976230 0.000000 
#    z -0.012910 0.000000 1.944830 
# 
# From -- ./inp_files/52627.got.cif
#   From: 2010.03.12/outbox.cif.g09.slc.cpg/sg14_27_cif.got.tgz:52627.got - 2010.03.31 13:35:05.
