data_PCOD8129716
_publ_section_title
;
Structure prediction by ZEFSAII (Michael W. Deem and Ramdas Pophale) SiO2 
 PCOD8129716
Probable space group: C 2/C
;
_chemical_formula_sum "Si O2"
_cell_formula_units_Z 48
_cell_length_a 14.425918
_cell_length_b 27.028450
_cell_length_c 14.113416
_cell_angle_alpha 90.000000
_cell_angle_beta 149.096426
_cell_angle_gamma 90.000000
_cell_volume 2826.294024
_symmetry_space_group_name_H-M "C 2/C"
_symmetry_group_IT_number 15
_symmetry_cell_setting 'monoclinic'
loop_
_space_group_symop_operation_xyz
x,y,z
-x,y,1/2-z
-x,-y,-z
x,-y,1/2+z
1/2+x,1/2+y,z
1/2-x,1/2+y,1/2-z
1/2-x,1/2-y,-z
1/2+x,1/2-y,1/2+z
loop_
_atom_site_type_symbol
_atom_site_label
_atom_site_fract_x
_atom_site_fract_y
_atom_site_fract_z
Si Si1 0.043418 0.945416 0.397732
Si Si2 0.662748 0.658552 0.959130
Si Si3 0.343431 0.171730 0.936522
Si Si4 0.848861 0.565980 0.878078
Si Si5 0.090305 0.493682 0.728906
Si Si6 0.883213 0.262531 0.743161
O O1 0.117477 0.889830 0.480429
O O2 0.198092 0.981324 0.572294
O O3 0.000000 0.954840 0.250000
O O4 0.855840 0.953414 0.287977
O O5 0.500000 0.674044 0.750000
O O6 0.826034 0.647949 0.027660
O O7 0.700424 0.706760 0.056732
O O8 0.352552 0.125873 0.872014
O O9 0.174957 0.208729 0.767137
O O10 0.522834 0.205238 0.091859
O O11 0.922892 0.543475 0.845211
O O12 0.979522 0.549760 0.079046
O O13 0.000000 0.504927 0.750000
O O14 0.000000 0.258972 0.750000
#
# Coordination Sequence:
#
# PCOD8129716 Si02
#       6
#     8   8   8   8   8   8
#     4  11  19  33  57  76 107 142 171 211 255 309
#     4  10  16  27  44  66  99 134 164 191 241 304
#     4  11  18  30  42  70  98 133 165 205 243 306
#     4  11  23  35  56  78 105 139 178 209 263 309
#     4  11  22  39  54  78 104 136 177 223 259 306
#     4  10  20  26  43  65 102 137 165 197 245 303
#
# _framework density 16.983371999999999
#
# number of rings (size 3 to 8) (size 9 to 14) (size 15 to 20)
#    0.000    1.333    5.000    5.000    0.000    1.333 
#    0.000    0.000    0.000    0.000    0.000    1.167 
#    0.000    0.000    0.000    0.000    0.000    0.000 
#
# Total GULP energy -297384.040934 kJ/mol
# GULP energy per Si atom -12391.001706 kJ/mol
# Density = 1.694472 g / cm^3
# Si number density = 16.983372 Si / 1000 Ang^3
#
#
#
# Elastic Constant Matrix: (Units=GPa)
#
#
# Indices 1 2 3 4 5 6 
#
# 1 59.4341 37.5286 30.1461 0.0000 -3.8721 0.0000
# 2 37.5286 112.9992 47.0609 0.0000 -2.7637 0.0000
# 3 30.1461 47.0609 90.8912 0.0000 9.1418 0.0000
# 4 0.0000 0.0000 0.0000 19.6190 0.0000 3.7673
# 5 -3.8721 -2.7637 9.1418 0.0000 16.7679 0.0000
# 6 0.0000 0.0000 0.0000 3.7673 0.0000 26.4523
#
#
#
# Elastic Compliance Matrix: (Units=1/GPa)
#
#
# Indices 1 2 3 4 5 6 
#
# 1 0.023619 -0.005178 -0.005941 0.000000 0.007840 0.000000
# 2 -0.005178 0.012888 -0.005342 0.000000 0.003841 0.000000
# 3 -0.005941 -0.005342 0.016891 0.000000 -0.011462 0.000000
# 4 0.000000 0.000000 0.000000 0.052404 0.000000 -0.007463
# 5 0.007840 0.003841 -0.011462 0.000000 0.068330 0.000000
# 6 0.000000 0.000000 0.000000 -0.007463 0.000000 0.038867
#
#
# Mechanical properties :
#
#
# Convention : Reuss Voigt Hill
#
# Bulk Modulus (GPa) = 48.83765 54.75509 51.79637
# Shear Modulus (GPa) = 19.78256 22.47377 21.12817
#
# Velocity S-wave (km/s) = 3.41665 3.64164 3.53094
# Velocity P-wave (km/s) = 6.66207 7.07053 6.86934
#
# Compressibility (1/GPa) = 0.02047600
#
# Stress axis : x y z
#
# Youngs Moduli (GPa) = 42.33816 77.59120 59.20161
#
# Poissons Ratio (x) = 0.40178 0.35174
# Poissons Ratio (y) = 0.21923 0.31625
# Poissons Ratio (z) = 0.25154 0.41449
#
# Static dielectric constant tensor:
#      x y z
#    x 2.804050 0.000000 0.351120 
#    y 0.000000 3.282880 0.000000 
#    z 0.351120 0.000000 3.606460 
# 
# 
# High freq. dielectric constant tensor:
#      x y z
#    x 1.584090 0.000000 0.033540 
#    y 0.000000 1.662590 0.000000 
#    z 0.033540 0.000000 1.674470 
# 
# From -- ./inp_files/149218.got.cif
#   From: 2010.06.25/outbox.cif.g09.slc.cpg/sg15_75_cif.got.tgz:149218.got - 2010.06.28 07:06:18.
