data_PCOD8129127
_publ_section_title
;
Structure prediction by ZEFSAII (Michael W. Deem and Ramdas Pophale) SiO2 
 PCOD8129127
Probable space group: P 21/C
;
_chemical_formula_sum "Si O2"
_cell_formula_units_Z 24
_cell_length_a 14.989898
_cell_length_b 5.484901
_cell_length_c 14.507799
_cell_angle_alpha 90.000000
_cell_angle_beta 123.205148
_cell_angle_gamma 90.000000
_cell_volume 998.036934
_symmetry_space_group_name_H-M "P 21/C"
_symmetry_group_IT_number 14
_symmetry_cell_setting 'monoclinic'
loop_
_space_group_symop_operation_xyz
x,y,z
-x,1/2+y,1/2-z
-x,-y,-z
x,1/2-y,1/2+z
loop_
_atom_site_type_symbol
_atom_site_label
_atom_site_fract_x
_atom_site_fract_y
_atom_site_fract_z
Si Si1 0.762345 0.728676 0.836337
Si Si2 0.532719 0.914150 0.233392
Si Si3 0.550549 0.252520 0.495490
Si Si4 0.858266 0.767833 0.586152
Si Si5 0.080105 0.961046 0.711538
Si Si6 0.758180 0.426361 0.178328
O O1 0.660168 0.550872 0.789323
O O2 0.859084 0.618284 0.831141
O O3 0.718005 0.953882 0.751117
O O4 0.805920 0.818210 0.960323
O O5 0.516699 0.690811 0.298854
O O6 0.463814 0.756005 0.121267
O O7 0.500000 0.500000 0.500000
O O8 0.672540 0.273322 0.597959
O O9 0.500000 0.000000 0.500000
O O10 0.906451 0.550301 0.675069
O O11 0.954989 0.953391 0.616202
O O12 0.767073 0.889676 0.597217
O O13 0.127277 0.689701 0.735913
#
# Coordination Sequence:
#
# PCOD8129127 Si02
#       6
#     4   4   4   4   4   4
#     4  11  26  44  72 103 141 191 246 299 377 439
#     4  12  27  46  71 110 147 188 250 306 365 446
#     4  12  25  46  74 102 147 195 241 303 375 440
#     4  11  24  46  69 105 141 188 244 307 370 444
#     4  11  24  45  69 102 142 187 244 303 375 447
#     4  11  25  44  72 102 142 191 242 300 368 449
#
# _framework density 24.047205999999999
#
# number of rings (size 3 to 8) (size 9 to 14) (size 15 to 20)
#    0.000    0.667    3.333    3.500    7.000    2.000 
#    0.000    0.000    0.000    0.000    0.000    0.000 
#    0.000    0.000    0.000    0.000    0.000    0.000 
#
# Total GULP energy -297319.483811 kJ/mol
# GULP energy per Si atom -12388.311825 kJ/mol
# Density = 2.399247 g / cm^3
# Si number density = 24.047206 Si / 1000 Ang^3
#
#
#
# Elastic Constant Matrix: (Units=GPa)
#
#
# Indices 1 2 3 4 5 6 
#
# 1 91.2713 21.0085 38.7681 0.0000 8.1767 0.0000
# 2 21.0085 84.6927 -1.6223 0.0000 -0.0123 0.0000
# 3 38.7681 -1.6223 141.1903 0.0000 -7.2263 0.0000
# 4 0.0000 0.0000 0.0000 33.7051 0.0000 5.5873
# 5 8.1767 -0.0123 -7.2263 0.0000 39.8611 0.0000
# 6 0.0000 0.0000 0.0000 5.5873 0.0000 35.6688
#
#
#
# Elastic Compliance Matrix: (Units=1/GPa)
#
#
# Indices 1 2 3 4 5 6 
#
# 1 0.013781 -0.003496 -0.004006 0.000000 -0.003554 0.000000
# 2 -0.003496 0.012697 0.001153 0.000000 0.000930 0.000000
# 3 -0.004006 0.001153 0.008315 0.000000 0.002330 0.000000
# 4 0.000000 0.000000 0.000000 0.030460 0.000000 -0.004771
# 5 -0.003554 0.000930 0.002330 0.000000 0.026239 0.000000
# 6 0.000000 0.000000 0.000000 -0.004771 0.000000 0.028783
#
#
# Mechanical properties :
#
#
# Convention : Reuss Voigt Hill
#
# Bulk Modulus (GPa) = 45.25708 48.16254 46.70981
# Shear Modulus (GPa) = 35.62850 39.11365 37.37108
#
# Velocity S-wave (km/s) = 3.85334 4.03741 3.94645
# Velocity P-wave (km/s) = 6.21760 6.46576 6.34290
#
# Compressibility (1/GPa) = 0.02209599
#
# Stress axis : x y z
#
# Youngs Moduli (GPa) = 72.56368 78.76029 120.26305
#
# Poissons Ratio (x) = 0.27532 0.48178
# Poissons Ratio (y) = 0.25366 -0.13870
# Poissons Ratio (z) = 0.29069 -0.09084
#
# Static dielectric constant tensor:
#      x y z
#    x 4.453230 0.000000 -0.245490 
#    y 0.000000 -0.939540 0.000000 
#    z -0.245490 0.000000 2.369590 
# 
# 
# High freq. dielectric constant tensor:
#      x y z
#    x 1.963410 0.000000 0.000150 
#    y 0.000000 1.946660 0.000000 
#    z 0.000150 0.000000 1.961480 
# 
# From -- ./inp_files/45996.got.cif
#   From: 2010.03.12/outbox.cif.g09.slc.cpg/sg14_23_cif.got.tgz:45996.got - 2010.03.31 13:35:05.
