data_PCOD8129567
_publ_section_title
;
Structure prediction by ZEFSAII (Michael W. Deem and Ramdas Pophale) SiO2 
 PCOD8129567
Probable space group: C 2/C
;
_chemical_formula_sum "Si O2"
_cell_formula_units_Z 30
_cell_length_a 15.000000
_cell_length_b 21.000000
_cell_length_c 12.000000
_cell_angle_alpha 90.000000
_cell_angle_beta 60.000000
_cell_angle_gamma 90.000000
_cell_volume 3273.576026
_symmetry_space_group_name_H-M "C 2/C"
_symmetry_group_IT_number 15
_symmetry_cell_setting 'monoclinic'
loop_
_space_group_symop_operation_xyz
x,y,z
-x,y,1/2-z
-x,-y,-z
x,-y,1/2+z
1/2+x,1/2+y,z
1/2-x,1/2+y,1/2-z
1/2-x,1/2-y,-z
1/2+x,1/2-y,1/2+z
loop_
_atom_site_type_symbol
_atom_site_label
_atom_site_fract_x
_atom_site_fract_y
_atom_site_fract_z
Si Si1 0.233886 0.832161 0.702708
Si Si2 0.898778 0.068140 0.601400
Si Si3 0.556229 0.782313 0.945442
Si Si4 0.369516 0.577737 0.064617
Si Si5 0.000000 0.225362 0.750000
Si Si6 0.683847 0.370924 0.133770
Si Si7 0.842274 0.298205 0.180281
Si Si8 0.800423 0.173922 0.538542
O O1 0.358485 0.837952 0.627282
O O2 0.181615 0.894158 0.790374
O O3 0.193145 0.775325 0.807811
O O4 0.205124 0.818541 0.590970
O O5 0.855260 0.076929 0.753072
O O6 0.837297 0.103590 0.542824
O O7 0.013047 0.099312 0.528774
O O8 0.882640 0.996502 0.575881
O O9 0.506506 0.767564 0.857090
O O10 0.617849 0.723104 0.960025
O O11 0.465445 0.804208 0.086244
O O12 0.301979 0.595532 0.996529
O O13 0.102527 0.185029 0.673143
O O14 0.788904 0.340297 0.116237
O O15 0.808937 0.318812 0.327219
#
# Coordination Sequence:
#
# PCOD8129567 Si02
#       8
#     8   8   8   8   4   8   8   8
#     4  11  23  36  56  90 119 148 193 241 282 347
#     4  10  21  38  55  83 111 154 193 231 286 343
#     4  11  22  35  57  89 116 155 191 235 287 349
#     4  11  23  34  58  85 114 153 191 235 291 336
#     4  12  18  34  58  82 124 144 186 242 278 354
#     4  11  20  38  57  84 120 150 189 237 291 347
#     4  10  21  36  59  82 117 158 181 231 300 341
#     4  10  21  40  55  83 121 150 192 235 285 344
#
# _framework density 9.1642899999999994
#
# number of rings (size 3 to 8) (size 9 to 14) (size 15 to 20)
#    0.000    1.333    5.333    3.200    3.733    4.800 
#    0.000    0.000    0.000    3.200    6.933    0.000 
#    0.000    0.000    0.000    0.000    0.000    0.000 
#
# Total GULP energy -371771.693190 kJ/mol
# GULP energy per Si atom -12392.389773 kJ/mol
# Density = 0.914343 g / cm^3
# Si number density = 9.164290 Si / 1000 Ang^3
#
#
#
# Elastic Constant Matrix: (Units=GPa)
#
#
# Indices 1 2 3 4 5 6 
#
# 1 82.3661 27.8623 61.5338 0.0000 -1.6324 0.0000
# 2 27.8623 47.9023 37.3288 0.0000 -4.7368 0.0000
# 3 61.5338 37.3288 136.3507 0.0000 0.6529 0.0000
# 4 0.0000 0.0000 0.0000 26.2125 0.0000 2.4554
# 5 -1.6324 -4.7368 0.6529 0.0000 49.0579 0.0000
# 6 0.0000 0.0000 0.0000 2.4554 0.0000 24.4227
#
#
#
# Elastic Compliance Matrix: (Units=1/GPa)
#
#
# Indices 1 2 3 4 5 6 
#
# 1 0.019466 -0.005665 -0.007235 0.000000 0.000197 0.000000
# 2 -0.005665 0.028537 -0.005269 0.000000 0.002637 0.000000
# 3 -0.007235 -0.005269 0.012046 0.000000 -0.000910 0.000000
# 4 0.000000 0.000000 0.000000 0.038512 0.000000 -0.003872
# 5 0.000197 0.002637 -0.000910 0.000000 0.020657 0.000000
# 6 0.000000 0.000000 0.000000 -0.003872 0.000000 0.041335
#
#
# Mechanical properties :
#
#
# Convention : Reuss Voigt Hill
#
# Bulk Modulus (GPa) = 42.17267 57.78544 49.97906
# Shear Modulus (GPa) = 24.41460 29.26491 26.83975
#
# Velocity S-wave (km/s) = 3.65369 4.00018 3.83086
# Velocity P-wave (km/s) = 6.39206 7.27539 6.84798
#
# Compressibility (1/GPa) = 0.02371204
#
# Stress axis : x y z
#
# Youngs Moduli (GPa) = 51.37106 35.04172 83.01601
#
# Poissons Ratio (x) = 0.19851 0.60062
# Poissons Ratio (y) = 0.29102 0.43739
# Poissons Ratio (z) = 0.37167 0.18463
#
# Static dielectric constant tensor:
#      x y z
#    x 3.555370 0.000000 0.032980 
#    y 0.000000 3.190360 0.000000 
#    z 0.032980 0.000000 3.707050 
# 
# 
# High freq. dielectric constant tensor:
#      x y z
#    x 1.709550 0.000000 0.010010 
#    y 0.000000 1.686820 0.000000 
#    z 0.010010 0.000000 1.731340 
# 
# From -- ./inp_files/99748.got.cif
#   From: 2010.06.25/outbox.ucp.g09.slc.cvg/sg15_50_cif.got.tgz:99748.got - 2010.06.28 14:40:10.
