data_PCOD8129092
_publ_section_title
;
Structure prediction by ZEFSAII (Michael W. Deem and Ramdas Pophale) SiO2 
 PCOD8129092
Probable space group: P 21/C
;
_chemical_formula_sum "Si O2"
_cell_formula_units_Z 24
_cell_length_a 16.101626
_cell_length_b 9.933581
_cell_length_c 13.128150
_cell_angle_alpha 90.000000
_cell_angle_beta 33.149699
_cell_angle_gamma 90.000000
_cell_volume 1148.233375
_symmetry_space_group_name_H-M "P 21/C"
_symmetry_group_IT_number 14
_symmetry_cell_setting 'monoclinic'
loop_
_space_group_symop_operation_xyz
x,y,z
-x,1/2+y,1/2-z
-x,-y,-z
x,1/2-y,1/2+z
loop_
_atom_site_type_symbol
_atom_site_label
_atom_site_fract_x
_atom_site_fract_y
_atom_site_fract_z
Si Si1 0.215543 0.779467 0.171529
Si Si2 0.589030 0.118158 0.852902
Si Si3 0.610265 0.041556 0.608017
Si Si4 0.076691 0.117996 0.984561
Si Si5 0.695205 0.776709 0.412031
Si Si6 0.257420 0.035673 0.993644
O O1 0.269875 0.833837 0.225027
O O2 0.045027 0.728260 0.356681
O O3 0.217308 0.894166 0.085112
O O4 0.330251 0.662372 0.021921
O O5 0.656614 0.062911 0.677829
O O6 0.474685 0.241472 0.949918
O O7 0.500000 0.000000 0.000000
O O8 0.689371 0.904520 0.491976
O O9 0.430205 0.035570 0.778339
O O10 0.148153 0.051486 0.010535
O O11 0.204892 0.194124 0.789239
O O12 0.000000 0.000000 0.000000
O O13 0.770327 0.654089 0.396589
#
# Coordination Sequence:
#
# PCOD8129092 Si02
#       6
#     4   4   4   4   4   4
#     4  12  26  46  73 104 140 185 227 292 342 418
#     4  11  24  45  74 107 134 173 241 286 352 397
#     4  11  24  43  78 103 136 176 233 295 341 404
#     4  12  29  45  66 101 146 186 230 271 354 418
#     4  11  25  46  73 103 140 181 227 291 342 415
#     4  11  26  45  70 103 137 182 234 285 346 404
#
# _framework density 20.901675999999998
#
# number of rings (size 3 to 8) (size 9 to 14) (size 15 to 20)
#    0.000    0.667    5.000    3.000    9.333    2.000 
#    0.000    0.000    0.000    0.000    0.000    0.000 
#    0.000    0.000    0.000    0.000    0.000    0.000 
#
# Total GULP energy -297780.178533 kJ/mol
# GULP energy per Si atom -12407.507439 kJ/mol
# Density = 2.085410 g / cm^3
# Si number density = 20.901676 Si / 1000 Ang^3
#
#
#
# Elastic Constant Matrix: (Units=GPa)
#
#
# Indices 1 2 3 4 5 6 
#
# 1 72.8771 -2.7756 27.6096 0.0000 -8.2157 0.0000
# 2 -2.7756 112.9294 43.1485 0.0000 0.0355 0.0000
# 3 27.6096 43.1485 115.5368 0.0000 4.5895 0.0000
# 4 0.0000 0.0000 0.0000 -15.5158 0.0000 -12.2785
# 5 -8.2157 0.0355 4.5895 0.0000 21.5999 0.0000
# 6 0.0000 0.0000 0.0000 -12.2785 0.0000 26.4544
#
#
#
# Elastic Compliance Matrix: (Units=1/GPa)
#
#
# Indices 1 2 3 4 5 6 
#
# 1 0.016596 0.002372 -0.005146 0.000000 0.007402 0.000000
# 2 0.002372 0.010682 -0.004630 0.000000 0.001868 0.000000
# 3 -0.005146 -0.004630 0.011791 0.000000 -0.004455 0.000000
# 4 0.000000 0.000000 0.000000 -0.047137 0.000000 -0.021878
# 5 0.007402 0.001868 -0.004455 0.000000 0.050055 0.000000
# 6 0.000000 0.000000 0.000000 -0.021878 0.000000 0.027646
#
#
# Mechanical properties :
#
#
# Convention : Reuss Voigt Hill
#
# Bulk Modulus (GPa) = 41.21935 48.58981 44.90458
# Shear Modulus (GPa) = 54.03720 22.06509 38.05115
#
# Velocity S-wave (km/s) = 5.09011 3.25262 4.27134
# Velocity P-wave (km/s) = 7.36946 6.11583 6.77172
#
# Compressibility (1/GPa) = 0.02426045
#
# Stress axis : x y z
#
# Youngs Moduli (GPa) = 60.25572 93.61599 84.80991
#
# Poissons Ratio (x) = -0.22202 0.43640
# Poissons Ratio (y) = -0.14290 0.39269
# Poissons Ratio (z) = 0.31005 0.43347
#
# Static dielectric constant tensor:
#      x y z
#    x 30.281730 0.000000 1.969420 
#    y 0.000000 3.890290 0.000000 
#    z 1.969420 0.000000 4.076950 
# 
# 
# High freq. dielectric constant tensor:
#      x y z
#    x 1.827570 0.000000 0.011120 
#    y 0.000000 1.837250 0.000000 
#    z 0.011120 0.000000 1.819720 
# 
# From -- ./inp_files/48502.got.cif
#   From: 2010.03.12/outbox.cif.g09.slc.cpg/sg14_25_cif.got.tgz:48502.got - 2010.03.31 13:35:05.
