data_PCOD8129430
_publ_section_title
;
Structure prediction by ZEFSAII (Michael W. Deem and Ramdas Pophale) SiO2 
 PCOD8129430
Probable space group: P 21/C
;
_chemical_formula_sum "Si O2"
_cell_formula_units_Z 24
_cell_length_a 10.395175
_cell_length_b 11.642742
_cell_length_c 20.763278
_cell_angle_alpha 90.000000
_cell_angle_beta 26.293902
_cell_angle_gamma 90.000000
_cell_volume 1113.173795
_symmetry_space_group_name_H-M "P 21/C"
_symmetry_group_IT_number 14
_symmetry_cell_setting 'monoclinic'
loop_
_space_group_symop_operation_xyz
x,y,z
-x,1/2+y,1/2-z
-x,-y,-z
x,1/2-y,1/2+z
loop_
_atom_site_type_symbol
_atom_site_label
_atom_site_fract_x
_atom_site_fract_y
_atom_site_fract_z
Si Si1 0.237376 0.373274 0.247060
Si Si2 0.739652 0.910255 0.117549
Si Si3 0.232363 0.232907 0.505343
Si Si4 0.169146 0.672274 0.083993
Si Si5 0.835969 0.371628 0.767955
Si Si6 0.891406 0.011783 0.621041
O O1 0.316845 0.360898 0.286257
O O2 0.179313 0.504955 0.257723
O O3 0.949249 0.301999 0.358895
O O4 0.500884 0.322911 0.087444
O O5 0.817595 0.802130 0.038143
O O6 0.453651 0.973984 0.220328
O O7 0.000000 0.000000 0.000000
O O8 0.568030 0.205504 0.364781
O O9 0.126359 0.308356 0.613501
O O10 0.050274 0.116557 0.584481
O O11 0.158476 0.612154 0.158213
O O12 0.966659 0.602861 0.125945
O O13 0.000000 0.000000 0.500000
#
# Coordination Sequence:
#
# PCOD8129430 Si02
#       6
#     4   4   4   4   4   4
#     4  12  27  47  71 108 144 189 241 302 353 429
#     4  12  26  45  73 106 145 182 241 296 361 421
#     4  12  25  45  74 104 144 190 235 295 361 433
#     4  12  28  45  76 102 147 191 242 295 360 430
#     4  12  26  49  71 106 147 193 238 294 364 434
#     4  12  25  47  73 105 138 190 240 298 362 420
#
# _framework density 21.559975999999999
#
# number of rings (size 3 to 8) (size 9 to 14) (size 15 to 20)
#    0.000    0.000    6.667    2.500    4.667    0.000 
#    0.000    2.500    0.000    0.000    0.000    0.000 
#    0.000    0.000    0.000    0.000    0.000    0.000 
#
# Total GULP energy -297836.273748 kJ/mol
# GULP energy per Si atom -12409.844740 kJ/mol
# Density = 2.151090 g / cm^3
# Si number density = 21.559976 Si / 1000 Ang^3
#
#
#
# Elastic Constant Matrix: (Units=GPa)
#
#
# Indices 1 2 3 4 5 6 
#
# 1 95.8581 22.9870 1.5074 0.0000 26.2350 0.0000
# 2 22.9870 102.2629 53.3230 0.0000 -1.1415 0.0000
# 3 1.5074 53.3230 73.7936 0.0000 13.3222 0.0000
# 4 0.0000 0.0000 0.0000 42.1956 0.0000 -5.5631
# 5 26.2350 -1.1415 13.3222 0.0000 44.7874 0.0000
# 6 0.0000 0.0000 0.0000 -5.5631 0.0000 22.7232
#
#
#
# Elastic Compliance Matrix: (Units=1/GPa)
#
#
# Indices 1 2 3 4 5 6 
#
# 1 0.015012 -0.007013 0.006743 0.000000 -0.010978 0.000000
# 2 -0.007013 0.019671 -0.015748 0.000000 0.009294 0.000000
# 3 0.006743 -0.015748 0.027030 0.000000 -0.012391 0.000000
# 4 0.000000 0.000000 0.000000 0.024490 0.000000 0.005996
# 5 -0.010978 0.009294 -0.012391 0.000000 0.032681 0.000000
# 6 0.000000 0.000000 0.000000 0.005996 0.000000 0.045476
#
#
# Mechanical properties :
#
#
# Convention : Reuss Voigt Hill
#
# Bulk Modulus (GPa) = 33.69719 47.50550 40.60135
# Shear Modulus (GPa) = 24.23782 34.88104 29.55943
#
# Velocity S-wave (km/s) = 3.35655 4.02663 3.70676
# Velocity P-wave (km/s) = 5.53944 6.61062 6.09859
#
# Compressibility (1/GPa) = 0.02967607
#
# Stress axis : x y z
#
# Youngs Moduli (GPa) = 66.61192 50.83733 36.99536
#
# Poissons Ratio (x) = 0.35652 -0.24945
# Poissons Ratio (y) = 0.46715 0.58262
# Poissons Ratio (z) = -0.44915 0.80061
#
# Static dielectric constant tensor:
#      x y z
#    x 4.026690 0.000000 0.083840 
#    y 0.000000 4.040440 0.000000 
#    z 0.083840 0.000000 4.052130 
# 
# 
# High freq. dielectric constant tensor:
#      x y z
#    x 1.854270 0.000000 0.007460 
#    y 0.000000 1.855710 0.000000 
#    z 0.007460 0.000000 1.861480 
# 
# From -- ./inp_files/73275.got.cif
#   From: 2010.03.12/outbox.cif.g09.slc.cpg/sg14_37_cif.got.tgz:73275.got - 2010.03.31 13:35:05.
