data_PCOD8129170
_publ_section_title
;
Structure prediction by ZEFSAII (Michael W. Deem and Ramdas Pophale) SiO2 
 PCOD8129170
Probable space group: P 21/C
;
_chemical_formula_sum "Si O2"
_cell_formula_units_Z 16
_cell_length_a 9.322106
_cell_length_b 5.098532
_cell_length_c 18.542227
_cell_angle_alpha 90.000000
_cell_angle_beta 137.245565
_cell_angle_gamma 90.000000
_cell_volume 598.273483
_symmetry_space_group_name_H-M "P 21/C"
_symmetry_group_IT_number 14
_symmetry_cell_setting 'monoclinic'
loop_
_space_group_symop_operation_xyz
x,y,z
-x,1/2+y,1/2-z
-x,-y,-z
x,1/2-y,1/2+z
loop_
_atom_site_type_symbol
_atom_site_label
_atom_site_fract_x
_atom_site_fract_y
_atom_site_fract_z
Si Si1 0.102865 0.149077 0.717043
Si Si2 0.372529 0.053148 0.217729
Si Si3 0.008203 0.778545 0.563180
Si Si4 0.745900 0.986639 0.073972
O O1 0.281910 0.364224 0.762161
O O2 0.125943 0.130724 0.810979
O O3 0.861028 0.232752 0.606565
O O4 0.140600 0.892250 0.681594
O O5 0.535399 0.813314 0.286815
O O6 0.163995 0.961342 0.093429
O O7 0.784963 0.681274 0.514939
O O8 0.000000 0.000000 0.500000
O O9 0.500000 0.000000 0.000000
#
# Coordination Sequence:
#
# PCOD8129170 Si02
#       4
#     4   4   4   4
#     4  11  24  49  77 116 163 208 277 342 398 507
#     4  11  24  46  78 114 157 212 259 331 417 481
#     4  11  26  48  76 116 166 205 280 343 409 501
#     4  11  26  48  81 115 164 220 273 340 424 488
#
# _framework density 26.743618000000001
#
# number of rings (size 3 to 8) (size 9 to 14) (size 15 to 20)
#    0.000    1.000    5.000    0.000    0.000   11.000 
#    0.000    0.000    0.000    0.000    0.000    0.000 
#    0.000    0.000    0.000    0.000    0.000    0.000 
#
# Total GULP energy -198217.661524 kJ/mol
# GULP energy per Si atom -12388.603845 kJ/mol
# Density = 2.668275 g / cm^3
# Si number density = 26.743618 Si / 1000 Ang^3
#
#
#
# Elastic Constant Matrix: (Units=GPa)
#
#
# Indices 1 2 3 4 5 6 
#
# 1 187.5771 49.1496 41.7493 0.0000 24.7105 0.0000
# 2 49.1496 79.3972 -14.0542 0.0000 16.7694 0.0000
# 3 41.7493 -14.0542 53.2561 0.0000 7.8254 0.0000
# 4 0.0000 0.0000 0.0000 29.5344 0.0000 2.5213
# 5 24.7105 16.7694 7.8254 0.0000 58.0581 0.0000
# 6 0.0000 0.0000 0.0000 2.5213 0.0000 51.7001
#
#
#
# Elastic Compliance Matrix: (Units=1/GPa)
#
#
# Indices 1 2 3 4 5 6 
#
# 1 0.009366 -0.007284 -0.009170 0.000000 -0.000646 0.000000
# 2 -0.007284 0.020063 0.011632 0.000000 -0.004262 0.000000
# 3 -0.009170 0.011632 0.029540 0.000000 -0.003439 0.000000
# 4 0.000000 0.000000 0.000000 0.034000 0.000000 -0.001658
# 5 -0.000646 -0.004262 -0.003439 0.000000 0.019194 0.000000
# 6 0.000000 0.000000 0.000000 -0.001658 0.000000 0.019423
#
#
# Mechanical properties :
#
#
# Convention : Reuss Voigt Hill
#
# Bulk Modulus (GPa) = 20.27385 52.65776 36.46580
# Shear Modulus (GPa) = 31.71110 44.08422 37.89766
#
# Velocity S-wave (km/s) = 3.44720 4.06446 3.76849
# Velocity P-wave (km/s) = 4.84164 6.46212 5.70966
#
# Compressibility (1/GPa) = 0.04932463
#
# Stress axis : x y z
#
# Youngs Moduli (GPa) = 106.77077 49.84202 33.85203
#
# Poissons Ratio (x) = 0.36307 0.31041
# Poissons Ratio (y) = 0.77776 -0.39375
# Poissons Ratio (z) = 0.97904 -0.57974
#
# Static dielectric constant tensor:
#      x y z
#    x 5.244870 0.000000 -0.046500 
#    y 0.000000 5.562760 0.000000 
#    z -0.046500 0.000000 4.509240 
# 
# 
# High freq. dielectric constant tensor:
#      x y z
#    x 2.106050 0.000000 -0.004120 
#    y 0.000000 2.092910 0.000000 
#    z -0.004120 0.000000 2.042560 
# 
# From -- ./inp_files/38313.got.cif
#   From: 2010.03.12/outbox.cif.g09.slc.cpg/sg14_20_cif.got.tgz:38313.got - 2010.03.31 13:35:05.
