data_PCOD8129893
_publ_section_title
;
Structure prediction by ZEFSAII (Michael W. Deem and Ramdas Pophale) SiO2 
 PCOD8129893
Probable space group: C 2/C
;
_chemical_formula_sum "Si O2"
_cell_formula_units_Z 60
_cell_length_a 27.380128
_cell_length_b 17.917980
_cell_length_c 16.375098
_cell_angle_alpha 90.000000
_cell_angle_beta 157.361325
_cell_angle_gamma 90.000000
_cell_volume 3092.267883
_symmetry_space_group_name_H-M "C 2/C"
_symmetry_group_IT_number 15
_symmetry_cell_setting 'monoclinic'
loop_
_space_group_symop_operation_xyz
x,y,z
-x,y,1/2-z
-x,-y,-z
x,-y,1/2+z
1/2+x,1/2+y,z
1/2-x,1/2+y,1/2-z
1/2-x,1/2-y,-z
1/2+x,1/2-y,1/2+z
loop_
_atom_site_type_symbol
_atom_site_label
_atom_site_fract_x
_atom_site_fract_y
_atom_site_fract_z
Si Si1 0.876402 0.027526 0.715941
Si Si2 0.856792 0.563263 0.670563
Si Si3 0.411461 0.277498 0.536685
Si Si4 0.500000 0.496554 0.750000
Si Si5 0.217961 0.637494 0.100854
Si Si6 0.752371 0.904655 0.326603
Si Si7 0.517146 0.626583 0.053513
Si Si8 0.090489 0.498791 0.965268
O O1 0.938023 0.049611 0.723703
O O2 0.726214 0.011295 0.479631
O O3 0.903207 0.094992 0.820363
O O4 0.935082 0.945587 0.824088
O O5 0.840115 0.632183 0.580744
O O6 0.821827 0.594352 0.703896
O O7 0.002660 0.538166 0.897784
O O8 0.500000 0.296344 0.750000
O O9 0.366217 0.191404 0.471016
O O10 0.279551 0.319623 0.346979
O O11 0.473175 0.306219 0.546155
O O12 0.386896 0.447318 0.536564
O O13 0.367341 0.657958 0.324553
O O14 0.203666 0.554667 0.115122
O O15 0.661249 0.929267 0.112793
O O16 0.000000 0.476224 0.750000
#
# Coordination Sequence:
#
# PCOD8129893 Si02
#       8
#     8   8   8   4   8   8   8   8
#     4   9  17  31  57  82 114 142 198 247 279 340
#     4   9  19  34  53  82 115 152 189 241 306 343
#     4  12  22  34  54  86 121 156 186 241 299 366
#     4  10  16  32  52  88 114 144 186 254 302 330
#     4  10  22  36  54  82 125 158 181 239 308 362
#     4  11  20  33  56  86 114 149 205 243 289 345
#     4  10  20  33  53  83 113 155 196 230 291 348
#     4  10  21  36  55  83 116 155 196 242 300 350
#
# _framework density 19.403234999999999
#
# number of rings (size 3 to 8) (size 9 to 14) (size 15 to 20)
#    0.000    1.867    2.000    4.000    5.600    3.200 
#    0.000    0.000    0.000    0.000   10.400    9.333 
#    0.000    0.000    0.000    0.000    0.000    0.000 
#
# Total GULP energy -371683.268664 kJ/mol
# GULP energy per Si atom -12389.442289 kJ/mol
# Density = 1.935907 g / cm^3
# Si number density = 19.403235 Si / 1000 Ang^3
#
#
#
# Elastic Constant Matrix: (Units=GPa)
#
#
# Indices 1 2 3 4 5 6 
#
# 1 89.6255 23.4733 20.5666 0.0000 14.8388 0.0000
# 2 23.4733 56.0181 18.7146 0.0000 -8.7265 0.0000
# 3 20.5666 18.7146 59.9807 0.0000 3.8309 0.0000
# 4 0.0000 0.0000 0.0000 4.5195 0.0000 5.7459
# 5 14.8388 -8.7265 3.8309 0.0000 23.5192 0.0000
# 6 0.0000 0.0000 0.0000 5.7459 0.0000 26.0261
#
#
#
# Elastic Compliance Matrix: (Units=1/GPa)
#
#
# Indices 1 2 3 4 5 6 
#
# 1 0.015778 -0.007837 -0.002166 0.000000 -0.012510 0.000000
# 2 -0.007837 0.025655 -0.006307 0.000000 0.015491 0.000000
# 3 -0.002166 -0.006307 0.019649 0.000000 -0.004174 0.000000
# 4 0.000000 0.000000 0.000000 0.307603 0.000000 -0.067911
# 5 -0.012510 0.015491 -0.004174 0.000000 0.056839 0.000000
# 6 0.000000 0.000000 0.000000 -0.067911 0.000000 0.053416
#
#
# Mechanical properties :
#
#
# Convention : Reuss Voigt Hill
#
# Bulk Modulus (GPa) = 35.13296 36.79259 35.96277
# Shear Modulus (GPa) = 9.59605 20.33761 14.96683
#
# Velocity S-wave (km/s) = 2.22628 3.24104 2.78035
# Velocity P-wave (km/s) = 4.97539 5.74535 5.37417
#
# Compressibility (1/GPa) = 0.02846330
#
# Stress axis : x y z
#
# Youngs Moduli (GPa) = 63.37854 38.97816 50.89268
#
# Poissons Ratio (x) = 0.30546 0.11023
# Poissons Ratio (y) = 0.49668 0.32098
# Poissons Ratio (z) = 0.13728 0.24584
#
# Static dielectric constant tensor:
#      x y z
#    x 3.783600 0.000000 0.230130 
#    y 0.000000 3.114420 0.000000 
#    z 0.230130 0.000000 3.550940 
# 
# 
# High freq. dielectric constant tensor:
#      x y z
#    x 1.772670 0.000000 0.024770 
#    y 0.000000 1.702380 0.000000 
#    z 0.024770 0.000000 1.742860 
# 
# From -- ./inp_files/225797.got.cif
#   From: 2010.06.25/outbox.cif.g09.slc.cpg/sg15_113_cif.got.tgz:225797.got - 2010.06.28 07:06:18.
