data_PCOD8129804
_publ_section_title
;
Structure prediction by ZEFSAII (Michael W. Deem and Ramdas Pophale) SiO2 
 PCOD8129804
Probable space group: C 2/C
;
_chemical_formula_sum "Si O2"
_cell_formula_units_Z 52
_cell_length_a 15.094815
_cell_length_b 8.946265
_cell_length_c 31.101264
_cell_angle_alpha 90.000000
_cell_angle_beta 141.087480
_cell_angle_gamma 90.000000
_cell_volume 2638.148711
_symmetry_space_group_name_H-M "C 2/C"
_symmetry_group_IT_number 15
_symmetry_cell_setting 'monoclinic'
loop_
_space_group_symop_operation_xyz
x,y,z
-x,y,1/2-z
-x,-y,-z
x,-y,1/2+z
1/2+x,1/2+y,z
1/2-x,1/2+y,1/2-z
1/2-x,1/2-y,-z
1/2+x,1/2-y,1/2+z
loop_
_atom_site_type_symbol
_atom_site_label
_atom_site_fract_x
_atom_site_fract_y
_atom_site_fract_z
Si Si1 0.500000 0.883005 0.250000
Si Si2 0.136711 0.647915 0.171373
Si Si3 0.601998 0.916024 0.863368
Si Si4 0.337663 0.689660 0.678575
Si Si5 0.654437 0.803862 0.190288
Si Si6 0.326971 0.788293 0.072619
Si Si7 0.729812 0.348202 0.861337
O O1 0.368163 0.772541 0.198856
O O2 0.498678 0.985954 0.206793
O O3 0.266325 0.743681 0.238037
O O4 0.165225 0.479847 0.196413
O O5 0.130292 0.659945 0.116510
O O6 0.988863 0.688525 0.138147
O O7 0.702467 0.799960 0.876206
O O8 0.693493 0.035133 0.925243
O O9 0.500000 0.725571 0.750000
O O10 0.234892 0.746884 0.677379
O O11 0.327174 0.516855 0.662158
O O12 0.492617 0.746104 0.130680
O O13 0.249213 0.693400 0.080904
O O14 0.250000 0.750000 0.000000
#
# Coordination Sequence:
#
# PCOD8129804 Si02
#       7
#     4   8   8   8   8   8   8
#     4  10  16  30  48  80 108 146 172 216 272 328
#     4  10  18  31  50  88 108 136 169 225 287 324
#     4  10  19  33  56  80 114 141 174 225 275 330
#     4  11  19  33  53  90 118 133 163 229 296 330
#     4  10  21  32  57  82 116 139 175 220 279 331
#     4  10  23  42  55  72 107 158 196 218 250 323
#     4  10  20  31  54  78 108 140 183 222 270 322
#
# _framework density 19.710791
#
# number of rings (size 3 to 8) (size 9 to 14) (size 15 to 20)
#    0.000    1.846    3.077    2.769    2.154    1.231 
#    0.000    8.462    0.000    0.000    0.000    0.000 
#    0.000    0.000    0.000    0.000    0.000    0.000 
#
# Total GULP energy -322099.474679 kJ/mol
# GULP energy per Si atom -12388.441334 kJ/mol
# Density = 1.966593 g / cm^3
# Si number density = 19.710791 Si / 1000 Ang^3
#
#
#
# Elastic Constant Matrix: (Units=GPa)
#
#
# Indices 1 2 3 4 5 6 
#
# 1 166.8401 39.6937 29.7982 0.0000 -30.5460 0.0000
# 2 39.6937 59.2973 12.0832 0.0000 -10.6342 0.0000
# 3 29.7982 12.0832 44.1272 0.0000 -23.3166 0.0000
# 4 0.0000 0.0000 0.0000 12.6970 0.0000 -6.5969
# 5 -30.5460 -10.6342 -23.3166 0.0000 24.6824 0.0000
# 6 0.0000 0.0000 0.0000 -6.5969 0.0000 27.7919
#
#
#
# Elastic Compliance Matrix: (Units=1/GPa)
#
#
# Indices 1 2 3 4 5 6 
#
# 1 0.008608 -0.004175 0.000018 0.000000 0.008871 0.000000
# 2 -0.004175 0.020364 -0.001699 0.000000 0.002002 0.000000
# 3 0.000018 -0.001699 0.045403 0.000000 0.042180 0.000000
# 4 0.000000 0.000000 0.000000 0.089838 0.000000 0.021325
# 5 0.008871 0.002002 0.042180 0.000000 0.092202 0.000000
# 6 0.000000 0.000000 0.000000 0.021325 0.000000 0.041044
#
#
# Mechanical properties :
#
#
# Convention : Reuss Voigt Hill
#
# Bulk Modulus (GPa) = 15.95857 48.15717 32.05787
# Shear Modulus (GPa) = 15.14881 25.61357 20.38119
#
# Velocity S-wave (km/s) = 2.77529 3.60873 3.21909
# Velocity P-wave (km/s) = 4.28761 6.46906 5.48782
#
# Compressibility (1/GPa) = 0.06266227
#
# Stress axis : x y z
#
# Youngs Moduli (GPa) = 116.17063 49.10594 22.02502
#
# Poissons Ratio (x) = 0.20501 -0.00039
# Poissons Ratio (y) = 0.48501 0.03743
# Poissons Ratio (z) = -0.00207 0.08344
#
# Static dielectric constant tensor:
#      x y z
#    x 4.464610 0.000000 -0.195760 
#    y 0.000000 3.728600 0.000000 
#    z -0.195760 0.000000 3.001800 
# 
# 
# High freq. dielectric constant tensor:
#      x y z
#    x 1.800710 0.000000 -0.024600 
#    y 0.000000 1.775310 0.000000 
#    z -0.024600 0.000000 1.697670 
# 
# From -- ./inp_files/272349.got.cif
#   From: 2010.06.25/outbox.cif.g09.slc.cpg/sg15_137_cif.got.tgz:272349.got - 2010.06.28 07:06:18.
