data_PCOD8129926
_publ_section_title
;
Structure prediction by ZEFSAII (Michael W. Deem and Ramdas Pophale) SiO2 
 PCOD8129926
Probable space group: C 2/C
;
_chemical_formula_sum "Si O2"
_cell_formula_units_Z 44
_cell_length_a 26.949460
_cell_length_b 11.922768
_cell_length_c 13.689431
_cell_angle_alpha 90.000000
_cell_angle_beta 147.328153
_cell_angle_gamma 90.000000
_cell_volume 2374.471569
_symmetry_space_group_name_H-M "C 2/C"
_symmetry_group_IT_number 15
_symmetry_cell_setting 'monoclinic'
loop_
_space_group_symop_operation_xyz
x,y,z
-x,y,1/2-z
-x,-y,-z
x,-y,1/2+z
1/2+x,1/2+y,z
1/2-x,1/2+y,1/2-z
1/2-x,1/2-y,-z
1/2+x,1/2-y,1/2+z
loop_
_atom_site_type_symbol
_atom_site_label
_atom_site_fract_x
_atom_site_fract_y
_atom_site_fract_z
Si Si1 0.894210 0.242607 0.253830
Si Si2 0.000000 0.270588 0.250000
Si Si3 0.256552 0.920459 0.938219
Si Si4 0.490888 0.895512 0.556116
Si Si5 0.693531 0.137594 0.384108
Si Si6 0.638195 0.935663 0.578756
O O1 0.943582 0.197015 0.236011
O O2 0.840124 0.141513 0.213268
O O3 0.962438 0.283858 0.451210
O O4 0.833064 0.349197 0.122100
O O5 0.062689 0.347396 0.421139
O O6 0.280020 0.940613 0.863884
O O7 0.244320 0.039739 0.968558
O O8 0.591888 0.866440 0.768138
O O9 0.500000 0.000000 0.500000
O O10 0.411582 0.940448 0.499038
O O11 0.750000 0.250000 0.500000
O O12 0.681969 0.112507 0.250335
#
# Coordination Sequence:
#
# PCOD8129926 Si02
#       6
#     8   4   8   8   8   8
#     4  10  18  33  60  86 112 148 204 244 285 348
#     4  10  16  32  60  84 108 156 198 240 288 356
#     4  10  21  35  55  91 117 149 196 254 293 347
#     4  10  16  35  58  81 112 156 199 240 287 357
#     4  11  22  38  56  87 124 154 195 253 303 355
#     4  10  19  35  60  86 114 153 207 242 294 349
#
# _framework density 18.530439000000001
#
# number of rings (size 3 to 8) (size 9 to 14) (size 15 to 20)
#    0.000    1.818    7.273    1.091    0.000    1.455 
#    3.273    0.909    0.000    2.182    0.000    0.000 
#    0.000    0.000    0.000    0.000    0.000    0.000 
#
# Total GULP energy -272597.183579 kJ/mol
# GULP energy per Si atom -12390.781072 kJ/mol
# Density = 1.848826 g / cm^3
# Si number density = 18.530439 Si / 1000 Ang^3
#
#
#
# Elastic Constant Matrix: (Units=GPa)
#
#
# Indices 1 2 3 4 5 6 
#
# 1 142.7499 57.0212 40.1141 0.0000 10.4100 0.0000
# 2 57.0212 103.8404 53.0521 0.0000 9.5219 0.0000
# 3 40.1141 53.0521 80.8832 0.0000 3.7984 0.0000
# 4 0.0000 0.0000 0.0000 41.3245 0.0000 8.5617
# 5 10.4100 9.5219 3.7984 0.0000 29.0186 0.0000
# 6 0.0000 0.0000 0.0000 8.5617 0.0000 26.5558
#
#
#
# Elastic Compliance Matrix: (Units=1/GPa)
#
#
# Indices 1 2 3 4 5 6 
#
# 1 0.009246 -0.003932 -0.001923 0.000000 -0.001775 0.000000
# 2 -0.003932 0.016524 -0.008754 0.000000 -0.002866 0.000000
# 3 -0.001923 -0.008754 0.019009 0.000000 0.001074 0.000000
# 4 0.000000 0.000000 0.000000 0.025931 0.000000 -0.008360
# 5 -0.001775 -0.002866 0.001074 0.000000 0.035897 0.000000
# 6 0.000000 0.000000 0.000000 -0.008360 0.000000 0.040352
#
#
# Mechanical properties :
#
#
# Convention : Reuss Voigt Hill
#
# Bulk Modulus (GPa) = 64.26340 69.76093 67.01217
# Shear Modulus (GPa) = 27.56895 31.19884 29.38390
#
# Velocity S-wave (km/s) = 3.86134 4.10769 3.98642
# Velocity P-wave (km/s) = 7.39156 7.76053 7.57829
#
# Compressibility (1/GPa) = 0.01556096
#
# Stress axis : x y z
#
# Youngs Moduli (GPa) = 108.15923 60.51673 52.60742
#
# Poissons Ratio (x) = 0.23793 0.10118
# Poissons Ratio (y) = 0.42525 0.46053
# Poissons Ratio (z) = 0.20801 0.52976
#
# Static dielectric constant tensor:
#      x y z
#    x 3.906170 0.000000 0.240020 
#    y 0.000000 3.390180 0.000000 
#    z 0.240020 0.000000 3.322830 
# 
# 
# High freq. dielectric constant tensor:
#      x y z
#    x 1.726460 0.000000 0.000840 
#    y 0.000000 1.682270 0.000000 
#    z 0.000840 0.000000 1.706490 
# 
# From -- ./inp_files/159458.got.cif
#   From: 2010.06.25/outbox.cif.g09.slc.cpg/sg15_80_cif.got.tgz:159458.got - 2010.06.28 07:06:18.
