data_PCOD8129133
_publ_section_title
;
Structure prediction by ZEFSAII (Michael W. Deem and Ramdas Pophale) SiO2 
 PCOD8129133
Probable space group: P 21/C
;
_chemical_formula_sum "Si O2"
_cell_formula_units_Z 20
_cell_length_a 8.551787
_cell_length_b 5.212911
_cell_length_c 17.090873
_cell_angle_alpha 90.000000
_cell_angle_beta 87.918602
_cell_angle_gamma 90.000000
_cell_volume 761.403392
_symmetry_space_group_name_H-M "P 21/C"
_symmetry_group_IT_number 14
_symmetry_cell_setting 'monoclinic'
loop_
_space_group_symop_operation_xyz
x,y,z
-x,1/2+y,1/2-z
-x,-y,-z
x,1/2-y,1/2+z
loop_
_atom_site_type_symbol
_atom_site_label
_atom_site_fract_x
_atom_site_fract_y
_atom_site_fract_z
Si Si1 0.030968 0.775562 0.363883
Si Si2 0.259137 0.172904 0.399093
Si Si3 0.770558 0.539587 0.750639
Si Si4 0.602472 0.018671 0.400179
Si Si5 0.229669 0.018014 0.043253
O O1 0.172793 0.683032 0.307249
O O2 0.943711 0.555418 0.416153
O O3 0.113210 0.983297 0.419472
O O4 0.905635 0.905418 0.310072
O O5 0.270952 0.223961 0.305786
O O6 0.421630 0.050837 0.426875
O O7 0.225965 0.434465 0.449309
O O8 0.621203 0.454213 0.805223
O O9 0.708830 0.234310 0.440357
O O10 0.655096 0.734241 0.423392
#
# Coordination Sequence:
#
# PCOD8129133 Si02
#       5
#     4   4   4   4   4
#     4  11  24  45  70 104 147 192 243 301 365 433
#     4  12  27  44  76 108 142 195 248 301 368 443
#     4  11  25  43  72 100 146 187 238 297 363 432
#     4  11  28  48  74 104 152 190 244 302 371 438
#     4  11  27  50  73 105 148 195 242 305 366 439
#
# _framework density 26.267285999999999
#
# number of rings (size 3 to 8) (size 9 to 14) (size 15 to 20)
#    0.000    0.800    2.000    3.000   14.000    0.800 
#    0.000    0.000    0.000    0.000    0.000    0.000 
#    0.000    0.000    0.000    0.000    0.000    0.000 
#
# Total GULP energy -247987.363988 kJ/mol
# GULP energy per Si atom -12399.368199 kJ/mol
# Density = 2.620750 g / cm^3
# Si number density = 26.267286 Si / 1000 Ang^3
#
#
#
# Elastic Constant Matrix: (Units=GPa)
#
#
# Indices 1 2 3 4 5 6 
#
# 1 78.4069 1.4677 19.5556 0.0000 13.4346 0.0000
# 2 1.4677 50.8634 -7.9962 0.0000 14.3458 0.0000
# 3 19.5556 -7.9962 110.8795 0.0000 -4.9345 0.0000
# 4 0.0000 0.0000 0.0000 42.5223 0.0000 -2.7443
# 5 13.4346 14.3458 -4.9345 0.0000 39.8250 0.0000
# 6 0.0000 0.0000 0.0000 -2.7443 0.0000 35.2251
#
#
#
# Elastic Compliance Matrix: (Units=1/GPa)
#
#
# Indices 1 2 3 4 5 6 
#
# 1 0.014350 0.000688 -0.002723 0.000000 -0.005426 0.000000
# 2 0.000688 0.022086 0.001113 0.000000 -0.008050 0.000000
# 3 -0.002723 0.001113 0.009656 0.000000 0.001714 0.000000
# 4 0.000000 0.000000 0.000000 0.023636 0.000000 0.001841
# 5 -0.005426 -0.008050 0.001714 0.000000 0.030053 0.000000
# 6 0.000000 0.000000 0.000000 0.001841 0.000000 0.028532
#
#
# Mechanical properties :
#
#
# Convention : Reuss Voigt Hill
#
# Bulk Modulus (GPa) = 22.59938 29.57822 26.08880
# Shear Modulus (GPa) = 34.50546 38.65599 36.58072
#
# Velocity S-wave (km/s) = 3.62833 3.84036 3.73585
# Velocity P-wave (km/s) = 5.11619 5.56322 5.34438
#
# Compressibility (1/GPa) = 0.04424901
#
# Stress axis : x y z
#
# Youngs Moduli (GPa) = 69.68686 45.27726 103.56739
#
# Poissons Ratio (x) = -0.03116 0.28198
# Poissons Ratio (y) = -0.04796 -0.11528
# Poissons Ratio (z) = 0.18974 -0.05040
#
# Static dielectric constant tensor:
#      x y z
#    x 4.864130 0.000000 -0.270080 
#    y 0.000000 4.376260 0.000000 
#    z -0.270080 0.000000 5.315110 
# 
# 
# High freq. dielectric constant tensor:
#      x y z
#    x 2.057400 0.000000 -0.002300 
#    y 0.000000 2.042040 0.000000 
#    z -0.002300 0.000000 2.075700 
# 
# From -- ./inp_files/53871.got.cif
#   From: 2010.03.12/outbox.cif.g09.slc.cpg/sg14_27_cif.got.tgz:53871.got - 2010.03.31 13:35:05.
