data_PCOD8129187
_publ_section_title
;
Structure prediction by ZEFSAII (Michael W. Deem and Ramdas Pophale) SiO2 
 PCOD8129187
Probable space group: P 21/C
;
_chemical_formula_sum "Si O2"
_cell_formula_units_Z 32
_cell_length_a 8.237039
_cell_length_b 8.801350
_cell_length_c 19.362665
_cell_angle_alpha 90.000000
_cell_angle_beta 104.430061
_cell_angle_gamma 90.000000
_cell_volume 1359.452045
_symmetry_space_group_name_H-M "P 21/C"
_symmetry_group_IT_number 14
_symmetry_cell_setting 'monoclinic'
loop_
_space_group_symop_operation_xyz
x,y,z
-x,1/2+y,1/2-z
-x,-y,-z
x,1/2-y,1/2+z
loop_
_atom_site_type_symbol
_atom_site_label
_atom_site_fract_x
_atom_site_fract_y
_atom_site_fract_z
Si Si1 0.964833 0.853013 0.908775
Si Si2 0.871195 0.835335 0.054479
Si Si3 0.493756 0.295091 0.952902
Si Si4 0.097830 0.701346 0.188737
Si Si5 0.446575 0.676160 0.682084
Si Si6 0.061475 0.886024 0.315426
Si Si7 0.427585 0.622654 0.894211
Si Si8 0.615628 0.842734 0.809030
O O1 0.805469 0.895610 0.844262
O O2 0.046672 0.704753 0.885318
O O3 0.897219 0.811915 0.976590
O O4 0.102592 0.987527 0.922909
O O5 0.693691 0.767543 0.057298
O O6 0.013074 0.739621 0.107397
O O7 0.577589 0.190620 0.903045
O O8 0.513770 0.465493 0.925607
O O9 0.594083 0.281974 0.036040
O O10 0.291412 0.747952 0.206249
O O11 0.012079 0.788650 0.243348
O O12 0.068954 0.523734 0.199036
O O13 0.604644 0.768436 0.731191
O O14 0.485226 0.500357 0.701222
O O15 0.258726 0.925911 0.336317
O O16 0.546122 0.720441 0.856704
#
# Coordination Sequence:
#
# PCOD8129187 Si02
#       8
#     4   4   4   4   4   4   4   4
#     4  11  27  45  74 102 146 188 239 299 361 431
#     4  11  24  48  70 106 143 189 238 300 360 429
#     4  11  26  45  75 103 145 189 236 298 365 429
#     4  12  27  47  69 107 142 188 243 301 364 434
#     4  12  29  44  74 104 141 188 242 298 364 436
#     4  12  28  45  73 101 145 190 241 296 363 436
#     4  11  25  48  68 106 144 189 241 292 359 438
#     4  12  26  48  69 103 146 187 243 296 356 436
#
# _framework density 23.538895
#
# number of rings (size 3 to 8) (size 9 to 14) (size 15 to 20)
#    0.000    0.500    5.000    1.500    8.750    1.000 
#    0.000    0.000    0.000    0.000    0.000    0.000 
#    0.000    0.000    0.000    0.000    0.000    0.000 
#
# Total GULP energy -396772.527925 kJ/mol
# GULP energy per Si atom -12399.141498 kJ/mol
# Density = 2.348532 g / cm^3
# Si number density = 23.538895 Si / 1000 Ang^3
#
#
#
# Elastic Constant Matrix: (Units=GPa)
#
#
# Indices 1 2 3 4 5 6 
#
# 1 58.4347 22.6188 14.5305 0.0000 -0.9656 0.0000
# 2 22.6188 108.3435 16.0548 0.0000 -6.5829 0.0000
# 3 14.5305 16.0548 84.2986 0.0000 11.6911 0.0000
# 4 0.0000 0.0000 0.0000 35.4352 0.0000 2.2377
# 5 -0.9656 -6.5829 11.6911 0.0000 34.3627 0.0000
# 6 0.0000 0.0000 0.0000 2.2377 0.0000 36.5797
#
#
#
# Elastic Compliance Matrix: (Units=1/GPa)
#
#
# Indices 1 2 3 4 5 6 
#
# 1 0.019182 -0.003551 -0.002740 0.000000 0.000791 0.000000
# 2 -0.003551 0.010374 -0.001706 0.000000 0.002468 0.000000
# 3 -0.002740 -0.001706 0.013345 0.000000 -0.004944 0.000000
# 4 0.000000 0.000000 0.000000 0.028330 0.000000 -0.001733
# 5 0.000791 0.002468 -0.004944 0.000000 0.031279 0.000000
# 6 0.000000 0.000000 0.000000 -0.001733 0.000000 0.027444
#
#
# Mechanical properties :
#
#
# Convention : Reuss Voigt Hill
#
# Bulk Modulus (GPa) = 37.16308 39.72058 38.44183
# Shear Modulus (GPa) = 32.27566 34.46703 33.37135
#
# Velocity S-wave (km/s) = 3.70694 3.83071 3.76933
# Velocity P-wave (km/s) = 5.84329 6.03961 5.94226
#
# Compressibility (1/GPa) = 0.02690843
#
# Stress axis : x y z
#
# Youngs Moduli (GPa) = 52.13276 96.39582 74.93179
#
# Poissons Ratio (x) = 0.34225 0.20530
# Poissons Ratio (y) = 0.18510 0.12783
# Poissons Ratio (z) = 0.14284 0.16445
#
# Static dielectric constant tensor:
#      x y z
#    x 4.020400 0.000000 0.048190 
#    y 0.000000 4.253860 0.000000 
#    z 0.048190 0.000000 4.572260 
# 
# 
# High freq. dielectric constant tensor:
#      x y z
#    x 1.915920 0.000000 0.003050 
#    y 0.000000 1.938390 0.000000 
#    z 0.003050 0.000000 1.957070 
# 
# From -- ./inp_files/64868.got.cif
#   From: 2010.03.12/outbox.cif.g09.slc.cpg/sg14_33_cif.got.tgz:64868.got - 2010.03.31 13:35:05.
