data_PCOD8129088
_publ_section_title
;
Structure prediction by ZEFSAII (Michael W. Deem and Ramdas Pophale) SiO2 
 PCOD8129088
Probable space group: P 21/C
;
_chemical_formula_sum "Si O2"
_cell_formula_units_Z 20
_cell_length_a 10.616238
_cell_length_b 14.236879
_cell_length_c 9.901178
_cell_angle_alpha 90.000000
_cell_angle_beta 142.618679
_cell_angle_gamma 90.000000
_cell_volume 908.541090
_symmetry_space_group_name_H-M "P 21/C"
_symmetry_group_IT_number 14
_symmetry_cell_setting 'monoclinic'
loop_
_space_group_symop_operation_xyz
x,y,z
-x,1/2+y,1/2-z
-x,-y,-z
x,1/2-y,1/2+z
loop_
_atom_site_type_symbol
_atom_site_label
_atom_site_fract_x
_atom_site_fract_y
_atom_site_fract_z
Si Si1 0.405693 0.079428 0.080469
Si Si2 0.911036 0.261574 0.308072
Si Si3 0.194045 0.551976 0.228640
Si Si4 0.197755 0.243866 0.298753
Si Si5 0.489408 0.608143 0.029896
O O1 0.624783 0.035211 0.225374
O O2 0.411245 0.118077 0.236559
O O3 0.330807 0.160826 0.913677
O O4 0.241687 0.994388 0.916149
O O5 0.812533 0.162822 0.261409
O O6 0.014072 0.250543 0.249816
O O7 0.094398 0.280497 0.568240
O O8 0.741021 0.345604 0.165816
O O9 0.000000 0.500000 0.000000
O O10 0.366949 0.160497 0.458984
O O11 0.500000 0.500000 0.000000
#
# Coordination Sequence:
#
# PCOD8129088 Si02
#       5
#     4   4   4   4   4
#     4  11  25  46  71 108 147 190 252 308 372 447
#     4  12  27  46  75 105 146 195 248 304 386 443
#     4  11  24  43  76 106 141 190 246 307 370 448
#     4  12  26  47  74 105 147 193 250 308 371 450
#     4  12  30  47  71 108 155 195 251 316 378 450
#
# _framework density 22.013314000000001
#
# number of rings (size 3 to 8) (size 9 to 14) (size 15 to 20)
#    0.000    0.400    6.000    1.200    5.600    0.800 
#    0.000    0.000    0.000    0.000    0.000    0.000 
#    0.000    0.000    0.000    0.000    0.000    0.000 
#
# Total GULP energy -247866.780259 kJ/mol
# GULP energy per Si atom -12393.339013 kJ/mol
# Density = 2.196321 g / cm^3
# Si number density = 22.013314 Si / 1000 Ang^3
#
#
#
# Elastic Constant Matrix: (Units=GPa)
#
#
# Indices 1 2 3 4 5 6 
#
# 1 85.8078 37.6739 43.4779 0.0000 14.7611 0.0000
# 2 37.6739 139.6853 50.6747 0.0000 18.5260 0.0000
# 3 43.4779 50.6747 126.8338 0.0000 7.6579 0.0000
# 4 0.0000 0.0000 0.0000 47.6121 0.0000 0.8189
# 5 14.7611 18.5260 7.6579 0.0000 35.8184 0.0000
# 6 0.0000 0.0000 0.0000 0.8189 0.0000 29.8157
#
#
#
# Elastic Compliance Matrix: (Units=1/GPa)
#
#
# Indices 1 2 3 4 5 6 
#
# 1 0.015446 -0.002055 -0.004208 0.000000 -0.004403 0.000000
# 2 -0.002055 0.009149 -0.002752 0.000000 -0.003297 0.000000
# 3 -0.004208 -0.002752 0.010369 0.000000 0.000940 0.000000
# 4 0.000000 0.000000 0.000000 0.021013 0.000000 -0.000577
# 5 -0.004403 -0.003297 0.000940 0.000000 0.031237 0.000000
# 6 0.000000 0.000000 0.000000 -0.000577 0.000000 0.033555
#
#
# Mechanical properties :
#
#
# Convention : Reuss Voigt Hill
#
# Bulk Modulus (GPa) = 59.05172 68.44221 63.74697
# Shear Modulus (GPa) = 34.61567 37.34926 35.98246
#
# Velocity S-wave (km/s) = 3.96976 4.12353 4.04738
# Velocity P-wave (km/s) = 6.92067 7.33690 7.13182
#
# Compressibility (1/GPa) = 0.01693431
#
# Stress axis : x y z
#
# Youngs Moduli (GPa) = 64.74284 109.30439 96.43853
#
# Poissons Ratio (x) = 0.22467 0.40578
# Poissons Ratio (y) = 0.13308 0.26536
# Poissons Ratio (z) = 0.27242 0.30077
#
# Static dielectric constant tensor:
#      x y z
#    x 3.661290 0.000000 0.172950 
#    y 0.000000 7.088110 0.000000 
#    z 0.172950 0.000000 4.137920 
# 
# 
# High freq. dielectric constant tensor:
#      x y z
#    x 1.856770 0.000000 0.010790 
#    y 0.000000 1.879540 0.000000 
#    z 0.010790 0.000000 1.884430 
# 
# From -- ./inp_files/29915.got.cif
#   From: 2010.03.12/outbox.cif.g09.slc.cpg/sg14_15_cif.got.tgz:29915.got - 2010.03.31 13:35:05.
