data_PCOD8129652
_publ_section_title
;
Structure prediction by ZEFSAII (Michael W. Deem and Ramdas Pophale) SiO2 
 PCOD8129652
Probable space group: C 2/C
;
_chemical_formula_sum "Si O2"
_cell_formula_units_Z 40
_cell_length_a 24.322245
_cell_length_b 7.532565
_cell_length_c 18.299944
_cell_angle_alpha 90.000000
_cell_angle_beta 30.992573
_cell_angle_gamma 90.000000
_cell_volume 1726.402030
_symmetry_space_group_name_H-M "C 2/C"
_symmetry_group_IT_number 15
_symmetry_cell_setting 'monoclinic'
loop_
_space_group_symop_operation_xyz
x,y,z
-x,y,1/2-z
-x,-y,-z
x,-y,1/2+z
1/2+x,1/2+y,z
1/2-x,1/2+y,1/2-z
1/2-x,1/2-y,-z
1/2+x,1/2-y,1/2+z
loop_
_atom_site_type_symbol
_atom_site_label
_atom_site_fract_x
_atom_site_fract_y
_atom_site_fract_z
Si Si1 0.920457 0.946648 0.781918
Si Si2 0.983773 0.355934 0.687983
Si Si3 0.756813 0.408370 0.934039
Si Si4 0.190014 0.303604 0.378357
Si Si5 0.112777 0.069759 0.340697
O O1 0.907122 0.852975 0.718339
O O2 0.000000 0.853887 0.750000
O O3 0.963328 0.144259 0.713343
O O4 0.807004 0.935101 0.953264
O O5 0.084937 0.413142 0.523270
O O6 0.000000 0.431568 0.750000
O O7 0.879177 0.456853 0.776272
O O8 0.698164 0.360335 0.925351
O O9 0.750000 0.250000 0.000000
O O10 0.164820 0.230579 0.326608
O O11 0.299816 0.412108 0.257495
O O12 0.000000 0.000000 0.500000
#
# Coordination Sequence:
#
# PCOD8129652 Si02
#       5
#     8   8   8   8   8
#     4  10  16  31  58  87 109 150 193 252 286 341
#     4  10  15  28  54  86 107 136 194 257 283 320
#     4  10  15  29  54  83 110 138 203 250 281 320
#     4  12  21  35  57  90 121 156 191 244 303 357
#     4  12  23  38  58  87 126 158 194 241 305 357
#
# _framework density 23.169574999999998
#
# number of rings (size 3 to 8) (size 9 to 14) (size 15 to 20)
#    0.000    1.200   12.000    0.000    0.000    0.000 
#    0.000    4.000    0.000    4.800    0.000    2.800 
#    0.000    0.000    0.000    0.000    0.000    0.000 
#
# Total GULP energy -247777.242291 kJ/mol
# GULP energy per Si atom -12388.862115 kJ/mol
# Density = 2.311684 g / cm^3
# Si number density = 23.169575 Si / 1000 Ang^3
#
#
#
# Elastic Constant Matrix: (Units=GPa)
#
#
# Indices 1 2 3 4 5 6 
#
# 1 212.1562 18.6311 71.3136 -0.0004 12.1311 0.0005
# 2 18.6311 16.6356 18.4823 0.0076 4.1399 -0.0046
# 3 71.3136 18.4823 196.6623 0.0057 -20.8762 0.0000
# 4 -0.0004 0.0076 0.0057 10.3605 -0.0013 -1.8581
# 5 12.1311 4.1399 -20.8762 -0.0013 46.7063 -0.0002
# 6 0.0005 -0.0046 0.0000 -1.8581 -0.0002 11.4462
#
#
#
# Elastic Compliance Matrix: (Units=1/GPa)
#
#
# Indices 1 2 3 4 5 6 
#
# 1 0.005830 -0.003826 -0.001973 0.000004 -0.002057 -0.000001
# 2 -0.003826 0.073625 -0.006424 -0.000047 -0.008404 0.000022
# 3 -0.001973 -0.006424 0.006844 0.000001 0.004141 -0.000002
# 4 0.000004 -0.000047 0.000001 0.099415 0.000006 0.016138
# 5 -0.002057 -0.008404 0.004141 0.000006 0.024540 -0.000002
# 6 -0.000001 0.000022 -0.000002 0.016138 -0.000002 0.089985
#
#
# Mechanical properties :
#
#
# Convention : Reuss Voigt Hill
#
# Bulk Modulus (GPa) = 16.16721 71.36756 43.76738
# Shear Modulus (GPa) = 14.48004 34.83774 24.65889
#
# Velocity S-wave (km/s) = 2.50263 3.88183 3.26587
# Velocity P-wave (km/s) = 3.91712 7.13867 5.75780
#
# Compressibility (1/GPa) = 0.06185360
#
# Stress axis : x y z
#
# Youngs Moduli (GPa) = 171.51774 13.58228 146.12215
#
# Poissons Ratio (x) = 0.05196 0.28830
# Poissons Ratio (y) = 0.65618 0.93870
# Poissons Ratio (z) = 0.33841 0.08725
#
# Static dielectric constant tensor:
#      x y z
#    x 4.735550 -0.000010 -0.325160 
#    y -0.000010 3.242500 0.000020 
#    z -0.325160 0.000020 5.122260 
# 
# 
# High freq. dielectric constant tensor:
#      x y z
#    x 1.938470 0.000000 -0.013480 
#    y 0.000000 1.827590 0.000000 
#    z -0.013480 0.000000 1.938470 
# 
# From -- ./inp_files/218754.got.cif
#   From: 2010.06.25/outbox.cif.g09.slc.cpg/sg15_110_cif.got.tgz:218754.got - 2010.06.28 07:06:18.
