data_PCOD8129718
_publ_section_title
;
Structure prediction by ZEFSAII (Michael W. Deem and Ramdas Pophale) SiO2 
 PCOD8129718
Probable space group: C 2/C
;
_chemical_formula_sum "Si O2"
_cell_formula_units_Z 48
_cell_length_a 11.938330
_cell_length_b 12.245014
_cell_length_c 17.235785
_cell_angle_alpha 90.000000
_cell_angle_beta 111.326192
_cell_angle_gamma 90.000000
_cell_volume 2347.083192
_symmetry_space_group_name_H-M "C 2/C"
_symmetry_group_IT_number 15
_symmetry_cell_setting 'monoclinic'
loop_
_space_group_symop_operation_xyz
x,y,z
-x,y,1/2-z
-x,-y,-z
x,-y,1/2+z
1/2+x,1/2+y,z
1/2-x,1/2+y,1/2-z
1/2-x,1/2-y,-z
1/2+x,1/2-y,1/2+z
loop_
_atom_site_type_symbol
_atom_site_label
_atom_site_fract_x
_atom_site_fract_y
_atom_site_fract_z
Si Si1 0.124861 0.698451 0.494718
Si Si2 0.203573 0.044863 0.669606
Si Si3 0.457070 0.446949 0.660685
Si Si4 0.114542 0.639162 0.328279
Si Si5 0.940126 0.881901 0.494372
Si Si6 0.272091 0.627296 0.664499
O O1 0.250000 0.750000 0.500000
O O2 0.082892 0.622718 0.411950
O O3 0.151005 0.634233 0.581459
O O4 0.025746 0.789295 0.483505
O O5 0.185095 0.118543 0.586713
O O6 0.268910 0.109577 0.756158
O O7 0.272436 0.934429 0.666416
O O8 0.068793 0.021324 0.663884
O O9 0.500000 0.382786 0.750000
O O10 0.418023 0.364476 0.581475
O O11 0.345554 0.524845 0.650892
O O12 0.147278 0.764230 0.319186
O O13 0.000000 0.602306 0.250000
O O14 0.000000 0.000000 0.500000
#
# Coordination Sequence:
#
# PCOD8129718 Si02
#       6
#     8   8   8   8   8   8
#     4  10  18  29  51  79 105 134 169 215 257 305
#     4  10  19  30  49  75 106 139 169 212 259 304
#     4   9  16  27  46  74 106 137 167 208 255 303
#     4  11  20  33  52  78 104 137 176 215 257 305
#     4  10  16  27  46  75 107 136 167 208 257 306
#     4  10  18  32  52  79 107 135 172 216 259 307
#
# _framework density 20.450915999999999
#
# number of rings (size 3 to 8) (size 9 to 14) (size 15 to 20)
#    0.000    2.000    0.000   11.500    0.000    0.000 
#    0.000    0.833    0.000    8.000    0.000   17.500 
#    0.000    0.000    0.000    0.000    0.000    0.000 
#
# Total GULP energy -297355.086400 kJ/mol
# GULP energy per Si atom -12389.795267 kJ/mol
# Density = 2.040437 g / cm^3
# Si number density = 20.450916 Si / 1000 Ang^3
#
#
#
# Elastic Constant Matrix: (Units=GPa)
#
#
# Indices 1 2 3 4 5 6 
#
# 1 40.4528 29.5630 35.6008 0.0000 3.1943 0.0000
# 2 29.5630 44.2037 43.6787 0.0000 -3.4799 0.0000
# 3 35.6008 43.6787 247.7017 0.0000 -8.1543 0.0000
# 4 0.0000 0.0000 0.0000 28.9456 0.0000 -2.9008
# 5 3.1943 -3.4799 -8.1543 0.0000 27.4430 0.0000
# 6 0.0000 0.0000 0.0000 -2.9008 0.0000 28.7795
#
#
#
# Elastic Compliance Matrix: (Units=1/GPa)
#
#
# Indices 1 2 3 4 5 6 
#
# 1 0.051829 -0.033670 -0.001869 0.000000 -0.010858 0.000000
# 2 -0.033670 0.049385 -0.003569 0.000000 0.009121 0.000000
# 3 -0.001869 -0.003569 0.004976 0.000000 0.001244 0.000000
# 4 0.000000 0.000000 0.000000 0.034900 0.000000 0.003518
# 5 -0.010858 0.009121 0.001244 0.000000 0.039229 0.000000
# 6 0.000000 0.000000 0.000000 0.003518 0.000000 0.035102
#
#
# Mechanical properties :
#
#
# Convention : Reuss Voigt Hill
#
# Bulk Modulus (GPa) = 35.74823 61.11590 48.43207
# Shear Modulus (GPa) = 16.50370 31.93466 24.21918
#
# Velocity S-wave (km/s) = 2.84384 3.95590 3.44504
# Velocity P-wave (km/s) = 5.31989 7.12844 6.28951
#
# Compressibility (1/GPa) = 0.02797341
#
# Stress axis : x y z
#
# Youngs Moduli (GPa) = 19.29428 20.24890 200.96333
#
# Poissons Ratio (x) = 0.68179 0.37564
# Poissons Ratio (y) = 0.64964 0.71722
# Poissons Ratio (z) = 0.03607 0.07227
#
# Static dielectric constant tensor:
#      x y z
#    x 3.238390 0.000000 -0.212000 
#    y 0.000000 3.206720 0.000000 
#    z -0.212000 0.000000 5.903240 
# 
# 
# High freq. dielectric constant tensor:
#      x y z
#    x 1.754380 0.000000 -0.003010 
#    y 0.000000 1.745690 0.000000 
#    z -0.003010 0.000000 1.851530 
# 
# From -- ./inp_files/196605.got.cif
#   From: 2010.06.25/outbox.cif.g09.slc.cpg/sg15_99_cif.got.tgz:196605.got - 2010.06.28 07:06:18.
