data_PCOD8129735
_publ_section_title
;
Structure prediction by ZEFSAII (Michael W. Deem and Ramdas Pophale) SiO2 
 PCOD8129735
Probable space group: C 2/C
;
_chemical_formula_sum "Si O2"
_cell_formula_units_Z 48
_cell_length_a 16.878165
_cell_length_b 24.332108
_cell_length_c 9.316498
_cell_angle_alpha 90.000000
_cell_angle_beta 125.420066
_cell_angle_gamma 90.000000
_cell_volume 3117.993685
_symmetry_space_group_name_H-M "C 2/C"
_symmetry_group_IT_number 15
_symmetry_cell_setting 'monoclinic'
loop_
_space_group_symop_operation_xyz
x,y,z
-x,y,1/2-z
-x,-y,-z
x,-y,1/2+z
1/2+x,1/2+y,z
1/2-x,1/2+y,1/2-z
1/2-x,1/2-y,-z
1/2+x,1/2-y,1/2+z
loop_
_atom_site_type_symbol
_atom_site_label
_atom_site_fract_x
_atom_site_fract_y
_atom_site_fract_z
Si Si1 0.869507 0.357118 0.230296
Si Si2 0.395861 0.743428 0.707233
Si Si3 0.067175 0.525157 0.696029
Si Si4 0.773856 0.326077 0.398926
Si Si5 0.390876 0.090373 0.190931
Si Si6 0.914209 0.667307 0.465764
O O1 0.865800 0.422558 0.268944
O O2 0.785749 0.329318 0.238932
O O3 0.972304 0.332839 0.384557
O O4 0.851110 0.339447 0.045748
O O5 0.500000 0.728338 0.750000
O O6 0.338083 0.686744 0.678505
O O7 0.342010 0.777550 0.527992
O O8 0.394570 0.777189 0.855506
O O9 0.130280 0.474807 0.826055
O O10 0.000000 0.550453 0.750000
O O11 0.000000 0.500000 0.500000
O O12 0.809060 0.383624 0.503451
O O13 0.500000 0.103491 0.250000
O O14 0.382286 0.114545 0.340817
#
# Coordination Sequence:
#
# PCOD8129735 Si02
#       6
#     8   8   8   8   8   8
#     4  11  17  27  41  67  91 122 142 172 220 271
#     4  10  19  33  47  63  81 119 153 193 222 258
#     4  11  17  24  40  65  93 126 145 165 215 271
#     4  10  19  30  48  63  87 117 155 182 222 258
#     4  10  16  28  42  64  93 123 147 179 206 263
#     4  10  17  27  42  59  95 117 144 179 216 259
#
# _framework density 15.394515
#
# number of rings (size 3 to 8) (size 9 to 14) (size 15 to 20)
#    0.000    1.667    6.667    2.000    0.000    0.667 
#    0.000    0.000    0.000    0.000    0.000    1.167 
#    0.000    0.000    0.000    0.000    0.000    0.000 
#
# Total GULP energy -297401.963243 kJ/mol
# GULP energy per Si atom -12391.748468 kJ/mol
# Density = 1.535948 g / cm^3
# Si number density = 15.394515 Si / 1000 Ang^3
#
#
#
# Elastic Constant Matrix: (Units=GPa)
#
#
# Indices 1 2 3 4 5 6 
#
# 1 99.0342 46.9381 43.4164 0.0000 -14.0150 0.0000
# 2 46.9381 81.9315 27.7947 0.0000 -1.3630 0.0000
# 3 43.4164 27.7947 64.2661 0.0000 -24.0330 0.0000
# 4 0.0000 0.0000 0.0000 10.9853 0.0000 2.1088
# 5 -14.0150 -1.3630 -24.0330 0.0000 27.8076 0.0000
# 6 0.0000 0.0000 0.0000 2.1088 0.0000 19.4551
#
#
#
# Elastic Compliance Matrix: (Units=1/GPa)
#
#
# Indices 1 2 3 4 5 6 
#
# 1 0.017169 -0.007094 -0.008015 0.000000 0.001378 0.000000
# 2 -0.007094 0.018180 -0.006020 0.000000 -0.007887 0.000000
# 3 -0.008015 -0.006020 0.032444 0.000000 0.023705 0.000000
# 4 0.000000 0.000000 0.000000 0.092965 0.000000 -0.010077
# 5 0.001378 -0.007887 0.023705 0.000000 0.056756 0.000000
# 6 0.000000 0.000000 0.000000 -0.010077 0.000000 0.052493
#
#
# Mechanical properties :
#
#
# Convention : Reuss Voigt Hill
#
# Bulk Modulus (GPa) = 39.16287 53.50335 46.33311
# Shear Modulus (GPa) = 15.58718 20.12178 17.85448
#
# Velocity S-wave (km/s) = 3.18546 3.61927 3.40927
# Velocity P-wave (km/s) = 6.24694 7.23158 6.75722
#
# Compressibility (1/GPa) = 0.02553439
#
# Stress axis : x y z
#
# Youngs Moduli (GPa) = 58.24610 55.00462 30.82272
#
# Poissons Ratio (x) = 0.39019 0.24705
# Poissons Ratio (y) = 0.41318 0.18555
# Poissons Ratio (z) = 0.46686 0.33113
#
# Static dielectric constant tensor:
#      x y z
#    x 2.888250 0.000000 -0.382960 
#    y 0.000000 2.990110 0.000000 
#    z -0.382960 0.000000 3.112820 
# 
# 
# High freq. dielectric constant tensor:
#      x y z
#    x 1.556240 0.000000 -0.041890 
#    y 0.000000 1.582190 0.000000 
#    z -0.041890 0.000000 1.585370 
# 
# From -- ./inp_files/41666.got.cif
#   From: 2010.06.25/outbox.cif.g09.slc.cpg/sg15_21_cif.got.tgz:41666.got - 2010.06.28 07:06:18.
