data_PCOD8129999
_publ_section_title
;
Structure prediction by ZEFSAII (Michael W. Deem and Ramdas Pophale) SiO2 
 PCOD8129999
Probable space group: C 2/C
;
_chemical_formula_sum "Si O2"
_cell_formula_units_Z 44
_cell_length_a 17.221914
_cell_length_b 9.173032
_cell_length_c 16.605894
_cell_angle_alpha 90.000000
_cell_angle_beta 109.371384
_cell_angle_gamma 90.000000
_cell_volume 2474.840044
_symmetry_space_group_name_H-M "C 2/C"
_symmetry_group_IT_number 15
_symmetry_cell_setting 'monoclinic'
loop_
_space_group_symop_operation_xyz
x,y,z
-x,y,1/2-z
-x,-y,-z
x,-y,1/2+z
1/2+x,1/2+y,z
1/2-x,1/2+y,1/2-z
1/2-x,1/2-y,-z
1/2+x,1/2-y,1/2+z
loop_
_atom_site_type_symbol
_atom_site_label
_atom_site_fract_x
_atom_site_fract_y
_atom_site_fract_z
Si Si1 0.791830 0.363669 0.836538
Si Si2 0.942519 0.836269 0.394129
Si Si3 0.000000 0.068252 0.750000
Si Si4 0.727768 0.184586 0.665016
Si Si5 0.157984 0.004321 0.385383
Si Si6 0.107038 0.890017 0.533930
O O1 0.874619 0.284117 0.894253
O O2 0.750249 0.282973 0.747911
O O3 0.812290 0.531062 0.818492
O O4 0.723935 0.368045 0.886167
O O5 0.963306 0.826352 0.306673
O O6 0.023427 0.810926 0.476030
O O7 0.908862 0.999316 0.398311
O O8 0.069581 0.963977 0.813400
O O9 0.809730 0.149159 0.641344
O O10 0.665436 0.263211 0.583903
O O11 0.148360 0.986435 0.477458
#
# Coordination Sequence:
#
# PCOD8129999 Si02
#       6
#     8   8   4   8   8   8
#     4  10  20  35  55  82 108 148 185 229 272 329
#     4  10  20  35  56  81 109 150 185 229 273 331
#     4  10  16  36  56  78 106 150 190 214 268 344
#     4  10  19  34  55  81 109 143 186 228 270 328
#     4   9  20  31  58  81 106 146 185 228 273 329
#     4  10  20  35  56  82 112 144 187 228 280 328
#
# _framework density 17.778925999999998
#
# number of rings (size 3 to 8) (size 9 to 14) (size 15 to 20)
#    1.091    1.091    1.818    2.727    0.000    1.455 
#    0.000    0.000    0.000    8.727    0.000    0.000 
#    0.000    0.000    0.000    0.000    0.000    0.000 
#
# Total GULP energy -272639.960467 kJ/mol
# GULP energy per Si atom -12392.725476 kJ/mol
# Density = 1.773846 g / cm^3
# Si number density = 17.778926 Si / 1000 Ang^3
#
#
#
# Elastic Constant Matrix: (Units=GPa)
#
#
# Indices 1 2 3 4 5 6 
#
# 1 115.0433 39.9500 47.9633 0.0000 3.3881 0.0000
# 2 39.9500 63.7995 54.3499 0.0000 -2.1187 0.0000
# 3 47.9633 54.3499 89.8415 0.0000 7.9795 0.0000
# 4 0.0000 0.0000 0.0000 25.7094 0.0000 1.1144
# 5 3.3881 -2.1187 7.9795 0.0000 16.6323 0.0000
# 6 0.0000 0.0000 0.0000 1.1144 0.0000 34.6060
#
#
#
# Elastic Compliance Matrix: (Units=1/GPa)
#
#
# Indices 1 2 3 4 5 6 
#
# 1 0.011710 -0.004431 -0.003456 0.000000 -0.001292 0.000000
# 2 -0.004431 0.037531 -0.021771 0.000000 0.016129 0.000000
# 3 -0.003456 -0.021771 0.027502 0.000000 -0.015264 0.000000
# 4 0.000000 0.000000 0.000000 0.038951 0.000000 -0.001254
# 5 -0.001292 0.016129 -0.015264 0.000000 0.069764 0.000000
# 6 0.000000 0.000000 0.000000 -0.001254 0.000000 0.028937
#
#
# Mechanical properties :
#
#
# Convention : Reuss Voigt Hill
#
# Bulk Modulus (GPa) = 57.38612 61.46785 59.42699
# Shear Modulus (GPa) = 17.88766 23.81761 20.85264
#
# Velocity S-wave (km/s) = 3.17537 3.66410 3.42846
# Velocity P-wave (km/s) = 6.76696 7.24909 7.01217
#
# Compressibility (1/GPa) = 0.01742582
#
# Stress axis : x y z
#
# Youngs Moduli (GPa) = 85.39579 26.64448 36.36071
#
# Poissons Ratio (x) = 0.11807 0.12567
# Poissons Ratio (y) = 0.37841 0.79162
# Poissons Ratio (z) = 0.29515 0.58009
#
# Static dielectric constant tensor:
#      x y z
#    x 3.491550 0.000000 0.039300 
#    y 0.000000 2.989190 0.000000 
#    z 0.039300 0.000000 3.190700 
# 
# 
# High freq. dielectric constant tensor:
#      x y z
#    x 1.697100 0.000000 0.005220 
#    y 0.000000 1.652050 0.000000 
#    z 0.005220 0.000000 1.694100 
# 
# From -- ./inp_files/159974.got.cif
#   From: 2010.06.25/outbox.cif.g09.slc.cpg/sg15_80_cif.got.tgz:159974.got - 2010.06.28 07:06:18.
