data_PCOD8129286
_publ_section_title
;
Structure prediction by ZEFSAII (Michael W. Deem and Ramdas Pophale) SiO2 
 PCOD8129286
Probable space group: P 21/C
;
_chemical_formula_sum "Si O2"
_cell_formula_units_Z 16
_cell_length_a 5.168509
_cell_length_b 7.321247
_cell_length_c 14.889700
_cell_angle_alpha 90.000000
_cell_angle_beta 73.334660
_cell_angle_gamma 90.000000
_cell_volume 539.759194
_symmetry_space_group_name_H-M "P 21/C"
_symmetry_group_IT_number 14
_symmetry_cell_setting 'monoclinic'
loop_
_space_group_symop_operation_xyz
x,y,z
-x,1/2+y,1/2-z
-x,-y,-z
x,1/2-y,1/2+z
loop_
_atom_site_type_symbol
_atom_site_label
_atom_site_fract_x
_atom_site_fract_y
_atom_site_fract_z
Si Si1 0.268400 0.366528 0.280719
Si Si2 0.620800 0.015146 0.587034
Si Si3 0.076481 0.203613 0.019048
Si Si4 0.297330 0.457388 0.661098
O O1 0.389226 0.483127 0.185217
O O2 0.440019 0.413332 0.355202
O O3 0.278627 0.152494 0.256515
O O4 0.961479 0.417696 0.328449
O O5 0.810147 0.829413 0.574492
O O6 0.500000 0.000000 0.500000
O O7 0.809099 0.194782 0.584813
O O8 0.305136 0.184599 0.076130
O O9 0.000000 0.000000 0.000000
#
# Coordination Sequence:
#
# PCOD8129286 Si02
#       4
#     4   4   4   4
#     4  12  27  49  77 111 155 202 252 318 383 455
#     4  11  25  50  79 108 159 202 250 326 388 443
#     4  11  27  50  78 116 150 202 264 315 381 464
#     4  12  27  50  76 113 154 201 257 309 388 462
#
# _framework density 29.642848000000001
#
# number of rings (size 3 to 8) (size 9 to 14) (size 15 to 20)
#    0.000    0.500    2.500    4.500    7.000    3.000 
#    4.500    0.000    0.000    0.000    0.000    0.000 
#    0.000    0.000    0.000    0.000    0.000    0.000 
#
# Total GULP energy -198426.453752 kJ/mol
# GULP energy per Si atom -12401.653359 kJ/mol
# Density = 2.957538 g / cm^3
# Si number density = 29.642848 Si / 1000 Ang^3
#
#
#
# Elastic Constant Matrix: (Units=GPa)
#
#
# Indices 1 2 3 4 5 6 
#
# 1 146.1204 54.8259 -3.1647 0.0000 36.7531 0.0000
# 2 54.8259 184.4028 -1.7410 0.0000 16.7170 0.0000
# 3 -3.1647 -1.7410 72.1458 0.0000 16.2393 0.0000
# 4 0.0000 0.0000 0.0000 43.5255 0.0000 4.8545
# 5 36.7531 16.7170 16.2393 0.0000 62.9025 0.0000
# 6 0.0000 0.0000 0.0000 4.8545 0.0000 54.5347
#
#
#
# Elastic Compliance Matrix: (Units=1/GPa)
#
#
# Indices 1 2 3 4 5 6 
#
# 1 0.008966 -0.002195 0.001474 0.000000 -0.005036 0.000000
# 2 -0.002195 0.006111 0.000136 0.000000 -0.000376 0.000000
# 3 0.001474 0.000136 0.015003 0.000000 -0.004770 0.000000
# 4 0.000000 0.000000 0.000000 0.023205 0.000000 -0.002066
# 5 -0.005036 -0.000376 -0.004770 0.000000 0.020172 0.000000
# 6 0.000000 0.000000 0.000000 -0.002066 0.000000 0.018521
#
#
# Mechanical properties :
#
#
# Convention : Reuss Voigt Hill
#
# Bulk Modulus (GPa) = 34.59209 55.83438 45.21324
# Shear Modulus (GPa) = 48.64549 55.70913 52.17731
#
# Velocity S-wave (km/s) = 4.05539 4.33984 4.20002
# Velocity P-wave (km/s) = 5.79855 6.63241 6.22945
#
# Compressibility (1/GPa) = 0.02890834
#
# Stress axis : x y z
#
# Youngs Moduli (GPa) = 111.53369 163.63887 66.65544
#
# Poissons Ratio (x) = 0.35923 -0.09824
# Poissons Ratio (y) = 0.24485 -0.00906
# Poissons Ratio (z) = -0.16438 -0.02224
#
# Static dielectric constant tensor:
#      x y z
#    x 5.708010 0.000000 0.410820 
#    y 0.000000 5.927380 0.000000 
#    z 0.410820 0.000000 6.362280 
# 
# 
# High freq. dielectric constant tensor:
#      x y z
#    x 2.210670 0.000000 0.007120 
#    y 0.000000 2.241240 0.000000 
#    z 0.007120 0.000000 2.232950 
# 
# From -- ./inp_files/52540.got.cif
#   From: 2010.03.12/outbox.cif.g09.slc.cpg/sg14_27_cif.got.tgz:52540.got - 2010.03.31 13:35:05.
