data_PCOD8129080
_publ_section_title
;
Structure prediction by ZEFSAII (Michael W. Deem and Ramdas Pophale) SiO2 
 PCOD8129080
Probable space group: P 21/C
;
_chemical_formula_sum "Si O2"
_cell_formula_units_Z 16
_cell_length_a 9.924250
_cell_length_b 8.690483
_cell_length_c 9.643043
_cell_angle_alpha 90.000000
_cell_angle_beta 138.784054
_cell_angle_gamma 90.000000
_cell_volume 547.992300
_symmetry_space_group_name_H-M "P 21/C"
_symmetry_group_IT_number 14
_symmetry_cell_setting 'monoclinic'
loop_
_space_group_symop_operation_xyz
x,y,z
-x,1/2+y,1/2-z
-x,-y,-z
x,1/2-y,1/2+z
loop_
_atom_site_type_symbol
_atom_site_label
_atom_site_fract_x
_atom_site_fract_y
_atom_site_fract_z
Si Si1 0.131085 0.560707 0.914069
Si Si2 0.060889 0.807622 0.064982
Si Si3 0.270722 0.968113 0.991483
Si Si4 0.640230 0.778311 0.330403
O O1 0.126749 0.672896 0.776099
O O2 0.904324 0.481509 0.762568
O O3 0.184924 0.668260 0.086522
O O4 0.296933 0.425095 0.025392
O O5 0.129823 0.955421 0.024593
O O6 0.821315 0.760460 0.862537
O O7 0.397543 0.128166 0.102916
O O8 0.429546 0.827503 0.089473
#
# Coordination Sequence:
#
# PCOD8129080 Si02
#       4
#     4   4   4   4
#     4  11  24  47  74 103 143 186 234 291 348 413
#     4  11  25  48  73 103 143 185 236 292 346 415
#     4  11  24  44  71 105 142 184 233 289 352 416
#     4  11  24  43  72 106 141 185 232 288 354 416
#
# _framework density 29.197489999999998
#
# number of rings (size 3 to 8) (size 9 to 14) (size 15 to 20)
#    0.000    1.000    0.000    8.250    0.000    2.000 
#    0.000   17.500    0.000    1.500    0.000    0.000 
#    0.000    0.000    0.000    0.000    0.000    0.000 
#
# Total GULP energy -198279.187038 kJ/mol
# GULP energy per Si atom -12392.449190 kJ/mol
# Density = 2.913104 g / cm^3
# Si number density = 29.197490 Si / 1000 Ang^3
#
#
#
# Elastic Constant Matrix: (Units=GPa)
#
#
# Indices 1 2 3 4 5 6 
#
# 1 107.6532 30.3909 30.4139 0.0000 2.4181 0.0000
# 2 30.3909 81.2201 42.3876 0.0000 9.4749 0.0000
# 3 30.4139 42.3876 112.4073 0.0000 23.2159 0.0000
# 4 0.0000 0.0000 0.0000 61.6881 0.0000 19.1049
# 5 2.4181 9.4749 23.2159 0.0000 48.4255 0.0000
# 6 0.0000 0.0000 0.0000 19.1049 0.0000 47.6530
#
#
#
# Elastic Compliance Matrix: (Units=1/GPa)
#
#
# Indices 1 2 3 4 5 6 
#
# 1 0.010689 -0.003111 -0.001925 0.000000 0.000998 0.000000
# 2 -0.003111 0.016237 -0.005169 0.000000 -0.000544 0.000000
# 3 -0.001925 -0.005169 0.012361 0.000000 -0.004819 0.000000
# 4 0.000000 0.000000 0.000000 0.018509 0.000000 -0.007420
# 5 0.000998 -0.000544 -0.004819 0.000000 0.023017 0.000000
# 6 0.000000 0.000000 0.000000 -0.007420 0.000000 0.023960
#
#
# Mechanical properties :
#
#
# Convention : Reuss Voigt Hill
#
# Bulk Modulus (GPa) = 52.97334 56.40727 54.69031
# Shear Modulus (GPa) = 38.02974 44.75919 41.39447
#
# Velocity S-wave (km/s) = 3.61293 3.91958 3.76937
# Velocity P-wave (km/s) = 5.96547 6.31231 6.14134
#
# Compressibility (1/GPa) = 0.01887742
#
# Stress axis : x y z
#
# Youngs Moduli (GPa) = 93.55546 61.58622 80.89710
#
# Poissons Ratio (x) = 0.19162 0.15572
# Poissons Ratio (y) = 0.29109 0.41814
# Poissons Ratio (z) = 0.18008 0.31833
#
# Static dielectric constant tensor:
#      x y z
#    x 5.061820 0.000000 0.362860 
#    y 0.000000 5.963390 0.000000 
#    z 0.362860 0.000000 4.953190 
# 
# 
# High freq. dielectric constant tensor:
#      x y z
#    x 2.160920 0.000000 0.024380 
#    y 0.000000 2.241880 0.000000 
#    z 0.024380 0.000000 2.163510 
# 
# From -- ./inp_files/27926.got.cif
#   From: 2010.03.12/outbox.cif.g09.slc.cpg/sg14_14_cif.got.tgz:27926.got - 2010.03.31 13:35:05.
