data_PCOD8129906
_publ_section_title
;
Structure prediction by ZEFSAII (Michael W. Deem and Ramdas Pophale) SiO2 
 PCOD8129906
Probable space group: C 2/C
;
_chemical_formula_sum "Si O2"
_cell_formula_units_Z 60
_cell_length_a 24.655230
_cell_length_b 12.799757
_cell_length_c 7.428753
_cell_angle_alpha 90.000000
_cell_angle_beta 78.610101
_cell_angle_gamma 90.000000
_cell_volume 2298.202882
_symmetry_space_group_name_H-M "C 2/C"
_symmetry_group_IT_number 15
_symmetry_cell_setting 'monoclinic'
loop_
_space_group_symop_operation_xyz
x,y,z
-x,y,1/2-z
-x,-y,-z
x,-y,1/2+z
1/2+x,1/2+y,z
1/2-x,1/2+y,1/2-z
1/2-x,1/2-y,-z
1/2+x,1/2-y,1/2+z
loop_
_atom_site_type_symbol
_atom_site_label
_atom_site_fract_x
_atom_site_fract_y
_atom_site_fract_z
Si Si1 0.000000 0.892125 0.250000
Si Si2 0.527704 0.785285 0.008479
Si Si3 0.899703 0.570376 0.265886
Si Si4 0.797666 0.308763 0.745374
Si Si5 0.091242 0.656009 0.841437
Si Si6 0.177730 0.184721 0.410678
Si Si7 0.634032 0.327711 0.531911
Si Si8 0.115771 0.967484 0.196791
O O1 0.014195 0.817613 0.406044
O O2 0.051680 0.967756 0.173382
O O3 0.547116 0.884262 0.876300
O O4 0.582486 0.755383 0.095223
O O5 0.472228 0.810156 0.155666
O O6 0.841621 0.596694 0.205070
O O7 0.903608 0.624419 0.455368
O O8 0.900134 0.445524 0.289323
O O9 0.734426 0.347234 0.770057
O O10 0.810312 0.230022 0.570622
O O11 0.807507 0.258432 0.933198
O O12 0.139518 0.747794 0.788812
O O13 0.148405 0.083933 0.510077
O O14 0.618532 0.405037 0.378522
O O15 0.639382 0.411866 0.695400
#
# Coordination Sequence:
#
# PCOD8129906 Si02
#       8
#     4   8   8   8   8   8   8   8
#     4  10  16  32  56  70 100 140 178 204 248 312
#     4  10  17  33  53  72 103 140 172 203 252 314
#     4  10  20  32  56  77 101 133 173 214 253 305
#     4   8  17  35  54  76 102 140 179 211 251 315
#     4  11  19  34  54  78 101 135 171 215 255 306
#     4   9  17  33  56  76 102 140 181 209 249 320
#     4   9  20  34  56  77 106 138 177 217 260 311
#     4  10  19  33  54  80 102 140 176 214 261 310
#
# _framework density 26.107354999999998
#
# number of rings (size 3 to 8) (size 9 to 14) (size 15 to 20)
#    0.000    2.400    2.667    2.000    0.000    3.200 
#    0.000    2.667    2.933    1.600    0.000    0.000 
#    0.000    0.000    0.000    0.000    0.000    0.000 
#
# Total GULP energy -371984.918419 kJ/mol
# GULP energy per Si atom -12399.497281 kJ/mol
# Density = 2.604793 g / cm^3
# Si number density = 26.107355 Si / 1000 Ang^3
#
#
#
# Elastic Constant Matrix: (Units=GPa)
#
#
# Indices 1 2 3 4 5 6 
#
# 1 152.3619 43.6064 69.5982 0.0000 -39.9127 0.0000
# 2 43.6064 130.8098 49.0398 0.0000 -29.3036 0.0000
# 3 69.5982 49.0398 104.3924 0.0000 -24.0941 0.0000
# 4 0.0000 0.0000 0.0000 42.2027 0.0000 -1.8123
# 5 -39.9127 -29.3036 -24.0941 0.0000 60.4370 0.0000
# 6 0.0000 0.0000 0.0000 -1.8123 0.0000 18.3108
#
#
#
# Elastic Compliance Matrix: (Units=1/GPa)
#
#
# Indices 1 2 3 4 5 6 
#
# 1 0.010471 -0.000318 -0.005805 0.000000 0.004446 0.000000
# 2 -0.000318 0.009825 -0.003692 0.000000 0.003082 0.000000
# 3 -0.005805 -0.003692 0.015293 0.000000 0.000473 0.000000
# 4 0.000000 0.000000 0.000000 0.023796 0.000000 0.002355
# 5 0.004446 0.003082 0.000473 0.000000 0.021165 0.000000
# 6 0.000000 0.000000 0.000000 0.002355 0.000000 0.054846
#
#
# Mechanical properties :
#
#
# Convention : Reuss Voigt Hill
#
# Bulk Modulus (GPa) = 62.66328 79.11698 70.89013
# Shear Modulus (GPa) = 31.18227 39.21142 35.19684
#
# Velocity S-wave (km/s) = 3.45974 3.87968 3.67571
# Velocity P-wave (km/s) = 6.32566 7.10208 6.72508
#
# Compressibility (1/GPa) = 0.01595831
#
# Stress axis : x y z
#
# Youngs Moduli (GPa) = 95.50205 101.77797 65.38854
#
# Poissons Ratio (x) = 0.03238 0.37960
# Poissons Ratio (y) = 0.03038 0.24143
# Poissons Ratio (z) = 0.55442 0.37578
#
# Static dielectric constant tensor:
#      x y z
#    x 5.372390 0.000000 0.117300 
#    y 0.000000 5.216190 0.000000 
#    z 0.117300 0.000000 5.047650 
# 
# 
# High freq. dielectric constant tensor:
#      x y z
#    x 2.055330 0.000000 0.021390 
#    y 0.000000 2.050270 0.000000 
#    z 0.021390 0.000000 2.091690 
# 
# From -- ./inp_files/117539.got.cif
#   From: 2010.06.25/outbox.cif.g09.slc.cpg/sg15_59_cif.got.tgz:117539.got - 2010.06.28 07:06:18.
