data_PCOD8129259
_publ_section_title
;
Structure prediction by ZEFSAII (Michael W. Deem and Ramdas Pophale) SiO2 
 PCOD8129259
Probable space group: P 21/C
;
_chemical_formula_sum "Si O2"
_cell_formula_units_Z 28
_cell_length_a 9.530838
_cell_length_b 8.429798
_cell_length_c 15.509172
_cell_angle_alpha 90.000000
_cell_angle_beta 104.345133
_cell_angle_gamma 90.000000
_cell_volume 1207.203126
_symmetry_space_group_name_H-M "P 21/C"
_symmetry_group_IT_number 14
_symmetry_cell_setting 'monoclinic'
loop_
_space_group_symop_operation_xyz
x,y,z
-x,1/2+y,1/2-z
-x,-y,-z
x,1/2-y,1/2+z
loop_
_atom_site_type_symbol
_atom_site_label
_atom_site_fract_x
_atom_site_fract_y
_atom_site_fract_z
Si Si1 0.350882 0.406329 0.476118
Si Si2 0.180298 0.101982 0.271509
Si Si3 0.081087 0.776810 0.221572
Si Si4 0.131653 0.681638 0.424369
Si Si5 0.243319 0.609720 0.094662
Si Si6 0.811989 0.749129 0.399645
Si Si7 0.448471 0.093538 0.408197
O O1 0.500000 0.500000 0.500000
O O2 0.214743 0.514746 0.429795
O O3 0.313518 0.329567 0.562599
O O4 0.377736 0.265735 0.412995
O O5 0.237199 0.221809 0.206493
O O6 0.313232 0.010991 0.338885
O O7 0.077853 0.202670 0.320993
O O8 0.081000 0.967124 0.209757
O O9 0.125789 0.750035 0.327458
O O10 0.189528 0.702955 0.169559
O O11 0.219208 0.799278 0.500884
O O12 0.969642 0.669175 0.439744
O O13 0.172903 0.435901 0.078312
O O14 0.416023 0.600574 0.135170
O O15 0.500000 0.000000 0.500000
#
# Coordination Sequence:
#
# PCOD8129259 Si02
#       7
#     4   4   4   4   4   4   4
#     4  12  26  44  73 103 151 188 255 297 382 449
#     4  11  27  46  73 106 148 189 254 314 373 447
#     4  11  26  47  74 109 145 190 257 311 378 441
#     4  11  25  46  75 110 144 196 250 322 371 448
#     4  12  25  47  74 106 152 196 245 311 384 450
#     4  11  26  46  74 107 143 196 255 306 384 438
#     4  12  27  48  72 106 145 203 240 307 378 460
#
# _framework density 23.194105
#
# number of rings (size 3 to 8) (size 9 to 14) (size 15 to 20)
#    0.000    0.571    2.857    4.286    8.000    2.286 
#    0.000    0.000    0.000    0.000    0.000    0.000 
#    0.000    0.000    0.000    0.000    0.000    0.000 
#
# Total GULP energy -347156.181959 kJ/mol
# GULP energy per Si atom -12398.435070 kJ/mol
# Density = 2.314131 g / cm^3
# Si number density = 23.194105 Si / 1000 Ang^3
#
#
#
# Elastic Constant Matrix: (Units=GPa)
#
#
# Indices 1 2 3 4 5 6 
#
# 1 146.3848 28.8971 24.7577 0.0000 -1.4075 0.0000
# 2 28.8971 106.3286 4.1687 0.0000 -2.4721 0.0000
# 3 24.7577 4.1687 67.1410 0.0000 -2.7109 0.0000
# 4 0.0000 0.0000 0.0000 29.3624 0.0000 -7.3178
# 5 -1.4075 -2.4721 -2.7109 0.0000 48.7731 0.0000
# 6 0.0000 0.0000 0.0000 -7.3178 0.0000 48.8641
#
#
#
# Elastic Compliance Matrix: (Units=1/GPa)
#
#
# Indices 1 2 3 4 5 6 
#
# 1 0.007681 -0.001982 -0.002710 0.000000 -0.000029 0.000000
# 2 -0.001982 0.009949 0.000131 0.000000 0.000454 0.000000
# 3 -0.002710 0.000131 0.015918 0.000000 0.000813 0.000000
# 4 0.000000 0.000000 0.000000 0.035378 0.000000 0.005298
# 5 -0.000029 0.000454 0.000813 0.000000 0.020570 0.000000
# 6 0.000000 0.000000 0.000000 0.005298 0.000000 0.021258
#
#
# Mechanical properties :
#
#
# Convention : Reuss Voigt Hill
#
# Bulk Modulus (GPa) = 40.93973 48.38903 44.66438
# Shear Modulus (GPa) = 39.05718 42.86864 40.96291
#
# Velocity S-wave (km/s) = 4.10802 4.30380 4.20705
# Velocity P-wave (km/s) = 6.33959 6.75314 6.54963
#
# Compressibility (1/GPa) = 0.02442615
#
# Stress axis : x y z
#
# Youngs Moduli (GPa) = 130.19763 100.51445 62.82155
#
# Poissons Ratio (x) = 0.19920 0.17027
# Poissons Ratio (y) = 0.25803 -0.00826
# Poissons Ratio (z) = 0.35288 -0.01321
#
# Static dielectric constant tensor:
#      x y z
#    x 4.593460 0.000000 0.064030 
#    y 0.000000 4.449420 0.000000 
#    z 0.064030 0.000000 4.185370 
# 
# 
# High freq. dielectric constant tensor:
#      x y z
#    x 1.933580 0.000000 -0.007330 
#    y 0.000000 1.928820 0.000000 
#    z -0.007330 0.000000 1.907960 
# 
# From -- ./inp_files/54930.got.cif
#   From: 2010.03.12/outbox.cif.g09.slc.cpg/sg14_28_cif.got.tgz:54930.got - 2010.03.31 13:35:05.
