data_PCOD8129495
_publ_section_title
;
Structure prediction by ZEFSAII (Michael W. Deem and Ramdas Pophale) SiO2 
 PCOD8129495
Probable space group: P 21/C
;
_chemical_formula_sum "Si O2"
_cell_formula_units_Z 16
_cell_length_a 9.355331
_cell_length_b 4.905676
_cell_length_c 18.205621
_cell_angle_alpha 90.000000
_cell_angle_beta 47.037178
_cell_angle_gamma 90.000000
_cell_volume 611.439648
_symmetry_space_group_name_H-M "P 21/C"
_symmetry_group_IT_number 14
_symmetry_cell_setting 'monoclinic'
loop_
_space_group_symop_operation_xyz
x,y,z
-x,1/2+y,1/2-z
-x,-y,-z
x,1/2-y,1/2+z
loop_
_atom_site_type_symbol
_atom_site_label
_atom_site_fract_x
_atom_site_fract_y
_atom_site_fract_z
Si Si1 0.593598 0.055765 0.183275
Si Si2 0.664902 0.068770 0.999422
Si Si3 0.026802 0.879086 0.692162
Si Si4 0.982456 0.307420 0.076640
O O1 0.473036 0.247310 0.280586
O O2 0.828255 0.067695 0.113887
O O3 0.555917 0.153118 0.112702
O O4 0.775543 0.319733 0.922289
O O5 0.813072 0.822095 0.967984
O O6 0.500000 0.000000 0.000000
O O7 0.935477 0.599708 0.756016
O O8 0.889952 0.017293 0.677616
O O9 0.000000 0.500000 0.000000
#
# Coordination Sequence:
#
# PCOD8129495 Si02
#       4
#     4   4   4   4
#     4  12  30  50  84 122 161 214 279 332 413 498
#     4  12  30  53  82 120 170 214 277 341 418 498
#     4  12  28  50  83 118 160 214 275 332 420 483
#     4  12  27  56  84 115 170 219 276 345 419 488
#
# _framework density 26.167753999999999
#
# number of rings (size 3 to 8) (size 9 to 14) (size 15 to 20)
#    0.000    0.000    5.000    2.250    7.000    3.000 
#    4.500    0.000    0.000    0.000    0.000    0.000 
#    0.000    0.000    0.000    0.000    0.000    0.000 
#
# Total GULP energy -198361.750550 kJ/mol
# GULP energy per Si atom -12397.609409 kJ/mol
# Density = 2.610819 g / cm^3
# Si number density = 26.167754 Si / 1000 Ang^3
#
#
#
# Elastic Constant Matrix: (Units=GPa)
#
#
# Indices 1 2 3 4 5 6 
#
# 1 163.6165 30.8183 40.4383 0.0000 10.8019 0.0000
# 2 30.8183 112.8021 27.0415 0.0000 9.6255 0.0000
# 3 40.4383 27.0415 136.3862 0.0000 37.5054 0.0000
# 4 0.0000 0.0000 0.0000 40.9848 0.0000 0.7959
# 5 10.8019 9.6255 37.5054 0.0000 45.7367 0.0000
# 6 0.0000 0.0000 0.0000 0.7959 0.0000 45.3365
#
#
#
# Elastic Compliance Matrix: (Units=1/GPa)
#
#
# Indices 1 2 3 4 5 6 
#
# 1 0.006813 -0.001449 -0.001774 0.000000 0.000151 0.000000
# 2 -0.001449 0.009627 -0.001312 0.000000 -0.000608 0.000000
# 3 -0.001774 -0.001312 0.010235 0.000000 -0.007698 0.000000
# 4 0.000000 0.000000 0.000000 0.024408 0.000000 -0.000428
# 5 0.000151 -0.000608 -0.007698 0.000000 0.028269 0.000000
# 6 0.000000 0.000000 0.000000 -0.000428 0.000000 0.022065
#
#
# Mechanical properties :
#
#
# Convention : Reuss Voigt Hill
#
# Bulk Modulus (GPa) = 56.80096 67.71121 62.25609
# Shear Modulus (GPa) = 42.97134 47.37871 45.17503
#
# Velocity S-wave (km/s) = 4.05674 4.25970 4.15946
# Velocity P-wave (km/s) = 6.61033 7.07993 6.84916
#
# Compressibility (1/GPa) = 0.01760534
#
# Stress axis : x y z
#
# Youngs Moduli (GPa) = 146.77066 103.87069 97.70162
#
# Poissons Ratio (x) = 0.15051 0.17335
# Poissons Ratio (y) = 0.21267 0.12819
# Poissons Ratio (z) = 0.26042 0.13628
#
# Static dielectric constant tensor:
#      x y z
#    x 5.129150 0.000000 0.359100 
#    y 0.000000 5.094840 0.000000 
#    z 0.359100 0.000000 5.278060 
# 
# 
# High freq. dielectric constant tensor:
#      x y z
#    x 2.044160 0.000000 0.027950 
#    y 0.000000 2.055170 0.000000 
#    z 0.027950 0.000000 2.066350 
# 
# From -- ./inp_files/53920.got.cif
#   From: 2010.03.12/outbox.cif.g09.slc.cpg/sg14_27_cif.got.tgz:53920.got - 2010.03.31 13:35:05.
