data_PCOD8129481
_publ_section_title
;
Structure prediction by ZEFSAII (Michael W. Deem and Ramdas Pophale) SiO2 
 PCOD8129481
Probable space group: P 21/C
;
_chemical_formula_sum "Si O2"
_cell_formula_units_Z 12
_cell_length_a 6.452958
_cell_length_b 8.252530
_cell_length_c 14.687681
_cell_angle_alpha 90.000000
_cell_angle_beta 139.348675
_cell_angle_gamma 90.000000
_cell_volume 509.545542
_symmetry_space_group_name_H-M "P 21/C"
_symmetry_group_IT_number 14
_symmetry_cell_setting 'monoclinic'
loop_
_space_group_symop_operation_xyz
x,y,z
-x,1/2+y,1/2-z
-x,-y,-z
x,1/2-y,1/2+z
loop_
_atom_site_type_symbol
_atom_site_label
_atom_site_fract_x
_atom_site_fract_y
_atom_site_fract_z
Si Si1 0.212706 0.682280 0.711504
Si Si2 0.070939 0.320008 0.054717
Si Si3 0.812506 0.106928 0.121390
O O1 0.567675 0.684991 0.789649
O O2 0.184749 0.821248 0.777206
O O3 0.966860 0.710094 0.547406
O O4 0.125229 0.506134 0.721575
O O5 0.841210 0.253324 0.057852
O O6 0.000000 0.500000 0.000000
O O7 0.500000 0.000000 0.000000
#
# Coordination Sequence:
#
# PCOD8129481 Si02
#       3
#     4   4   4
#     4  12  27  47  76 107 152 194 250 311 375 445
#     4  12  28  46  76 108 150 199 250 309 378 442
#     4  12  28  48  76 113 150 194 254 310 372 446
#
# _framework density 23.550398000000001
#
# number of rings (size 3 to 8) (size 9 to 14) (size 15 to 20)
#    0.000    0.000    3.333    5.000   14.000    2.667 
#    0.000    0.000    0.000    0.000    0.000    0.000 
#    0.000    0.000    0.000    0.000    0.000    0.000 
#
# Total GULP energy -148861.347741 kJ/mol
# GULP energy per Si atom -12405.112312 kJ/mol
# Density = 2.349680 g / cm^3
# Si number density = 23.550398 Si / 1000 Ang^3
#
#
#
# Elastic Constant Matrix: (Units=GPa)
#
#
# Indices 1 2 3 4 5 6 
#
# 1 91.4189 21.2353 18.3751 0.0000 15.6409 0.0000
# 2 21.2353 98.1942 9.2533 0.0000 22.3969 0.0000
# 3 18.3751 9.2533 90.5503 0.0000 12.8201 0.0000
# 4 0.0000 0.0000 0.0000 44.1826 0.0000 -3.3537
# 5 15.6409 22.3969 12.8201 0.0000 34.8151 0.0000
# 6 0.0000 0.0000 0.0000 -3.3537 0.0000 56.5801
#
#
#
# Elastic Compliance Matrix: (Units=1/GPa)
#
#
# Indices 1 2 3 4 5 6 
#
# 1 0.012332 -0.001623 -0.001794 0.000000 -0.003836 0.000000
# 2 -0.001623 0.012150 0.000096 0.000000 -0.007123 0.000000
# 3 -0.001794 0.000096 0.011914 0.000000 -0.003643 0.000000
# 4 0.000000 0.000000 0.000000 0.022736 0.000000 0.001348
# 5 -0.003836 -0.007123 -0.003643 0.000000 0.036370 0.000000
# 6 0.000000 0.000000 0.000000 0.001348 0.000000 0.017754
#
#
# Mechanical properties :
#
#
# Convention : Reuss Voigt Hill
#
# Bulk Modulus (GPa) = 33.60746 41.98786 37.79766
# Shear Modulus (GPa) = 38.51617 42.53554 40.52586
#
# Velocity S-wave (km/s) = 4.04849 4.25449 4.15277
# Velocity P-wave (km/s) = 6.01291 6.48089 6.25128
#
# Compressibility (1/GPa) = 0.02975530
#
# Stress axis : x y z
#
# Youngs Moduli (GPa) = 81.08675 82.30152 83.93827
#
# Poissons Ratio (x) = 0.13358 0.15056
# Poissons Ratio (y) = 0.13161 -0.00807
# Poissons Ratio (z) = 0.14544 -0.00791
#
# Static dielectric constant tensor:
#      x y z
#    x 4.309340 0.000000 0.030740 
#    y 0.000000 4.452060 0.000000 
#    z 0.030740 0.000000 4.383690 
# 
# 
# High freq. dielectric constant tensor:
#      x y z
#    x 1.939390 0.000000 0.000890 
#    y 0.000000 1.949360 0.000000 
#    z 0.000890 0.000000 1.936790 
# 
# From -- ./inp_files/4655.got.cif
#   From: 2010.03.12/outbox.cif.g09.slc.cpg/sg14_3_cif.got.tgz:4655.got - 2010.03.31 13:35:05.
