data_PCOD8129522
_publ_section_title
;
Structure prediction by ZEFSAII (Michael W. Deem and Ramdas Pophale) SiO2 
 PCOD8129522
Probable space group: P 21/C
;
_chemical_formula_sum "Si O2"
_cell_formula_units_Z 32
_cell_length_a 12.000000
_cell_length_b 9.000000
_cell_length_c 24.000000
_cell_angle_alpha 90.000000
_cell_angle_beta 40.000000
_cell_angle_gamma 90.000000
_cell_volume 1666.105484
_symmetry_space_group_name_H-M "P 21/C"
_symmetry_group_IT_number 14
_symmetry_cell_setting 'monoclinic'
loop_
_space_group_symop_operation_xyz
x,y,z
-x,1/2+y,1/2-z
-x,-y,-z
x,1/2-y,1/2+z
loop_
_atom_site_type_symbol
_atom_site_label
_atom_site_fract_x
_atom_site_fract_y
_atom_site_fract_z
Si Si1 0.464265 0.158877 0.717572
Si Si2 0.351701 0.770338 0.956458
Si Si3 0.318201 0.371319 0.861776
Si Si4 0.804943 0.832117 0.469842
Si Si5 0.994232 0.893005 0.596803
Si Si6 0.338596 0.225723 0.587143
Si Si7 0.142234 0.158433 0.771541
Si Si8 0.185330 0.467103 0.578926
O O1 0.544568 0.273866 0.641482
O O2 0.427201 0.243578 0.789310
O O3 0.593668 0.028417 0.684121
O O4 0.290773 0.091504 0.755216
O O5 0.469858 0.704307 0.961254
O O6 0.184539 0.669708 0.011178
O O7 0.302186 0.935271 0.993128
O O8 0.123142 0.371071 0.912731
O O9 0.313156 0.345209 0.929853
O O10 0.684223 0.869283 0.461448
O O11 0.976317 0.933328 0.403963
O O12 0.118432 0.333650 0.565024
O O13 0.908650 0.819580 0.683928
O O14 0.198891 0.173529 0.686234
O O15 0.298874 0.399376 0.586608
O O16 0.976874 0.053103 0.834114
#
# Coordination Sequence:
#
# PCOD8129522 Si02
#       8
#     4   4   4   4   4   4   4   4
#     4  10  23  38  62  82 118 153 194 246 288 346
#     4  10  19  41  60  85 115 159 189 236 295 341
#     4  11  23  42  57  88 115 153 200 238 295 345
#     4  10  22  35  59  90 112 148 195 241 280 347
#     4  10  21  39  64  79 119 156 193 237 288 349
#     4   9  21  35  63  84 121 145 199 237 286 345
#     4   9  20  41  56  88 115 155 194 234 297 345
#     4   9  21  36  60  86 118 151 195 233 291 349
#
# _framework density 19.206467
#
# number of rings (size 3 to 8) (size 9 to 14) (size 15 to 20)
#    0.750    1.500    1.250    0.750    3.500    1.500 
#    0.000    1.875    0.000    0.000    0.000    0.000 
#    0.000    0.000    0.000    0.000    0.000    0.000 
#
# Total GULP energy -396586.268539 kJ/mol
# GULP energy per Si atom -12393.320892 kJ/mol
# Density = 1.916275 g / cm^3
# Si number density = 19.206467 Si / 1000 Ang^3
#
#
#
# Elastic Constant Matrix: (Units=GPa)
#
#
# Indices 1 2 3 4 5 6 
#
# 1 108.7439 36.5753 68.7992 0.0000 11.6291 0.0000
# 2 36.5753 73.8077 37.7397 0.0000 8.9496 0.0000
# 3 68.7992 37.7397 101.6060 0.0000 12.4229 0.0000
# 4 0.0000 0.0000 0.0000 24.9412 0.0000 -3.8616
# 5 11.6291 8.9496 12.4229 0.0000 35.0958 0.0000
# 6 0.0000 0.0000 0.0000 -3.8616 0.0000 27.7963
#
#
#
# Elastic Compliance Matrix: (Units=1/GPa)
#
#
# Indices 1 2 3 4 5 6 
#
# 1 0.016680 -0.002987 -0.010037 0.000000 -0.001213 0.000000
# 2 -0.002987 0.017418 -0.004207 0.000000 -0.001963 0.000000
# 3 -0.010037 -0.004207 0.018462 0.000000 -0.002136 0.000000
# 4 0.000000 0.000000 0.000000 0.040976 0.000000 0.005693
# 5 -0.001213 -0.001963 -0.002136 0.000000 0.030152 0.000000
# 6 0.000000 0.000000 0.000000 0.005693 0.000000 0.036767
#
#
# Mechanical properties :
#
#
# Convention : Reuss Voigt Hill
#
# Bulk Modulus (GPa) = 55.25294 63.37621 59.31458
# Shear Modulus (GPa) = 24.88190 26.96954 25.92572
#
# Velocity S-wave (km/s) = 3.60320 3.75132 3.67801
# Velocity P-wave (km/s) = 6.79273 7.19945 6.99905
#
# Compressibility (1/GPa) = 0.01809858
#
# Stress axis : x y z
#
# Youngs Moduli (GPa) = 59.95146 57.41163 54.16546
#
# Poissons Ratio (x) = 0.17147 0.54365
# Poissons Ratio (y) = 0.17906 0.22789
# Poissons Ratio (z) = 0.60172 0.24155
#
# Static dielectric constant tensor:
#      x y z
#    x 3.492160 0.000000 0.003000 
#    y 0.000000 3.387430 0.000000 
#    z 0.003000 0.000000 3.486610 
# 
# 
# High freq. dielectric constant tensor:
#      x y z
#    x 1.747500 0.000000 0.003590 
#    y 0.000000 1.732110 0.000000 
#    z 0.003590 0.000000 1.749790 
# 
# From -- ./inp_files/73087.got.cif
#   From: 2010.03.12/outbox.ucp.g09.slc.cvg/sg14_37_cif.got.tgz:73087.got - 2010.05.04 20:10:03.
