data_PCOD8129789
_publ_section_title
;
Structure prediction by ZEFSAII (Michael W. Deem and Ramdas Pophale) SiO2 
 PCOD8129789
Probable space group: C 2/C
;
_chemical_formula_sum "Si O2"
_cell_formula_units_Z 64
_cell_length_a 22.500611
_cell_length_b 9.377431
_cell_length_c 19.421744
_cell_angle_alpha 90.000000
_cell_angle_beta 128.424160
_cell_angle_gamma 90.000000
_cell_volume 3210.461199
_symmetry_space_group_name_H-M "C 2/C"
_symmetry_group_IT_number 15
_symmetry_cell_setting 'monoclinic'
loop_
_space_group_symop_operation_xyz
x,y,z
-x,y,1/2-z
-x,-y,-z
x,-y,1/2+z
1/2+x,1/2+y,z
1/2-x,1/2+y,1/2-z
1/2-x,1/2-y,-z
1/2+x,1/2-y,1/2+z
loop_
_atom_site_type_symbol
_atom_site_label
_atom_site_fract_x
_atom_site_fract_y
_atom_site_fract_z
Si Si1 0.805092 0.087348 0.786182
Si Si2 0.776733 0.360542 0.853657
Si Si3 0.634560 0.758776 0.779405
Si Si4 0.161271 0.743116 0.449481
Si Si5 0.786713 0.927264 0.902314
Si Si6 0.458453 0.972466 0.291915
Si Si7 0.679020 0.824127 0.366636
Si Si8 0.612923 0.074532 0.954684
O O1 0.774153 0.232155 0.797689
O O2 0.871317 0.126008 0.778460
O O3 0.738420 0.008918 0.695718
O O4 0.831629 0.981435 0.866441
O O5 0.712834 0.328101 0.866634
O O6 0.857797 0.377294 0.949623
O O7 0.617665 0.715574 0.846942
O O8 0.721411 0.814009 0.835780
O O9 0.575083 0.875243 0.709233
O O10 0.250000 0.750000 0.500000
O O11 0.148307 0.857282 0.501677
O O12 0.136370 0.586303 0.453503
O O13 0.745760 0.058587 0.911069
O O14 0.500000 0.995317 0.250000
O O15 0.389427 0.861976 0.234993
O O16 0.521090 0.915868 0.391208
O O17 0.647793 0.818518 0.422110
#
# Coordination Sequence:
#
# PCOD8129789 Si02
#       8
#     8   8   8   8   8   8   8   8
#     4  11  22  36  55  83 125 158 196 239 306 356
#     4  11  23  35  58  87 118 156 196 253 294 358
#     4  10  17  33  57  82 113 150 198 238 295 350
#     4  10  16  29  56  87 113 140 193 251 299 335
#     4   9  17  31  50  81 114 148 182 245 294 348
#     4   9  17  35  59  86 115 152 192 247 292 359
#     4   9  18  34  56  84 119 142 190 244 306 345
#     4  11  19  33  59  92 114 147 202 251 299 348
#
# _framework density 19.934830000000002
#
# number of rings (size 3 to 8) (size 9 to 14) (size 15 to 20)
#    0.000    2.000    6.250    1.875    0.000    0.000 
#    0.000    0.625    0.000    6.750    0.000    0.000 
#    0.000    0.000    0.000    0.000    0.000    0.000 
#
# Total GULP energy -396471.379321 kJ/mol
# GULP energy per Si atom -12389.730604 kJ/mol
# Density = 1.988946 g / cm^3
# Si number density = 19.934830 Si / 1000 Ang^3
#
#
#
# Elastic Constant Matrix: (Units=GPa)
#
#
# Indices 1 2 3 4 5 6 
#
# 1 35.9774 27.4512 42.7482 0.0000 -7.0094 0.0000
# 2 27.4512 63.6410 52.3902 0.0000 -9.0147 0.0000
# 3 42.7482 52.3902 129.1008 0.0000 -8.8231 0.0000
# 4 0.0000 0.0000 0.0000 28.3737 0.0000 -13.7885
# 5 -7.0094 -9.0147 -8.8231 0.0000 27.6205 0.0000
# 6 0.0000 0.0000 0.0000 -13.7885 0.0000 36.2044
#
#
#
# Elastic Compliance Matrix: (Units=1/GPa)
#
#
# Indices 1 2 3 4 5 6 
#
# 1 0.052308 -0.011759 -0.012169 0.000000 0.005549 0.000000
# 2 -0.011759 0.026864 -0.006760 0.000000 0.003624 0.000000
# 3 -0.012169 -0.006760 0.014473 0.000000 -0.000671 0.000000
# 4 0.000000 0.000000 0.000000 0.043248 0.000000 0.016471
# 5 0.005549 0.003624 -0.000671 0.000000 0.038582 0.000000
# 6 0.000000 0.000000 0.000000 0.016471 0.000000 0.033894
#
#
# Mechanical properties :
#
#
# Convention : Reuss Voigt Hill
#
# Bulk Modulus (GPa) = 30.99046 52.65539 41.82293
# Shear Modulus (GPa) = 17.76190 25.51502 21.63846
#
# Velocity S-wave (km/s) = 2.98820 3.58148 3.29821
# Velocity P-wave (km/s) = 5.24265 6.60104 5.96067
#
# Compressibility (1/GPa) = 0.03226799
#
# Stress axis : x y z
#
# Youngs Moduli (GPa) = 19.11751 37.22488 69.09463
#
# Poissons Ratio (x) = 0.43772 0.84084
# Poissons Ratio (y) = 0.22480 0.46710
# Poissons Ratio (z) = 0.23265 0.25165
#
# Static dielectric constant tensor:
#      x y z
#    x 3.644400 0.000000 -0.160790 
#    y 0.000000 3.686760 0.000000 
#    z -0.160790 0.000000 4.389080 
# 
# 
# High freq. dielectric constant tensor:
#      x y z
#    x 1.739180 0.000000 -0.026030 
#    y 0.000000 1.761890 0.000000 
#    z -0.026030 0.000000 1.774520 
# 
# From -- ./inp_files/257017.got.cif
#   From: 2010.06.25/outbox.cif.g09.slc.cpg/sg15_129_cif.got.tgz:257017.got - 2010.06.28 07:06:18.
