data_PCOD8129015
_publ_section_title
;
Structure prediction by ZEFSAII (Michael W. Deem and Ramdas Pophale) SiO2 
 PCOD8129015
Probable space group: P 21/C
;
_chemical_formula_sum "Si O2"
_cell_formula_units_Z 28
_cell_length_a 8.743397
_cell_length_b 12.963547
_cell_length_c 10.235432
_cell_angle_alpha 90.000000
_cell_angle_beta 121.119357
_cell_angle_gamma 90.000000
_cell_volume 993.186777
_symmetry_space_group_name_H-M "P 21/C"
_symmetry_group_IT_number 14
_symmetry_cell_setting 'monoclinic'
loop_
_space_group_symop_operation_xyz
x,y,z
-x,1/2+y,1/2-z
-x,-y,-z
x,1/2-y,1/2+z
loop_
_atom_site_type_symbol
_atom_site_label
_atom_site_fract_x
_atom_site_fract_y
_atom_site_fract_z
Si Si1 0.996820 0.121591 0.049352
Si Si2 0.372320 0.085139 0.327990
Si Si3 0.006165 0.358014 0.015367
Si Si4 0.615769 0.577468 0.804510
Si Si5 0.571719 0.225992 0.610269
Si Si6 0.868859 0.415064 0.214803
Si Si7 0.256030 0.930371 0.818520
O O1 0.947631 0.239401 0.998828
O O2 0.875774 0.075406 0.115042
O O3 0.210107 0.125101 0.166448
O O4 0.953006 0.057160 0.895731
O O5 0.440130 0.182094 0.441438
O O6 0.533880 0.029560 0.324523
O O7 0.288576 0.997219 0.386375
O O8 0.011522 0.412784 0.161918
O O9 0.203200 0.379585 0.046048
O O10 0.860657 0.413481 0.863366
O O11 0.479047 0.673581 0.769925
O O12 0.651007 0.543768 0.667540
O O13 0.778622 0.197215 0.676054
O O14 0.577620 0.349285 0.606614
#
# Coordination Sequence:
#
# PCOD8129015 Si02
#       7
#     4   4   4   4   4   4   4
#     4  12  25  46  77 112 156 204 265 326 393 471
#     4  11  25  46  76 112 155 205 250 327 404 469
#     4  12  23  47  76 112 147 207 268 316 387 488
#     4  11  26  43  76 111 151 200 263 321 395 464
#     4  11  23  47  75 112 156 204 264 324 401 466
#     4  11  23  48  77 108 154 204 259 317 392 473
#     4  12  25  47  80 113 152 209 275 324 386 479
#
# _framework density 28.192077999999999
#
# number of rings (size 3 to 8) (size 9 to 14) (size 15 to 20)
#    0.000    0.571    2.857    6.000    2.000    0.000 
#    2.571    3.571    0.000    0.000    0.000    0.000 
#    0.000    0.000    0.000    0.000    0.000    0.000 
#
# Total GULP energy -346918.249614 kJ/mol
# GULP energy per Si atom -12389.937486 kJ/mol
# Density = 2.812791 g / cm^3
# Si number density = 28.192078 Si / 1000 Ang^3
#
#
#
# Elastic Constant Matrix: (Units=GPa)
#
#
# Indices 1 2 3 4 5 6 
#
# 1 162.5289 65.3059 49.5718 0.0000 -11.7857 0.0000
# 2 65.3059 72.2490 35.3137 0.0000 -10.4721 0.0000
# 3 49.5718 35.3137 133.7075 0.0000 -15.0726 0.0000
# 4 0.0000 0.0000 0.0000 38.7239 0.0000 -1.8848
# 5 -11.7857 -10.4721 -15.0726 0.0000 35.9243 0.0000
# 6 0.0000 0.0000 0.0000 -1.8848 0.0000 58.5811
#
#
#
# Elastic Compliance Matrix: (Units=1/GPa)
#
#
# Indices 1 2 3 4 5 6 
#
# 1 0.009920 -0.008207 -0.001483 0.000000 0.000240 0.000000
# 2 -0.008207 0.023000 -0.002707 0.000000 0.002876 0.000000
# 3 -0.001483 -0.002707 0.009027 0.000000 0.002512 0.000000
# 4 0.000000 0.000000 0.000000 0.025864 0.000000 0.000832
# 5 0.000240 0.002876 0.002512 0.000000 0.029807 0.000000
# 6 0.000000 0.000000 0.000000 0.000832 0.000000 0.017097
#
#
# Mechanical properties :
#
#
# Convention : Reuss Voigt Hill
#
# Bulk Modulus (GPa) = 58.30484 74.31870 66.31177
# Shear Modulus (GPa) = 34.42842 41.19879 37.81360
#
# Velocity S-wave (km/s) = 3.49837 3.82692 3.66633
# Velocity P-wave (km/s) = 6.08640 6.77834 6.44167
#
# Compressibility (1/GPa) = 0.01715123
#
# Stress axis : x y z
#
# Youngs Moduli (GPa) = 100.80344 43.47873 110.77697
#
# Poissons Ratio (x) = 0.35684 0.16431
# Poissons Ratio (y) = 0.82732 0.29993
# Poissons Ratio (z) = 0.14952 0.11772
#
# Static dielectric constant tensor:
#      x y z
#    x 5.273000 0.000000 -0.054330 
#    y 0.000000 5.527350 0.000000 
#    z -0.054330 0.000000 4.838240 
# 
# 
# High freq. dielectric constant tensor:
#      x y z
#    x 2.158220 0.000000 0.006920 
#    y 0.000000 2.159850 0.000000 
#    z 0.006920 0.000000 2.124460 
# 
# From -- ./inp_files/25379.got.cif
#   From: 2010.03.12/outbox.cif.g09.slc.cpg/sg14_13_cif.got.tgz:25379.got - 2010.03.31 13:35:05.
