data_PCOD8129003
_publ_section_title
;
Structure prediction by ZEFSAII (Michael W. Deem and Ramdas Pophale) SiO2 
 PCOD8129003
Probable space group: P 21/C
;
_chemical_formula_sum "Si O2"
_cell_formula_units_Z 24
_cell_length_a 13.904993
_cell_length_b 13.762068
_cell_length_c 11.466053
_cell_angle_alpha 90.000000
_cell_angle_beta 30.964988
_cell_angle_gamma 90.000000
_cell_volume 1128.926771
_symmetry_space_group_name_H-M "P 21/C"
_symmetry_group_IT_number 14
_symmetry_cell_setting 'monoclinic'
loop_
_space_group_symop_operation_xyz
x,y,z
-x,1/2+y,1/2-z
-x,-y,-z
x,1/2-y,1/2+z
loop_
_atom_site_type_symbol
_atom_site_label
_atom_site_fract_x
_atom_site_fract_y
_atom_site_fract_z
Si Si1 0.175801 0.927933 0.309377
Si Si2 0.639791 0.489706 0.611428
Si Si3 0.496875 0.341808 0.940415
Si Si4 0.127176 0.070664 0.942256
Si Si5 0.186699 0.784318 0.713479
Si Si6 0.401119 0.845053 0.278120
O O1 0.120797 0.820126 0.327185
O O2 0.277674 0.918340 0.327784
O O3 0.000000 0.000000 0.500000
O O4 0.322023 0.967974 0.063134
O O5 0.532995 0.402025 0.785133
O O6 0.828629 0.511817 0.485861
O O7 0.520759 0.588445 0.739510
O O8 0.675339 0.342650 0.841844
O O9 0.469265 0.228102 0.933667
O O10 0.316862 0.392132 0.183938
O O11 0.009333 0.163648 0.098011
O O12 0.000000 0.000000 0.000000
O O13 0.274725 0.776932 0.492878
#
# Coordination Sequence:
#
# PCOD8129003 Si02
#       6
#     4   4   4   4   4   4
#     4  11  26  45  68 104 142 182 232 286 351 416
#     4  12  23  46  69 100 139 179 231 286 349 416
#     4  11  24  45  70 102 135 182 231 285 350 410
#     4  12  24  41  74 103 134 178 236 286 349 410
#     4  11  23  47  70 101 141 178 230 293 339 424
#     4  11  24  46  71  98 142 186 227 283 353 419
#
# _framework density 21.259129999999999
#
# number of rings (size 3 to 8) (size 9 to 14) (size 15 to 20)
#    0.000    0.667    5.000    3.000    2.333    0.000 
#    6.000    0.000    0.000    0.000    0.000    0.000 
#    0.000    0.000    0.000    0.000    0.000    0.000 
#
# Total GULP energy -297546.884255 kJ/mol
# GULP energy per Si atom -12397.786844 kJ/mol
# Density = 2.121074 g / cm^3
# Si number density = 21.259130 Si / 1000 Ang^3
#
#
#
# Elastic Constant Matrix: (Units=GPa)
#
#
# Indices 1 2 3 4 5 6 
#
# 1 103.4030 25.6098 14.2347 0.0000 3.3590 0.0000
# 2 25.6098 83.1786 16.0066 0.0000 -11.0381 0.0000
# 3 14.2347 16.0066 81.9293 0.0000 5.2588 0.0000
# 4 0.0000 0.0000 0.0000 48.3137 0.0000 -0.4010
# 5 3.3590 -11.0381 5.2588 0.0000 33.4547 0.0000
# 6 0.0000 0.0000 0.0000 -0.4010 0.0000 41.2559
#
#
#
# Elastic Compliance Matrix: (Units=1/GPa)
#
#
# Indices 1 2 3 4 5 6 
#
# 1 0.010717 -0.003360 -0.001076 0.000000 -0.002015 0.000000
# 2 -0.003360 0.014271 -0.002554 0.000000 0.005448 0.000000
# 3 -0.001076 -0.002554 0.013071 0.000000 -0.002789 0.000000
# 4 0.000000 0.000000 0.000000 0.020700 0.000000 0.000201
# 5 -0.002015 0.005448 -0.002789 0.000000 0.032329 0.000000
# 6 0.000000 0.000000 0.000000 0.000201 0.000000 0.024241
#
#
# Mechanical properties :
#
#
# Convention : Reuss Voigt Hill
#
# Bulk Modulus (GPa) = 41.53128 42.24589 41.88859
# Shear Modulus (GPa) = 36.40737 38.78219 37.59478
#
# Velocity S-wave (km/s) = 4.14279 4.27577 4.20980
# Velocity P-wave (km/s) = 6.51627 6.65517 6.58609
#
# Compressibility (1/GPa) = 0.02407824
#
# Stress axis : x y z
#
# Youngs Moduli (GPa) = 93.31268 70.07117 76.50724
#
# Poissons Ratio (x) = 0.23543 0.08233
# Poissons Ratio (y) = 0.31352 0.19541
# Poissons Ratio (z) = 0.10042 0.17897
#
# Static dielectric constant tensor:
#      x y z
#    x 3.921990 0.000000 0.075470 
#    y 0.000000 3.379330 0.000000 
#    z 0.075470 0.000000 3.763020 
# 
# 
# High freq. dielectric constant tensor:
#      x y z
#    x 1.841170 0.000000 0.012390 
#    y 0.000000 1.850460 0.000000 
#    z 0.012390 0.000000 1.825960 
# 
# From -- ./inp_files/32684.got.cif
#   From: 2010.03.12/outbox.cif.g09.slc.cpg/sg14_17_cif.got.tgz:32684.got - 2010.03.31 13:35:05.
