data_PCOD8129460
_publ_section_title
;
Structure prediction by ZEFSAII (Michael W. Deem and Ramdas Pophale) SiO2 
 PCOD8129460
Probable space group: P 21/C
;
_chemical_formula_sum "Si O2"
_cell_formula_units_Z 16
_cell_length_a 5.191845
_cell_length_b 4.930308
_cell_length_c 28.421911
_cell_angle_alpha 90.000000
_cell_angle_beta 66.183975
_cell_angle_gamma 90.000000
_cell_volume 665.575613
_symmetry_space_group_name_H-M "P 21/C"
_symmetry_group_IT_number 14
_symmetry_cell_setting 'monoclinic'
loop_
_space_group_symop_operation_xyz
x,y,z
-x,1/2+y,1/2-z
-x,-y,-z
x,1/2-y,1/2+z
loop_
_atom_site_type_symbol
_atom_site_label
_atom_site_fract_x
_atom_site_fract_y
_atom_site_fract_z
Si Si1 0.625500 0.992094 0.758467
Si Si2 0.237807 0.716322 0.603337
Si Si3 0.843368 0.777278 0.329230
Si Si4 0.111180 0.250088 0.963276
O O1 0.617641 0.724475 0.725283
O O2 0.618723 0.870081 0.811524
O O3 0.881555 0.185223 0.723215
O O4 0.130200 0.422478 0.628586
O O5 0.552922 0.716822 0.560382
O O6 0.012920 0.786955 0.579817
O O7 0.244692 0.929254 0.645844
O O8 0.000000 0.500000 0.000000
O O9 0.000000 0.000000 0.000000
#
# Coordination Sequence:
#
# PCOD8129460 Si02
#       4
#     4   4   4   4
#     4  12  26  46  74 100 158 200 246 310 368 438
#     4  12  27  45  80 106 148 188 250 307 357 464
#     4  12  27  47  66 116 140 198 252 295 367 430
#     4  12  26  50  74 108 144 188 238 310 388 440
#
# _framework density 24.039339999999999
#
# number of rings (size 3 to 8) (size 9 to 14) (size 15 to 20)
#    0.000    0.000    0.000   10.500   10.500    0.000 
#    0.000    0.000    0.000    0.000    0.000    0.000 
#    0.000    0.000    0.000    0.000    0.000    0.000 
#
# Total GULP energy -198330.207188 kJ/mol
# GULP energy per Si atom -12395.637949 kJ/mol
# Density = 2.398463 g / cm^3
# Si number density = 24.039340 Si / 1000 Ang^3
#
#
#
# Elastic Constant Matrix: (Units=GPa)
#
#
# Indices 1 2 3 4 5 6 
#
# 1 81.5331 12.6108 11.2651 0.0000 15.7703 0.0000
# 2 12.6108 157.9649 23.6645 0.0000 -1.6832 0.0000
# 3 11.2651 23.6645 75.4269 0.0000 -0.9378 0.0000
# 4 0.0000 0.0000 0.0000 71.2634 0.0000 5.0616
# 5 15.7703 -1.6832 -0.9378 0.0000 36.5067 0.0000
# 6 0.0000 0.0000 0.0000 5.0616 0.0000 42.6121
#
#
#
# Elastic Compliance Matrix: (Units=1/GPa)
#
#
# Indices 1 2 3 4 5 6 
#
# 1 0.013833 -0.000890 -0.001862 0.000000 -0.006064 0.000000
# 2 -0.000890 0.006702 -0.001962 0.000000 0.000643 0.000000
# 3 -0.001862 -0.001962 0.014165 0.000000 0.001078 0.000000
# 4 0.000000 0.000000 0.000000 0.014152 0.000000 -0.001681
# 5 -0.006064 0.000643 0.001078 0.000000 0.030069 0.000000
# 6 0.000000 0.000000 0.000000 -0.001681 0.000000 0.023667
#
#
# Mechanical properties :
#
#
# Convention : Reuss Voigt Hill
#
# Bulk Modulus (GPa) = 39.56927 45.55620 42.56273
# Shear Modulus (GPa) = 41.51429 47.90207 44.70818
#
# Velocity S-wave (km/s) = 4.16014 4.46876 4.31721
# Velocity P-wave (km/s) = 6.29060 6.75413 6.52648
#
# Compressibility (1/GPa) = 0.02527214
#
# Stress axis : x y z
#
# Youngs Moduli (GPa) = 72.29150 149.20189 70.59704
#
# Poissons Ratio (x) = 0.13279 0.13146
# Poissons Ratio (y) = 0.06434 0.13850
# Poissons Ratio (z) = 0.13462 0.29272
#
# Static dielectric constant tensor:
#      x y z
#    x 4.442620 0.000000 0.101410 
#    y 0.000000 4.584510 0.000000 
#    z 0.101410 0.000000 4.196100 
# 
# 
# High freq. dielectric constant tensor:
#      x y z
#    x 1.953380 0.000000 0.003800 
#    y 0.000000 1.988130 0.000000 
#    z 0.003800 0.000000 1.955920 
# 
# From -- ./inp_files/70777.got.cif
#   From: 2010.03.12/outbox.cif.g09.slc.cpg/sg14_36_cif.got.tgz:70777.got - 2010.03.31 13:35:05.
