data_PCOD8129864
_publ_section_title
;
Structure prediction by ZEFSAII (Michael W. Deem and Ramdas Pophale) SiO2 
 PCOD8129864
Probable space group: C 2/C
;
_chemical_formula_sum "Si O2"
_cell_formula_units_Z 40
_cell_length_a 13.206677
_cell_length_b 19.531262
_cell_length_c 24.904616
_cell_angle_alpha 90.000000
_cell_angle_beta 158.603465
_cell_angle_gamma 90.000000
_cell_volume 2343.596924
_symmetry_space_group_name_H-M "C 2/C"
_symmetry_group_IT_number 15
_symmetry_cell_setting 'monoclinic'
loop_
_space_group_symop_operation_xyz
x,y,z
-x,y,1/2-z
-x,-y,-z
x,-y,1/2+z
1/2+x,1/2+y,z
1/2-x,1/2+y,1/2-z
1/2-x,1/2-y,-z
1/2+x,1/2-y,1/2+z
loop_
_atom_site_type_symbol
_atom_site_label
_atom_site_fract_x
_atom_site_fract_y
_atom_site_fract_z
Si Si1 0.956349 0.738681 0.170479
Si Si2 0.829144 0.430942 0.912617
Si Si3 0.432122 0.220968 0.658395
Si Si4 0.974525 0.678998 0.908222
Si Si5 0.576111 0.182656 0.120778
O O1 0.149579 0.806143 0.257666
O O2 0.000000 0.704004 0.250000
O O3 0.017851 0.680562 0.156025
O O4 0.643800 0.765904 0.014361
O O5 0.500000 0.445399 0.750000
O O6 0.928902 0.392637 0.907499
O O7 0.915908 0.387346 0.007430
O O8 0.000000 0.500000 0.000000
O O9 0.500000 0.186823 0.750000
O O10 0.122960 0.251680 0.503103
O O11 0.475865 0.167172 0.631401
O O12 0.623123 0.287452 0.743778
#
# Coordination Sequence:
#
# PCOD8129864 Si02
#       5
#     8   8   8   8   8
#     4  10  18  29  53  79 108 133 160 215 268 308
#     4  12  24  38  53  74 108 144 179 213 248 314
#     4  10  16  31  53  77 104 131 162 224 268 309
#     4  10  19  30  52  76 104 135 173 207 265 308
#     4  10  19  32  48  78 108 133 171 209 257 313
#
# _framework density 17.067782000000001
#
# number of rings (size 3 to 8) (size 9 to 14) (size 15 to 20)
#    0.000    1.600    6.000    0.000    2.800    0.000 
#    0.000    0.000    0.000    1.200    0.000    2.800 
#    0.000    0.000    0.000    0.000    0.000    0.000 
#
# Total GULP energy -247914.660068 kJ/mol
# GULP energy per Si atom -12395.733003 kJ/mol
# Density = 1.702893 g / cm^3
# Si number density = 17.067782 Si / 1000 Ang^3
#
#
#
# Elastic Constant Matrix: (Units=GPa)
#
#
# Indices 1 2 3 4 5 6 
#
# 1 130.8036 48.6948 43.0270 -0.0079 -35.0818 -0.0024
# 2 48.6948 82.4820 29.5524 -0.0092 -8.7395 -0.0014
# 3 43.0270 29.5524 71.5499 -0.0578 -13.8625 -0.0027
# 4 -0.0079 -0.0092 -0.0578 23.8245 0.0116 -3.2055
# 5 -35.0818 -8.7395 -13.8625 0.0116 41.2565 -0.0009
# 6 -0.0024 -0.0014 -0.0027 -3.2055 -0.0009 17.8549
#
#
#
# Elastic Compliance Matrix: (Units=1/GPa)
#
#
# Indices 1 2 3 4 5 6 
#
# 1 0.013420 -0.005525 -0.004069 -0.000012 0.008874 -0.000001
# 2 -0.005525 0.016552 -0.004006 -0.000004 -0.002538 -0.000001
# 3 -0.004069 -0.004006 0.018444 0.000042 0.001888 0.000010
# 4 -0.000012 -0.000004 0.000042 0.043013 -0.000009 0.007722
# 5 0.008874 -0.002538 0.001888 -0.000009 0.031882 0.000001
# 6 -0.000001 -0.000001 0.000010 0.007722 0.000001 0.057393
#
#
# Mechanical properties :
#
#
# Convention : Reuss Voigt Hill
#
# Bulk Modulus (GPa) = 47.13307 58.59823 52.86565
# Shear Modulus (GPa) = 23.25850 27.49126 25.37488
#
# Velocity S-wave (km/s) = 3.69550 4.01772 3.85997
# Velocity P-wave (km/s) = 6.77378 7.47863 7.13492
#
# Compressibility (1/GPa) = 0.02121652
#
# Stress axis : x y z
#
# Youngs Moduli (GPa) = 74.51334 60.41621 54.21899
#
# Poissons Ratio (x) = 0.33379 0.22063
# Poissons Ratio (y) = 0.41167 0.21719
# Poissons Ratio (z) = 0.30321 0.24201
#
# Static dielectric constant tensor:
#      x y z
#    x 3.638060 -0.000010 -0.137950 
#    y -0.000010 2.621130 -0.000060 
#    z -0.137950 -0.000060 3.523340 
# 
# 
# High freq. dielectric constant tensor:
#      x y z
#    x 1.677060 0.000000 0.000030 
#    y 0.000000 1.578610 0.000000 
#    z 0.000030 0.000000 1.690170 
# 
# From -- ./inp_files/39926.got.cif
#   From: 2010.06.25/outbox.cif.g09.slc.cpg/sg15_20_cif.got.tgz:39926.got - 2010.06.28 07:06:18.
