data_PCOD8129375
_publ_section_title
;
Structure prediction by ZEFSAII (Michael W. Deem and Ramdas Pophale) SiO2 
 PCOD8129375
Probable space group: P 21/C
;
_chemical_formula_sum "Si O2"
_cell_formula_units_Z 28
_cell_length_a 29.552402
_cell_length_b 8.569896
_cell_length_c 29.997178
_cell_angle_alpha 90.000000
_cell_angle_beta 9.670805
_cell_angle_gamma 90.000000
_cell_volume 1276.217378
_symmetry_space_group_name_H-M "P 21/C"
_symmetry_group_IT_number 14
_symmetry_cell_setting 'monoclinic'
loop_
_space_group_symop_operation_xyz
x,y,z
-x,1/2+y,1/2-z
-x,-y,-z
x,1/2-y,1/2+z
loop_
_atom_site_type_symbol
_atom_site_label
_atom_site_fract_x
_atom_site_fract_y
_atom_site_fract_z
Si Si1 0.105264 0.514669 0.756318
Si Si2 0.082194 0.296867 0.331792
Si Si3 0.179602 0.040406 0.081930
Si Si4 0.652688 0.609717 0.069069
Si Si5 0.250637 0.389383 0.752719
Si Si6 0.636460 0.807528 0.759858
Si Si7 0.460925 0.544727 0.159614
O O1 0.071213 0.339074 0.806019
O O2 0.110279 0.518064 0.698507
O O3 0.377736 0.582887 0.511470
O O4 0.859251 0.617424 0.012090
O O5 0.197560 0.237835 0.266457
O O6 0.787029 0.370066 0.624017
O O7 0.277594 0.432723 0.124825
O O8 0.910962 0.005132 0.313942
O O9 0.439874 0.947028 0.812437
O O10 0.240055 0.222479 0.020170
O O11 0.502568 0.620444 0.167655
O O12 0.500000 0.500000 0.500000
O O13 0.276306 0.293336 0.773525
O O14 0.000000 0.500000 0.000000
O O15 0.581909 0.638480 0.792663
#
# Coordination Sequence:
#
# PCOD8129375 Si02
#       7
#     4   4   4   4   4   4   4
#     4  12  25  46  72 101 136 191 231 276 356 424
#     4  12  24  46  74  98 146 190 228 287 352 422
#     4  12  28  46  71 103 137 184 232 290 350 418
#     4  12  28  48  70 103 142 180 237 293 348 421
#     4  12  23  43  72 110 138 181 245 292 341 414
#     4  12  26  45  73 106 143 183 237 293 343 417
#     4  12  28  46  68 105 145 185 228 292 361 415
#
# _framework density 21.939837000000001
#
# number of rings (size 3 to 8) (size 9 to 14) (size 15 to 20)
#    0.000    0.000    4.286    5.143    8.000    1.143 
#    0.000    0.000    0.000    0.000    0.000    0.000 
#    0.000    0.000    0.000    0.000    0.000    0.000 
#
# Total GULP energy -347442.747697 kJ/mol
# GULP energy per Si atom -12408.669561 kJ/mol
# Density = 2.188990 g / cm^3
# Si number density = 21.939837 Si / 1000 Ang^3
#
#
#
# Elastic Constant Matrix: (Units=GPa)
#
#
# Indices 1 2 3 4 5 6 
#
# 1 78.1859 16.4760 23.2558 0.0000 3.1600 0.0000
# 2 16.4760 99.6853 55.8544 0.0000 0.1775 0.0000
# 3 23.2558 55.8544 147.0591 0.0000 0.7310 0.0000
# 4 0.0000 0.0000 0.0000 41.7987 0.0000 -1.1524
# 5 3.1600 0.1775 0.7310 0.0000 38.7498 0.0000
# 6 0.0000 0.0000 0.0000 -1.1524 0.0000 31.5968
#
#
#
# Elastic Compliance Matrix: (Units=1/GPa)
#
#
# Indices 1 2 3 4 5 6 
#
# 1 0.013601 -0.001326 -0.001642 0.000000 -0.001072 0.000000
# 2 -0.001326 0.012873 -0.004680 0.000000 0.000137 0.000000
# 3 -0.001642 -0.004680 0.008837 0.000000 -0.000011 0.000000
# 4 0.000000 0.000000 0.000000 0.023948 0.000000 0.000873
# 5 -0.001072 0.000137 -0.000011 0.000000 0.025894 0.000000
# 6 0.000000 0.000000 0.000000 0.000873 0.000000 0.031681
#
#
# Mechanical properties :
#
#
# Convention : Reuss Voigt Hill
#
# Bulk Modulus (GPa) = 49.96282 57.34475 53.65378
# Shear Modulus (GPa) = 36.02256 37.71866 36.87061
#
# Velocity S-wave (km/s) = 4.05641 4.15081 4.10388
# Velocity P-wave (km/s) = 6.69039 7.01187 6.85301
#
# Compressibility (1/GPa) = 0.02001488
#
# Stress axis : x y z
#
# Youngs Moduli (GPa) = 73.52300 77.68275 113.15704
#
# Poissons Ratio (x) = 0.10302 0.18579
# Poissons Ratio (y) = 0.09750 0.52960
# Poissons Ratio (z) = 0.12072 0.36357
#
# Static dielectric constant tensor:
#      x y z
#    x 3.855930 0.000000 -0.099130 
#    y 0.000000 3.895550 0.000000 
#    z -0.099130 0.000000 4.232530 
# 
# 
# High freq. dielectric constant tensor:
#      x y z
#    x 1.872230 0.000000 -0.001180 
#    y 0.000000 1.867170 0.000000 
#    z -0.001180 0.000000 1.887500 
# 
# From -- ./inp_files/80892.got.cif
#   From: 2010.03.12/outbox.cif.g09.slc.cpg/sg14_41_cif.got.tgz:80892.got - 2010.03.31 13:35:05.
