data_PCOD8129673
_publ_section_title
;
Structure prediction by ZEFSAII (Michael W. Deem and Ramdas Pophale) SiO2 
 PCOD8129673
Probable space group: C 2/C
;
_chemical_formula_sum "Si O2"
_cell_formula_units_Z 64
_cell_length_a 9.286106
_cell_length_b 16.238369
_cell_length_c 21.080294
_cell_angle_alpha 90.000000
_cell_angle_beta 86.901824
_cell_angle_gamma 90.000000
_cell_volume 3174.077113
_symmetry_space_group_name_H-M "C 2/C"
_symmetry_group_IT_number 15
_symmetry_cell_setting 'monoclinic'
loop_
_space_group_symop_operation_xyz
x,y,z
-x,y,1/2-z
-x,-y,-z
x,-y,1/2+z
1/2+x,1/2+y,z
1/2-x,1/2+y,1/2-z
1/2-x,1/2-y,-z
1/2+x,1/2-y,1/2+z
loop_
_atom_site_type_symbol
_atom_site_label
_atom_site_fract_x
_atom_site_fract_y
_atom_site_fract_z
Si Si1 0.587942 0.443314 0.187459
Si Si2 0.631729 0.057611 0.014119
Si Si3 0.587902 0.062977 0.805513
Si Si4 0.405979 0.290836 0.988887
Si Si5 0.887545 0.685827 0.585187
Si Si6 0.688067 0.448627 0.570717
Si Si7 0.023140 0.399729 0.867469
Si Si8 0.936451 0.778216 0.380740
O O1 0.500000 0.477247 0.250000
O O2 0.744673 0.427879 0.213082
O O3 0.597591 0.510699 0.130653
O O4 0.520144 0.357846 0.162494
O O5 0.621134 0.073842 0.089587
O O6 0.624034 0.148085 0.984531
O O7 0.500000 0.000000 0.000000
O O8 0.777153 0.018412 0.982630
O O9 0.500000 0.103631 0.750000
O O10 0.555361 0.112700 0.870592
O O11 0.540409 0.966740 0.811485
O O12 0.487629 0.252607 0.925863
O O13 0.402704 0.385155 0.967866
O O14 0.250000 0.250000 0.000000
O O15 0.493930 0.285471 0.051760
O O16 0.737525 0.725410 0.611293
O O17 0.832539 0.404181 0.593038
O O18 0.996895 0.305327 0.845133
#
# Coordination Sequence:
#
# PCOD8129673 Si02
#       8
#     8   8   8   8   8   8   8   8
#     4  10  23  45  62  83 125 168 204 256 311 353
#     4  10  15  34  63  86 117 161 191 237 310 369
#     4  10  22  42  65  87 114 165 223 246 285 377
#     4  12  23  35  62 100 129 154 200 253 315 372
#     4  11  21  39  61  87 128 160 196 253 312 363
#     4  10  20  39  60  90 126 159 196 254 299 368
#     4  10  19  35  65  91 118 160 201 245 305 366
#     4  11  22  39  62  92 126 160 196 254 312 367
#
# _framework density 20.163340999999999
#
# number of rings (size 3 to 8) (size 9 to 14) (size 15 to 20)
#    0.000    1.500    7.500    1.125    0.000    2.000 
#    2.250    0.625    0.000    0.000    0.000    0.000 
#    0.000    0.000    0.000    0.000    0.000    0.000 
#
# Total GULP energy -396505.294234 kJ/mol
# GULP energy per Si atom -12390.790445 kJ/mol
# Density = 2.011745 g / cm^3
# Si number density = 20.163341 Si / 1000 Ang^3
#
#
#
# Elastic Constant Matrix: (Units=GPa)
#
#
# Indices 1 2 3 4 5 6 
#
# 1 55.2556 29.1079 47.4788 0.0000 -4.0561 0.0000
# 2 29.1079 106.2031 46.8836 0.0000 -2.1503 0.0000
# 3 47.4788 46.8836 72.2699 0.0000 -11.7211 0.0000
# 4 0.0000 0.0000 0.0000 18.2215 0.0000 0.5446
# 5 -4.0561 -2.1503 -11.7211 0.0000 34.7906 0.0000
# 6 0.0000 0.0000 0.0000 0.5446 0.0000 33.3112
#
#
#
# Elastic Compliance Matrix: (Units=1/GPa)
#
#
# Indices 1 2 3 4 5 6 
#
# 1 0.042392 0.001300 -0.029490 0.000000 -0.004913 0.000000
# 2 0.001300 0.013394 -0.009927 0.000000 -0.002365 0.000000
# 3 -0.029490 -0.009927 0.041248 0.000000 0.009845 0.000000
# 4 0.000000 0.000000 0.000000 0.054907 0.000000 -0.000898
# 5 -0.004913 -0.002365 0.009845 0.000000 0.031341 0.000000
# 6 0.000000 0.000000 0.000000 -0.000898 0.000000 0.030035
#
#
# Mechanical properties :
#
#
# Convention : Reuss Voigt Hill
#
# Bulk Modulus (GPa) = 48.07745 53.40768 50.74257
# Shear Modulus (GPa) = 16.86440 24.61522 20.73981
#
# Velocity S-wave (km/s) = 2.89518 3.49777 3.21064
# Velocity P-wave (km/s) = 5.92215 6.54657 6.24217
#
# Compressibility (1/GPa) = 0.02079977
#
# Stress axis : x y z
#
# Youngs Moduli (GPa) = 23.58952 74.66107 24.24386
#
# Poissons Ratio (x) = -0.09709 0.71496
# Poissons Ratio (y) = -0.03068 0.24067
# Poissons Ratio (z) = 0.69566 0.74115
#
# Static dielectric constant tensor:
#      x y z
#    x 2.732880 0.000000 0.134770 
#    y 0.000000 4.307310 0.000000 
#    z 0.134770 0.000000 3.437160 
# 
# 
# High freq. dielectric constant tensor:
#      x y z
#    x 1.771710 0.000000 -0.014250 
#    y 0.000000 1.796170 0.000000 
#    z -0.014250 0.000000 1.767430 
# 
# From -- ./inp_files/264690.got.cif
#   From: 2010.06.25/outbox.cif.g09.slc.cpg/sg15_133_cif.got.tgz:264690.got - 2010.06.28 07:06:18.
