data_PCOD8129129
_publ_section_title
;
Structure prediction by ZEFSAII (Michael W. Deem and Ramdas Pophale) SiO2 
 PCOD8129129
Probable space group: P 21/C
;
_chemical_formula_sum "Si O2"
_cell_formula_units_Z 28
_cell_length_a 8.713483
_cell_length_b 20.209476
_cell_length_c 8.603468
_cell_angle_alpha 90.000000
_cell_angle_beta 127.631432
_cell_angle_gamma 90.000000
_cell_volume 1199.832955
_symmetry_space_group_name_H-M "P 21/C"
_symmetry_group_IT_number 14
_symmetry_cell_setting 'monoclinic'
loop_
_space_group_symop_operation_xyz
x,y,z
-x,1/2+y,1/2-z
-x,-y,-z
x,1/2-y,1/2+z
loop_
_atom_site_type_symbol
_atom_site_label
_atom_site_fract_x
_atom_site_fract_y
_atom_site_fract_z
Si Si1 0.778125 0.226088 0.139177
Si Si2 0.834703 0.684071 0.957650
Si Si3 0.820183 0.914910 0.008737
Si Si4 0.644009 0.707439 0.520070
Si Si5 0.214289 0.649918 0.673741
Si Si6 0.559741 0.479344 0.206226
Si Si7 0.811504 0.957967 0.355901
O O1 0.574875 0.194088 0.064665
O O2 0.760950 0.306135 0.152791
O O3 0.949761 0.203215 0.358134
O O4 0.812297 0.202614 0.983776
O O5 0.800171 0.702999 0.756167
O O6 0.669912 0.720671 0.957824
O O7 0.815733 0.605920 0.970787
O O8 0.693746 0.847624 0.920534
O O9 0.741228 0.974228 0.856180
O O10 0.812296 0.939167 0.178964
O O11 0.032079 0.898286 0.077774
O O12 0.390774 0.599177 0.753744
O O13 0.385627 0.496050 0.219153
O O14 0.500000 0.500000 0.000000
O O15 0.000000 0.000000 0.500000
#
# Coordination Sequence:
#
# PCOD8129129 Si02
#       7
#     4   4   4   4   4   4   4
#     4  12  26  45  76 105 148 194 246 313 376 457
#     4  11  25  44  72 107 147 188 249 309 375 452
#     4  11  26  47  71 105 149 188 252 309 369 456
#     4  11  24  45  69 106 143 195 244 309 377 450
#     4  12  27  49  73 111 146 195 248 310 387 440
#     4  12  28  48  75 110 148 204 251 309 379 456
#     4  11  26  46  73 106 147 196 248 307 379 448
#
# _framework density 23.336580000000001
#
# number of rings (size 3 to 8) (size 9 to 14) (size 15 to 20)
#    0.000    0.571    1.429    6.000    8.000    2.286 
#    0.000    0.000    0.000    0.000    0.000    0.000 
#    0.000    0.000    0.000    0.000    0.000    0.000 
#
# Total GULP energy -347220.403498 kJ/mol
# GULP energy per Si atom -12400.728696 kJ/mol
# Density = 2.328347 g / cm^3
# Si number density = 23.336580 Si / 1000 Ang^3
#
#
#
# Elastic Constant Matrix: (Units=GPa)
#
#
# Indices 1 2 3 4 5 6 
#
# 1 122.8454 36.6589 35.9314 0.0000 2.7906 0.0000
# 2 36.6589 117.7389 44.3203 0.0000 -11.7793 0.0000
# 3 35.9314 44.3203 87.1458 0.0000 -3.8915 0.0000
# 4 0.0000 0.0000 0.0000 37.1807 0.0000 -4.8419
# 5 2.7906 -11.7793 -3.8915 0.0000 34.1407 0.0000
# 6 0.0000 0.0000 0.0000 -4.8419 0.0000 45.7018
#
#
#
# Elastic Compliance Matrix: (Units=1/GPa)
#
#
# Indices 1 2 3 4 5 6 
#
# 1 0.009682 -0.002060 -0.003027 0.000000 -0.001847 0.000000
# 2 -0.002060 0.011264 -0.004722 0.000000 0.003517 0.000000
# 3 -0.003027 -0.004722 0.015140 0.000000 0.000344 0.000000
# 4 0.000000 0.000000 0.000000 0.027272 0.000000 0.002889
# 5 -0.001847 0.003517 0.000344 0.000000 0.030694 0.000000
# 6 0.000000 0.000000 0.000000 0.002889 0.000000 0.022187
#
#
# Mechanical properties :
#
#
# Convention : Reuss Voigt Hill
#
# Bulk Modulus (GPa) = 60.72366 62.39458 61.55912
# Shear Modulus (GPa) = 35.37377 37.45928 36.41652
#
# Velocity S-wave (km/s) = 3.89756 4.01081 3.95459
# Velocity P-wave (km/s) = 6.80676 6.94576 6.87661
#
# Compressibility (1/GPa) = 0.01646805
#
# Stress axis : x y z
#
# Youngs Moduli (GPa) = 103.28030 88.77682 66.04983
#
# Poissons Ratio (x) = 0.18288 0.19993
# Poissons Ratio (y) = 0.21276 0.31191
# Poissons Ratio (z) = 0.31263 0.41923
#
# Static dielectric constant tensor:
#      x y z
#    x 2.742710 0.000000 -0.955890 
#    y 0.000000 4.866340 0.000000 
#    z -0.955890 0.000000 3.375560 
# 
# 
# High freq. dielectric constant tensor:
#      x y z
#    x 1.939070 0.000000 0.008790 
#    y 0.000000 1.932630 0.000000 
#    z 0.008790 0.000000 1.917870 
# 
# From -- ./inp_files/10444.got.cif
#   From: 2010.03.12/outbox.cif.g09.slc.cpg/sg14_6_cif.got.tgz:10444.got - 2010.03.31 13:35:05.
