data_PCOD8129787
_publ_section_title
;
Structure prediction by ZEFSAII (Michael W. Deem and Ramdas Pophale) SiO2 
 PCOD8129787
Probable space group: C 2/C
;
_chemical_formula_sum "Si O2"
_cell_formula_units_Z 56
_cell_length_a 22.113745
_cell_length_b 9.339696
_cell_length_c 20.525240
_cell_angle_alpha 90.000000
_cell_angle_beta 134.543330
_cell_angle_gamma 90.000000
_cell_volume 3021.359049
_symmetry_space_group_name_H-M "C 2/C"
_symmetry_group_IT_number 15
_symmetry_cell_setting 'monoclinic'
loop_
_space_group_symop_operation_xyz
x,y,z
-x,y,1/2-z
-x,-y,-z
x,-y,1/2+z
1/2+x,1/2+y,z
1/2-x,1/2+y,1/2-z
1/2-x,1/2-y,-z
1/2+x,1/2-y,1/2+z
loop_
_atom_site_type_symbol
_atom_site_label
_atom_site_fract_x
_atom_site_fract_y
_atom_site_fract_z
Si Si1 0.576488 0.725340 0.266699
Si Si2 0.840280 0.968244 0.951115
Si Si3 0.340774 0.909802 0.948685
Si Si4 0.980097 0.816383 0.568389
Si Si5 0.712342 0.595135 0.454399
Si Si6 0.275733 0.177892 0.701390
Si Si7 0.624849 0.194083 0.593098
O O1 0.500000 0.800485 0.250000
O O2 0.536706 0.645792 0.173939
O O3 0.623005 0.610448 0.348558
O O4 0.645258 0.836874 0.289894
O O5 0.843663 0.799444 0.940407
O O6 0.780066 0.036639 0.850411
O O7 0.933567 0.037487 0.012743
O O8 0.802755 0.997417 0.994298
O O9 0.282966 0.979518 0.961991
O O10 0.279063 0.819897 0.854578
O O11 0.388003 0.036232 0.945901
O O12 0.409779 0.803832 0.033032
O O13 0.035889 0.754635 0.551709
O O14 0.750000 0.750000 0.500000
O O15 0.305165 0.185995 0.797687
#
# Coordination Sequence:
#
# PCOD8129787 Si02
#       7
#     8   8   8   8   8   8   8
#     4  10  16  29  56  84  95 128 184 227 249 301
#     4  11  20  35  56  81 108 140 181 221 261 319
#     4  10  20  36  56  78 111 143 176 223 263 314
#     4  10  20  34  55  79 105 144 178 216 259 320
#     4  11  18  35  59  81 101 138 180 223 262 309
#     4   9  20  34  55  78 105 144 180 215 260 318
#     4  11  22  34  52  84 112 141 176 218 272 313
#
# _framework density 18.534706
#
# number of rings (size 3 to 8) (size 9 to 14) (size 15 to 20)
#    0.000    1.714    5.714    1.714    0.000    0.571 
#    0.000    0.000    0.000    0.000    3.714    0.000 
#    0.000    0.000    0.000    0.000    0.000    0.000 
#
# Total GULP energy -347086.243151 kJ/mol
# GULP energy per Si atom -12395.937255 kJ/mol
# Density = 1.849252 g / cm^3
# Si number density = 18.534706 Si / 1000 Ang^3
#
#
#
# Elastic Constant Matrix: (Units=GPa)
#
#
# Indices 1 2 3 4 5 6 
#
# 1 73.5158 12.1662 20.8283 0.0000 -3.1435 0.0000
# 2 12.1662 62.2124 21.1353 0.0000 -3.6824 0.0000
# 3 20.8283 21.1353 100.3793 0.0000 1.0726 0.0000
# 4 0.0000 0.0000 0.0000 11.6891 0.0000 -3.1599
# 5 -3.1435 -3.6824 1.0726 0.0000 27.9448 0.0000
# 6 0.0000 0.0000 0.0000 -3.1599 0.0000 22.9947
#
#
#
# Elastic Compliance Matrix: (Units=1/GPa)
#
#
# Indices 1 2 3 4 5 6 
#
# 1 0.014737 -0.001883 -0.002678 0.000000 0.001512 0.000000
# 2 -0.001883 0.017718 -0.003364 0.000000 0.002252 0.000000
# 3 -0.002678 -0.003364 0.011239 0.000000 -0.001176 0.000000
# 4 0.000000 0.000000 0.000000 0.088850 0.000000 0.012210
# 5 0.001512 0.002252 -0.001176 0.000000 0.036297 0.000000
# 6 0.000000 0.000000 0.000000 0.012210 0.000000 0.045166
#
#
# Mechanical properties :
#
#
# Convention : Reuss Voigt Hill
#
# Bulk Modulus (GPa) = 35.91267 38.26301 37.08784
# Shear Modulus (GPa) = 20.90836 24.65757 22.78296
#
# Velocity S-wave (km/s) = 3.36231 3.65135 3.50981
# Velocity P-wave (km/s) = 5.87295 6.20204 6.03973
#
# Compressibility (1/GPa) = 0.02784532
#
# Stress axis : x y z
#
# Youngs Moduli (GPa) = 67.85448 56.43869 88.97823
#
# Poissons Ratio (x) = 0.10626 0.23826
# Poissons Ratio (y) = 0.12776 0.29933
# Poissons Ratio (z) = 0.18169 0.18986
#
# Static dielectric constant tensor:
#      x y z
#    x 3.672990 0.000000 0.116000 
#    y 0.000000 2.964380 0.000000 
#    z 0.116000 0.000000 3.623270 
# 
# 
# High freq. dielectric constant tensor:
#      x y z
#    x 1.733440 0.000000 0.005000 
#    y 0.000000 1.668110 0.000000 
#    z 0.005000 0.000000 1.732110 
# 
# From -- ./inp_files/251951.got.cif
#   From: 2010.06.25/outbox.cif.g09.slc.cpg/sg15_126_cif.got.tgz:251951.got - 2010.06.28 07:06:18.
