data_PCOD8129867
_publ_section_title
;
Structure prediction by ZEFSAII (Michael W. Deem and Ramdas Pophale) SiO2 
 PCOD8129867
Probable space group: C 2/C
;
_chemical_formula_sum "Si O2"
_cell_formula_units_Z 48
_cell_length_a 23.039677
_cell_length_b 18.546643
_cell_length_c 5.164246
_cell_angle_alpha 90.000000
_cell_angle_beta 86.756374
_cell_angle_gamma 90.000000
_cell_volume 2203.191820
_symmetry_space_group_name_H-M "C 2/C"
_symmetry_group_IT_number 15
_symmetry_cell_setting 'monoclinic'
loop_
_space_group_symop_operation_xyz
x,y,z
-x,y,1/2-z
-x,-y,-z
x,-y,1/2+z
1/2+x,1/2+y,z
1/2-x,1/2+y,1/2-z
1/2-x,1/2-y,-z
1/2+x,1/2-y,1/2+z
loop_
_atom_site_type_symbol
_atom_site_label
_atom_site_fract_x
_atom_site_fract_y
_atom_site_fract_z
Si Si1 0.101975 0.533157 0.168809
Si Si2 0.065079 0.968579 0.007477
Si Si3 0.265396 0.033514 0.231363
Si Si4 0.462532 0.307550 0.504199
Si Si5 0.294777 0.187700 0.046857
Si Si6 0.630213 0.187184 0.983942
O O1 0.071862 0.517450 0.455272
O O2 0.168265 0.510396 0.219273
O O3 0.095982 0.615601 0.080704
O O4 0.097940 0.009080 0.235289
O O5 0.067072 0.883476 0.058612
O O6 0.000000 0.000000 0.000000
O O7 0.260264 0.116574 0.147780
O O8 0.235320 0.016719 0.516926
O O9 0.500000 0.319361 0.750000
O O10 0.414455 0.248791 0.583649
O O11 0.500000 0.280733 0.250000
O O12 0.333342 0.214732 0.278358
O O13 0.250000 0.250000 0.000000
O O14 0.331312 0.169742 0.779127
#
# Coordination Sequence:
#
# PCOD8129867 Si02
#       6
#     8   8   8   8   8   8
#     4   9  16  30  53  77 105 132 183 235 260 311
#     4  10  16  31  54  81 101 135 198 232 260 314
#     4   9  16  29  53  82  98 132 188 236 262 302
#     4  12  22  36  58  84 117 146 180 243 282 324
#     4  11  22  38  58  81 116 152 182 230 288 346
#     4  11  23  36  56  88 113 144 191 232 285 338
#
# _framework density 21.786570999999999
#
# number of rings (size 3 to 8) (size 9 to 14) (size 15 to 20)
#    0.000    1.667    3.333    6.500    0.000    0.000 
#    0.000    0.000    0.000    9.000    0.000    0.000 
#    0.000    0.000    0.000    0.000    0.000    0.000 
#
# Total GULP energy -297421.848679 kJ/mol
# GULP energy per Si atom -12392.577028 kJ/mol
# Density = 2.173698 g / cm^3
# Si number density = 21.786571 Si / 1000 Ang^3
#
#
#
# Elastic Constant Matrix: (Units=GPa)
#
#
# Indices 1 2 3 4 5 6 
#
# 1 12.9645 25.1984 9.1662 0.0000 -2.8749 0.0000
# 2 25.1984 151.5513 43.5292 0.0000 1.7963 0.0000
# 3 9.1662 43.5292 176.5382 0.0000 -3.2879 0.0000
# 4 0.0000 0.0000 0.0000 29.7794 0.0000 1.3150
# 5 -2.8749 1.7963 -3.2879 0.0000 12.1507 0.0000
# 6 0.0000 0.0000 0.0000 1.3150 0.0000 19.9297
#
#
#
# Elastic Compliance Matrix: (Units=1/GPa)
#
#
# Indices 1 2 3 4 5 6 
#
# 1 0.125960 -0.021124 -0.000722 0.000000 0.032730 0.000000
# 2 -0.021124 0.010672 -0.001666 0.000000 -0.007026 0.000000
# 3 -0.000722 -0.001666 0.006145 0.000000 0.001738 0.000000
# 4 0.000000 0.000000 0.000000 0.033678 0.000000 -0.002222
# 5 0.032730 -0.007026 0.001738 0.000000 0.091553 0.000000
# 6 0.000000 0.000000 0.000000 -0.002222 0.000000 0.050323
#
#
# Mechanical properties :
#
#
# Convention : Reuss Voigt Hill
#
# Bulk Modulus (GPa) = 10.44341 55.20463 32.82402
# Shear Modulus (GPa) = 12.58583 29.91597 21.25090
#
# Velocity S-wave (km/s) = 2.40612 3.70961 3.12655
# Velocity P-wave (km/s) = 3.53880 6.61378 5.30402
#
# Compressibility (1/GPa) = 0.09575417
#
# Stress axis : x y z
#
# Youngs Moduli (GPa) = 7.93906 93.70003 162.73303
#
# Poissons Ratio (x) = 1.97930 0.11749
# Poissons Ratio (y) = 0.16770 0.27104
# Poissons Ratio (z) = 0.00573 0.15606
#
# Static dielectric constant tensor:
#      x y z
#    x 3.183760 0.000000 -0.078900 
#    y 0.000000 3.788780 0.000000 
#    z -0.078900 0.000000 3.607790 
# 
# 
# High freq. dielectric constant tensor:
#      x y z
#    x 1.777480 0.000000 0.000380 
#    y 0.000000 1.860260 0.000000 
#    z 0.000380 0.000000 1.902350 
# 
# From -- ./inp_files/15347.got.cif
#   From: 2010.06.25/outbox.cif.g09.slc.cpg/sg15_8_cif.got.tgz:15347.got - 2010.06.28 07:06:18.
