data_PCOD8129970
_publ_section_title
;
Structure prediction by ZEFSAII (Michael W. Deem and Ramdas Pophale) SiO2 
 PCOD8129970
Probable space group: C 2/C
;
_chemical_formula_sum "Si O2"
_cell_formula_units_Z 60
_cell_length_a 14.772307
_cell_length_b 8.578684
_cell_length_c 23.083072
_cell_angle_alpha 90.000000
_cell_angle_beta 94.192527
_cell_angle_gamma 90.000000
_cell_volume 2917.419496
_symmetry_space_group_name_H-M "C 2/C"
_symmetry_group_IT_number 15
_symmetry_cell_setting 'monoclinic'
loop_
_space_group_symop_operation_xyz
x,y,z
-x,y,1/2-z
-x,-y,-z
x,-y,1/2+z
1/2+x,1/2+y,z
1/2-x,1/2+y,1/2-z
1/2-x,1/2-y,-z
1/2+x,1/2-y,1/2+z
loop_
_atom_site_type_symbol
_atom_site_label
_atom_site_fract_x
_atom_site_fract_y
_atom_site_fract_z
Si Si1 0.590153 0.550337 0.141849
Si Si2 0.149773 0.659156 0.799800
Si Si3 0.000000 0.888192 0.750000
Si Si4 0.918837 0.754568 0.425420
Si Si5 0.020210 0.508605 0.872970
Si Si6 0.939473 0.198001 0.055860
Si Si7 0.826452 0.637952 0.827964
Si Si8 0.738283 0.621524 0.390969
O O1 0.549817 0.509834 0.203538
O O2 0.623926 0.388913 0.117190
O O3 0.515794 0.604862 0.092687
O O4 0.670604 0.679188 0.152757
O O5 0.069715 0.783680 0.789035
O O6 0.100933 0.509320 0.828369
O O7 0.196703 0.615968 0.741260
O O8 0.224863 0.739884 0.843800
O O9 0.955232 0.817850 0.488104
O O10 0.832073 0.642753 0.430978
O O11 0.001962 0.663704 0.397709
O O12 0.055006 0.620444 0.926374
O O13 0.927273 0.570925 0.840659
O O14 0.843338 0.118421 0.067226
O O15 0.748702 0.546224 0.859307
#
# Coordination Sequence:
#
# PCOD8129970 Si02
#       8
#     8   8   4   8   8   8   8   8
#     4  10  20  37  58  79 107 147 185 227 281 329
#     4  10  16  34  60  76 107 148 185 223 274 344
#     4  10  16  36  60  74 106 144 182 210 284 344
#     4  11  22  34  53  89 113 135 189 245 266 322
#     4   9  17  34  57  82 103 147 194 222 276 327
#     4  10  19  39  59  73 111 156 187 219 277 338
#     4   9  18  34  57  77 110 147 182 223 280 342
#     4  10  21  35  53  82 108 146 188 217 284 330
#
# _framework density 20.566120000000002
#
# number of rings (size 3 to 8) (size 9 to 14) (size 15 to 20)
#    0.000    2.133    5.333    1.200    0.000    2.133 
#    4.800    3.333    0.000    0.000    0.000    0.000 
#    0.000    0.000    0.000    0.000    0.000    0.000 
#
# Total GULP energy -371804.248507 kJ/mol
# GULP energy per Si atom -12393.474950 kJ/mol
# Density = 2.051931 g / cm^3
# Si number density = 20.566120 Si / 1000 Ang^3
#
#
#
# Elastic Constant Matrix: (Units=GPa)
#
#
# Indices 1 2 3 4 5 6 
#
# 1 51.8886 28.6847 16.5023 0.0000 -0.3897 0.0000
# 2 28.6847 82.5052 30.5621 0.0000 -23.6812 0.0000
# 3 16.5023 30.5621 104.4389 0.0000 -12.3652 0.0000
# 4 0.0000 0.0000 0.0000 21.4380 0.0000 -6.2983
# 5 -0.3897 -23.6812 -12.3652 0.0000 24.6564 0.0000
# 6 0.0000 0.0000 0.0000 -6.2983 0.0000 29.2737
#
#
#
# Elastic Compliance Matrix: (Units=1/GPa)
#
#
# Indices 1 2 3 4 5 6 
#
# 1 0.026406 -0.011843 -0.002131 0.000000 -0.012026 0.000000
# 2 -0.011843 0.023103 -0.002429 0.000000 0.020784 0.000000
# 3 -0.002131 -0.002429 0.010995 0.000000 0.003148 0.000000
# 4 0.000000 0.000000 0.000000 0.049794 0.000000 0.010713
# 5 -0.012026 0.020784 0.003148 0.000000 0.061908 0.000000
# 6 0.000000 0.000000 0.000000 0.010713 0.000000 0.036465
#
#
# Mechanical properties :
#
#
# Convention : Reuss Voigt Hill
#
# Bulk Modulus (GPa) = 36.10139 43.37011 39.73575
# Shear Modulus (GPa) = 19.94330 25.94585 22.94458
#
# Velocity S-wave (km/s) = 3.11741 3.55573 3.34376
# Velocity P-wave (km/s) = 5.52716 6.16373 5.85410
#
# Compressibility (1/GPa) = 0.02769977
#
# Stress axis : x y z
#
# Youngs Moduli (GPa) = 37.86947 43.28368 90.95044
#
# Poissons Ratio (x) = 0.51263 0.19378
# Poissons Ratio (y) = 0.44850 0.22088
# Poissons Ratio (z) = 0.08068 0.10512
#
# Static dielectric constant tensor:
#      x y z
#    x 3.512330 0.000000 -0.048900 
#    y 0.000000 3.655140 0.000000 
#    z -0.048900 0.000000 3.818830 
# 
# 
# High freq. dielectric constant tensor:
#      x y z
#    x 1.786620 0.000000 0.005770 
#    y 0.000000 1.777990 0.000000 
#    z 0.005770 0.000000 1.812270 
# 
# From -- ./inp_files/294834.got.cif
#   From: 2010.06.25/outbox.cif.g09.slc.cpg/sg15_148_cif.got.tgz:294834.got - 2010.06.28 07:06:18.
