data_PCOD8129595
_publ_section_title
;
Structure prediction by ZEFSAII (Michael W. Deem and Ramdas Pophale) SiO2 
 PCOD8129595
Probable space group: C 2/C
;
_chemical_formula_sum "Si O2"
_cell_formula_units_Z 26
_cell_length_a 12.000000
_cell_length_b 27.000000
_cell_length_c 18.000000
_cell_angle_alpha 90.000000
_cell_angle_beta 30.000000
_cell_angle_gamma 90.000000
_cell_volume 2916.000000
_symmetry_space_group_name_H-M "C 2/C"
_symmetry_group_IT_number 15
_symmetry_cell_setting 'monoclinic'
loop_
_space_group_symop_operation_xyz
x,y,z
-x,y,1/2-z
-x,-y,-z
x,-y,1/2+z
1/2+x,1/2+y,z
1/2-x,1/2+y,1/2-z
1/2-x,1/2-y,-z
1/2+x,1/2-y,1/2+z
loop_
_atom_site_type_symbol
_atom_site_label
_atom_site_fract_x
_atom_site_fract_y
_atom_site_fract_z
Si Si1 0.179308 0.026251 0.795290
Si Si2 0.000000 0.011013 0.250000
Si Si3 0.256994 0.559108 0.129364
Si Si4 0.504999 0.636299 0.073179
Si Si5 0.752217 0.734039 0.913624
Si Si6 0.357429 0.916378 0.471388
Si Si7 0.757849 0.835524 0.854755
O O1 0.390993 0.063119 0.690863
O O2 0.249385 0.974963 0.793511
O O3 0.138867 0.021115 0.730163
O O4 0.930418 0.039211 0.967903
O O5 0.808944 0.042782 0.399992
O O6 0.374963 0.610617 0.081328
O O7 0.000000 0.564873 0.250000
O O8 0.300387 0.643763 0.248637
O O9 0.587752 0.688612 0.994424
O O10 0.722683 0.605511 0.977567
O O11 0.660845 0.779624 0.915264
O O12 0.000000 0.716795 0.750000
O O13 0.750000 0.750000 0.000000
O O14 0.395678 0.872942 0.509614
O O15 0.000000 0.831026 0.750000
#
# Coordination Sequence:
#
# PCOD8129595 Si02
#       7
#     8   4   8   8   8   8   8
#     4  11  25  37  61  87 115 157 207 252 289 363
#     4  12  20  40  56  84 122 160 192 242 306 354
#     4  11  25  43  56  82 122 163 202 248 305 360
#     4  11  21  37  59  87 123 159 193 246 312 362
#     4  11  19  32  57  93 124 146 190 255 315 359
#     4  11  19  34  58  89 115 152 199 238 304 356
#     4   9  17  33  54  88 123 146 182 241 309 359
#
# _framework density 8.9163239999999995
#
# number of rings (size 3 to 8) (size 9 to 14) (size 15 to 20)
#    0.000    1.231    8.462    1.385    4.308    1.231 
#    0.000    0.000    0.000    0.923    2.000    0.000 
#    0.000    0.000    0.000    0.000    0.000    0.000 
#
# Total GULP energy -322093.212792 kJ/mol
# GULP energy per Si atom -12388.200492 kJ/mol
# Density = 0.889603 g / cm^3
# Si number density = 8.916324 Si / 1000 Ang^3
#
#
#
# Elastic Constant Matrix: (Units=GPa)
#
#
# Indices 1 2 3 4 5 6 
#
# 1 91.2689 38.5402 26.9711 -0.0014 -14.5261 -0.0187
# 2 38.5402 102.7172 30.9044 0.0106 -12.1940 -0.0164
# 3 26.9711 30.9044 99.9885 0.0853 -21.8007 -0.0313
# 4 -0.0014 0.0106 0.0853 40.7904 0.0020 -1.2671
# 5 -14.5261 -12.1940 -21.8007 0.0020 30.2257 0.0143
# 6 -0.0187 -0.0164 -0.0313 -1.2671 0.0143 18.1173
#
#
#
# Elastic Compliance Matrix: (Units=1/GPa)
#
#
# Indices 1 2 3 4 5 6 
#
# 1 0.013827 -0.004261 -0.001588 0.000005 0.003780 0.000005
# 2 -0.004261 0.012183 -0.002363 0.000002 0.001163 0.000002
# 3 -0.001588 -0.002363 0.012798 -0.000026 0.007514 0.000011
# 4 0.000005 0.000002 -0.000026 0.024569 -0.000018 0.001718
# 5 0.003780 0.001163 0.007514 -0.000018 0.040790 -0.000016
# 6 0.000005 0.000002 0.000011 0.001718 -0.000016 0.055316
#
#
# Mechanical properties :
#
#
# Convention : Reuss Voigt Hill
#
# Bulk Modulus (GPa) = 44.67481 54.08956 49.38219
# Shear Modulus (GPa) = 27.26729 30.99727 29.13228
#
# Velocity S-wave (km/s) = 3.91457 4.17373 4.04623
# Velocity P-wave (km/s) = 6.74822 7.32286 7.04141
#
# Compressibility (1/GPa) = 0.02238398
#
# Stress axis : x y z
#
# Youngs Moduli (GPa) = 72.32150 82.07993 78.13577
#
# Poissons Ratio (x) = 0.34977 0.12411
# Poissons Ratio (y) = 0.30819 0.18460
# Poissons Ratio (z) = 0.11488 0.19392
#
# Static dielectric constant tensor:
#      x y z
#    x 3.175620 -0.000220 0.159070 
#    y -0.000220 3.813540 0.000250 
#    z 0.159070 0.000250 3.918160 
# 
# 
# High freq. dielectric constant tensor:
#      x y z
#    x 1.658620 -0.000010 0.010630 
#    y -0.000010 1.695940 0.000020 
#    z 0.010630 0.000020 1.708470 
# 
# From -- ./inp_files/201171.got.cif
#   From: 2010.06.25/outbox.ucp.g09.slc.cvg/sg15_101_cif.got.tgz:201171.got - 2010.06.28 14:40:10.
