data_PCOD8129041
_publ_section_title
;
Structure prediction by ZEFSAII (Michael W. Deem and Ramdas Pophale) SiO2 
 PCOD8129041
Probable space group: P 21/C
;
_chemical_formula_sum "Si O2"
_cell_formula_units_Z 24
_cell_length_a 14.784339
_cell_length_b 17.398043
_cell_length_c 8.927410
_cell_angle_alpha 90.000000
_cell_angle_beta 33.587078
_cell_angle_gamma 90.000000
_cell_volume 1270.319186
_symmetry_space_group_name_H-M "P 21/C"
_symmetry_group_IT_number 14
_symmetry_cell_setting 'monoclinic'
loop_
_space_group_symop_operation_xyz
x,y,z
-x,1/2+y,1/2-z
-x,-y,-z
x,1/2-y,1/2+z
loop_
_atom_site_type_symbol
_atom_site_label
_atom_site_fract_x
_atom_site_fract_y
_atom_site_fract_z
Si Si1 0.833229 0.413490 0.330177
Si Si2 0.373443 0.211450 0.048137
Si Si3 0.409802 0.703220 0.477390
Si Si4 0.870568 0.192327 0.041567
Si Si5 0.844407 0.909104 0.803977
Si Si6 0.934079 0.803356 0.933931
O O1 0.692760 0.370150 0.433092
O O2 0.838803 0.386196 0.495046
O O3 0.790435 0.502957 0.386244
O O4 0.007603 0.395395 0.015232
O O5 0.502913 0.179237 0.989011
O O6 0.310179 0.139973 0.037842
O O7 0.226841 0.251734 0.338966
O O8 0.455748 0.275913 0.831364
O O9 0.297075 0.778447 0.653850
O O10 0.004856 0.176504 0.983909
O O11 0.927618 0.257001 0.845955
O O12 0.897643 0.882160 0.896190
#
# Coordination Sequence:
#
# PCOD8129041 Si02
#       6
#     4   4   4   4   4   4
#     4  11  24  42  63  93 127 160 206 262 308 356
#     4  12  22  37  64  94 119 161 204 252 304 366
#     4  12  22  37  64  94 119 161 204 252 304 366
#     4  12  20  39  66  90 118 164 214 245 292 373
#     4  11  24  42  63  93 127 160 206 262 308 356
#     4  12  20  39  66  90 118 164 214 245 292 373
#
# _framework density 18.892890999999999
#
# number of rings (size 3 to 8) (size 9 to 14) (size 15 to 20)
#    0.000    0.333   10.000    0.000    0.000    1.333 
#    0.000    3.333    0.000    0.000    0.000    0.000 
#    0.000    0.000    0.000    0.000    0.000    0.000 
#
# Total GULP energy -297747.382148 kJ/mol
# GULP energy per Si atom -12406.140923 kJ/mol
# Density = 1.884989 g / cm^3
# Si number density = 18.892891 Si / 1000 Ang^3
#
#
#
# Elastic Constant Matrix: (Units=GPa)
#
#
# Indices 1 2 3 4 5 6 
#
# 1 128.1831 32.5093 6.1879 0.0000 1.7607 0.0000
# 2 32.5093 94.4646 20.3311 0.0000 -1.1812 0.0000
# 3 6.1879 20.3311 50.3859 0.0000 -2.3232 0.0000
# 4 0.0000 0.0000 0.0000 24.7316 0.0000 3.2078
# 5 1.7607 -1.1812 -2.3232 0.0000 29.0777 0.0000
# 6 0.0000 0.0000 0.0000 3.2078 0.0000 31.5235
#
#
#
# Elastic Compliance Matrix: (Units=1/GPa)
#
#
# Indices 1 2 3 4 5 6 
#
# 1 0.008560 -0.002980 0.000122 0.000000 -0.000630 0.000000
# 2 -0.002980 0.012630 -0.004716 0.000000 0.000317 0.000000
# 3 0.000122 -0.004716 0.021806 0.000000 0.001543 0.000000
# 4 0.000000 0.000000 0.000000 0.040975 0.000000 -0.004170
# 5 -0.000630 0.000317 0.001543 0.000000 0.034565 0.000000
# 6 0.000000 0.000000 0.000000 -0.004170 0.000000 0.032147
#
#
# Mechanical properties :
#
#
# Convention : Reuss Voigt Hill
#
# Bulk Modulus (GPa) = 35.90823 43.45446 39.68135
# Shear Modulus (GPa) = 28.55301 31.33360 29.94330
#
# Velocity S-wave (km/s) = 3.89177 4.07687 3.98540
# Velocity P-wave (km/s) = 6.26434 6.72395 6.49821
#
# Compressibility (1/GPa) = 0.02784877
#
# Stress axis : x y z
#
# Youngs Moduli (GPa) = 116.82437 79.17370 45.85921
#
# Poissons Ratio (x) = 0.23594 -0.00560
# Poissons Ratio (y) = 0.34813 0.21627
# Poissons Ratio (z) = -0.01427 0.37338
#
# Static dielectric constant tensor:
#      x y z
#    x 3.702960 0.000000 0.051060 
#    y 0.000000 3.264910 0.000000 
#    z 0.051060 0.000000 3.545370 
# 
# 
# High freq. dielectric constant tensor:
#      x y z
#    x 1.752980 0.000000 0.001240 
#    y 0.000000 1.710210 0.000000 
#    z 0.001240 0.000000 1.740790 
# 
# From -- ./inp_files/9050.got.cif
#   From: 2010.03.12/outbox.cif.g09.slc.cpg/sg14_5_cif.got.tgz:9050.got - 2010.03.31 13:35:05.
