data_PCOD8129102
_publ_section_title
;
Structure prediction by ZEFSAII (Michael W. Deem and Ramdas Pophale) SiO2 
 PCOD8129102
Probable space group: P 21/C
;
_chemical_formula_sum "Si O2"
_cell_formula_units_Z 32
_cell_length_a 24.819239
_cell_length_b 8.589650
_cell_length_c 11.322230
_cell_angle_alpha 90.000000
_cell_angle_beta 146.511680
_cell_angle_gamma 90.000000
_cell_volume 1331.838641
_symmetry_space_group_name_H-M "P 21/C"
_symmetry_group_IT_number 14
_symmetry_cell_setting 'monoclinic'
loop_
_space_group_symop_operation_xyz
x,y,z
-x,1/2+y,1/2-z
-x,-y,-z
x,1/2-y,1/2+z
loop_
_atom_site_type_symbol
_atom_site_label
_atom_site_fract_x
_atom_site_fract_y
_atom_site_fract_z
Si Si1 0.114205 0.666855 0.487775
Si Si2 0.954622 0.652751 0.369347
Si Si3 0.546458 0.390560 0.685719
Si Si4 0.392785 0.944376 0.278681
Si Si5 0.954081 0.921716 0.525432
Si Si6 0.812895 0.021848 0.446497
Si Si7 0.299256 0.470013 0.854736
Si Si8 0.353203 0.125285 0.967738
O O1 0.196554 0.555108 0.695493
O O2 0.041779 0.741544 0.455197
O O3 0.038906 0.562420 0.277505
O O4 0.162502 0.795853 0.487320
O O5 0.923270 0.749303 0.426508
O O6 0.000000 0.500000 0.500000
O O7 0.859034 0.604134 0.119552
O O8 0.500000 0.500000 0.500000
O O9 0.602834 0.240901 0.736776
O O10 0.461535 0.335122 0.620158
O O11 0.623454 0.483922 0.904245
O O12 0.326982 0.979607 0.272409
O O13 0.500000 0.000000 0.500000
O O14 0.352328 0.041081 0.093070
O O15 0.854691 0.995767 0.390706
O O16 0.000000 0.000000 0.500000
O O17 0.697105 0.990725 0.221362
O O18 0.290006 0.284037 0.851469
#
# Coordination Sequence:
#
# PCOD8129102 Si02
#       8
#     4   4   4   4   4   4   4   4
#     4  11  26  44  68 104 138 184 234 291 348 426
#     4  11  24  45  70  98 139 185 232 290 351 422
#     4  12  27  48  77 105 146 193 240 302 368 432
#     4  12  25  49  76 100 146 191 241 298 361 427
#     4  11  24  44  69  95 138 183 229 284 352 408
#     4  11  26  43  68 103 139 178 238 283 352 425
#     4  12  29  47  74 108 147 187 247 299 362 434
#     4  12  27  46  72 108 143 189 243 299 359 436
#
# _framework density 24.026934000000001
#
# number of rings (size 3 to 8) (size 9 to 14) (size 15 to 20)
#    0.000    0.500    5.000    1.500    8.750    2.000 
#    0.000    0.000    0.000    0.000    0.000    0.000 
#    0.000    0.000    0.000    0.000    0.000    0.000 
#
# Total GULP energy -396647.638956 kJ/mol
# GULP energy per Si atom -12395.238717 kJ/mol
# Density = 2.397225 g / cm^3
# Si number density = 24.026934 Si / 1000 Ang^3
#
#
#
# Elastic Constant Matrix: (Units=GPa)
#
#
# Indices 1 2 3 4 5 6 
#
# 1 54.8124 2.4202 21.5405 0.0000 -14.0973 0.0000
# 2 2.4202 95.8044 14.1544 0.0000 -7.6455 0.0000
# 3 21.5405 14.1544 133.1840 0.0000 -3.3245 0.0000
# 4 0.0000 0.0000 0.0000 45.6542 0.0000 -3.6718
# 5 -14.0973 -7.6455 -3.3245 0.0000 37.8693 0.0000
# 6 0.0000 0.0000 0.0000 -3.6718 0.0000 38.2957
#
#
#
# Elastic Compliance Matrix: (Units=1/GPa)
#
#
# Indices 1 2 3 4 5 6 
#
# 1 0.021553 0.000577 -0.003351 0.000000 0.007846 0.000000
# 2 0.000577 0.010781 -0.001182 0.000000 0.002287 0.000000
# 3 -0.003351 -0.001182 0.008157 0.000000 -0.000770 0.000000
# 4 0.000000 0.000000 0.000000 0.022074 0.000000 0.002116
# 5 0.007846 0.002287 -0.000770 0.000000 0.029721 0.000000
# 6 0.000000 0.000000 0.000000 0.002116 0.000000 0.026316
#
#
# Mechanical properties :
#
#
# Convention : Reuss Voigt Hill
#
# Bulk Modulus (GPa) = 30.69576 40.00344 35.34960
# Shear Modulus (GPa) = 36.39692 40.74288 38.56990
#
# Velocity S-wave (km/s) = 3.89631 4.12238 4.01094
# Velocity P-wave (km/s) = 5.74848 6.27250 6.01619
#
# Compressibility (1/GPa) = 0.03257779
#
# Stress axis : x y z
#
# Youngs Moduli (GPa) = 46.39618 92.75982 122.59660
#
# Poissons Ratio (x) = -0.05350 0.41087
# Poissons Ratio (y) = -0.02676 0.14490
# Poissons Ratio (z) = 0.15549 0.10963
#
# Static dielectric constant tensor:
#      x y z
#    x 4.849170 0.000000 0.027530 
#    y 0.000000 4.598490 0.000000 
#    z 0.027530 0.000000 4.128410 
# 
# 
# High freq. dielectric constant tensor:
#      x y z
#    x 1.953600 0.000000 -0.001540 
#    y 0.000000 1.965930 0.000000 
#    z -0.001540 0.000000 1.961150 
# 
# From -- ./inp_files/31593.got.cif
#   From: 2010.03.12/outbox.cif.g09.slc.cpg/sg14_16_cif.got.tgz:31593.got - 2010.03.31 13:35:05.
