data_PCOD8129099
_publ_section_title
;
Structure prediction by ZEFSAII (Michael W. Deem and Ramdas Pophale) SiO2 
 PCOD8129099
Probable space group: P 21/C
;
_chemical_formula_sum "Si O2"
_cell_formula_units_Z 32
_cell_length_a 14.765357
_cell_length_b 8.843328
_cell_length_c 10.572958
_cell_angle_alpha 90.000000
_cell_angle_beta 97.722329
_cell_angle_gamma 90.000000
_cell_volume 1368.042429
_symmetry_space_group_name_H-M "P 21/C"
_symmetry_group_IT_number 14
_symmetry_cell_setting 'monoclinic'
loop_
_space_group_symop_operation_xyz
x,y,z
-x,1/2+y,1/2-z
-x,-y,-z
x,1/2-y,1/2+z
loop_
_atom_site_type_symbol
_atom_site_label
_atom_site_fract_x
_atom_site_fract_y
_atom_site_fract_z
Si Si1 0.889745 0.841782 0.761013
Si Si2 0.695674 0.131265 0.869135
Si Si3 0.584005 0.579548 0.181051
Si Si4 0.161758 0.959534 0.903219
Si Si5 0.134806 0.683441 0.732747
Si Si6 0.972924 0.688609 0.534542
Si Si7 0.381370 0.556640 0.082627
Si Si8 0.718564 0.831186 0.255851
O O1 0.910031 0.774040 0.627353
O O2 0.786424 0.810221 0.795637
O O3 0.901560 0.019181 0.735003
O O4 0.953586 0.768195 0.884167
O O5 0.755820 0.188466 0.762543
O O6 0.657502 0.275792 0.934058
O O7 0.618931 0.013785 0.809266
O O8 0.765436 0.049337 0.973349
O O9 0.475024 0.579041 0.178395
O O10 0.627084 0.749769 0.182266
O O11 0.605947 0.493215 0.057366
O O12 0.119173 0.807727 0.836726
O O13 0.066815 0.018439 0.949691
O O14 0.216067 0.062728 0.814662
O O15 0.078397 0.723310 0.592653
O O16 0.313998 0.433993 0.133483
#
# Coordination Sequence:
#
# PCOD8129099 Si02
#       8
#     4   4   4   4   4   4   4   4
#     4  11  25  44  70  98 138 187 232 285 349 412
#     4  12  24  44  71 100 137 179 228 281 348 403
#     4  11  25  46  70 100 133 183 218 288 347 413
#     4  11  25  44  67 103 134 185 233 277 343 417
#     4  12  23  43  68  97 143 177 230 287 338 410
#     4  11  25  44  67 103 137 187 235 285 345 409
#     4  11  26  45  69 100 138 170 236 276 348 421
#     4  11  24  44  68  98 136 176 227 282 340 417
#
# _framework density 23.391089000000001
#
# number of rings (size 3 to 8) (size 9 to 14) (size 15 to 20)
#    0.000    0.750    3.750    2.625    7.000    0.000 
#    0.000    4.375    0.000    0.000    0.000    0.000 
#    0.000    0.000    0.000    0.000    0.000    0.000 
#
# Total GULP energy -396480.913832 kJ/mol
# GULP energy per Si atom -12390.028557 kJ/mol
# Density = 2.333785 g / cm^3
# Si number density = 23.391089 Si / 1000 Ang^3
#
#
#
# Elastic Constant Matrix: (Units=GPa)
#
#
# Indices 1 2 3 4 5 6 
#
# 1 69.5722 10.6041 -2.5563 0.0000 13.0543 0.0000
# 2 10.6041 79.5879 30.7747 0.0000 6.4123 0.0000
# 3 -2.5563 30.7747 87.0060 0.0000 13.2381 0.0000
# 4 0.0000 0.0000 0.0000 26.6201 0.0000 9.5026
# 5 13.0543 6.4123 13.2381 0.0000 28.2986 0.0000
# 6 0.0000 0.0000 0.0000 9.5026 0.0000 25.8748
#
#
#
# Elastic Compliance Matrix: (Units=1/GPa)
#
#
# Indices 1 2 3 4 5 6 
#
# 1 0.016400 -0.002540 0.002631 0.000000 -0.008221 0.000000
# 2 -0.002540 0.014973 -0.005418 0.000000 0.000314 0.000000
# 3 0.002631 -0.005418 0.014519 0.000000 -0.006778 0.000000
# 4 0.000000 0.000000 0.000000 0.043233 0.000000 -0.015878
# 5 -0.008221 0.000314 -0.006778 0.000000 0.042229 0.000000
# 6 0.000000 0.000000 0.000000 -0.015878 0.000000 0.044479
#
#
# Mechanical properties :
#
#
# Convention : Reuss Voigt Hill
#
# Bulk Modulus (GPa) = 28.37966 34.86790 31.62378
# Shear Modulus (GPa) = 25.22278 29.31492 27.26885
#
# Velocity S-wave (km/s) = 3.28732 3.54397 3.41806
# Velocity P-wave (km/s) = 5.15438 5.62896 5.39689
#
# Compressibility (1/GPa) = 0.03523650
#
# Stress axis : x y z
#
# Youngs Moduli (GPa) = 60.97603 66.78652 68.87738
#
# Poissons Ratio (x) = 0.16965 -0.18122
# Poissons Ratio (y) = 0.15489 0.37321
# Poissons Ratio (z) = -0.16043 0.36188
#
# Static dielectric constant tensor:
#      x y z
#    x 5.041370 0.000000 -0.085780 
#    y 0.000000 4.395150 0.000000 
#    z -0.085780 0.000000 4.197620 
# 
# 
# High freq. dielectric constant tensor:
#      x y z
#    x 1.947350 0.000000 0.001950 
#    y 0.000000 1.933270 0.000000 
#    z 0.001950 0.000000 1.919350 
# 
# From -- ./inp_files/31848.got.cif
#   From: 2010.03.12/outbox.cif.g09.slc.cpg/sg14_16_cif.got.tgz:31848.got - 2010.03.31 13:35:05.
