data_PCOD8129325
_publ_section_title
;
Structure prediction by ZEFSAII (Michael W. Deem and Ramdas Pophale) SiO2 
 PCOD8129325
Probable space group: P 21/C
;
_chemical_formula_sum "Si O2"
_cell_formula_units_Z 16
_cell_length_a 11.288772
_cell_length_b 7.539069
_cell_length_c 11.188552
_cell_angle_alpha 90.000000
_cell_angle_beta 136.851244
_cell_angle_gamma 90.000000
_cell_volume 651.219871
_symmetry_space_group_name_H-M "P 21/C"
_symmetry_group_IT_number 14
_symmetry_cell_setting 'monoclinic'
loop_
_space_group_symop_operation_xyz
x,y,z
-x,1/2+y,1/2-z
-x,-y,-z
x,1/2-y,1/2+z
loop_
_atom_site_type_symbol
_atom_site_label
_atom_site_fract_x
_atom_site_fract_y
_atom_site_fract_z
Si Si1 0.445042 0.479691 0.322816
Si Si2 0.936342 0.979306 0.799723
Si Si3 0.887330 0.392191 0.010106
Si Si4 0.731773 0.892757 0.861864
O O1 0.500000 0.500000 0.500000
O O2 0.351599 0.293580 0.232003
O O3 0.610969 0.492534 0.359923
O O4 0.305453 0.632053 0.186541
O O5 0.770922 0.998541 0.766553
O O6 0.029452 0.793394 0.895665
O O7 0.866983 0.991378 0.615346
O O8 0.081000 0.131025 0.933908
O O9 0.000000 0.500000 0.000000
#
# Coordination Sequence:
#
# PCOD8129325 Si02
#       4
#     4   4   4   4
#     4  12  27  48  74 110 155 195 248 306 371 447
#     4  11  26  49  78 107 148 198 252 306 372 434
#     4  12  25  46  78 107 150 194 251 306 365 448
#     4  11  26  50  73 107 151 193 248 303 373 434
#
# _framework density 24.569274
#
# number of rings (size 3 to 8) (size 9 to 14) (size 15 to 20)
#    0.000    0.500    2.500    4.500    7.000    1.000 
#    4.500    0.000    0.000    0.000    0.000    0.000 
#    0.000    0.000    0.000    0.000    0.000    0.000 
#
# Total GULP energy -198368.358283 kJ/mol
# GULP energy per Si atom -12398.022393 kJ/mol
# Density = 2.451335 g / cm^3
# Si number density = 24.569274 Si / 1000 Ang^3
#
#
#
# Elastic Constant Matrix: (Units=GPa)
#
#
# Indices 1 2 3 4 5 6 
#
# 1 242.6992 42.0951 88.3897 0.0000 -13.9289 0.0000
# 2 42.0951 100.3067 52.7673 0.0000 -5.9947 0.0000
# 3 88.3897 52.7673 168.7798 0.0000 -30.5706 0.0000
# 4 0.0000 0.0000 0.0000 39.9909 0.0000 4.7101
# 5 -13.9289 -5.9947 -30.5706 0.0000 49.5918 0.0000
# 6 0.0000 0.0000 0.0000 4.7101 0.0000 29.4330
#
#
#
# Elastic Compliance Matrix: (Units=1/GPa)
#
#
# Indices 1 2 3 4 5 6 
#
# 1 0.005158 -0.000883 -0.002457 0.000000 -0.000172 0.000000
# 2 -0.000883 0.012124 -0.003498 0.000000 -0.000939 0.000000
# 3 -0.002457 -0.003498 0.009122 0.000000 0.004510 0.000000
# 4 0.000000 0.000000 0.000000 0.025486 0.000000 -0.004078
# 5 -0.000172 -0.000939 0.004510 0.000000 0.022783 0.000000
# 6 0.000000 0.000000 0.000000 -0.004078 0.000000 0.034628
#
#
# Mechanical properties :
#
#
# Convention : Reuss Voigt Hill
#
# Bulk Modulus (GPa) = 78.55930 97.58777 88.07354
# Shear Modulus (GPa) = 39.30208 45.70537 42.50372
#
# Velocity S-wave (km/s) = 4.00389 4.31776 4.16378
# Velocity P-wave (km/s) = 7.30882 8.04133 7.68381
#
# Compressibility (1/GPa) = 0.01272924
#
# Stress axis : x y z
#
# Youngs Moduli (GPa) = 193.86549 82.48081 109.62479
#
# Poissons Ratio (x) = 0.07281 0.26930
# Poissons Ratio (y) = 0.17113 0.38349
# Poissons Ratio (z) = 0.47625 0.28854
#
# Static dielectric constant tensor:
#      x y z
#    x 4.989660 0.000000 0.053610 
#    y 0.000000 4.566850 0.000000 
#    z 0.053610 0.000000 4.864640 
# 
# 
# High freq. dielectric constant tensor:
#      x y z
#    x 2.003460 0.000000 -0.005670 
#    y 0.000000 1.978780 0.000000 
#    z -0.005670 0.000000 1.977370 
# 
# From -- ./inp_files/17639.got.cif
#   From: 2010.03.12/outbox.cif.g09.slc.cpg/sg14_9_cif.got.tgz:17639.got - 2010.03.31 13:35:05.
