data_PCOD8129168
_publ_section_title
;
Structure prediction by ZEFSAII (Michael W. Deem and Ramdas Pophale) SiO2 
 PCOD8129168
Probable space group: P 21/C
;
_chemical_formula_sum "Si O2"
_cell_formula_units_Z 20
_cell_length_a 16.274115
_cell_length_b 8.511975
_cell_length_c 15.262079
_cell_angle_alpha 90.000000
_cell_angle_beta 156.979368
_cell_angle_gamma 90.000000
_cell_volume 826.775638
_symmetry_space_group_name_H-M "P 21/C"
_symmetry_group_IT_number 14
_symmetry_cell_setting 'monoclinic'
loop_
_space_group_symop_operation_xyz
x,y,z
-x,1/2+y,1/2-z
-x,-y,-z
x,1/2-y,1/2+z
loop_
_atom_site_type_symbol
_atom_site_label
_atom_site_fract_x
_atom_site_fract_y
_atom_site_fract_z
Si Si1 0.754588 0.498951 0.506878
Si Si2 0.565005 0.004428 0.164455
Si Si3 0.541766 0.651248 0.139356
Si Si4 0.819307 0.941234 0.759315
Si Si5 0.911259 0.204096 0.589667
O O1 0.614950 0.570742 0.448192
O O2 0.673175 0.538824 0.330897
O O3 0.771907 0.309000 0.519798
O O4 0.983269 0.573476 0.745682
O O5 0.772640 0.110312 0.381060
O O6 0.582358 0.825915 0.215032
O O7 0.500000 0.000000 0.000000
O O8 0.635865 0.647378 0.133278
O O9 0.298245 0.591654 0.900843
O O10 0.918507 0.818750 0.788459
O O11 0.000000 0.000000 0.000000
#
# Coordination Sequence:
#
# PCOD8129168 Si02
#       5
#     4   4   4   4   4
#     4  12  28  45  75 107 148 189 248 303 368 440
#     4  12  28  47  72 106 148 195 244 307 367 441
#     4  11  26  45  76 105 147 190 243 305 369 441
#     4  11  24  46  75 108 144 191 246 302 374 439
#     4  12  28  46  75 110 147 196 247 304 368 443
#
# _framework density 24.190359000000001
#
# number of rings (size 3 to 8) (size 9 to 14) (size 15 to 20)
#    0.000    0.400    2.000    4.800   14.000    6.400 
#    0.000    0.000    0.000    0.000    0.000    0.000 
#    0.000    0.000    0.000    0.000    0.000    0.000 
#
# Total GULP energy -247965.960285 kJ/mol
# GULP energy per Si atom -12398.298014 kJ/mol
# Density = 2.413530 g / cm^3
# Si number density = 24.190359 Si / 1000 Ang^3
#
#
#
# Elastic Constant Matrix: (Units=GPa)
#
#
# Indices 1 2 3 4 5 6 
#
# 1 106.6818 18.6237 34.2593 0.0000 2.6311 0.0000
# 2 18.6237 143.5398 66.6318 0.0000 -6.2490 0.0000
# 3 34.2593 66.6318 149.7444 0.0000 -20.4791 0.0000
# 4 0.0000 0.0000 0.0000 55.1766 0.0000 -5.4448
# 5 2.6311 -6.2490 -20.4791 0.0000 45.2417 0.0000
# 6 0.0000 0.0000 0.0000 -5.4448 0.0000 30.8795
#
#
#
# Elastic Compliance Matrix: (Units=1/GPa)
#
#
# Indices 1 2 3 4 5 6 
#
# 1 0.010255 -0.000260 -0.002470 0.000000 -0.001750 0.000000
# 2 -0.000260 0.008802 -0.003932 0.000000 -0.000549 0.000000
# 3 -0.002470 -0.003932 0.009528 0.000000 0.003913 0.000000
# 4 0.000000 0.000000 0.000000 0.018445 0.000000 0.003252
# 5 -0.001750 -0.000549 0.003913 0.000000 0.023901 0.000000
# 6 0.000000 0.000000 0.000000 0.003252 0.000000 0.032957
#
#
# Mechanical properties :
#
#
# Convention : Reuss Voigt Hill
#
# Bulk Modulus (GPa) = 65.52735 70.99953 68.26344
# Shear Modulus (GPa) = 40.88322 44.95631 42.91976
#
# Velocity S-wave (km/s) = 4.11550 4.31564 4.21676
# Velocity P-wave (km/s) = 7.05196 7.36526 7.21031
#
# Compressibility (1/GPa) = 0.01526080
#
# Stress axis : x y z
#
# Youngs Moduli (GPa) = 97.50925 113.61208 104.95396
#
# Poissons Ratio (x) = 0.02957 0.25922
# Poissons Ratio (y) = 0.02538 0.41269
# Poissons Ratio (z) = 0.24083 0.44673
#
# Static dielectric constant tensor:
#      x y z
#    x 4.292760 0.000000 0.172960 
#    y 0.000000 4.649130 0.000000 
#    z 0.172960 0.000000 4.361540 
# 
# 
# High freq. dielectric constant tensor:
#      x y z
#    x 1.968140 0.000000 0.002300 
#    y 0.000000 1.972790 0.000000 
#    z 0.002300 0.000000 1.962350 
# 
# From -- ./inp_files/52722.got.cif
#   From: 2010.03.12/outbox.cif.g09.slc.cpg/sg14_27_cif.got.tgz:52722.got - 2010.03.31 13:35:05.
