data_PCOD8129578
_publ_section_title
;
Structure prediction by ZEFSAII (Michael W. Deem and Ramdas Pophale) SiO2 
 PCOD8129578
Probable space group: C 2/C
;
_chemical_formula_sum "Si O2"
_cell_formula_units_Z 32
_cell_length_a 24.000000
_cell_length_b 9.000000
_cell_length_c 30.000000
_cell_angle_alpha 90.000000
_cell_angle_beta 30.000000
_cell_angle_gamma 90.000000
_cell_volume 3240.000000
_symmetry_space_group_name_H-M "C 2/C"
_symmetry_group_IT_number 15
_symmetry_cell_setting 'monoclinic'
loop_
_space_group_symop_operation_xyz
x,y,z
-x,y,1/2-z
-x,-y,-z
x,-y,1/2+z
1/2+x,1/2+y,z
1/2-x,1/2+y,1/2-z
1/2-x,1/2-y,-z
1/2+x,1/2-y,1/2+z
loop_
_atom_site_type_symbol
_atom_site_label
_atom_site_fract_x
_atom_site_fract_y
_atom_site_fract_z
Si Si1 0.528368 0.843371 0.503656
Si Si2 0.892892 0.817088 0.637412
Si Si3 0.429312 0.582475 0.717946
Si Si4 0.090948 0.302273 0.655796
Si Si5 0.575370 0.674311 0.086363
Si Si6 0.241180 0.598908 0.914260
Si Si7 0.797219 0.444060 0.470993
Si Si8 0.656976 0.662562 0.816033
O O1 0.580770 0.732393 0.431060
O O2 0.616896 0.866076 0.482630
O O3 0.416409 0.768681 0.601117
O O4 0.500000 0.000000 0.500000
O O5 0.786813 0.717914 0.728507
O O6 0.011023 0.793539 0.583446
O O7 0.853309 0.989015 0.662738
O O8 0.522291 0.669350 0.681128
O O9 0.482355 0.421771 0.674777
O O10 0.315554 0.542734 0.821881
O O11 0.395720 0.673499 0.696930
O O12 0.198506 0.246175 0.608609
O O13 0.138582 0.407080 0.585278
O O14 0.000000 0.386633 0.750000
O O15 0.605369 0.820179 0.094163
O O16 0.698141 0.590037 0.003293
O O17 0.245229 0.469698 0.949044
#
# Coordination Sequence:
#
# PCOD8129578 Si02
#       8
#     8   8   8   8   8   8   8   8
#     4  12  25  42  67 101 130 177 225 277 338 400
#     4  11  24  46  63  98 134 173 228 270 334 402
#     4  10  21  43  66  92 126 172 211 268 328 394
#     4  10  22  39  62  96 124 166 217 262 321 394
#     4  10  24  41  64  91 133 164 212 267 339 387
#     4  11  22  39  70  92 127 168 225 265 322 397
#     4  11  22  42  63  98 126 168 210 273 327 391
#     4  11  24  42  70  93 135 177 219 280 329 398
#
# _framework density 9.8765429999999999
#
# number of rings (size 3 to 8) (size 9 to 14) (size 15 to 20)
#    0.000    1.250    2.500    3.000    5.250    1.000 
#    4.500    0.000    0.000    0.000    0.000    0.000 
#    0.000    0.000    0.000    0.000    0.000    0.000 
#
# Total GULP energy -396443.355595 kJ/mol
# GULP energy per Si atom -12388.854862 kJ/mol
# Density = 0.985406 g / cm^3
# Si number density = 9.876543 Si / 1000 Ang^3
#
#
#
# Elastic Constant Matrix: (Units=GPa)
#
#
# Indices 1 2 3 4 5 6 
#
# 1 134.1519 31.9114 44.5381 0.0152 -22.3155 -0.0176
# 2 31.9114 92.1734 42.2639 0.0155 -0.6565 -0.0039
# 3 44.5381 42.2639 109.7543 0.0028 -5.0806 0.0019
# 4 0.0152 0.0155 0.0028 27.7944 -0.0104 -9.9044
# 5 -22.3155 -0.6565 -5.0806 -0.0104 43.1002 0.0130
# 6 -0.0176 -0.0039 0.0019 -9.9044 0.0130 29.5275
#
#
#
# Elastic Compliance Matrix: (Units=1/GPa)
#
#
# Indices 1 2 3 4 5 6 
#
# 1 0.009672 -0.001960 -0.002956 -0.000001 0.004629 0.000003
# 2 -0.001960 0.013580 -0.004496 -0.000007 -0.001338 -0.000001
# 3 -0.002956 -0.004496 0.012033 0.000002 -0.000180 -0.000002
# 4 -0.000001 -0.000007 0.000002 0.040863 0.000005 0.013707
# 5 0.004629 -0.001338 -0.000180 0.000005 0.025557 -0.000007
# 6 0.000003 -0.000001 -0.000002 0.013707 -0.000007 0.038464
#
#
# Mechanical properties :
#
#
# Convention : Reuss Voigt Hill
#
# Bulk Modulus (GPa) = 60.74681 63.72294 62.23488
# Shear Modulus (GPa) = 30.39890 34.57551 32.48720
#
# Velocity S-wave (km/s) = 3.92719 4.18830 4.05985
# Velocity P-wave (km/s) = 7.16824 7.46451 7.31787
#
# Compressibility (1/GPa) = 0.01646177
#
# Stress axis : x y z
#
# Youngs Moduli (GPa) = 103.39236 73.63960 83.10137
#
# Poissons Ratio (x) = 0.14436 0.24562
# Poissons Ratio (y) = 0.20268 0.37360
# Poissons Ratio (z) = 0.30559 0.33106
#
# Static dielectric constant tensor:
#      x y z
#    x 4.088670 -0.000010 -0.167660 
#    y -0.000010 3.622300 0.000000 
#    z -0.167660 0.000000 3.894170 
# 
# 
# High freq. dielectric constant tensor:
#      x y z
#    x 1.797220 0.000000 -0.019350 
#    y 0.000000 1.773080 0.000000 
#    z -0.019350 0.000000 1.785450 
# 
# From -- ./inp_files/318592.got.cif
#   From: 2010.06.25/outbox.ucp.g09.slc.cvg/sg15_160_cif.got.tgz:318592.got - 2010.06.28 14:40:10.
