data_PCOD8129757
_publ_section_title
;
Structure prediction by ZEFSAII (Michael W. Deem and Ramdas Pophale) SiO2 
 PCOD8129757
Probable space group: C 2/C
;
_chemical_formula_sum "Si O2"
_cell_formula_units_Z 60
_cell_length_a 20.517872
_cell_length_b 12.746613
_cell_length_c 17.303283
_cell_angle_alpha 90.000000
_cell_angle_beta 139.124283
_cell_angle_gamma 90.000000
_cell_volume 2961.504953
_symmetry_space_group_name_H-M "C 2/C"
_symmetry_group_IT_number 15
_symmetry_cell_setting 'monoclinic'
loop_
_space_group_symop_operation_xyz
x,y,z
-x,y,1/2-z
-x,-y,-z
x,-y,1/2+z
1/2+x,1/2+y,z
1/2-x,1/2+y,1/2-z
1/2-x,1/2-y,-z
1/2+x,1/2-y,1/2+z
loop_
_atom_site_type_symbol
_atom_site_label
_atom_site_fract_x
_atom_site_fract_y
_atom_site_fract_z
Si Si1 0.577111 0.207036 0.093190
Si Si2 0.783285 0.577036 0.172634
Si Si3 0.899040 0.599014 0.124573
Si Si4 0.244907 0.650607 0.785965
Si Si5 0.500000 0.270734 0.750000
Si Si6 0.904615 0.390027 0.045669
Si Si7 0.296437 0.300057 0.617147
Si Si8 0.862468 0.738652 0.954901
O O1 0.631247 0.139551 0.206676
O O2 0.643082 0.304509 0.121567
O O3 0.549770 0.129159 0.998058
O O4 0.478302 0.254879 0.041187
O O5 0.821678 0.557564 0.119770
O O6 0.753741 0.470528 0.189104
O O7 0.683877 0.646174 0.083203
O O8 0.936731 0.502827 0.105065
O O9 0.000000 0.648448 0.250000
O O10 0.845581 0.684817 0.023083
O O11 0.188573 0.713652 0.802770
O O12 0.187645 0.664321 0.654158
O O13 0.551709 0.199110 0.860308
O O14 0.409516 0.342702 0.702870
O O15 0.782756 0.388479 0.928185
O O16 0.250000 0.250000 0.500000
#
# Coordination Sequence:
#
# PCOD8129757 Si02
#       8
#     8   8   8   8   4   8   8   8
#     4  10  22  39  60  91 121 154 199 248 300 357
#     4  11  23  41  61  87 120 158 201 247 297 357
#     4  12  23  38  63  88 116 158 204 249 299 351
#     4  10  22  39  61  90 124 157 199 245 305 359
#     4  10  16  28  50  80 116 160 188 228 292 358
#     4  10  20  33  55  87 119 149 196 247 295 349
#     4   9  18  31  51  84 122 157 191 237 290 355
#     4  11  24  40  62  89 121 158 201 253 294 352
#
# _framework density 20.259969999999999
#
# number of rings (size 3 to 8) (size 9 to 14) (size 15 to 20)
#    0.000    1.600    2.000    3.600    1.867    1.600 
#    0.000    0.000    0.000    9.600   15.600    0.000 
#    0.000    0.000    0.000    0.000    0.000    0.000 
#
# Total GULP energy -371954.730422 kJ/mol
# GULP energy per Si atom -12398.491014 kJ/mol
# Density = 2.021386 g / cm^3
# Si number density = 20.259970 Si / 1000 Ang^3
#
#
#
# Elastic Constant Matrix: (Units=GPa)
#
#
# Indices 1 2 3 4 5 6 
#
# 1 103.2154 32.8367 40.1947 0.0000 9.4031 0.0000
# 2 32.8367 79.7323 32.3877 0.0000 -4.6621 0.0000
# 3 40.1947 32.3877 98.5395 0.0000 -4.2894 0.0000
# 4 0.0000 0.0000 0.0000 19.7570 0.0000 -6.8044
# 5 9.4031 -4.6621 -4.2894 0.0000 33.4190 0.0000
# 6 0.0000 0.0000 0.0000 -6.8044 0.0000 24.6376
#
#
#
# Elastic Compliance Matrix: (Units=1/GPa)
#
#
# Indices 1 2 3 4 5 6 
#
# 1 0.013015 -0.003921 -0.004227 0.000000 -0.004751 0.000000
# 2 -0.003921 0.015723 -0.003444 0.000000 0.002854 0.000000
# 3 -0.004227 -0.003444 0.013108 0.000000 0.002391 0.000000
# 4 0.000000 0.000000 0.000000 0.055935 0.000000 0.015448
# 5 -0.004751 0.002854 0.002391 0.000000 0.031965 0.000000
# 6 0.000000 0.000000 0.000000 0.015448 0.000000 0.044855
#
#
# Mechanical properties :
#
#
# Convention : Reuss Voigt Hill
#
# Bulk Modulus (GPa) = 53.58417 54.70280 54.14349
# Shear Modulus (GPa) = 24.50912 27.30060 25.90486
#
# Velocity S-wave (km/s) = 3.48189 3.67483 3.57966
# Velocity P-wave (km/s) = 6.53226 6.71304 6.62327
#
# Compressibility (1/GPa) = 0.01866223
#
# Stress axis : x y z
#
# Youngs Moduli (GPa) = 76.83584 63.60268 76.28644
#
# Poissons Ratio (x) = 0.24937 0.32246
# Poissons Ratio (y) = 0.30126 0.26274
# Poissons Ratio (z) = 0.32478 0.21905
#
# Static dielectric constant tensor:
#      x y z
#    x 4.027040 0.000000 0.044650 
#    y 0.000000 4.324230 0.000000 
#    z 0.044650 0.000000 3.971210 
# 
# 
# High freq. dielectric constant tensor:
#      x y z
#    x 1.808550 0.000000 -0.006720 
#    y 0.000000 1.751390 0.000000 
#    z -0.006720 0.000000 1.804200 
# 
# From -- ./inp_files/215206.got.cif
#   From: 2010.06.25/outbox.cif.g09.slc.cpg/sg15_108_cif.got.tgz:215206.got - 2010.06.28 07:06:18.
