data_PCOD8129547
_publ_section_title
;
Structure prediction by ZEFSAII (Michael W. Deem and Ramdas Pophale) SiO2 
 PCOD8129547
Probable space group: C 2/C
;
_chemical_formula_sum "Si O2"
_cell_formula_units_Z 32
_cell_length_a 9.000000
_cell_length_b 24.000000
_cell_length_c 30.000000
_cell_angle_alpha 90.000000
_cell_angle_beta 150.000000
_cell_angle_gamma 90.000000
_cell_volume 3240.000000
_symmetry_space_group_name_H-M "C 2/C"
_symmetry_group_IT_number 15
_symmetry_cell_setting 'monoclinic'
loop_
_space_group_symop_operation_xyz
x,y,z
-x,y,1/2-z
-x,-y,-z
x,-y,1/2+z
1/2+x,1/2+y,z
1/2-x,1/2+y,1/2-z
1/2-x,1/2-y,-z
1/2+x,1/2-y,1/2+z
loop_
_atom_site_type_symbol
_atom_site_label
_atom_site_fract_x
_atom_site_fract_y
_atom_site_fract_z
Si Si1 0.783627 0.140134 0.565336
Si Si2 0.643745 0.955462 0.571787
Si Si3 0.337774 0.911101 0.254331
Si Si4 0.267299 0.779203 0.956012
Si Si5 0.827925 0.828939 0.412524
Si Si6 0.501264 0.003844 0.872562
Si Si7 0.454551 0.417844 0.964784
Si Si8 0.863633 0.118729 0.344706
O O1 0.594641 0.094837 0.488181
O O2 0.565047 0.182727 0.534013
O O3 0.998366 0.107515 0.656262
O O4 0.989039 0.176796 0.585837
O O5 0.968810 0.928746 0.642515
O O6 0.500000 0.000000 0.500000
O O7 0.685834 0.984611 0.631828
O O8 0.500000 0.930946 0.250000
O O9 0.511768 0.858390 0.320342
O O10 0.325243 0.961311 0.288100
O O11 0.279714 0.731598 0.921358
O O12 0.984892 0.818031 0.867827
O O13 0.250000 0.750000 0.000000
O O14 0.026764 0.867824 0.495550
O O15 0.635334 0.947955 0.885526
O O16 0.776038 0.039760 0.960766
O O17 0.487173 0.391556 0.925425
O O18 0.500000 0.115578 0.250000
#
# Coordination Sequence:
#
# PCOD8129547 Si02
#       8
#     8   8   8   8   8   8   8   8
#     4  10  22  40  63  95 128 166 218 277 322 393
#     4  11  22  40  65  92 134 177 218 260 323 406
#     4   9  21  37  64 103 133 159 215 273 323 392
#     4  11  23  40  68  88 119 172 222 271 334 392
#     4  10  19  40  65  91 126 167 212 264 336 390
#     4  10  20  37  68  95 131 178 209 254 329 395
#     4  10  19  36  64  94 127 173 209 258 321 402
#     4  11  25  42  61  91 135 169 218 276 328 385
#
# _framework density 9.8765429999999999
#
# number of rings (size 3 to 8) (size 9 to 14) (size 15 to 20)
#    0.000    1.750    3.750    0.375    1.750    2.500 
#    0.000    3.750    0.000    0.000    0.000    0.000 
#    0.000    0.000    0.000    0.000    0.000    0.000 
#
# Total GULP energy -396573.479308 kJ/mol
# GULP energy per Si atom -12392.921228 kJ/mol
# Density = 0.985406 g / cm^3
# Si number density = 9.876543 Si / 1000 Ang^3
#
#
#
# Elastic Constant Matrix: (Units=GPa)
#
#
# Indices 1 2 3 4 5 6 
#
# 1 129.4714 62.3777 57.5981 0.0152 -1.5565 0.0091
# 2 62.3777 132.1392 47.9222 0.0190 2.3865 0.0134
# 3 57.5981 47.9222 105.4377 0.0476 5.5867 0.0246
# 4 0.0152 0.0190 0.0476 25.6992 0.0217 -5.6539
# 5 -1.5565 2.3865 5.5867 0.0217 41.6885 0.0100
# 6 0.0091 0.0134 0.0246 -5.6539 0.0100 49.7959
#
#
#
# Elastic Compliance Matrix: (Units=1/GPa)
#
#
# Indices 1 2 3 4 5 6 
#
# 1 0.011678 -0.003829 -0.004707 0.000004 0.001286 0.000001
# 2 -0.003829 0.010317 -0.002577 0.000000 -0.000388 -0.000001
# 3 -0.004707 -0.002577 0.013323 -0.000020 -0.001814 -0.000007
# 4 0.000004 0.000000 -0.000020 0.039909 -0.000019 0.004531
# 5 0.001286 -0.000388 -0.001814 -0.000019 0.024301 -0.000006
# 6 0.000001 -0.000001 -0.000007 0.004531 -0.000006 0.020596
#
#
# Mechanical properties :
#
#
# Convention : Reuss Voigt Hill
#
# Bulk Modulus (GPa) = 76.38356 78.09381 77.23869
# Shear Modulus (GPa) = 34.07999 36.71340 35.39670
#
# Velocity S-wave (km/s) = 4.15818 4.31584 4.23774
# Velocity P-wave (km/s) = 7.86175 8.02846 7.94554
#
# Compressibility (1/GPa) = 0.01309182
#
# Stress axis : x y z
#
# Youngs Moduli (GPa) = 85.63121 96.92980 75.05745
#
# Poissons Ratio (x) = 0.37112 0.35332
# Poissons Ratio (y) = 0.32786 0.19342
# Poissons Ratio (z) = 0.40310 0.24978
#
# Static dielectric constant tensor:
#      x y z
#    x 3.902710 -0.000050 0.031280 
#    y -0.000050 3.902210 -0.000060 
#    z 0.031280 -0.000060 3.694710 
# 
# 
# High freq. dielectric constant tensor:
#      x y z
#    x 1.791840 0.000000 0.000470 
#    y 0.000000 1.788640 0.000000 
#    z 0.000470 0.000000 1.775330 
# 
# From -- ./inp_files/309133.got.cif
#   From: 2010.06.25/outbox.ucp.g09.slc.cvg/sg15_155_cif.got.tgz:309133.got - 2010.06.28 14:40:10.
