data_PCOD8129494
_publ_section_title
;
Structure prediction by ZEFSAII (Michael W. Deem and Ramdas Pophale) SiO2 
 PCOD8129494
Probable space group: P 21/C
;
_chemical_formula_sum "Si O2"
_cell_formula_units_Z 16
_cell_length_a 7.449553
_cell_length_b 15.877551
_cell_length_c 8.906092
_cell_angle_alpha 90.000000
_cell_angle_beta 146.341299
_cell_angle_gamma 90.000000
_cell_volume 583.851479
_symmetry_space_group_name_H-M "P 21/C"
_symmetry_group_IT_number 14
_symmetry_cell_setting 'monoclinic'
loop_
_space_group_symop_operation_xyz
x,y,z
-x,1/2+y,1/2-z
-x,-y,-z
x,1/2-y,1/2+z
loop_
_atom_site_type_symbol
_atom_site_label
_atom_site_fract_x
_atom_site_fract_y
_atom_site_fract_z
Si Si1 0.048122 0.319899 0.165957
Si Si2 0.615319 0.854080 0.632799
Si Si3 0.652049 0.954197 0.937423
Si Si4 0.115101 0.065876 0.448491
O O1 0.969612 0.358853 0.947898
O O2 0.141803 0.224013 0.206517
O O3 0.338397 0.372908 0.446051
O O4 0.736749 0.325470 0.056970
O O5 0.761737 0.923908 0.849158
O O6 0.595316 0.895561 0.453288
O O7 0.278452 0.990720 0.665572
O O8 0.861128 0.029926 0.150545
#
# Coordination Sequence:
#
# PCOD8129494 Si02
#       4
#     4   4   4   4
#     4  12  30  52  81 118 163 211 261 327 400 473
#     4  12  30  52  81 118 163 211 261 327 400 473
#     4  12  27  54  83 118 154 212 266 332 393 466
#     4  12  29  52  85 116 158 204 274 330 391 468
#
# _framework density 27.404226000000001
#
# number of rings (size 3 to 8) (size 9 to 14) (size 15 to 20)
#    0.000    0.000    2.500    4.500   10.500    4.000 
#    0.000    0.000    0.000    0.000    0.000    0.000 
#    0.000    0.000    0.000    0.000    0.000    0.000 
#
# Total GULP energy -198430.908141 kJ/mol
# GULP energy per Si atom -12401.931759 kJ/mol
# Density = 2.734185 g / cm^3
# Si number density = 27.404226 Si / 1000 Ang^3
#
#
#
# Elastic Constant Matrix: (Units=GPa)
#
#
# Indices 1 2 3 4 5 6 
#
# 1 159.7519 37.1692 40.0568 0.0000 -0.9438 0.0000
# 2 37.1692 108.0881 39.1947 0.0000 2.4494 0.0000
# 3 40.0568 39.1947 125.7347 0.0000 21.6574 0.0000
# 4 0.0000 0.0000 0.0000 37.5942 0.0000 1.1748
# 5 -0.9438 2.4494 21.6574 0.0000 40.2892 0.0000
# 6 0.0000 0.0000 0.0000 1.1748 0.0000 60.6983
#
#
#
# Elastic Compliance Matrix: (Units=1/GPa)
#
#
# Indices 1 2 3 4 5 6 
#
# 1 0.007174 -0.001787 -0.001957 0.000000 0.001329 0.000000
# 2 -0.001787 0.010931 -0.002994 0.000000 0.000903 0.000000
# 3 -0.001957 -0.002994 0.010455 0.000000 -0.005484 0.000000
# 4 0.000000 0.000000 0.000000 0.026616 0.000000 -0.000515
# 5 0.001329 0.000903 -0.005484 0.000000 0.027745 0.000000
# 6 0.000000 0.000000 0.000000 -0.000515 0.000000 0.016485
#
#
# Mechanical properties :
#
#
# Convention : Reuss Voigt Hill
#
# Bulk Modulus (GPa) = 66.29770 69.60177 67.94974
# Shear Modulus (GPa) = 42.40513 46.19327 44.29920
#
# Velocity S-wave (km/s) = 3.93796 4.11009 4.02495
# Velocity P-wave (km/s) = 6.70237 6.92655 6.81538
#
# Compressibility (1/GPa) = 0.01508348
#
# Stress axis : x y z
#
# Youngs Moduli (GPa) = 139.38815 91.47896 95.65194
#
# Poissons Ratio (x) = 0.16351 0.18722
# Poissons Ratio (y) = 0.24915 0.28635
# Poissons Ratio (z) = 0.27282 0.27386
#
# Static dielectric constant tensor:
#      x y z
#    x 5.409990 0.000000 -0.396410 
#    y 0.000000 5.122560 0.000000 
#    z -0.396410 0.000000 4.955420 
# 
# 
# High freq. dielectric constant tensor:
#      x y z
#    x 2.136740 0.000000 -0.013180 
#    y 0.000000 2.114460 0.000000 
#    z -0.013180 0.000000 2.103380 
# 
# From -- ./inp_files/5213.got.cif
#   From: 2010.03.12/outbox.cif.g09.slc.cpg/sg14_3_cif.got.tgz:5213.got - 2010.03.31 13:35:05.
