data_PCOD8129242
_publ_section_title
;
Structure prediction by ZEFSAII (Michael W. Deem and Ramdas Pophale) SiO2 
 PCOD8129242
Probable space group: P 21/C
;
_chemical_formula_sum "Si O2"
_cell_formula_units_Z 32
_cell_length_a 8.517902
_cell_length_b 11.828075
_cell_length_c 13.983441
_cell_angle_alpha 90.000000
_cell_angle_beta 69.350782
_cell_angle_gamma 90.000000
_cell_volume 1318.329061
_symmetry_space_group_name_H-M "P 21/C"
_symmetry_group_IT_number 14
_symmetry_cell_setting 'monoclinic'
loop_
_space_group_symop_operation_xyz
x,y,z
-x,1/2+y,1/2-z
-x,-y,-z
x,1/2-y,1/2+z
loop_
_atom_site_type_symbol
_atom_site_label
_atom_site_fract_x
_atom_site_fract_y
_atom_site_fract_z
Si Si1 0.894081 0.926126 0.595117
Si Si2 0.736476 0.289584 0.793746
Si Si3 0.726564 0.558926 0.503525
Si Si4 0.461855 0.460810 0.902139
Si Si5 0.978662 0.978357 0.782240
Si Si6 0.512671 0.189667 0.688351
Si Si7 0.848199 0.817527 0.155548
Si Si8 0.603305 0.172475 0.989978
O O1 0.723802 0.917078 0.573541
O O2 0.953548 0.796045 0.605152
O O3 0.895821 0.992314 0.695600
O O4 0.000000 0.000000 0.500000
O O5 0.571990 0.354499 0.858697
O O6 0.890532 0.373645 0.744491
O O7 0.680520 0.222203 0.711025
O O8 0.752808 0.205814 0.882563
O O9 0.839897 0.602856 0.564998
O O10 0.560580 0.634698 0.533920
O O11 0.673822 0.430420 0.538598
O O12 0.831244 0.560710 0.383567
O O13 0.501344 0.554829 0.813809
O O14 0.500000 0.500000 0.000000
O O15 0.061531 0.101470 0.785600
O O16 0.332403 0.229523 0.768044
O O17 0.545236 0.229520 0.573289
#
# Coordination Sequence:
#
# PCOD8129242 Si02
#       8
#     4   4   4   4   4   4   4   4
#     4  12  30  48  76 117 159 204 262 324 396 468
#     4  12  25  48  74 113 147 206 265 324 394 480
#     4  11  26  48  76 113 155 203 264 324 393 475
#     4  12  25  47  74 109 150 201 263 316 386 471
#     4  12  29  49  79 114 163 203 262 333 407 469
#     4  12  25  42  81 107 148 204 258 327 383 472
#     4  12  26  50  76 112 159 206 257 327 398 462
#     4  11  25  45  76 110 152 202 265 320 392 483
#
# _framework density 24.273150999999999
#
# number of rings (size 3 to 8) (size 9 to 14) (size 15 to 20)
#    0.000    0.250    5.000    2.625    3.500    2.000 
#    0.000    0.000    0.000    0.000    0.000    0.000 
#    0.000    0.000    0.000    0.000    0.000    0.000 
#
# Total GULP energy -396698.710517 kJ/mol
# GULP energy per Si atom -12396.834704 kJ/mol
# Density = 2.421790 g / cm^3
# Si number density = 24.273151 Si / 1000 Ang^3
#
#
#
# Elastic Constant Matrix: (Units=GPa)
#
#
# Indices 1 2 3 4 5 6 
#
# 1 77.0003 18.8047 16.6591 0.0000 11.4021 0.0000
# 2 18.8047 107.6121 22.0320 0.0000 15.2296 0.0000
# 3 16.6591 22.0320 93.8163 0.0000 10.1367 0.0000
# 4 0.0000 0.0000 0.0000 45.9522 0.0000 -4.1754
# 5 11.4021 15.2296 10.1367 0.0000 49.9109 0.0000
# 6 0.0000 0.0000 0.0000 -4.1754 0.0000 32.1119
#
#
#
# Elastic Compliance Matrix: (Units=1/GPa)
#
#
# Indices 1 2 3 4 5 6 
#
# 1 0.014162 -0.001768 -0.001849 0.000000 -0.002320 0.000000
# 2 -0.001768 0.010316 -0.001853 0.000000 -0.002368 0.000000
# 3 -0.001849 -0.001853 0.011570 0.000000 -0.001362 0.000000
# 4 0.000000 0.000000 0.000000 0.022022 0.000000 0.002863
# 5 -0.002320 -0.002368 -0.001362 0.000000 0.021565 0.000000
# 6 0.000000 0.000000 0.000000 0.002863 0.000000 0.031513
#
#
# Mechanical properties :
#
#
# Convention : Reuss Voigt Hill
#
# Bulk Modulus (GPa) = 39.82688 43.71337 41.77012
# Shear Modulus (GPa) = 38.32673 40.32384 39.32529
#
# Velocity S-wave (km/s) = 3.97794 4.08027 4.02943
# Velocity P-wave (km/s) = 6.12716 6.34399 6.23652
#
# Compressibility (1/GPa) = 0.02510867
#
# Stress axis : x y z
#
# Youngs Moduli (GPa) = 70.60989 96.93701 86.43226
#
# Poissons Ratio (x) = 0.17137 0.15981
# Poissons Ratio (y) = 0.12483 0.16015
# Poissons Ratio (z) = 0.13055 0.17961
#
# Static dielectric constant tensor:
#      x y z
#    x 4.559470 0.000000 -0.220030 
#    y 0.000000 4.692460 0.000000 
#    z -0.220030 0.000000 4.618750 
# 
# 
# High freq. dielectric constant tensor:
#      x y z
#    x 1.970390 0.000000 0.007980 
#    y 0.000000 1.984330 0.000000 
#    z 0.007980 0.000000 1.963630 
# 
# From -- ./inp_files/40278.got.cif
#   From: 2010.03.12/outbox.cif.g09.slc.cpg/sg14_21_cif.got.tgz:40278.got - 2010.03.31 13:35:05.
