data_PCOD8129980
_publ_section_title
;
Structure prediction by ZEFSAII (Michael W. Deem and Ramdas Pophale) SiO2 
 PCOD8129980
Probable space group: C 2/C
;
_chemical_formula_sum "Si O2"
_cell_formula_units_Z 52
_cell_length_a 10.767746
_cell_length_b 15.686625
_cell_length_c 16.643499
_cell_angle_alpha 90.000000
_cell_angle_beta 77.271465
_cell_angle_gamma 90.000000
_cell_volume 2742.160077
_symmetry_space_group_name_H-M "C 2/C"
_symmetry_group_IT_number 15
_symmetry_cell_setting 'monoclinic'
loop_
_space_group_symop_operation_xyz
x,y,z
-x,y,1/2-z
-x,-y,-z
x,-y,1/2+z
1/2+x,1/2+y,z
1/2-x,1/2+y,1/2-z
1/2-x,1/2-y,-z
1/2+x,1/2-y,1/2+z
loop_
_atom_site_type_symbol
_atom_site_label
_atom_site_fract_x
_atom_site_fract_y
_atom_site_fract_z
Si Si1 0.750072 0.851564 0.935830
Si Si2 0.234910 0.966932 0.127595
Si Si3 0.500000 0.469158 0.750000
Si Si4 0.682199 0.676346 0.897973
Si Si5 0.060531 0.911581 0.021889
Si Si6 0.872064 0.654557 0.725508
Si Si7 0.542599 0.329763 0.863108
O O1 0.657551 0.777254 0.917072
O O2 0.890216 0.820600 0.888458
O O3 0.708711 0.939429 0.899429
O O4 0.745142 0.861407 0.033397
O O5 0.193136 0.923937 0.049557
O O6 0.339281 0.912063 0.159577
O O7 0.104277 0.970879 0.195472
O O8 0.575602 0.410031 0.802479
O O9 0.545179 0.632711 0.906410
O O10 0.760181 0.658273 0.806371
O O11 0.096902 0.849435 0.943350
O O12 0.000000 0.000000 0.000000
O O13 0.000000 0.622003 0.750000
O O14 0.892928 0.746284 0.682340
#
# Coordination Sequence:
#
# PCOD8129980 Si02
#       7
#     8   8   4   8   8   8   8
#     4   9  18  37  62  85 109 160 200 234 276 369
#     4  11  22  34  59  91 119 144 203 246 297 325
#     4  10  16  34  62  90 108 154 200 256 272 342
#     4  10  19  35  65  84 115 153 205 231 293 350
#     4  11  20  38  64  93 111 150 202 257 286 335
#     4  12  23  37  57  89 122 161 190 237 297 363
#     4  10  19  35  62  85 119 154 204 228 294 354
#
# _framework density 18.963153999999999
#
# number of rings (size 3 to 8) (size 9 to 14) (size 15 to 20)
#    0.000    1.538    6.923    1.846    0.000    0.615 
#    0.000    0.769    6.769    0.000    0.000    0.000 
#    0.000    0.000    0.000    0.000    0.000    0.000 
#
# Total GULP energy -322348.784548 kJ/mol
# GULP energy per Si atom -12398.030175 kJ/mol
# Density = 1.891999 g / cm^3
# Si number density = 18.963154 Si / 1000 Ang^3
#
#
#
# Elastic Constant Matrix: (Units=GPa)
#
#
# Indices 1 2 3 4 5 6 
#
# 1 60.3502 42.7034 29.6177 0.0000 21.2243 0.0000
# 2 42.7034 71.3602 30.9674 0.0000 7.3157 0.0000
# 3 29.6177 30.9674 101.4750 0.0000 2.7943 0.0000
# 4 0.0000 0.0000 0.0000 38.8872 0.0000 1.9929
# 5 21.2243 7.3157 2.7943 0.0000 28.8206 0.0000
# 6 0.0000 0.0000 0.0000 1.9929 0.0000 29.2020
#
#
#
# Elastic Compliance Matrix: (Units=1/GPa)
#
#
# Indices 1 2 3 4 5 6 
#
# 1 0.043046 -0.020702 -0.005533 0.000000 -0.025909 0.000000
# 2 -0.020702 0.026497 -0.002285 0.000000 0.008741 0.000000
# 3 -0.005533 -0.002285 0.012071 0.000000 0.003484 0.000000
# 4 0.000000 0.000000 0.000000 0.025806 0.000000 -0.001761
# 5 -0.025909 0.008741 0.003484 0.000000 0.051221 0.000000
# 6 0.000000 0.000000 0.000000 -0.001761 0.000000 0.034364
#
#
# Mechanical properties :
#
#
# Convention : Reuss Voigt Hill
#
# Bulk Modulus (GPa) = 40.69212 48.86248 44.77730
# Shear Modulus (GPa) = 19.36216 28.04173 23.70194
#
# Velocity S-wave (km/s) = 3.19884 3.84962 3.53922
# Velocity P-wave (km/s) = 5.92862 6.75148 6.35338
#
# Compressibility (1/GPa) = 0.02457478
#
# Stress axis : x y z
#
# Youngs Moduli (GPa) = 23.23105 37.73951 82.84524
#
# Poissons Ratio (x) = 0.78130 0.45835
# Poissons Ratio (y) = 0.48094 0.18926
# Poissons Ratio (z) = 0.12853 0.08622
#
# Static dielectric constant tensor:
#      x y z
#    x 3.210860 0.000000 0.071340 
#    y 0.000000 3.536890 0.000000 
#    z 0.071340 0.000000 3.820280 
# 
# 
# High freq. dielectric constant tensor:
#      x y z
#    x 1.685510 0.000000 0.000530 
#    y 0.000000 1.739950 0.000000 
#    z 0.000530 0.000000 1.757310 
# 
# From -- ./inp_files/197271.got.cif
#   From: 2010.06.25/outbox.cif.g09.slc.cpg/sg15_99_cif.got.tgz:197271.got - 2010.06.28 07:06:18.
