data_PCOD8129583
_publ_section_title
;
Structure prediction by ZEFSAII (Michael W. Deem and Ramdas Pophale) SiO2 
 PCOD8129583
Probable space group: C 2/C
;
_chemical_formula_sum "Si O2"
_cell_formula_units_Z 30
_cell_length_a 15.000000
_cell_length_b 27.000000
_cell_length_c 15.000000
_cell_angle_alpha 90.000000
_cell_angle_beta 30.000000
_cell_angle_gamma 90.000000
_cell_volume 3037.500000
_symmetry_space_group_name_H-M "C 2/C"
_symmetry_group_IT_number 15
_symmetry_cell_setting 'monoclinic'
loop_
_space_group_symop_operation_xyz
x,y,z
-x,y,1/2-z
-x,-y,-z
x,-y,1/2+z
1/2+x,1/2+y,z
1/2-x,1/2+y,1/2-z
1/2-x,1/2-y,-z
1/2+x,1/2-y,1/2+z
loop_
_atom_site_type_symbol
_atom_site_label
_atom_site_fract_x
_atom_site_fract_y
_atom_site_fract_z
Si Si1 0.500000 0.881346 0.750000
Si Si2 0.013246 0.411201 0.547142
Si Si3 0.404191 0.444239 0.174270
Si Si4 0.404136 0.299077 0.084167
Si Si5 0.645275 0.554600 0.294569
Si Si6 0.383746 0.657482 0.264674
Si Si7 0.593945 0.354848 0.081943
Si Si8 0.513989 0.189601 0.521589
O O1 0.528670 0.916809 0.640408
O O2 0.688186 0.850535 0.601407
O O3 0.848419 0.444797 0.656515
O O4 0.972956 0.353423 0.563412
O O5 0.200460 0.425429 0.339962
O O6 0.393279 0.501229 0.216803
O O7 0.525586 0.412132 0.136608
O O8 0.496707 0.437900 0.998603
O O9 0.506067 0.326757 0.075194
O O10 0.189299 0.309699 0.262866
O O11 0.504674 0.316056 0.908944
O O12 0.438448 0.240782 0.068342
O O13 0.623252 0.598087 0.241699
O O14 0.500000 0.670423 0.250000
O O15 0.177791 0.678200 0.449973
O O16 0.500000 0.330936 0.250000
#
# Coordination Sequence:
#
# PCOD8129583 Si02
#       8
#     4   8   8   8   8   8   8   8
#     4  12  22  36  60  90 130 170 206 254 312 368
#     4  11  21  40  61  90 126 168 205 258 308 374
#     4  11  20  38  66  89 123 166 212 250 307 373
#     4  12  23  44  65  93 125 167 209 258 314 379
#     4  10  22  39  65  91 121 169 207 255 317 371
#     4  11  24  43  65  93 128 162 207 267 318 369
#     4  12  23  41  65  92 131 169 208 261 310 370
#     4  11  23  42  68  88 126 166 210 258 319 373
#
# _framework density 9.8765429999999999
#
# number of rings (size 3 to 8) (size 9 to 14) (size 15 to 20)
#    0.000    0.800    6.667    1.200    0.000    1.600 
#    1.200    1.333    0.000    0.000    0.000    0.000 
#    0.000    0.000    0.000    0.000    0.000    0.000 
#
# Total GULP energy -371761.310785 kJ/mol
# GULP energy per Si atom -12392.043693 kJ/mol
# Density = 0.985406 g / cm^3
# Si number density = 9.876543 Si / 1000 Ang^3
#
#
#
# Elastic Constant Matrix: (Units=GPa)
#
#
# Indices 1 2 3 4 5 6 
#
# 1 128.2136 34.0438 64.1886 -0.0714 -23.3306 0.0545
# 2 34.0438 117.7707 29.1976 -0.0294 -9.3270 0.0199
# 3 64.1886 29.1976 167.5289 -0.1975 -42.3019 0.0333
# 4 -0.0714 -0.0294 -0.1975 32.4075 0.1001 -10.8838
# 5 -23.3306 -9.3270 -42.3019 0.1001 46.6304 -0.0564
# 6 0.0545 0.0199 0.0333 -10.8838 -0.0564 14.0087
#
#
#
# Elastic Compliance Matrix: (Units=1/GPa)
#
#
# Indices 1 2 3 4 5 6 
#
# 1 0.010233 -0.002042 -0.003081 -0.000015 0.001916 -0.000034
# 2 -0.002042 0.009291 -0.000811 -0.000003 0.000100 -0.000005
# 3 -0.003081 -0.000811 0.008899 0.000045 0.006369 0.000052
# 4 -0.000015 -0.000003 0.000045 0.041751 -0.000018 0.032438
# 5 0.001916 0.000100 0.006369 -0.000018 0.028202 0.000076
# 6 -0.000034 -0.000005 0.000052 0.032438 0.000076 0.096587
#
#
# Mechanical properties :
#
#
# Convention : Reuss Voigt Hill
#
# Bulk Modulus (GPa) = 60.40977 74.26369 67.33673
# Shear Modulus (GPa) = 23.54598 37.68153 30.61376
#
# Velocity S-wave (km/s) = 3.45630 4.37238 3.94105
# Velocity P-wave (km/s) = 6.82473 7.94782 7.40759
#
# Compressibility (1/GPa) = 0.01655361
#
# Stress axis : x y z
#
# Youngs Moduli (GPa) = 97.72360 107.63612 112.36815
#
# Poissons Ratio (x) = 0.21984 0.34619
# Poissons Ratio (y) = 0.19959 0.09116
# Poissons Ratio (z) = 0.30108 0.08732
#
# Static dielectric constant tensor:
#      x y z
#    x 3.649090 -0.000050 -0.406670 
#    y -0.000050 3.838190 0.000260 
#    z -0.406670 0.000260 4.099090 
# 
# 
# High freq. dielectric constant tensor:
#      x y z
#    x 1.763050 0.000000 -0.030440 
#    y 0.000000 1.774690 0.000010 
#    z -0.030440 0.000010 1.806750 
# 
# From -- ./inp_files/157329.got.cif
#   From: 2010.06.25/outbox.ucp.g09.slc.cvg/sg15_79_cif.got.tgz:157329.got - 2010.06.28 14:40:10.
