data_PCOD8129580
_publ_section_title
;
Structure prediction by ZEFSAII (Michael W. Deem and Ramdas Pophale) SiO2 
 PCOD8129580
Probable space group: C 2/C
;
_chemical_formula_sum "Si O2"
_cell_formula_units_Z 24
_cell_length_a 21.000000
_cell_length_b 18.000000
_cell_length_c 21.000000
_cell_angle_alpha 90.000000
_cell_angle_beta 160.000000
_cell_angle_gamma 90.000000
_cell_volume 2714.955898
_symmetry_space_group_name_H-M "C 2/C"
_symmetry_group_IT_number 15
_symmetry_cell_setting 'monoclinic'
loop_
_space_group_symop_operation_xyz
x,y,z
-x,y,1/2-z
-x,-y,-z
x,-y,1/2+z
1/2+x,1/2+y,z
1/2-x,1/2+y,1/2-z
1/2-x,1/2-y,-z
1/2+x,1/2-y,1/2+z
loop_
_atom_site_type_symbol
_atom_site_label
_atom_site_fract_x
_atom_site_fract_y
_atom_site_fract_z
Si Si1 0.799193 0.305125 0.987635
Si Si2 0.555200 0.406145 0.678803
Si Si3 0.134858 0.335020 0.123537
Si Si4 0.717644 0.337594 0.701806
Si Si5 0.459486 0.446968 0.402071
Si Si6 0.691741 0.169285 0.821753
O O1 0.665119 0.375461 0.844986
O O2 0.787064 0.251145 0.914122
O O3 0.750000 0.250000 0.000000
O O4 0.008664 0.334009 0.194281
O O5 0.617997 0.361916 0.674055
O O6 0.566912 0.496097 0.682479
O O7 0.337051 0.390259 0.485617
O O8 0.187991 0.249650 0.159088
O O9 0.276046 0.396025 0.229024
O O10 0.127833 0.350117 0.191566
O O11 0.935517 0.354872 0.907196
O O12 0.630290 0.387464 0.562076
O O13 0.500000 0.500000 0.500000
#
# Coordination Sequence:
#
# PCOD8129580 Si02
#       6
#     8   8   8   8   8   8
#     4  12  24  35  52  75 100 143 197 229 269 322
#     4  11  22  35  49  72 106 135 188 241 268 325
#     4  12  18  32  54  72 102 143 185 225 267 336
#     4  11  19  31  51  73  98 141 184 223 269 329
#     4  10  22  33  47  77 103 135 189 232 276 324
#     4  12  20  33  51  70 102 140 182 226 270 317
#
# _framework density 8.8399230000000006
#
# number of rings (size 3 to 8) (size 9 to 14) (size 15 to 20)
#    0.000    0.667   10.000    0.500    0.000    4.000 
#    0.000    0.000    0.000    0.000    0.000    0.000 
#    0.000    0.000    0.000    6.000    0.000    0.500 
#
# Total GULP energy -297324.263807 kJ/mol
# GULP energy per Si atom -12388.510992 kJ/mol
# Density = 0.881980 g / cm^3
# Si number density = 8.839923 Si / 1000 Ang^3
#
#
#
# Elastic Constant Matrix: (Units=GPa)
#
#
# Indices 1 2 3 4 5 6 
#
# 1 38.0090 38.1869 39.4637 -0.0338 2.0491 -0.0029
# 2 38.1869 138.5698 69.5652 -0.0172 7.2752 -0.0151
# 3 39.4637 69.5652 162.7275 0.0181 29.5166 0.0076
# 4 -0.0338 -0.0172 0.0181 44.8733 -0.0052 -4.9658
# 5 2.0491 7.2752 29.5166 -0.0052 21.6167 0.0047
# 6 -0.0029 -0.0151 0.0076 -4.9658 0.0047 33.5755
#
#
#
# Elastic Compliance Matrix: (Units=1/GPa)
#
#
# Indices 1 2 3 4 5 6 
#
# 1 0.043044 -0.007894 -0.009046 0.000035 0.010929 0.000006
# 2 -0.007894 0.010787 -0.002890 0.000000 0.001064 0.000005
# 3 -0.009046 -0.002890 0.012285 -0.000015 -0.014945 -0.000005
# 4 0.000035 0.000000 -0.000015 0.022656 0.000022 0.003351
# 5 0.010929 0.001064 -0.014945 0.000022 0.065273 -0.000001
# 6 0.000006 0.000005 -0.000005 0.003351 -0.000001 0.030279
#
#
# Mechanical properties :
#
#
# Convention : Reuss Voigt Hill
#
# Bulk Modulus (GPa) = 37.79958 70.41532 54.10745
# Shear Modulus (GPa) = 21.47721 32.81914 27.14817
#
# Velocity S-wave (km/s) = 3.48916 4.31316 3.92285
# Velocity P-wave (km/s) = 6.13667 8.04481 7.15464
#
# Compressibility (1/GPa) = 0.02645532
#
# Stress axis : x y z
#
# Youngs Moduli (GPa) = 23.23183 92.70391 81.39769
#
# Poissons Ratio (x) = 0.73184 0.73636
# Poissons Ratio (y) = 0.18340 0.23523
# Poissons Ratio (z) = 0.21017 0.26790
#
# Static dielectric constant tensor:
#      x y z
#    x 2.889360 -0.000030 -0.020910 
#    y -0.000030 3.690700 -0.000100 
#    z -0.020910 -0.000100 3.778960 
# 
# 
# High freq. dielectric constant tensor:
#      x y z
#    x 1.614760 -0.000010 0.007080 
#    y -0.000010 1.685030 -0.000020 
#    z 0.007080 -0.000020 1.716010 
# 
# From -- ./inp_files/253284.got.cif
#   From: 2010.06.25/outbox.ucp.g09.slc.cvg/sg15_127_cif.got.tgz:253284.got - 2010.06.28 14:40:10.
