data_PCOD8129764
_publ_section_title
;
Structure prediction by ZEFSAII (Michael W. Deem and Ramdas Pophale) SiO2 
 PCOD8129764
Probable space group: C 2/C
;
_chemical_formula_sum "Si O2"
_cell_formula_units_Z 48
_cell_length_a 18.714270
_cell_length_b 28.668959
_cell_length_c 5.162800
_cell_angle_alpha 90.000000
_cell_angle_beta 70.406078
_cell_angle_gamma 90.000000
_cell_volume 2609.539697
_symmetry_space_group_name_H-M "C 2/C"
_symmetry_group_IT_number 15
_symmetry_cell_setting 'monoclinic'
loop_
_space_group_symop_operation_xyz
x,y,z
-x,y,1/2-z
-x,-y,-z
x,-y,1/2+z
1/2+x,1/2+y,z
1/2-x,1/2+y,1/2-z
1/2-x,1/2-y,-z
1/2+x,1/2-y,1/2+z
loop_
_atom_site_type_symbol
_atom_site_label
_atom_site_fract_x
_atom_site_fract_y
_atom_site_fract_z
Si Si1 0.417662 0.183576 0.299567
Si Si2 0.629907 0.232832 0.654819
Si Si3 0.707045 0.970166 0.708969
Si Si4 0.783895 0.820676 0.971407
Si Si5 0.238232 0.630112 0.019929
Si Si6 0.033024 0.551517 0.457194
O O1 0.500000 0.159571 0.250000
O O2 0.412802 0.223609 0.524160
O O3 0.351377 0.144132 0.391425
O O4 0.414781 0.209063 0.026085
O O5 0.711669 0.211171 0.604873
O O6 0.640865 0.288408 0.592494
O O7 0.752621 0.923784 0.578596
O O8 0.622006 0.951862 0.829861
O O9 0.725417 0.008971 0.469150
O O10 0.781541 0.840976 0.686348
O O11 0.781136 0.860746 0.195603
O O12 0.000000 0.578941 0.250000
O O13 0.000000 0.500000 0.500000
O O14 0.000000 0.578493 0.750000
#
# Coordination Sequence:
#
# PCOD8129764 Si02
#       6
#     8   8   8   8   8   8
#     4  10  19  32  45  71  99 121 149 185 240 281
#     4   9  17  30  53  66  88 121 147 189 226 288
#     4  12  21  32  45  59  83 117 162 199 240 275
#     4   9  17  33  49  69  84 110 162 194 233 272
#     4  10  21  32  46  66  91 119 157 212 236 260
#     4  10  16  29  41  53  68  98 148 199 214 266
#
# _framework density 18.394047
#
# number of rings (size 3 to 8) (size 9 to 14) (size 15 to 20)
#    0.000    2.000    3.333    2.500    0.000    4.667 
#    0.000    3.333    0.000    0.000    0.000    0.000 
#    0.000    0.000    0.000    0.000    0.000  210.000 
#
# Total GULP energy -297349.381593 kJ/mol
# GULP energy per Si atom -12389.557566 kJ/mol
# Density = 1.835218 g / cm^3
# Si number density = 18.394047 Si / 1000 Ang^3
#
#
#
# Elastic Constant Matrix: (Units=GPa)
#
#
# Indices 1 2 3 4 5 6 
#
# 1 29.9586 10.5435 14.3477 0.0000 11.6723 0.0000
# 2 10.5435 71.7503 20.1213 0.0000 -6.2691 0.0000
# 3 14.3477 20.1213 107.0300 0.0000 30.6579 0.0000
# 4 0.0000 0.0000 0.0000 30.9782 0.0000 7.1989
# 5 11.6723 -6.2691 30.6579 0.0000 19.2625 0.0000
# 6 0.0000 0.0000 0.0000 7.1989 0.0000 14.0210
#
#
#
# Elastic Compliance Matrix: (Units=1/GPa)
#
#
# Indices 1 2 3 4 5 6 
#
# 1 0.057033 -0.017408 0.013140 0.000000 -0.061139 0.000000
# 2 -0.017408 0.023779 -0.013555 0.000000 0.039861 0.000000
# 3 0.013140 -0.013555 0.025132 0.000000 -0.052374 0.000000
# 4 0.000000 0.000000 0.000000 0.036654 0.000000 -0.018820
# 5 -0.061139 0.039861 -0.052374 0.000000 0.185293 0.000000
# 6 0.000000 0.000000 0.000000 -0.018820 0.000000 0.080985
#
#
# Mechanical properties :
#
#
# Convention : Reuss Voigt Hill
#
# Bulk Modulus (GPa) = 14.22485 33.19597 23.71041
# Shear Modulus (GPa) = 10.68480 23.76742 17.22611
#
# Velocity S-wave (km/s) = 2.41277 3.59851 3.06356
# Velocity P-wave (km/s) = 3.93854 5.94576 5.04302
#
# Compressibility (1/GPa) = 0.07029950
#
# Stress axis : x y z
#
# Youngs Moduli (GPa) = 17.53358 42.05346 39.78985
#
# Poissons Ratio (x) = 0.73205 -0.52283
# Poissons Ratio (y) = 0.30522 0.53934
# Poissons Ratio (z) = -0.23039 0.57003
#
# Static dielectric constant tensor:
#      x y z
#    x 3.097500 0.000000 0.281280 
#    y 0.000000 3.198960 0.000000 
#    z 0.281280 0.000000 3.780950 
# 
# 
# High freq. dielectric constant tensor:
#      x y z
#    x 1.657510 0.000000 0.037940 
#    y 0.000000 1.698830 0.000000 
#    z 0.037940 0.000000 1.727050 
# 
# From -- ./inp_files/14090.got.cif
#   From: 2010.06.25/outbox.cif.g09.slc.cpg/sg15_8_cif.got.tgz:14090.got - 2010.06.28 07:06:18.
