data_PCOD8129713
_publ_section_title
;
Structure prediction by ZEFSAII (Michael W. Deem and Ramdas Pophale) SiO2 
 PCOD8129713
Probable space group: C 2/C
;
_chemical_formula_sum "Si O2"
_cell_formula_units_Z 64
_cell_length_a 23.978531
_cell_length_b 26.794510
_cell_length_c 5.259867
_cell_angle_alpha 90.000000
_cell_angle_beta 71.386096
_cell_angle_gamma 90.000000
_cell_volume 3202.653120
_symmetry_space_group_name_H-M "C 2/C"
_symmetry_group_IT_number 15
_symmetry_cell_setting 'monoclinic'
loop_
_space_group_symop_operation_xyz
x,y,z
-x,y,1/2-z
-x,-y,-z
x,-y,1/2+z
1/2+x,1/2+y,z
1/2-x,1/2+y,1/2-z
1/2-x,1/2-y,-z
1/2+x,1/2-y,1/2+z
loop_
_atom_site_type_symbol
_atom_site_label
_atom_site_fract_x
_atom_site_fract_y
_atom_site_fract_z
Si Si1 0.934303 0.521948 0.562102
Si Si2 0.036534 0.366695 0.449595
Si Si3 0.332557 0.524374 0.870882
Si Si4 0.179589 0.241969 0.618845
Si Si5 0.805864 0.132579 0.859891
Si Si6 0.236351 0.625230 0.456135
Si Si7 0.141833 0.295725 0.180612
Si Si8 0.201858 0.516545 0.490484
O O1 0.902589 0.492613 0.373420
O O2 0.931953 0.581463 0.518318
O O3 0.000000 0.500000 0.500000
O O4 0.079166 0.321464 0.311860
O O5 0.000000 0.378684 0.250000
O O6 0.000000 0.348808 0.750000
O O7 0.362096 0.502177 0.573098
O O8 0.344043 0.584025 0.884234
O O9 0.262683 0.512456 0.978599
O O10 0.250000 0.250000 0.500000
O O11 0.160481 0.185105 0.717424
O O12 0.151690 0.254810 0.385941
O O13 0.148907 0.273812 0.887118
O O14 0.781718 0.116199 0.619156
O O15 0.761695 0.146550 0.155723
O O16 0.190482 0.662289 0.648368
O O17 0.207964 0.573734 0.408697
O O18 0.168419 0.486894 0.311066
#
# Coordination Sequence:
#
# PCOD8129713 Si02
#       8
#     8   8   8   8   8   8   8   8
#     4  10  16  32  60  84 107 136 185 230 304 392
#     4  12  23  41  65  83 111 147 184 250 313 363
#     4  10  16  27  44  68  95 131 178 220 243 323
#     4  12  23  40  57  77 112 148 189 238 281 336
#     4  12  20  30  55  70  97 149 177 214 281 306
#     4  12  19  32  50  73 101 136 182 226 272 324
#     4  12  26  40  55  85 107 141 199 242 286 351
#     4  10  16  27  43  63  98 131 164 227 255 315
#
# _framework density 19.983432000000001
#
# number of rings (size 3 to 8) (size 9 to 14) (size 15 to 20)
#    0.000    0.750   10.000    1.875    0.000    0.000 
#    0.000    1.250    0.000    0.000    0.000    0.000 
#    0.000    0.000    0.000    0.000    0.000   43.750 
#
# Total GULP energy -396614.837211 kJ/mol
# GULP energy per Si atom -12394.213663 kJ/mol
# Density = 1.993795 g / cm^3
# Si number density = 19.983432 Si / 1000 Ang^3
#
#
#
# Elastic Constant Matrix: (Units=GPa)
#
#
# Indices 1 2 3 4 5 6 
#
# 1 24.8133 13.2070 26.6246 0.0000 8.3529 0.0000
# 2 13.2070 134.9931 27.3428 0.0000 -1.6651 0.0000
# 3 26.6246 27.3428 151.9353 0.0000 21.8882 0.0000
# 4 0.0000 0.0000 0.0000 30.2793 0.0000 6.9833
# 5 8.3529 -1.6651 21.8882 0.0000 31.0038 0.0000
# 6 0.0000 0.0000 0.0000 6.9833 0.0000 16.8153
#
#
#
# Elastic Compliance Matrix: (Units=1/GPa)
#
#
# Indices 1 2 3 4 5 6 
#
# 1 0.053360 -0.003859 -0.007297 0.000000 -0.009431 0.000000
# 2 -0.003859 0.008034 -0.001093 0.000000 0.002243 0.000000
# 3 -0.007297 -0.001093 0.008664 0.000000 -0.004209 0.000000
# 4 0.000000 0.000000 0.000000 0.036524 0.000000 -0.015168
# 5 -0.009431 0.002243 -0.004209 0.000000 0.037887 0.000000
# 6 0.000000 0.000000 0.000000 -0.015168 0.000000 0.065769
#
#
# Mechanical properties :
#
#
# Convention : Reuss Voigt Hill
#
# Bulk Modulus (GPa) = 21.94916 49.56563 35.75740
# Shear Modulus (GPa) = 20.00627 31.92419 25.96523
#
# Velocity S-wave (km/s) = 3.16752 4.00125 3.60854
# Velocity P-wave (km/s) = 4.93812 6.79734 5.94092
#
# Compressibility (1/GPa) = 0.04555982
#
# Stress axis : x y z
#
# Youngs Moduli (GPa) = 18.74070 124.46643 115.42617
#
# Poissons Ratio (x) = 0.48027 0.84232
# Poissons Ratio (y) = 0.07231 0.12613
# Poissons Ratio (z) = 0.13676 0.13601
#
# Static dielectric constant tensor:
#      x y z
#    x 3.066940 0.000000 0.145550 
#    y 0.000000 3.813700 0.000000 
#    z 0.145550 0.000000 3.280360 
# 
# 
# High freq. dielectric constant tensor:
#      x y z
#    x 1.711500 0.000000 0.033430 
#    y 0.000000 1.787060 0.000000 
#    z 0.033430 0.000000 1.820130 
# 
# From -- ./inp_files/16219.got.cif
#   From: 2010.06.25/outbox.cif.g09.slc.cpg/sg15_9_cif.got.tgz:16219.got - 2010.06.28 07:06:18.
