data_PCOD8129828
_publ_section_title
;
Structure prediction by ZEFSAII (Michael W. Deem and Ramdas Pophale) SiO2 
 PCOD8129828
Probable space group: C 2/C
;
_chemical_formula_sum "Si O2"
_cell_formula_units_Z 60
_cell_length_a 11.952914
_cell_length_b 14.475575
_cell_length_c 28.449326
_cell_angle_alpha 90.000000
_cell_angle_beta 135.082538
_cell_angle_gamma 90.000000
_cell_volume 3475.682309
_symmetry_space_group_name_H-M "C 2/C"
_symmetry_group_IT_number 15
_symmetry_cell_setting 'monoclinic'
loop_
_space_group_symop_operation_xyz
x,y,z
-x,y,1/2-z
-x,-y,-z
x,-y,1/2+z
1/2+x,1/2+y,z
1/2-x,1/2+y,1/2-z
1/2-x,1/2-y,-z
1/2+x,1/2-y,1/2+z
loop_
_atom_site_type_symbol
_atom_site_label
_atom_site_fract_x
_atom_site_fract_y
_atom_site_fract_z
Si Si1 0.952541 0.702255 0.158364
Si Si2 0.702336 0.736894 0.792745
Si Si3 0.195166 0.679620 0.548705
Si Si4 0.741020 0.989233 0.611262
Si Si5 0.000000 0.064566 0.750000
Si Si6 0.568040 0.072310 0.428620
Si Si7 0.252502 0.898674 0.985165
Si Si8 0.002088 0.762827 0.933708
O O1 0.866621 0.705551 0.183237
O O2 0.877215 0.784660 0.103703
O O3 0.935796 0.604613 0.126738
O O4 0.139931 0.718968 0.225092
O O5 0.641635 0.630482 0.773500
O O6 0.890417 0.743317 0.854766
O O7 0.176061 0.586718 0.573430
O O8 0.134016 0.659792 0.478227
O O9 0.090138 0.757895 0.543845
O O10 0.915692 0.998986 0.686345
O O11 0.609447 0.952946 0.608471
O O12 0.755468 0.917848 0.572794
O O13 0.692484 0.988995 0.470034
O O14 0.080137 0.864532 0.951964
O O15 0.370045 0.816648 0.030865
#
# Coordination Sequence:
#
# PCOD8129828 Si02
#       8
#     8   8   8   8   4   8   8   8
#     4   9  18  30  52  74  97 129 168 200 248 298
#     4   9  17  34  52  73  93 139 170 198 238 317
#     4  10  16  33  51  71  99 134 162 202 251 295
#     4  11  18  31  50  79 104 126 167 218 248 284
#     4  10  16  30  54  70 100 130 166 206 256 282
#     4  11  19  30  48  82 102 122 161 221 252 278
#     4  10  20  30  49  77 102 131 168 206 251 299
#     4  10  17  33  52  70  97 140 165 199 243 306
#
# _framework density 17.262796000000002
#
# number of rings (size 3 to 8) (size 9 to 14) (size 15 to 20)
#    0.000    2.133    6.667    1.200    0.000    1.067 
#    0.000    2.667    0.000    0.000   10.400    0.000 
#    0.000    0.000    0.000    0.000    0.000    0.000 
#
# Total GULP energy -371681.368995 kJ/mol
# GULP energy per Si atom -12389.378967 kJ/mol
# Density = 1.722351 g / cm^3
# Si number density = 17.262796 Si / 1000 Ang^3
#
#
#
# Elastic Constant Matrix: (Units=GPa)
#
#
# Indices 1 2 3 4 5 6 
#
# 1 46.9061 40.1149 43.6198 0.0000 3.4824 0.0000
# 2 40.1149 79.3862 53.2015 0.0000 5.7372 0.0000
# 3 43.6198 53.2015 131.5315 0.0000 19.1170 0.0000
# 4 0.0000 0.0000 0.0000 26.1098 0.0000 4.1326
# 5 3.4824 5.7372 19.1170 0.0000 18.1177 0.0000
# 6 0.0000 0.0000 0.0000 4.1326 0.0000 24.6676
#
#
#
# Elastic Compliance Matrix: (Units=1/GPa)
#
#
# Indices 1 2 3 4 5 6 
#
# 1 0.042680 -0.016373 -0.008377 0.000000 0.005821 0.000000
# 2 -0.016373 0.023640 -0.004136 0.000000 0.000025 0.000000
# 3 -0.008377 -0.004136 0.013736 0.000000 -0.011574 0.000000
# 4 0.000000 0.000000 0.000000 0.039343 0.000000 -0.006591
# 5 0.005821 0.000025 -0.011574 0.000000 0.066280 0.000000
# 6 0.000000 0.000000 0.000000 -0.006591 0.000000 0.041643
#
#
# Mechanical properties :
#
#
# Convention : Reuss Voigt Hill
#
# Bulk Modulus (GPa) = 44.87640 59.07737 51.97689
# Shear Modulus (GPa) = 17.09269 21.83820 19.46544
#
# Velocity S-wave (km/s) = 3.15007 3.56060 3.36161
# Velocity P-wave (km/s) = 6.26762 7.15545 6.72620
#
# Compressibility (1/GPa) = 0.02228343
#
# Stress axis : x y z
#
# Youngs Moduli (GPa) = 23.43002 42.30119 72.80225
#
# Poissons Ratio (x) = 0.69261 0.60990
# Poissons Ratio (y) = 0.38363 0.30108
# Poissons Ratio (z) = 0.19628 0.17494
#
# Static dielectric constant tensor:
#      x y z
#    x 3.005990 0.000000 0.266100 
#    y 0.000000 3.179610 0.000000 
#    z 0.266100 0.000000 3.804890 
# 
# 
# High freq. dielectric constant tensor:
#      x y z
#    x 1.623000 0.000000 0.016460 
#    y 0.000000 1.649380 0.000000 
#    z 0.016460 0.000000 1.686920 
# 
# From -- ./inp_files/292719.got.cif
#   From: 2010.06.25/outbox.cif.g09.slc.cpg/sg15_147_cif.got.tgz:292719.got - 2010.06.28 07:06:18.
