data_PCOD8129558
_publ_section_title
;
Structure prediction by ZEFSAII (Michael W. Deem and Ramdas Pophale) SiO2 
 PCOD8129558
Probable space group: C 2/C
;
_chemical_formula_sum "Si O2"
_cell_formula_units_Z 30
_cell_length_a 24.000000
_cell_length_b 9.000000
_cell_length_c 21.000000
_cell_angle_alpha 90.000000
_cell_angle_beta 40.000000
_cell_angle_gamma 90.000000
_cell_volume 2915.684598
_symmetry_space_group_name_H-M "C 2/C"
_symmetry_group_IT_number 15
_symmetry_cell_setting 'monoclinic'
loop_
_space_group_symop_operation_xyz
x,y,z
-x,y,1/2-z
-x,-y,-z
x,-y,1/2+z
1/2+x,1/2+y,z
1/2-x,1/2+y,1/2-z
1/2-x,1/2-y,-z
1/2+x,1/2-y,1/2+z
loop_
_atom_site_type_symbol
_atom_site_label
_atom_site_fract_x
_atom_site_fract_y
_atom_site_fract_z
Si Si1 0.634128 0.481029 0.778130
Si Si2 0.591885 0.162982 0.099765
Si Si3 0.194390 0.666795 0.882812
Si Si4 0.151569 0.001485 0.404106
Si Si5 0.178945 0.351948 0.254272
Si Si6 0.088060 0.492303 0.728150
Si Si7 0.000000 0.766924 0.750000
Si Si8 0.455006 0.510507 0.880479
O O1 0.713407 0.588071 0.691398
O O2 0.603716 0.492722 0.878078
O O3 0.654790 0.308207 0.747378
O O4 0.557723 0.535310 0.798971
O O5 0.589108 0.341614 0.109619
O O6 0.495156 0.102028 0.179612
O O7 0.635035 0.089341 0.126064
O O8 0.639283 0.115790 0.992863
O O9 0.202944 0.845189 0.874175
O O10 0.150143 0.621253 0.853531
O O11 0.082619 0.965251 0.518447
O O12 0.217517 0.864020 0.341660
O O13 0.145170 0.490333 0.241180
O O14 0.064760 0.662087 0.731939
O O15 0.060008 0.871975 0.653177
#
# Coordination Sequence:
#
# PCOD8129558 Si02
#       8
#     8   8   8   8   8   8   4   8
#     4  10  20  37  61  87 116 149 192 234 293 339
#     4   9  21  38  58  83 118 148 196 236 281 345
#     4   9  20  39  58  86 116 148 196 238 281 346
#     4   9  21  38  59  85 119 148 188 242 282 346
#     4  10  20  38  59  85 117 152 187 239 292 336
#     4  10  21  39  58  82 118 154 191 237 291 339
#     4  10  20  36  56  80 116 148 190 240 276 340
#     4  11  20  38  59  86 111 154 194 234 286 340
#
# _framework density 10.289179000000001
#
# number of rings (size 3 to 8) (size 9 to 14) (size 15 to 20)
#    0.000    2.400    1.333    1.200    1.867    2.667 
#    2.400    2.667    0.000    0.000    0.000    0.000 
#    0.000    0.000    0.000    0.000    0.000    0.000 
#
# Total GULP energy -371744.902367 kJ/mol
# GULP energy per Si atom -12391.496746 kJ/mol
# Density = 1.026576 g / cm^3
# Si number density = 10.289179 Si / 1000 Ang^3
#
#
#
# Elastic Constant Matrix: (Units=GPa)
#
#
# Indices 1 2 3 4 5 6 
#
# 1 42.7803 9.1409 30.2551 0.0054 16.3912 0.0001
# 2 9.1409 74.0392 39.4625 0.0077 17.9023 -0.0009
# 3 30.2551 39.4625 113.8266 0.0023 28.8586 -0.0002
# 4 0.0054 0.0077 0.0023 27.9355 -0.0025 0.8039
# 5 16.3912 17.9023 28.8586 -0.0025 24.0042 0.0004
# 6 0.0001 -0.0009 -0.0002 0.8039 0.0004 24.2571
#
#
#
# Elastic Compliance Matrix: (Units=1/GPa)
#
#
# Indices 1 2 3 4 5 6 
#
# 1 0.033725 0.003261 -0.005235 -0.000009 -0.019167 0.000001
# 2 0.003261 0.017977 -0.004510 -0.000006 -0.010212 0.000001
# 3 -0.005235 -0.004510 0.014358 0.000000 -0.010323 0.000000
# 4 -0.000009 -0.000006 0.000000 0.035831 0.000014 -0.001187
# 5 -0.019167 -0.010212 -0.010323 0.000014 0.074773 -0.000002
# 6 0.000001 0.000001 0.000000 -0.001187 -0.000002 0.041264
#
#
# Mechanical properties :
#
#
# Convention : Reuss Voigt Hill
#
# Bulk Modulus (GPa) = 18.83577 43.15146 30.99361
# Shear Modulus (GPa) = 20.11319 25.35853 22.73586
#
# Velocity S-wave (km/s) = 3.12972 3.51421 3.32752
# Velocity P-wave (km/s) = 4.71522 6.12218 5.46417
#
# Compressibility (1/GPa) = 0.05309049
#
# Stress axis : x y z
#
# Youngs Moduli (GPa) = 29.65187 55.62738 69.64973
#
# Poissons Ratio (x) = -0.18141 0.36463
# Poissons Ratio (y) = -0.09670 0.31414
# Poissons Ratio (z) = 0.15523 0.25089
#
# Static dielectric constant tensor:
#      x y z
#    x 3.653180 0.000000 0.404360 
#    y 0.000000 3.743400 0.000000 
#    z 0.404360 0.000000 3.715330 
# 
# 
# High freq. dielectric constant tensor:
#      x y z
#    x 1.798380 0.000000 0.028110 
#    y 0.000000 1.811360 0.000000 
#    z 0.028110 0.000000 1.794480 
# 
# From -- ./inp_files/255164.got.cif
#   From: 2010.06.25/outbox.ucp.g09.slc.cvg/sg15_128_cif.got.tgz:255164.got - 2010.06.28 14:40:10.
