data_PCOD8129291
_publ_section_title
;
Structure prediction by ZEFSAII (Michael W. Deem and Ramdas Pophale) SiO2 
 PCOD8129291
Probable space group: P 21/C
;
_chemical_formula_sum "Si O2"
_cell_formula_units_Z 24
_cell_length_a 5.363134
_cell_length_b 20.054971
_cell_length_c 9.280634
_cell_angle_alpha 90.000000
_cell_angle_beta 105.381913
_cell_angle_gamma 90.000000
_cell_volume 962.445363
_symmetry_space_group_name_H-M "P 21/C"
_symmetry_group_IT_number 14
_symmetry_cell_setting 'monoclinic'
loop_
_space_group_symop_operation_xyz
x,y,z
-x,1/2+y,1/2-z
-x,-y,-z
x,1/2-y,1/2+z
loop_
_atom_site_type_symbol
_atom_site_label
_atom_site_fract_x
_atom_site_fract_y
_atom_site_fract_z
Si Si1 0.209248 0.956550 0.114802
Si Si2 0.044471 0.364106 0.221066
Si Si3 0.951843 0.879587 0.595193
Si Si4 0.491402 0.957548 0.643686
Si Si5 0.469090 0.670965 0.538679
Si Si6 0.250890 0.740066 0.245946
O O1 0.285018 0.893453 0.028152
O O2 0.102800 0.930717 0.252525
O O3 0.459467 0.999970 0.201547
O O4 0.000000 0.000000 0.000000
O O5 0.241440 0.349802 0.380943
O O6 0.852008 0.301587 0.174515
O O7 0.173310 0.376850 0.085132
O O8 0.216929 0.922083 0.624817
O O9 0.012287 0.805561 0.659416
O O10 0.734588 0.907014 0.669467
O O11 0.500000 0.000000 0.500000
O O12 0.449423 0.696217 0.371896
O O13 0.396888 0.732302 0.630055
#
# Coordination Sequence:
#
# PCOD8129291 Si02
#       6
#     4   4   4   4   4   4
#     4  11  26  46  68 104 146 190 249 307 373 441
#     4  11  26  44  72 104 145 192 246 310 364 449
#     4  12  27  47  77 106 148 195 245 307 372 442
#     4  12  26  47  75 106 144 195 249 299 369 444
#     4  11  26  45  73 101 147 192 244 309 373 440
#     4  11  26  46  69 108 141 196 241 307 372 445
#
# _framework density 24.936482000000002
#
# number of rings (size 3 to 8) (size 9 to 14) (size 15 to 20)
#    0.000    0.667    3.333    2.500   11.667    0.667 
#    0.000    0.000    0.000    0.000    0.000    0.000 
#    0.000    0.000    0.000    0.000    0.000    0.000 
#
# Total GULP energy -297654.236622 kJ/mol
# GULP energy per Si atom -12402.259859 kJ/mol
# Density = 2.487973 g / cm^3
# Si number density = 24.936482 Si / 1000 Ang^3
#
#
#
# Elastic Constant Matrix: (Units=GPa)
#
#
# Indices 1 2 3 4 5 6 
#
# 1 74.2086 15.3990 -1.6364 0.0000 14.2882 0.0000
# 2 15.3990 108.5694 39.0603 0.0000 4.6515 0.0000
# 3 -1.6364 39.0603 104.4139 0.0000 20.3784 0.0000
# 4 0.0000 0.0000 0.0000 44.8212 0.0000 11.0989
# 5 14.2882 4.6515 20.3784 0.0000 36.8002 0.0000
# 6 0.0000 0.0000 0.0000 11.0989 0.0000 15.9178
#
#
#
# Elastic Compliance Matrix: (Units=1/GPa)
#
#
# Indices 1 2 3 4 5 6 
#
# 1 0.015510 -0.002870 0.002714 0.000000 -0.007162 0.000000
# 2 -0.002870 0.011205 -0.004684 0.000000 0.002292 0.000000
# 3 0.002714 -0.004684 0.012851 0.000000 -0.007578 0.000000
# 4 0.000000 0.000000 0.000000 0.026967 0.000000 -0.018803
# 5 -0.007162 0.002292 -0.007578 0.000000 0.033861 0.000000
# 6 0.000000 0.000000 0.000000 -0.018803 0.000000 0.075933
#
#
# Mechanical properties :
#
#
# Convention : Reuss Voigt Hill
#
# Bulk Modulus (GPa) = 33.45855 43.64862 38.55358
# Shear Modulus (GPa) = 25.51439 35.13244 30.32342
#
# Velocity S-wave (km/s) = 3.20218 3.75757 3.49094
# Velocity P-wave (km/s) = 5.20755 6.03057 5.63411
#
# Compressibility (1/GPa) = 0.02988773
#
# Stress axis : x y z
#
# Youngs Moduli (GPa) = 64.47491 89.24897 77.81494
#
# Poissons Ratio (x) = 0.25611 -0.21122
# Poissons Ratio (y) = 0.18502 0.36447
# Poissons Ratio (z) = -0.17501 0.41802
#
# Static dielectric constant tensor:
#      x y z
#    x 4.254580 0.000000 0.077860 
#    y 0.000000 4.836600 0.000000 
#    z 0.077860 0.000000 4.523020 
# 
# 
# High freq. dielectric constant tensor:
#      x y z
#    x 1.976290 0.000000 0.009620 
#    y 0.000000 2.014640 0.000000 
#    z 0.009620 0.000000 2.001960 
# 
# From -- ./inp_files/21294.got.cif
#   From: 2010.03.12/outbox.cif.g09.slc.cpg/sg14_11_cif.got.tgz:21294.got - 2010.03.31 13:35:05.
