data_PCOD8129678
_publ_section_title
;
Structure prediction by ZEFSAII (Michael W. Deem and Ramdas Pophale) SiO2 
 PCOD8129678
Probable space group: C 2/C
;
_chemical_formula_sum "Si O2"
_cell_formula_units_Z 60
_cell_length_a 27.415093
_cell_length_b 31.821551
_cell_length_c 4.993102
_cell_angle_alpha 90.000000
_cell_angle_beta 99.969660
_cell_angle_gamma 90.000000
_cell_volume 4290.159628
_symmetry_space_group_name_H-M "C 2/C"
_symmetry_group_IT_number 15
_symmetry_cell_setting 'monoclinic'
loop_
_space_group_symop_operation_xyz
x,y,z
-x,y,1/2-z
-x,-y,-z
x,-y,1/2+z
1/2+x,1/2+y,z
1/2-x,1/2+y,1/2-z
1/2-x,1/2-y,-z
1/2+x,1/2-y,1/2+z
loop_
_atom_site_type_symbol
_atom_site_label
_atom_site_fract_x
_atom_site_fract_y
_atom_site_fract_z
Si Si1 0.874670 0.629283 0.183978
Si Si2 0.759693 0.159025 0.219251
Si Si3 0.667832 0.786524 0.825648
Si Si4 0.597706 0.080801 0.760770
Si Si5 0.692672 0.027492 0.784483
Si Si6 0.000000 0.530000 0.750000
Si Si7 0.306080 0.738375 0.124969
Si Si8 0.767779 0.610848 0.838830
O O1 0.877803 0.680023 0.219335
O O2 0.879926 0.607896 0.476445
O O3 0.914149 0.611273 0.005371
O O4 0.821889 0.618080 0.008289
O O5 0.717948 0.188836 0.304829
O O6 0.807529 0.188601 0.202450
O O7 0.771018 0.123554 0.459320
O O8 0.740682 0.139230 0.927640
O O9 0.659670 0.749395 0.599658
O O10 0.672404 0.766355 0.118759
O O11 0.637136 0.045693 0.705386
O O12 0.547586 0.059464 0.806751
O O13 0.734853 0.062157 0.754067
O O14 0.699885 0.988161 0.594083
O O15 0.000000 0.500000 0.500000
O O16 0.250000 0.750000 0.000000
#
# Coordination Sequence:
#
# PCOD8129678 Si02
#       8
#     8   8   8   8   8   4   8   8
#     4  10  18  30  43  56  72  89 108 129 160 206
#     4  10  16  25  35  50  72  93 112 130 154 186
#     4  10  16  24  36  53  71  90 111 130 148 178
#     4  11  21  33  46  58  70  87 105 135 181 225
#     4  11  19  29  41  54  66  82 109 142 176 213
#     4  12  24  38  50  62  74  86 108 144 186 236
#     4  10  16  22  34  52  72  93 112 130 148 172
#     4  10  18  27  38  51  68  90 111 135 165 199
#
# _framework density 13.985493999999999
#
# number of rings (size 3 to 8) (size 9 to 14) (size 15 to 20)
#    0.000    1.600    0.000   13.600    0.000    0.000 
#    0.000    0.000    0.000    0.000    0.000    0.000 
#    0.000    0.000    0.000    0.000    0.000    0.000 
#
# Total GULP energy -371758.157631 kJ/mol
# GULP energy per Si atom -12391.938588 kJ/mol
# Density = 1.395366 g / cm^3
# Si number density = 13.985494 Si / 1000 Ang^3
#
#
#
# Elastic Constant Matrix: (Units=GPa)
#
#
# Indices 1 2 3 4 5 6 
#
# 1 23.8352 32.4609 14.9405 0.0000 -10.3802 0.0000
# 2 32.4609 79.2763 25.4550 0.0000 -5.7105 0.0000
# 3 14.9405 25.4550 79.2175 0.0000 -17.3231 0.0000
# 4 0.0000 0.0000 0.0000 34.4323 0.0000 -9.8173
# 5 -10.3802 -5.7105 -17.3231 0.0000 15.0555 0.0000
# 6 0.0000 0.0000 0.0000 -9.8173 0.0000 20.0173
#
#
#
# Elastic Compliance Matrix: (Units=1/GPa)
#
#
# Indices 1 2 3 4 5 6 
#
# 1 0.171344 -0.066443 0.012503 0.000000 0.107320 0.000000
# 2 -0.066443 0.039831 -0.009329 0.000000 -0.041436 0.000000
# 3 0.012503 -0.009329 0.019207 0.000000 0.027182 0.000000
# 4 0.000000 0.000000 0.000000 0.033764 0.000000 0.016559
# 5 0.107320 -0.041436 0.027182 0.000000 0.155974 0.000000
# 6 0.000000 0.000000 0.000000 0.016559 0.000000 0.058078
#
#
# Mechanical properties :
#
#
# Convention : Reuss Voigt Hill
#
# Bulk Modulus (GPa) = 9.62987 36.44910 23.03948
# Shear Modulus (GPa) = 7.82043 21.19917 14.50980
#
# Velocity S-wave (km/s) = 2.36727 3.89755 3.22450
# Velocity P-wave (km/s) = 3.79111 6.80978 5.51115
#
# Compressibility (1/GPa) = 0.10384360
#
# Stress axis : x y z
#
# Youngs Moduli (GPa) = 5.83622 25.10609 52.06398
#
# Poissons Ratio (x) = 1.66813 -0.65096
# Poissons Ratio (y) = 0.38778 0.48570
# Poissons Ratio (z) = -0.07297 0.23421
#
# Static dielectric constant tensor:
#      x y z
#    x 2.704260 0.000000 -0.572130 
#    y 0.000000 3.676330 0.000000 
#    z -0.572130 0.000000 3.094710 
# 
# 
# High freq. dielectric constant tensor:
#      x y z
#    x 1.451690 0.000000 -0.040960 
#    y 0.000000 1.541010 0.000000 
#    z -0.040960 0.000000 1.555200 
# 
# From -- ./inp_files/17767.got.cif
#   From: 2010.06.25/outbox.cif.g09.slc.cpg/sg15_9_cif.got.tgz:17767.got - 2010.06.28 07:06:18.
