data_PCOD8129593
_publ_section_title
;
Structure prediction by ZEFSAII (Michael W. Deem and Ramdas Pophale) SiO2 
 PCOD8129593
Probable space group: C 2/C
;
_chemical_formula_sum "Si O2"
_cell_formula_units_Z 30
_cell_length_a 21.000000
_cell_length_b 15.000000
_cell_length_c 27.000000
_cell_angle_alpha 90.000000
_cell_angle_beta 160.000000
_cell_angle_gamma 90.000000
_cell_volume 2908.881319
_symmetry_space_group_name_H-M "C 2/C"
_symmetry_group_IT_number 15
_symmetry_cell_setting 'monoclinic'
loop_
_space_group_symop_operation_xyz
x,y,z
-x,y,1/2-z
-x,-y,-z
x,-y,1/2+z
1/2+x,1/2+y,z
1/2-x,1/2+y,1/2-z
1/2-x,1/2-y,-z
1/2+x,1/2-y,1/2+z
loop_
_atom_site_type_symbol
_atom_site_label
_atom_site_fract_x
_atom_site_fract_y
_atom_site_fract_z
Si Si1 0.156353 0.541156 0.215067
Si Si2 0.981164 0.362323 0.331503
Si Si3 0.000000 0.980626 0.250000
Si Si4 0.376503 0.715377 0.987940
Si Si5 0.055972 0.056863 0.635084
Si Si6 0.293697 0.117532 0.900986
Si Si7 0.624679 0.687279 0.072867
Si Si8 0.168841 0.066956 0.468149
O O1 0.347533 0.523345 0.324920
O O2 0.203038 0.621258 0.287872
O O3 0.108653 0.449446 0.208818
O O4 0.995390 0.573830 0.059665
O O5 0.091335 0.307085 0.455871
O O6 0.122667 0.402452 0.393460
O O7 0.827542 0.303188 0.187765
O O8 0.836106 0.914348 0.148208
O O9 0.939474 0.048181 0.162204
O O10 0.522255 0.715128 0.049147
O O11 0.421124 0.643393 0.063251
O O12 0.210349 0.085189 0.788067
O O13 0.012310 0.137831 0.565899
O O14 0.864522 0.022199 0.522128
O O15 0.305068 0.224964 0.905057
#
# Coordination Sequence:
#
# PCOD8129593 Si02
#       8
#     8   8   4   8   8   8   8   8
#     4  12  23  46  72 103 142 187 240 288 358 431
#     4  12  27  46  72 108 144 193 237 294 362 430
#     4  10  24  48  72 104 144 186 248 298 354 434
#     4  12  27  44  73 104 149 183 243 298 354 425
#     4  11  23  45  73 101 143 187 238 295 355 428
#     4  11  25  44  72 105 139 187 241 297 358 424
#     4  12  25  45  69 108 145 183 237 304 353 423
#     4  11  24  46  70 100 143 192 233 293 358 423
#
# _framework density 10.313243
#
# number of rings (size 3 to 8) (size 9 to 14) (size 15 to 20)
#    0.000    0.533    4.000    4.000    3.733    0.000 
#    2.400    2.000    0.000    0.000    0.000    0.000 
#    0.000    0.000    0.000    0.000    0.000    0.000 
#
# Total GULP energy -371686.096890 kJ/mol
# GULP energy per Si atom -12389.536563 kJ/mol
# Density = 1.028977 g / cm^3
# Si number density = 10.313243 Si / 1000 Ang^3
#
#
#
# Elastic Constant Matrix: (Units=GPa)
#
#
# Indices 1 2 3 4 5 6 
#
# 1 133.2424 48.9951 45.6029 -0.0315 -6.3386 0.0112
# 2 48.9951 133.3382 58.0365 -0.0189 -7.7898 -0.0068
# 3 45.6029 58.0365 127.0970 -0.0042 -13.7523 -0.0324
# 4 -0.0315 -0.0189 -0.0042 48.1560 -0.0208 -4.8812
# 5 -6.3386 -7.7898 -13.7523 -0.0208 45.1804 0.0041
# 6 0.0112 -0.0068 -0.0324 -4.8812 0.0041 46.0365
#
#
#
# Elastic Compliance Matrix: (Units=1/GPa)
#
#
# Indices 1 2 3 4 5 6 
#
# 1 0.009138 -0.002407 -0.002157 0.000005 0.000211 -0.000004
# 2 -0.002407 0.009998 -0.003673 0.000002 0.000268 0.000000
# 3 -0.002157 -0.003673 0.010566 0.000000 0.002280 0.000007
# 4 0.000005 0.000002 0.000000 0.020991 0.000010 0.002226
# 5 0.000211 0.000268 0.002280 0.000010 0.022903 0.000001
# 6 -0.000004 0.000000 0.000007 0.002226 0.000001 0.021958
#
#
# Mechanical properties :
#
#
# Convention : Reuss Voigt Hill
#
# Bulk Modulus (GPa) = 75.59133 77.66073 76.62603
# Shear Modulus (GPa) = 42.94095 43.94412 43.44254
#
# Velocity S-wave (km/s) = 4.56766 4.62071 4.59426
# Velocity P-wave (km/s) = 8.03401 8.13638 8.08536
#
# Compressibility (1/GPa) = 0.01322903
#
# Stress axis : x y z
#
# Youngs Moduli (GPa) = 109.42828 100.01530 94.64355
#
# Poissons Ratio (x) = 0.24071 0.20416
# Poissons Ratio (y) = 0.26336 0.34763
# Poissons Ratio (z) = 0.23605 0.36736
#
# Static dielectric constant tensor:
#      x y z
#    x 4.235460 -0.000030 -0.149040 
#    y -0.000030 4.072480 -0.000350 
#    z -0.149040 -0.000350 4.023260 
# 
# 
# High freq. dielectric constant tensor:
#      x y z
#    x 1.841100 0.000000 -0.015070 
#    y 0.000000 1.829200 -0.000030 
#    z -0.015070 -0.000030 1.825660 
# 
# From -- ./inp_files/301210.got.cif
#   From: 2010.06.25/outbox.ucp.g09.slc.cvg/sg15_151_cif.got.tgz:301210.got - 2010.06.28 14:40:10.
