data_PCOD8129111
_publ_section_title
;
Structure prediction by ZEFSAII (Michael W. Deem and Ramdas Pophale) SiO2 
 PCOD8129111
Probable space group: P 21/C
;
_chemical_formula_sum "Si O2"
_cell_formula_units_Z 24
_cell_length_a 8.889197
_cell_length_b 17.648253
_cell_length_c 13.204439
_cell_angle_alpha 90.000000
_cell_angle_beta 146.381787
_cell_angle_gamma 90.000000
_cell_volume 1146.897070
_symmetry_space_group_name_H-M "P 21/C"
_symmetry_group_IT_number 14
_symmetry_cell_setting 'monoclinic'
loop_
_space_group_symop_operation_xyz
x,y,z
-x,1/2+y,1/2-z
-x,-y,-z
x,1/2-y,1/2+z
loop_
_atom_site_type_symbol
_atom_site_label
_atom_site_fract_x
_atom_site_fract_y
_atom_site_fract_z
Si Si1 0.255606 0.503808 0.071599
Si Si2 0.073438 0.090140 0.285660
Si Si3 0.459407 0.844506 0.592562
Si Si4 0.716070 0.807861 0.937510
Si Si5 0.199182 0.483715 0.519951
Si Si6 0.229071 0.732446 0.306564
O O1 0.281518 0.587333 0.038366
O O2 0.511198 0.482739 0.284733
O O3 0.234943 0.441321 0.972627
O O4 0.000000 0.500000 0.000000
O O5 0.292137 0.122632 0.331508
O O6 0.854365 0.152218 0.194535
O O7 0.903423 0.022883 0.139390
O O8 0.585719 0.794712 0.754169
O O9 0.262964 0.792327 0.416264
O O10 0.779348 0.895412 0.992504
O O11 0.512772 0.775493 0.907874
O O12 0.995349 0.761154 0.099636
O O13 0.000000 0.500000 0.500000
#
# Coordination Sequence:
#
# PCOD8129111 Si02
#       6
#     4   4   4   4   4   4
#     4  11  25  45  71 104 137 177 233 293 338 404
#     4  12  24  44  73 103 134 184 234 280 353 405
#     4  11  25  45  69 103 138 183 232 281 351 412
#     4  11  26  45  68 100 140 178 231 281 347 408
#     4  11  24  44  73  99 134 181 234 285 335 408
#     4  12  27  44  69 103 141 182 222 290 345 422
#
# _framework density 20.926027000000001
#
# number of rings (size 3 to 8) (size 9 to 14) (size 15 to 20)
#    0.000    0.667    5.000    3.500    4.667    5.333 
#    0.000    0.000    0.000    0.000    0.000    0.000 
#    0.000    0.000    0.000    0.000    0.000    0.000 
#
# Total GULP energy -297758.224503 kJ/mol
# GULP energy per Si atom -12406.592688 kJ/mol
# Density = 2.087840 g / cm^3
# Si number density = 20.926027 Si / 1000 Ang^3
#
#
#
# Elastic Constant Matrix: (Units=GPa)
#
#
# Indices 1 2 3 4 5 6 
#
# 1 78.4290 25.9072 32.1840 0.0000 -0.8585 0.0000
# 2 25.9072 77.9184 33.7015 0.0000 -2.0704 0.0000
# 3 32.1840 33.7015 92.8589 0.0000 12.0290 0.0000
# 4 0.0000 0.0000 0.0000 45.8172 0.0000 -1.6525
# 5 -0.8585 -2.0704 12.0290 0.0000 32.9080 0.0000
# 6 0.0000 0.0000 0.0000 -1.6525 0.0000 34.0032
#
#
#
# Elastic Compliance Matrix: (Units=1/GPa)
#
#
# Indices 1 2 3 4 5 6 
#
# 1 0.015683 -0.003215 -0.004509 0.000000 0.001855 0.000000
# 2 -0.003215 0.016195 -0.005127 0.000000 0.002809 0.000000
# 3 -0.004509 -0.005127 0.014958 0.000000 -0.005908 0.000000
# 4 0.000000 0.000000 0.000000 0.021864 0.000000 0.001063
# 5 0.001855 0.002809 -0.005908 0.000000 0.032772 0.000000
# 6 0.000000 0.000000 0.000000 0.001063 0.000000 0.029461
#
#
# Mechanical properties :
#
#
# Convention : Reuss Voigt Hill
#
# Bulk Modulus (GPa) = 47.31835 48.08796 47.70316
# Shear Modulus (GPa) = 30.54726 33.03995 31.79360
#
# Velocity S-wave (km/s) = 3.82484 3.97784 3.90209
# Velocity P-wave (km/s) = 6.49363 6.64285 6.56866
#
# Compressibility (1/GPa) = 0.02113345
#
# Stress axis : x y z
#
# Youngs Moduli (GPa) = 63.76328 61.74657 66.85360
#
# Poissons Ratio (x) = 0.19851 0.30145
# Poissons Ratio (y) = 0.20499 0.34279
# Poissons Ratio (z) = 0.28752 0.31660
#
# Static dielectric constant tensor:
#      x y z
#    x 4.023140 0.000000 -0.296610 
#    y 0.000000 3.378910 0.000000 
#    z -0.296610 0.000000 4.165910 
# 
# 
# High freq. dielectric constant tensor:
#      x y z
#    x 1.828900 0.000000 -0.001900 
#    y 0.000000 1.824280 0.000000 
#    z -0.001900 0.000000 1.836040 
# 
# From -- ./inp_files/16601.got.cif
#   From: 2010.03.12/outbox.cif.g09.slc.cpg/sg14_9_cif.got.tgz:16601.got - 2010.03.31 13:35:05.
