data_PCOD8129400
_publ_section_title
;
Structure prediction by ZEFSAII (Michael W. Deem and Ramdas Pophale) SiO2 
 PCOD8129400
Probable space group: P 21/C
;
_chemical_formula_sum "Si O2"
_cell_formula_units_Z 28
_cell_length_a 16.490294
_cell_length_b 9.138354
_cell_length_c 13.393455
_cell_angle_alpha 90.000000
_cell_angle_beta 141.147866
_cell_angle_gamma 90.000000
_cell_volume 1266.114740
_symmetry_space_group_name_H-M "P 21/C"
_symmetry_group_IT_number 14
_symmetry_cell_setting 'monoclinic'
loop_
_space_group_symop_operation_xyz
x,y,z
-x,1/2+y,1/2-z
-x,-y,-z
x,1/2-y,1/2+z
loop_
_atom_site_type_symbol
_atom_site_label
_atom_site_fract_x
_atom_site_fract_y
_atom_site_fract_z
Si Si1 0.388597 0.607054 0.087119
Si Si2 0.817633 0.718377 0.831898
Si Si3 0.378083 0.573354 0.651191
Si Si4 0.891312 0.244817 0.882685
Si Si5 0.142564 0.502368 0.301057
Si Si6 0.314570 0.982833 0.306907
Si Si7 0.849386 0.466503 0.014166
O O1 0.502434 0.533039 0.261371
O O2 0.404472 0.779283 0.116086
O O3 0.246968 0.555753 0.986515
O O4 0.407177 0.557590 0.989227
O O5 0.816840 0.637687 0.724937
O O6 0.794591 0.602482 0.898162
O O7 0.706927 0.842714 0.727347
O O8 0.957892 0.788203 0.982676
O O9 0.239902 0.504208 0.487563
O O10 0.375524 0.593102 0.767955
O O11 0.840985 0.350748 0.747048
O O12 0.823899 0.089850 0.805130
O O13 0.854799 0.320385 0.952769
O O14 0.993824 0.493681 0.195520
#
# Coordination Sequence:
#
# PCOD8129400 Si02
#       7
#     4   4   4   4   4   4   4
#     4  12  28  48  68  96 136 179 228 277 331 397
#     4   9  21  36  70 107 138 167 219 274 335 403
#     4  12  28  48  68  96 136 179 228 277 331 397
#     4   9  17  40  66 102 136 174 218 278 332 386
#     4   9  20  44  71  97 135 181 221 267 336 403
#     4  12  24  42  65 100 135 171 222 288 320 395
#     4   9  20  44  71  97 135 181 221 267 336 403
#
# _framework density 22.114898
#
# number of rings (size 3 to 8) (size 9 to 14) (size 15 to 20)
#    0.000    1.714    2.857    2.571    4.000    2.286 
#    0.000    3.571    0.000    0.000    0.000    0.000 
#    0.000    0.000    0.000    0.000    0.000    0.000 
#
# Total GULP energy -347218.737540 kJ/mol
# GULP energy per Si atom -12400.669198 kJ/mol
# Density = 2.206456 g / cm^3
# Si number density = 22.114898 Si / 1000 Ang^3
#
#
#
# Elastic Constant Matrix: (Units=GPa)
#
#
# Indices 1 2 3 4 5 6 
#
# 1 46.3293 -13.0667 32.4823 0.0000 -8.1926 0.0000
# 2 -13.0667 91.1165 39.5720 0.0000 2.9089 0.0000
# 3 32.4823 39.5720 137.0771 0.0000 1.0731 0.0000
# 4 0.0000 0.0000 0.0000 29.7833 0.0000 8.1749
# 5 -8.1926 2.9089 1.0731 0.0000 28.3056 0.0000
# 6 0.0000 0.0000 0.0000 8.1749 0.0000 21.7470
#
#
#
# Elastic Compliance Matrix: (Units=1/GPa)
#
#
# Indices 1 2 3 4 5 6 
#
# 1 0.033111 0.009030 -0.010524 0.000000 0.009054 0.000000
# 2 0.009030 0.015048 -0.006494 0.000000 0.001313 0.000000
# 3 -0.010524 -0.006494 0.011686 0.000000 -0.002822 0.000000
# 4 0.000000 0.000000 0.000000 0.037439 0.000000 -0.014074
# 5 0.009054 0.001313 -0.002822 0.000000 0.037921 0.000000
# 6 0.000000 0.000000 0.000000 -0.014074 0.000000 0.051274
#
#
# Mechanical properties :
#
#
# Convention : Reuss Voigt Hill
#
# Bulk Modulus (GPa) = 22.79536 43.61090 33.20313
# Shear Modulus (GPa) = 23.03317 30.33619 26.68468
#
# Velocity S-wave (km/s) = 3.23076 3.70774 3.47744
# Velocity P-wave (km/s) = 4.92414 6.17193 5.58301
#
# Compressibility (1/GPa) = 0.04386859
#
# Stress axis : x y z
#
# Youngs Moduli (GPa) = 30.20158 66.45220 85.57413
#
# Poissons Ratio (x) = -0.60004 0.90056
# Poissons Ratio (y) = -0.27271 0.55574
# Poissons Ratio (z) = 0.31783 0.43156
#
# Static dielectric constant tensor:
#      x y z
#    x 3.713410 0.000000 0.036450 
#    y 0.000000 3.899440 0.000000 
#    z 0.036450 0.000000 4.018250 
# 
# 
# High freq. dielectric constant tensor:
#      x y z
#    x 1.859380 0.000000 0.004360 
#    y 0.000000 1.869860 0.000000 
#    z 0.004360 0.000000 1.873760 
# 
# From -- ./inp_files/48591.got.cif
#   From: 2010.03.12/outbox.cif.g09.slc.cpg/sg14_25_cif.got.tgz:48591.got - 2010.03.31 13:35:05.
