data_PCOD8129147
_publ_section_title
;
Structure prediction by ZEFSAII (Michael W. Deem and Ramdas Pophale) SiO2 
 PCOD8129147
Probable space group: P 21/C
;
_chemical_formula_sum "Si O2"
_cell_formula_units_Z 24
_cell_length_a 13.243028
_cell_length_b 6.656535
_cell_length_c 23.249725
_cell_angle_alpha 90.000000
_cell_angle_beta 30.518930
_cell_angle_gamma 90.000000
_cell_volume 1040.796235
_symmetry_space_group_name_H-M "P 21/C"
_symmetry_group_IT_number 14
_symmetry_cell_setting 'monoclinic'
loop_
_space_group_symop_operation_xyz
x,y,z
-x,1/2+y,1/2-z
-x,-y,-z
x,1/2-y,1/2+z
loop_
_atom_site_type_symbol
_atom_site_label
_atom_site_fract_x
_atom_site_fract_y
_atom_site_fract_z
Si Si1 0.577793 0.236933 0.900701
Si Si2 0.415191 0.499427 0.373075
Si Si3 0.965772 0.984504 0.700581
Si Si4 0.731657 0.822006 0.641917
Si Si5 0.130415 0.649636 0.005517
Si Si6 0.277742 0.138024 0.635143
O O1 0.462231 0.145418 0.903294
O O2 0.608298 0.478886 0.879614
O O3 0.797558 0.146351 0.798512
O O4 0.438876 0.211235 0.025928
O O5 0.350666 0.372845 0.349545
O O6 0.607868 0.627538 0.260289
O O7 0.244126 0.656805 0.475518
O O8 0.874205 0.763402 0.752313
O O9 0.042589 0.996903 0.597764
O O10 0.156747 0.015197 0.646576
O O11 0.955430 0.770526 0.550416
O O12 0.721173 0.014882 0.605146
#
# Coordination Sequence:
#
# PCOD8129147 Si02
#       6
#     4   4   4   4   4   4
#     4  11  26  46  69 104 139 189 233 289 354 422
#     4  12  24  44  74 101 140 183 235 290 348 419
#     4  12  24  45  72 104 139 182 235 289 354 420
#     4  11  24  46  67 105 144 179 233 289 348 414
#     4  11  26  44  70 103 140 187 233 287 352 418
#     4  11  26  45  71 103 142 182 233 296 353 419
#
# _framework density 23.059270999999999
#
# number of rings (size 3 to 8) (size 9 to 14) (size 15 to 20)
#    0.000    0.667    5.000    2.000    2.333    6.667 
#    0.000    0.000    0.000    0.000    0.000    0.000 
#    0.000    0.000    0.000    0.000    0.000    0.000 
#
# Total GULP energy -297665.094847 kJ/mol
# GULP energy per Si atom -12402.712285 kJ/mol
# Density = 2.300679 g / cm^3
# Si number density = 23.059271 Si / 1000 Ang^3
#
#
#
# Elastic Constant Matrix: (Units=GPa)
#
#
# Indices 1 2 3 4 5 6 
#
# 1 73.2691 38.7241 31.6330 0.0000 0.8610 0.0000
# 2 38.7241 89.8270 43.9785 0.0000 -5.3021 0.0000
# 3 31.6330 43.9785 117.3762 0.0000 -1.3470 0.0000
# 4 0.0000 0.0000 0.0000 48.9974 0.0000 -6.2112
# 5 0.8610 -5.3021 -1.3470 0.0000 30.2780 0.0000
# 6 0.0000 0.0000 0.0000 -6.2112 0.0000 45.7012
#
#
#
# Elastic Compliance Matrix: (Units=1/GPa)
#
#
# Indices 1 2 3 4 5 6 
#
# 1 0.018314 -0.006829 -0.002398 0.000000 -0.001823 0.000000
# 2 -0.006829 0.016322 -0.004242 0.000000 0.002864 0.000000
# 3 -0.002398 -0.004242 0.010753 0.000000 -0.000196 0.000000
# 4 0.000000 0.000000 0.000000 0.020767 0.000000 0.002822
# 5 -0.001823 0.002864 -0.000196 0.000000 0.033572 0.000000
# 6 0.000000 0.000000 0.000000 0.002822 0.000000 0.022265
#
#
# Mechanical properties :
#
#
# Convention : Reuss Voigt Hill
#
# Bulk Modulus (GPa) = 54.19657 56.57151 55.38404
# Shear Modulus (GPa) = 32.24091 36.07112 34.15602
#
# Velocity S-wave (km/s) = 3.74328 3.95939 3.85285
# Velocity P-wave (km/s) = 6.49900 6.74453 6.62290
#
# Compressibility (1/GPa) = 0.01845135
#
# Stress axis : x y z
#
# Youngs Moduli (GPa) = 54.60250 61.26524 92.99557
#
# Poissons Ratio (x) = 0.41837 0.22300
# Poissons Ratio (y) = 0.37287 0.39453
# Poissons Ratio (z) = 0.13094 0.25992
#
# Static dielectric constant tensor:
#      x y z
#    x 3.938470 0.000000 -0.143360 
#    y 0.000000 4.041390 0.000000 
#    z -0.143360 0.000000 4.232840 
# 
# 
# High freq. dielectric constant tensor:
#      x y z
#    x 1.905790 0.000000 -0.010630 
#    y 0.000000 1.909490 0.000000 
#    z -0.010630 0.000000 1.927240 
# 
# From -- ./inp_files/77388.got.cif
#   From: 2010.03.12/outbox.cif.g09.slc.cpg/sg14_39_cif.got.tgz:77388.got - 2010.03.31 13:35:05.
