data_PCOD8129829
_publ_section_title
;
Structure prediction by ZEFSAII (Michael W. Deem and Ramdas Pophale) SiO2 
 PCOD8129829
Probable space group: C 2/C
;
_chemical_formula_sum "Si O2"
_cell_formula_units_Z 60
_cell_length_a 12.131051
_cell_length_b 13.027783
_cell_length_c 22.715499
_cell_angle_alpha 90.000000
_cell_angle_beta 66.442293
_cell_angle_gamma 90.000000
_cell_volume 3290.777797
_symmetry_space_group_name_H-M "C 2/C"
_symmetry_group_IT_number 15
_symmetry_cell_setting 'monoclinic'
loop_
_space_group_symop_operation_xyz
x,y,z
-x,y,1/2-z
-x,-y,-z
x,-y,1/2+z
1/2+x,1/2+y,z
1/2-x,1/2+y,1/2-z
1/2-x,1/2-y,-z
1/2+x,1/2-y,1/2+z
loop_
_atom_site_type_symbol
_atom_site_label
_atom_site_fract_x
_atom_site_fract_y
_atom_site_fract_z
Si Si1 0.000980 0.331332 0.855491
Si Si2 0.751926 0.409451 0.944893
Si Si3 0.000000 0.486968 0.750000
Si Si4 0.765749 0.417497 0.344215
Si Si5 0.655242 0.537387 0.063129
Si Si6 0.682969 0.208488 0.414641
Si Si7 0.522388 0.393547 0.359298
Si Si8 0.505542 0.655024 0.000960
O O1 0.023288 0.413295 0.800148
O O2 0.110435 0.346207 0.877483
O O3 0.998361 0.214157 0.830985
O O4 0.873520 0.344616 0.915487
O O5 0.752735 0.500444 0.898300
O O6 0.637428 0.334063 0.956357
O O7 0.745111 0.457799 0.011943
O O8 0.111174 0.563255 0.716850
O O9 0.762408 0.303634 0.373237
O O10 0.658792 0.431806 0.318184
O O11 0.724447 0.630010 0.077294
O O12 0.580385 0.478524 0.131279
O O13 0.559537 0.572203 0.034141
O O14 0.586733 0.241091 0.486770
O O15 0.524122 0.376786 0.429449
#
# Coordination Sequence:
#
# PCOD8129829 Si02
#       8
#     8   8   4   8   8   8   8   8
#     4   9  21  36  51  77  95 135 175 229 251 292
#     4  10  16  30  54  75 104 137 186 190 238 313
#     4  10  20  38  64  66  88 130 190 220 262 290
#     4   9  17  34  54  75  92 138 173 217 238 308
#     4  11  17  29  52  81 111 145 158 193 253 322
#     4  10  21  32  50  78 117 128 163 211 261 300
#     4   9  17  33  53  75 108 133 172 201 250 303
#     4   9  16  28  51  78 102 147 171 186 231 317
#
# _framework density 18.232771
#
# number of rings (size 3 to 8) (size 9 to 14) (size 15 to 20)
#    0.000    2.667    4.000    1.200    0.000    5.333 
#    0.000    5.333    0.000    0.000    0.000    0.000 
#    0.000    0.000    0.000    0.000    0.000    0.000 
#
# Total GULP energy -371656.169257 kJ/mol
# GULP energy per Si atom -12388.538975 kJ/mol
# Density = 1.819127 g / cm^3
# Si number density = 18.232771 Si / 1000 Ang^3
#
#
#
# Elastic Constant Matrix: (Units=GPa)
#
#
# Indices 1 2 3 4 5 6 
#
# 1 82.9415 55.2637 45.2910 0.0000 -29.6487 0.0000
# 2 55.2637 91.2964 36.1183 0.0000 -23.6394 0.0000
# 3 45.2910 36.1183 72.2758 0.0000 -29.7153 0.0000
# 4 0.0000 0.0000 0.0000 20.0984 0.0000 -2.7732
# 5 -29.6487 -23.6394 -29.7153 0.0000 29.9385 0.0000
# 6 0.0000 0.0000 0.0000 -2.7732 0.0000 35.3491
#
#
#
# Elastic Compliance Matrix: (Units=1/GPa)
#
#
# Indices 1 2 3 4 5 6 
#
# 1 0.027035 -0.010659 -0.006871 0.000000 0.011537 0.000000
# 2 -0.010659 0.018719 -0.001585 0.000000 0.002651 0.000000
# 3 -0.006871 -0.001585 0.026391 0.000000 0.018138 0.000000
# 4 0.000000 0.000000 0.000000 0.050300 0.000000 0.003946
# 5 0.011537 0.002651 0.018138 0.000000 0.064923 0.000000
# 6 0.000000 0.000000 0.000000 0.003946 0.000000 0.028599
#
#
# Mechanical properties :
#
#
# Convention : Reuss Voigt Hill
#
# Bulk Modulus (GPa) = 29.48609 57.76219 43.62414
# Shear Modulus (GPa) = 18.83217 24.39990 21.61604
#
# Velocity S-wave (km/s) = 3.21732 3.66217 3.44693
# Velocity P-wave (km/s) = 5.47802 7.04494 6.31030
#
# Compressibility (1/GPa) = 0.03391430
#
# Stress axis : x y z
#
# Youngs Moduli (GPa) = 36.98889 53.42112 37.89171
#
# Poissons Ratio (x) = 0.56943 0.26037
# Poissons Ratio (y) = 0.39428 0.06005
# Poissons Ratio (z) = 0.25416 0.08466
#
# Static dielectric constant tensor:
#      x y z
#    x 3.550970 0.000000 -0.464260 
#    y 0.000000 3.524730 0.000000 
#    z -0.464260 0.000000 3.304270 
# 
# 
# High freq. dielectric constant tensor:
#      x y z
#    x 1.706200 0.000000 -0.025620 
#    y 0.000000 1.703470 0.000000 
#    z -0.025620 0.000000 1.674350 
# 
# From -- ./inp_files/292059.got.cif
#   From: 2010.06.25/outbox.cif.g09.slc.cpg/sg15_147_cif.got.tgz:292059.got - 2010.06.28 07:06:18.
