data_PCOD8129350
_publ_section_title
;
Structure prediction by ZEFSAII (Michael W. Deem and Ramdas Pophale) SiO2 
 PCOD8129350
Probable space group: P 21/C
;
_chemical_formula_sum "Si O2"
_cell_formula_units_Z 32
_cell_length_a 17.976782
_cell_length_b 13.519917
_cell_length_c 12.137214
_cell_angle_alpha 90.000000
_cell_angle_beta 149.376379
_cell_angle_gamma 90.000000
_cell_volume 1502.659943
_symmetry_space_group_name_H-M "P 21/C"
_symmetry_group_IT_number 14
_symmetry_cell_setting 'monoclinic'
loop_
_space_group_symop_operation_xyz
x,y,z
-x,1/2+y,1/2-z
-x,-y,-z
x,1/2-y,1/2+z
loop_
_atom_site_type_symbol
_atom_site_label
_atom_site_fract_x
_atom_site_fract_y
_atom_site_fract_z
Si Si1 0.361117 0.611603 0.102505
Si Si2 0.848062 0.890289 0.091316
Si Si3 0.445716 0.287964 0.830804
Si Si4 0.495865 0.065254 0.885511
Si Si5 0.305024 0.725646 0.692045
Si Si6 0.036289 0.723272 0.997686
Si Si7 0.783584 0.408720 0.625690
Si Si8 0.965452 0.090989 0.879862
O O1 0.476085 0.678449 0.182134
O O2 0.419149 0.500182 0.192863
O O3 0.340172 0.663912 0.194238
O O4 0.207798 0.605674 0.845473
O O5 0.917385 0.806768 0.256500
O O6 0.965408 0.926878 0.151710
O O7 0.810445 0.980773 0.121906
O O8 0.705804 0.846602 0.849834
O O9 0.411848 0.169980 0.790494
O O10 0.549673 0.318417 0.065509
O O11 0.658190 0.093698 0.056971
O O12 0.500000 0.000000 0.000000
O O13 0.177879 0.731704 0.619077
O O14 0.257634 0.657591 0.530898
O O15 0.075043 0.634387 0.131255
O O16 0.964405 0.810534 0.978187
O O17 0.000000 0.000000 0.000000
#
# Coordination Sequence:
#
# PCOD8129350 Si02
#       8
#     4   4   4   4   4   4   4   4
#     4  12  23  46  71  99 142 185 234 286 354 425
#     4  12  29  44  69 112 143 181 236 303 355 410
#     4  12  26  45  71 107 139 181 238 301 347 413
#     4  12  24  42  72 104 134 182 236 286 348 418
#     4  12  21  45  75  94 136 190 233 280 354 427
#     4  12  23  48  71  97 143 191 233 286 355 432
#     4  12  24  45  72 102 136 187 240 283 351 434
#     4  12  27  46  69 105 144 188 233 289 362 423
#
# _framework density 21.295570000000001
#
# number of rings (size 3 to 8) (size 9 to 14) (size 15 to 20)
#    0.000    0.000    8.750    1.125    1.750    3.500 
#    0.000    0.000    0.000    0.000    0.000    0.000 
#    0.000    0.000    0.000    0.000    0.000    0.000 
#
# Total GULP energy -396963.794138 kJ/mol
# GULP energy per Si atom -12405.118567 kJ/mol
# Density = 2.124710 g / cm^3
# Si number density = 21.295570 Si / 1000 Ang^3
#
#
#
# Elastic Constant Matrix: (Units=GPa)
#
#
# Indices 1 2 3 4 5 6 
#
# 1 59.7927 21.8909 16.5044 0.0000 -8.6083 0.0000
# 2 21.8909 96.8455 26.9982 0.0000 0.5904 0.0000
# 3 16.5044 26.9982 113.2799 0.0000 -6.2235 0.0000
# 4 0.0000 0.0000 0.0000 45.8812 0.0000 -7.7406
# 5 -8.6083 0.5904 -6.2235 0.0000 29.5648 0.0000
# 6 0.0000 0.0000 0.0000 -7.7406 0.0000 29.1538
#
#
#
# Elastic Compliance Matrix: (Units=1/GPa)
#
#
# Indices 1 2 3 4 5 6 
#
# 1 0.019393 -0.003976 -0.001582 0.000000 0.005393 0.000000
# 2 -0.003976 0.011894 -0.002359 0.000000 -0.001892 0.000000
# 3 -0.001582 -0.002359 0.009710 0.000000 0.001631 0.000000
# 4 0.000000 0.000000 0.000000 0.022818 0.000000 0.006058
# 5 0.005393 -0.001892 0.001631 0.000000 0.035775 0.000000
# 6 0.000000 0.000000 0.000000 0.006058 0.000000 0.035909
#
#
# Mechanical properties :
#
#
# Convention : Reuss Voigt Hill
#
# Bulk Modulus (GPa) = 39.74009 44.52278 42.13143
# Shear Modulus (GPa) = 31.30486 34.55495 32.92991
#
# Velocity S-wave (km/s) = 3.83824 4.03257 3.93660
# Velocity P-wave (km/s) = 6.19229 6.52951 6.36314
#
# Compressibility (1/GPa) = 0.02516351
#
# Stress axis : x y z
#
# Youngs Moduli (GPa) = 51.56517 84.07887 102.98638
#
# Poissons Ratio (x) = 0.33426 0.16289
# Poissons Ratio (y) = 0.20500 0.24298
# Poissons Ratio (z) = 0.08156 0.19837
#
# Static dielectric constant tensor:
#      x y z
#    x 3.898790 0.000000 -0.051920 
#    y 0.000000 5.655580 0.000000 
#    z -0.051920 0.000000 3.887850 
# 
# 
# High freq. dielectric constant tensor:
#      x y z
#    x 1.839890 0.000000 -0.012480 
#    y 0.000000 1.846240 0.000000 
#    z -0.012480 0.000000 1.837060 
# 
# From -- ./inp_files/34231.got.cif
#   From: 2010.03.12/outbox.cif.g09.slc.cpg/sg14_18_cif.got.tgz:34231.got - 2010.03.31 13:35:05.
