data_PCOD8129062
_publ_section_title
;
Structure prediction by ZEFSAII (Michael W. Deem and Ramdas Pophale) SiO2 
 PCOD8129062
Probable space group: P 21/C
;
_chemical_formula_sum "Si O2"
_cell_formula_units_Z 16
_cell_length_a 9.637726
_cell_length_b 17.433165
_cell_length_c 8.310104
_cell_angle_alpha 90.000000
_cell_angle_beta 31.198395
_cell_angle_gamma 90.000000
_cell_volume 723.251912
_symmetry_space_group_name_H-M "P 21/C"
_symmetry_group_IT_number 14
_symmetry_cell_setting 'monoclinic'
loop_
_space_group_symop_operation_xyz
x,y,z
-x,1/2+y,1/2-z
-x,-y,-z
x,1/2-y,1/2+z
loop_
_atom_site_type_symbol
_atom_site_label
_atom_site_fract_x
_atom_site_fract_y
_atom_site_fract_z
Si Si1 0.458370 0.152659 0.199873
Si Si2 0.048382 0.599469 0.293900
Si Si3 0.038768 0.927660 0.175024
Si Si4 0.544528 0.680385 0.668331
O O1 0.157834 0.121984 0.518722
O O2 0.504923 0.230562 0.250857
O O3 0.518824 0.165414 0.953887
O O4 0.658360 0.089299 0.073322
O O5 0.011874 0.517374 0.245651
O O6 0.984423 0.594789 0.545243
O O7 0.848806 0.660234 0.410919
O O8 0.350292 0.628112 0.969130
#
# Coordination Sequence:
#
# PCOD8129062 Si02
#       4
#     4   4   4   4
#     4  12  25  42  65  93 127 165 209 258 309 368
#     4  11  24  43  66  93 127 165 206 255 312 371
#     4  11  24  43  66  93 127 165 206 255 312 371
#     4  12  25  42  65  93 127 165 209 258 309 368
#
# _framework density 22.122305000000001
#
# number of rings (size 3 to 8) (size 9 to 14) (size 15 to 20)
#    0.000    0.500    0.000    9.000    0.000   10.000 
#    0.000    0.000    0.000    0.000    0.000    0.000 
#    0.000    0.000    0.000    0.000    0.000    0.000 
#
# Total GULP energy -198597.409441 kJ/mol
# GULP energy per Si atom -12412.338090 kJ/mol
# Density = 2.207195 g / cm^3
# Si number density = 22.122305 Si / 1000 Ang^3
#
#
#
# Elastic Constant Matrix: (Units=GPa)
#
#
# Indices 1 2 3 4 5 6 
#
# 1 48.7281 -2.9801 11.5343 0.0000 -18.5959 0.0000
# 2 -2.9801 65.9437 32.7875 0.0000 6.8362 0.0000
# 3 11.5343 32.7875 94.8127 0.0000 4.2231 0.0000
# 4 0.0000 0.0000 0.0000 26.5106 0.0000 0.2105
# 5 -18.5959 6.8362 4.2231 0.0000 26.9168 0.0000
# 6 0.0000 0.0000 0.0000 0.2105 0.0000 30.3259
#
#
#
# Elastic Compliance Matrix: (Units=1/GPa)
#
#
# Indices 1 2 3 4 5 6 
#
# 1 0.029869 0.001744 -0.005172 0.000000 0.021004 0.000000
# 2 0.001744 0.018785 -0.006596 0.000000 -0.002531 0.000000
# 3 -0.005172 -0.006596 0.013637 0.000000 -0.004038 0.000000
# 4 0.000000 0.000000 0.000000 0.037723 0.000000 -0.000262
# 5 0.021004 -0.002531 -0.004038 0.000000 0.052939 0.000000
# 6 0.000000 0.000000 0.000000 -0.000262 0.000000 0.032977
#
#
# Mechanical properties :
#
#
# Convention : Reuss Voigt Hill
#
# Bulk Modulus (GPa) = 23.67248 32.46311 28.06780
# Shear Modulus (GPa) = 22.72132 27.96017 25.34075
#
# Velocity S-wave (km/s) = 3.20828 3.55898 3.38817
# Velocity P-wave (km/s) = 4.94450 5.62092 5.29352
#
# Compressibility (1/GPa) = 0.04224314
#
# Stress axis : x y z
#
# Youngs Moduli (GPa) = 33.47996 53.23399 73.32985
#
# Poissons Ratio (x) = -0.09285 0.37928
# Poissons Ratio (y) = -0.05839 0.48365
# Poissons Ratio (z) = 0.17317 0.35111
#
# Static dielectric constant tensor:
#      x y z
#    x 3.840610 0.000000 0.076880 
#    y 0.000000 4.076620 0.000000 
#    z 0.076880 0.000000 4.014070 
# 
# 
# High freq. dielectric constant tensor:
#      x y z
#    x 1.877980 0.000000 0.000930 
#    y 0.000000 1.882740 0.000000 
#    z 0.000930 0.000000 1.882430 
# 
# From -- ./inp_files/4985.got.cif
#   From: 2010.03.12/outbox.cif.g09.slc.cpg/sg14_3_cif.got.tgz:4985.got - 2010.03.31 13:35:05.
