data_PCOD8129216
_publ_section_title
;
Structure prediction by ZEFSAII (Michael W. Deem and Ramdas Pophale) SiO2 
 PCOD8129216
Probable space group: P 21/C
;
_chemical_formula_sum "Si O2"
_cell_formula_units_Z 24
_cell_length_a 20.920551
_cell_length_b 9.467264
_cell_length_c 10.597166
_cell_angle_alpha 90.000000
_cell_angle_beta 149.796154
_cell_angle_gamma 90.000000
_cell_volume 1055.899624
_symmetry_space_group_name_H-M "P 21/C"
_symmetry_group_IT_number 14
_symmetry_cell_setting 'monoclinic'
loop_
_space_group_symop_operation_xyz
x,y,z
-x,1/2+y,1/2-z
-x,-y,-z
x,1/2-y,1/2+z
loop_
_atom_site_type_symbol
_atom_site_label
_atom_site_fract_x
_atom_site_fract_y
_atom_site_fract_z
Si Si1 0.342857 0.600259 0.043435
Si Si2 0.635127 0.857861 0.016858
Si Si3 0.216364 0.895622 0.840498
Si Si4 0.845689 0.470065 0.494819
Si Si5 0.016666 0.273044 0.196111
Si Si6 0.276323 0.168741 0.561316
O O1 0.303403 0.758713 0.010390
O O2 0.269806 0.542465 0.797188
O O3 0.490716 0.592159 0.267052
O O4 0.305932 0.498070 0.096487
O O5 0.668391 0.783620 0.207639
O O6 0.721622 0.998137 0.154188
O O7 0.655902 0.750783 0.937061
O O8 0.210270 0.981016 0.960379
O O9 0.075434 0.853706 0.557488
O O10 0.922397 0.615164 0.601457
O O11 0.939398 0.337351 0.647698
O O12 0.124973 0.194234 0.299533
#
# Coordination Sequence:
#
# PCOD8129216 Si02
#       6
#     4   4   4   4   4   4
#     4  11  28  44  73 105 142 195 240 294 360 431
#     4  12  27  50  73 107 147 191 243 297 360 428
#     4  11  26  44  72 102 149 189 235 305 356 427
#     4  11  25  44  71 103 145 187 241 298 362 425
#     4  11  25  43  71 103 143 184 243 294 368 417
#     4  12  27  46  77 104 145 189 241 301 358 430
#
# _framework density 22.729431999999999
#
# number of rings (size 3 to 8) (size 9 to 14) (size 15 to 20)
#    0.000    0.667    1.667    4.000   14.000    2.000 
#    0.000    0.000    0.000    0.000    0.000    0.000 
#    0.000    0.000    0.000    0.000    0.000    0.000 
#
# Total GULP energy -297767.212657 kJ/mol
# GULP energy per Si atom -12406.967194 kJ/mol
# Density = 2.267770 g / cm^3
# Si number density = 22.729432 Si / 1000 Ang^3
#
#
#
# Elastic Constant Matrix: (Units=GPa)
#
#
# Indices 1 2 3 4 5 6 
#
# 1 111.0411 33.2480 72.1865 0.0000 -7.5815 0.0000
# 2 33.2480 92.4778 30.4206 0.0000 -3.1447 0.0000
# 3 72.1865 30.4206 137.8272 0.0000 15.8405 0.0000
# 4 0.0000 0.0000 0.0000 31.8952 0.0000 -6.8733
# 5 -7.5815 -3.1447 15.8405 0.0000 40.1182 0.0000
# 6 0.0000 0.0000 0.0000 -6.8733 0.0000 35.5365
#
#
#
# Elastic Compliance Matrix: (Units=1/GPa)
#
#
# Indices 1 2 3 4 5 6 
#
# 1 0.015590 -0.002683 -0.008262 0.000000 0.005998 0.000000
# 2 -0.002683 0.012280 -0.001422 0.000000 0.001017 0.000000
# 3 -0.008262 -0.001422 0.012664 0.000000 -0.006673 0.000000
# 4 0.000000 0.000000 0.000000 0.032716 0.000000 0.006328
# 5 0.005998 0.001017 -0.006673 0.000000 0.028774 0.000000
# 6 0.000000 0.000000 0.000000 0.006328 0.000000 0.029364
#
#
# Mechanical properties :
#
#
# Convention : Reuss Voigt Hill
#
# Bulk Modulus (GPa) = 63.29551 68.11735 65.70643
# Shear Modulus (GPa) = 30.98092 35.20939 33.09516
#
# Velocity S-wave (km/s) = 3.69593 3.94009 3.81996
# Velocity P-wave (km/s) = 6.79125 7.12270 6.95895
#
# Compressibility (1/GPa) = 0.01579891
#
# Stress axis : x y z
#
# Youngs Moduli (GPa) = 64.14473 81.43039 78.96644
#
# Poissons Ratio (x) = 0.21848 0.65244
# Poissons Ratio (y) = 0.17210 0.11230
# Poissons Ratio (z) = 0.52998 0.11581
#
# Static dielectric constant tensor:
#      x y z
#    x 3.983830 0.000000 0.105620 
#    y 0.000000 4.339000 0.000000 
#    z 0.105620 0.000000 4.113780 
# 
# 
# High freq. dielectric constant tensor:
#      x y z
#    x 1.895860 0.000000 0.006080 
#    y 0.000000 1.915660 0.000000 
#    z 0.006080 0.000000 1.903360 
# 
# From -- ./inp_files/35768.got.cif
#   From: 2010.03.12/outbox.cif.g09.slc.cpg/sg14_18_cif.got.tgz:35768.got - 2010.03.31 13:35:05.
