data_PCOD8129902
_publ_section_title
;
Structure prediction by ZEFSAII (Michael W. Deem and Ramdas Pophale) SiO2 
 PCOD8129902
Probable space group: C 2/C
;
_chemical_formula_sum "Si O2"
_cell_formula_units_Z 60
_cell_length_a 28.389928
_cell_length_b 11.561861
_cell_length_c 20.439060
_cell_angle_alpha 90.000000
_cell_angle_beta 26.012692
_cell_angle_gamma 90.000000
_cell_volume 2942.334922
_symmetry_space_group_name_H-M "C 2/C"
_symmetry_group_IT_number 15
_symmetry_cell_setting 'monoclinic'
loop_
_space_group_symop_operation_xyz
x,y,z
-x,y,1/2-z
-x,-y,-z
x,-y,1/2+z
1/2+x,1/2+y,z
1/2-x,1/2+y,1/2-z
1/2-x,1/2-y,-z
1/2+x,1/2-y,1/2+z
loop_
_atom_site_type_symbol
_atom_site_label
_atom_site_fract_x
_atom_site_fract_y
_atom_site_fract_z
Si Si1 0.602692 0.389366 0.408384
Si Si2 0.268781 0.207526 0.174724
Si Si3 0.799974 0.529420 0.580497
Si Si4 0.000000 0.699678 0.750000
Si Si5 0.779146 0.190424 0.531599
Si Si6 0.557993 0.361893 0.997622
Si Si7 0.498720 0.811290 0.827042
Si Si8 0.646675 0.981399 0.131649
O O1 0.643593 0.294771 0.407271
O O2 0.686282 0.424224 0.247258
O O3 0.501558 0.336887 0.496479
O O4 0.567629 0.499993 0.495850
O O5 0.217180 0.257726 0.171649
O O6 0.175850 0.193452 0.344330
O O7 0.328200 0.086682 0.085515
O O8 0.890114 0.623590 0.481904
O O9 0.792781 0.498043 0.512933
O O10 0.094690 0.787328 0.608792
O O11 0.049162 0.612563 0.744062
O O12 0.750000 0.250000 0.500000
O O13 0.735938 0.059105 0.574005
O O14 0.494019 0.303551 0.137795
O O15 0.500000 0.772781 0.750000
O O16 0.598552 0.897025 0.716618
#
# Coordination Sequence:
#
# PCOD8129902 Si02
#       8
#     8   8   8   4   8   8   8   8
#     4  10  23  41  61  87 125 164 208 251 317 372
#     4  11  20  38  64  86 128 159 203 265 305 373
#     4  10  18  37  61  88 119 166 197 253 316 359
#     4  10  16  32  54  86 128 158 196 254 310 366
#     4  10  20  33  55  92 123 157 200 249 316 368
#     4  10  23  43  62  88 122 168 209 250 320 376
#     4  10  19  39  69  89 121 161 213 255 304 370
#     4  10  18  35  58  90 121 158 207 255 314 370
#
# _framework density 20.391969
#
# number of rings (size 3 to 8) (size 9 to 14) (size 15 to 20)
#    0.000    1.867    6.000    0.000    0.000    3.200 
#    7.200    5.333    0.000    0.000    0.000    0.000 
#    0.000    0.000    0.000    0.000    0.000    0.000 
#
# Total GULP energy -371767.442634 kJ/mol
# GULP energy per Si atom -12392.248088 kJ/mol
# Density = 2.034556 g / cm^3
# Si number density = 20.391969 Si / 1000 Ang^3
#
#
#
# Elastic Constant Matrix: (Units=GPa)
#
#
# Indices 1 2 3 4 5 6 
#
# 1 57.9931 46.0073 17.1897 0.0000 -0.1960 -0.0001
# 2 46.0073 101.8183 46.2358 -0.0011 5.1186 0.0003
# 3 17.1897 46.2358 76.8149 -0.0009 5.2470 0.0004
# 4 0.0000 -0.0011 -0.0009 33.8966 0.0001 2.3063
# 5 -0.1960 5.1186 5.2470 0.0001 23.9188 0.0000
# 6 -0.0001 0.0003 0.0004 2.3063 0.0000 30.6614
#
#
#
# Elastic Compliance Matrix: (Units=1/GPa)
#
#
# Indices 1 2 3 4 5 6 
#
# 1 0.027225 -0.013193 0.001665 0.000000 0.002681 0.000000
# 2 -0.013193 0.019939 -0.008883 0.000000 -0.002426 0.000000
# 3 0.001665 -0.008883 0.018133 0.000000 -0.002063 0.000000
# 4 0.000000 0.000000 0.000000 0.029653 0.000000 -0.002230
# 5 0.002681 -0.002426 -0.002063 0.000000 0.042802 0.000000
# 6 0.000000 0.000000 0.000000 -0.002230 0.000000 0.032782
#
#
# Mechanical properties :
#
#
# Convention : Reuss Voigt Hill
#
# Bulk Modulus (GPa) = 40.85693 50.61022 45.73357
# Shear Modulus (GPa) = 22.77757 26.17492 24.47624
#
# Velocity S-wave (km/s) = 3.34576 3.58661 3.46828
# Velocity P-wave (km/s) = 5.91648 6.48261 6.20601
#
# Compressibility (1/GPa) = 0.02447565
#
# Stress axis : x y z
#
# Youngs Moduli (GPa) = 36.73092 50.15418 55.14660
#
# Poissons Ratio (x) = 0.66167 -0.09184
# Poissons Ratio (y) = 0.48458 0.48988
# Poissons Ratio (z) = -0.06117 0.44553
#
# Static dielectric constant tensor:
#      x y z
#    x 3.555450 0.000000 -0.140330 
#    y 0.000000 3.778500 0.000000 
#    z -0.140330 0.000000 3.882060 
# 
# 
# High freq. dielectric constant tensor:
#      x y z
#    x 1.770360 0.000000 -0.000320 
#    y 0.000000 1.789770 0.000000 
#    z -0.000320 0.000000 1.802570 
# 
# From -- ./inp_files/222530.got.cif
#   From: 2010.06.25/outbox.cif.g09.slc.cpg/sg15_112_cif.got.tgz:222530.got - 2010.06.28 07:06:18.
