data_PCOD8129351
_publ_section_title
;
Structure prediction by ZEFSAII (Michael W. Deem and Ramdas Pophale) SiO2 
 PCOD8129351
Probable space group: P 21/C
;
_chemical_formula_sum "Si O2"
_cell_formula_units_Z 32
_cell_length_a 25.377627
_cell_length_b 11.216295
_cell_length_c 25.877701
_cell_angle_alpha 90.000000
_cell_angle_beta 168.652703
_cell_angle_gamma 90.000000
_cell_volume 1449.282822
_symmetry_space_group_name_H-M "P 21/C"
_symmetry_group_IT_number 14
_symmetry_cell_setting 'monoclinic'
loop_
_space_group_symop_operation_xyz
x,y,z
-x,1/2+y,1/2-z
-x,-y,-z
x,1/2-y,1/2+z
loop_
_atom_site_type_symbol
_atom_site_label
_atom_site_fract_x
_atom_site_fract_y
_atom_site_fract_z
Si Si1 0.917544 0.445305 0.539069
Si Si2 0.142388 0.171944 0.948019
Si Si3 0.480412 0.986273 0.541843
Si Si4 0.749570 0.916583 0.060898
Si Si5 0.512385 0.283125 0.460570
Si Si6 0.384555 0.676890 0.550509
Si Si7 0.188321 0.818855 0.554861
Si Si8 0.959855 0.361501 0.969984
O O1 0.835265 0.548078 0.499789
O O2 0.747584 0.459085 0.323272
O O3 0.855833 0.317603 0.505531
O O4 0.228724 0.444502 0.823476
O O5 0.173049 0.147855 0.917294
O O6 0.857322 0.230489 0.684225
O O7 0.369233 0.263804 0.183320
O O8 0.500000 0.000000 0.500000
O O9 0.450082 0.848291 0.526290
O O10 0.997058 0.905321 0.338266
O O11 0.493559 0.853270 0.839235
O O12 0.697762 0.055808 0.999584
O O13 0.530434 0.363513 0.426192
O O14 0.739696 0.314645 0.719270
O O15 0.232262 0.292702 0.220229
O O16 0.127300 0.832660 0.556344
O O17 0.000000 0.500000 0.000000
#
# Coordination Sequence:
#
# PCOD8129351 Si02
#       8
#     4   4   4   4   4   4   4   4
#     4  12  24  45  67 102 143 179 229 289 348 421
#     4  12  26  45  71 100 131 186 228 296 355 400
#     4  12  23  41  67 103 139 185 228 280 352 409
#     4  12  28  46  74  99 137 184 235 292 349 417
#     4  12  22  41  68  98 137 180 229 286 338 416
#     4  12  25  49  71 104 138 176 242 287 345 421
#     4  12  26  48  68 108 144 184 231 286 354 420
#     4  12  24  41  68 100 140 187 231 277 348 414
#
# _framework density 22.079885999999998
#
# number of rings (size 3 to 8) (size 9 to 14) (size 15 to 20)
#    0.000    0.000    2.500    8.250    3.500    0.000 
#    0.000    0.000    0.000    0.000    0.000    0.000 
#    0.000    0.000    0.000    0.000    0.000    0.000 
#
# Total GULP energy -397083.196706 kJ/mol
# GULP energy per Si atom -12408.849897 kJ/mol
# Density = 2.202963 g / cm^3
# Si number density = 22.079886 Si / 1000 Ang^3
#
#
#
# Elastic Constant Matrix: (Units=GPa)
#
#
# Indices 1 2 3 4 5 6 
#
# 1 155.5661 -6.9756 35.3900 0.0000 0.8357 0.0000
# 2 -6.9756 96.8188 -14.1505 0.0000 9.5224 0.0000
# 3 35.3900 -14.1505 94.0902 0.0000 6.2328 0.0000
# 4 0.0000 0.0000 0.0000 33.7502 0.0000 -0.0506
# 5 0.8357 9.5224 6.2328 0.0000 29.4730 0.0000
# 6 0.0000 0.0000 0.0000 -0.0506 0.0000 32.8512
#
#
#
# Elastic Compliance Matrix: (Units=1/GPa)
#
#
# Indices 1 2 3 4 5 6 
#
# 1 0.007034 0.000086 -0.002655 0.000000 0.000334 0.000000
# 2 0.000086 0.010999 0.001884 0.000000 -0.003954 0.000000
# 3 -0.002655 0.001884 0.012115 0.000000 -0.003095 0.000000
# 4 0.000000 0.000000 0.000000 0.029630 0.000000 0.000046
# 5 0.000334 -0.003954 -0.003095 0.000000 0.035852 0.000000
# 6 0.000000 0.000000 0.000000 0.000046 0.000000 0.030440
#
#
# Mechanical properties :
#
#
# Convention : Reuss Voigt Hill
#
# Bulk Modulus (GPa) = 34.74908 41.66699 38.20804
# Shear Modulus (GPa) = 36.48745 41.36229 38.92487
#
# Velocity S-wave (km/s) = 4.06953 4.33286 4.20326
# Velocity P-wave (km/s) = 6.15252 6.62899 6.39520
#
# Compressibility (1/GPa) = 0.02877774
#
# Stress axis : x y z
#
# Youngs Moduli (GPa) = 142.16307 90.91717 82.54183
#
# Poissons Ratio (x) = -0.00781 0.21915
# Poissons Ratio (y) = -0.01221 -0.15549
# Poissons Ratio (z) = 0.37744 -0.17127
#
# Static dielectric constant tensor:
#      x y z
#    x 4.062480 0.000000 0.052610 
#    y 0.000000 4.252650 0.000000 
#    z 0.052610 0.000000 4.174790 
# 
# 
# High freq. dielectric constant tensor:
#      x y z
#    x 1.879050 0.000000 0.001060 
#    y 0.000000 1.882460 0.000000 
#    z 0.001060 0.000000 1.887430 
# 
# From -- ./inp_files/78336.got.cif
#   From: 2010.03.12/outbox.cif.g09.slc.cpg/sg14_40_cif.got.tgz:78336.got - 2010.03.31 13:35:05.
