data_PCOD8129064
_publ_section_title
;
Structure prediction by ZEFSAII (Michael W. Deem and Ramdas Pophale) SiO2 
 PCOD8129064
Probable space group: P 21/C
;
_chemical_formula_sum "Si O2"
_cell_formula_units_Z 28
_cell_length_a 6.674277
_cell_length_b 11.854048
_cell_length_c 20.699205
_cell_angle_alpha 90.000000
_cell_angle_beta 52.509562
_cell_angle_gamma 90.000000
_cell_volume 1299.411883
_symmetry_space_group_name_H-M "P 21/C"
_symmetry_group_IT_number 14
_symmetry_cell_setting 'monoclinic'
loop_
_space_group_symop_operation_xyz
x,y,z
-x,1/2+y,1/2-z
-x,-y,-z
x,1/2-y,1/2+z
loop_
_atom_site_type_symbol
_atom_site_label
_atom_site_fract_x
_atom_site_fract_y
_atom_site_fract_z
Si Si1 0.447217 0.475815 0.331848
Si Si2 0.080315 0.846628 0.854923
Si Si3 0.885431 0.842877 0.751811
Si Si4 0.580277 0.609666 0.523188
Si Si5 0.706209 0.479867 0.048987
Si Si6 0.479185 0.665800 0.802087
Si Si7 0.336234 0.658561 0.069523
O O1 0.210343 0.533763 0.343194
O O2 0.684877 0.556741 0.297439
O O3 0.351409 0.425150 0.417766
O O4 0.526992 0.373425 0.270628
O O5 0.251526 0.752410 0.854156
O O6 0.047730 0.831557 0.784930
O O7 0.816976 0.834197 0.942371
O O8 0.744961 0.724599 0.766736
O O9 0.073929 0.871699 0.656236
O O10 0.500000 0.500000 0.500000
O O11 0.365335 0.705926 0.565139
O O12 0.570986 0.438792 0.140834
O O13 0.572602 0.597597 0.057513
O O14 0.671377 0.383453 0.002318
O O15 0.000000 0.500000 0.000000
#
# Coordination Sequence:
#
# PCOD8129064 Si02
#       7
#     4   4   4   4   4   4   4
#     4  11  25  43  67 101 133 184 225 281 341 405
#     4  11  24  43  66  96 136 178 225 281 339 404
#     4  11  24  44  65  99 139 174 231 278 342 403
#     4  12  25  44  69 100 138 179 226 277 343 404
#     4  11  24  46  69  99 134 177 230 283 337 403
#     4  11  25  41  69  96 134 177 226 283 338 401
#     4  11  26  42  70  99 134 180 224 282 342 400
#
# _framework density 21.548210000000001
#
# number of rings (size 3 to 8) (size 9 to 14) (size 15 to 20)
#    0.000    0.857    1.429    4.714    4.000   10.286 
#    0.000    0.000    0.000    0.000    0.000    0.000 
#    0.000    0.000    0.000    0.000    0.000    0.000 
#
# Total GULP energy -347410.830907 kJ/mol
# GULP energy per Si atom -12407.529675 kJ/mol
# Density = 2.149917 g / cm^3
# Si number density = 21.548210 Si / 1000 Ang^3
#
#
#
# Elastic Constant Matrix: (Units=GPa)
#
#
# Indices 1 2 3 4 5 6 
#
# 1 102.5350 32.5170 21.1964 0.0000 9.7418 0.0000
# 2 32.5170 100.3151 15.4439 0.0000 12.9855 0.0000
# 3 21.1964 15.4439 110.7445 0.0000 16.0059 0.0000
# 4 0.0000 0.0000 0.0000 36.8625 0.0000 2.0121
# 5 9.7418 12.9855 16.0059 0.0000 41.5366 0.0000
# 6 0.0000 0.0000 0.0000 2.0121 0.0000 31.5513
#
#
#
# Elastic Compliance Matrix: (Units=1/GPa)
#
#
# Indices 1 2 3 4 5 6 
#
# 1 0.011203 -0.003263 -0.001543 0.000000 -0.001013 0.000000
# 2 -0.003263 0.011453 -0.000599 0.000000 -0.002584 0.000000
# 3 -0.001543 -0.000599 0.009880 0.000000 -0.003258 0.000000
# 4 0.000000 0.000000 0.000000 0.027223 0.000000 -0.001736
# 5 -0.001013 -0.002584 -0.003258 0.000000 0.026376 0.000000
# 6 0.000000 0.000000 0.000000 -0.001736 0.000000 0.031805
#
#
# Mechanical properties :
#
#
# Convention : Reuss Voigt Hill
#
# Bulk Modulus (GPa) = 46.02816 50.21213 48.12015
# Shear Modulus (GPa) = 36.76736 38.28589 37.52662
#
# Velocity S-wave (km/s) = 4.13520 4.21973 4.17768
# Velocity P-wave (km/s) = 6.64882 6.86253 6.75652
#
# Compressibility (1/GPa) = 0.02172583
#
# Stress axis : x y z
#
# Youngs Moduli (GPa) = 89.26470 87.31358 101.21969
#
# Poissons Ratio (x) = 0.28488 0.15616
# Poissons Ratio (y) = 0.29124 0.06065
# Poissons Ratio (z) = 0.13772 0.05232
#
# Static dielectric constant tensor:
#      x y z
#    x 3.955980 0.000000 -0.010860 
#    y 0.000000 3.927210 0.000000 
#    z -0.010860 0.000000 3.985430 
# 
# 
# High freq. dielectric constant tensor:
#      x y z
#    x 1.854250 0.000000 0.002220 
#    y 0.000000 1.851550 0.000000 
#    z 0.002220 0.000000 1.861110 
# 
# From -- ./inp_files/63431.got.cif
#   From: 2010.03.12/outbox.cif.g09.slc.cpg/sg14_32_cif.got.tgz:63431.got - 2010.03.31 13:35:05.
