data_PCOD8129659
_publ_section_title
;
Structure prediction by ZEFSAII (Michael W. Deem and Ramdas Pophale) SiO2 
 PCOD8129659
Probable space group: C 2/C
;
_chemical_formula_sum "Si O2"
_cell_formula_units_Z 48
_cell_length_a 11.828864
_cell_length_b 26.960479
_cell_length_c 12.833499
_cell_angle_alpha 90.000000
_cell_angle_beta 47.770465
_cell_angle_gamma 90.000000
_cell_volume 3030.513985
_symmetry_space_group_name_H-M "C 2/C"
_symmetry_group_IT_number 15
_symmetry_cell_setting 'monoclinic'
loop_
_space_group_symop_operation_xyz
x,y,z
-x,y,1/2-z
-x,-y,-z
x,-y,1/2+z
1/2+x,1/2+y,z
1/2-x,1/2+y,1/2-z
1/2-x,1/2-y,-z
1/2+x,1/2-y,1/2+z
loop_
_atom_site_type_symbol
_atom_site_label
_atom_site_fract_x
_atom_site_fract_y
_atom_site_fract_z
Si Si1 0.603600 0.488092 0.592646
Si Si2 0.543964 0.654745 0.602007
Si Si3 0.075911 0.738860 0.092971
Si Si4 0.137137 0.463427 0.439005
Si Si5 0.893817 0.367298 0.914690
Si Si6 0.382091 0.436148 0.123652
O O1 0.500000 0.465819 0.750000
O O2 0.760564 0.508838 0.539504
O O3 0.637149 0.445474 0.487533
O O4 0.520655 0.533535 0.587862
O O5 0.500000 0.651574 0.750000
O O6 0.512105 0.711054 0.577226
O O7 0.719054 0.636846 0.481891
O O8 0.426767 0.621217 0.609503
O O9 0.059479 0.684016 0.051332
O O10 0.000000 0.731374 0.250000
O O11 0.250000 0.750000 0.000000
O O12 0.078185 0.411786 0.522590
O O13 0.226152 0.451065 0.277534
O O14 0.000000 0.500000 0.500000
O O15 0.000000 0.377635 0.750000
#
# Coordination Sequence:
#
# PCOD8129659 Si02
#       6
#     8   8   8   8   8   8
#     4   9  19  33  47  68  94 123 167 203 234 286
#     4  10  15  30  51  69  95 127 166 194 239 301
#     4   8  16  26  43  68  95 125 152 196 245 293
#     4  11  22  31  46  71 101 136 163 198 245 289
#     4  10  19  29  43  70 105 128 154 199 250 286
#     4  10  18  32  53  68  91 133 167 197 238 290
#
# _framework density 15.838898
#
# number of rings (size 3 to 8) (size 9 to 14) (size 15 to 20)
#    0.000    2.333    3.333    0.500    2.333    1.333 
#    0.000    0.000    0.000    0.000    0.000    1.167 
#    0.000    0.000    0.000    0.000    0.000    0.000 
#
# Total GULP energy -297320.057945 kJ/mol
# GULP energy per Si atom -12388.335748 kJ/mol
# Density = 1.580285 g / cm^3
# Si number density = 15.838898 Si / 1000 Ang^3
#
#
#
# Elastic Constant Matrix: (Units=GPa)
#
#
# Indices 1 2 3 4 5 6 
#
# 1 51.6350 47.4737 44.2889 0.0000 -2.1484 0.0000
# 2 47.4737 157.1330 54.5766 0.0000 4.3305 0.0000
# 3 44.2889 54.5766 105.6693 0.0000 -2.9215 0.0000
# 4 0.0000 0.0000 0.0000 22.4181 0.0000 -1.9275
# 5 -2.1484 4.3305 -2.9215 0.0000 26.6821 0.0000
# 6 0.0000 0.0000 0.0000 -1.9275 0.0000 24.8088
#
#
#
# Elastic Compliance Matrix: (Units=1/GPa)
#
#
# Indices 1 2 3 4 5 6 
#
# 1 0.035434 -0.006884 -0.011220 0.000000 0.002742 0.000000
# 2 -0.006884 0.009171 -0.001913 0.000000 -0.002252 0.000000
# 3 -0.011220 -0.001913 0.015184 0.000000 0.001070 0.000000
# 4 0.000000 0.000000 0.000000 0.044907 0.000000 0.003489
# 5 0.002742 -0.002252 0.001070 0.000000 0.038182 0.000000
# 6 0.000000 0.000000 0.000000 0.003489 0.000000 0.040579
#
#
# Mechanical properties :
#
#
# Convention : Reuss Voigt Hill
#
# Bulk Modulus (GPa) = 50.62420 67.45728 59.04074
# Shear Modulus (GPa) = 21.73203 25.98833 23.86018
#
# Velocity S-wave (km/s) = 3.70816 4.05506 3.88549
# Velocity P-wave (km/s) = 7.09685 8.03784 7.58195
#
# Compressibility (1/GPa) = 0.01975340
#
# Stress axis : x y z
#
# Youngs Moduli (GPa) = 28.22177 109.04529 65.85919
#
# Poissons Ratio (x) = 0.75066 0.73894
# Poissons Ratio (y) = 0.19428 0.12602
# Poissons Ratio (z) = 0.31665 0.20865
#
# Static dielectric constant tensor:
#      x y z
#    x 2.679450 0.000000 -0.172280 
#    y 0.000000 5.183870 0.000000 
#    z -0.172280 0.000000 3.251940 
# 
# 
# High freq. dielectric constant tensor:
#      x y z
#    x 1.552030 0.000000 -0.027100 
#    y 0.000000 1.621030 0.000000 
#    z -0.027100 0.000000 1.623290 
# 
# From -- ./inp_files/33077.got.cif
#   From: 2010.06.25/outbox.cif.g09.slc.cpg/sg15_17_cif.got.tgz:33077.got - 2010.06.28 07:06:18.
