data_PCOD8129281
_publ_section_title
;
Structure prediction by ZEFSAII (Michael W. Deem and Ramdas Pophale) SiO2 
 PCOD8129281
Probable space group: P 21/C
;
_chemical_formula_sum "Si O2"
_cell_formula_units_Z 20
_cell_length_a 12.847949
_cell_length_b 9.347998
_cell_length_c 9.299836
_cell_angle_alpha 90.000000
_cell_angle_beta 46.584321
_cell_angle_gamma 90.000000
_cell_volume 811.326277
_symmetry_space_group_name_H-M "P 21/C"
_symmetry_group_IT_number 14
_symmetry_cell_setting 'monoclinic'
loop_
_space_group_symop_operation_xyz
x,y,z
-x,1/2+y,1/2-z
-x,-y,-z
x,1/2-y,1/2+z
loop_
_atom_site_type_symbol
_atom_site_label
_atom_site_fract_x
_atom_site_fract_y
_atom_site_fract_z
Si Si1 0.082782 0.437109 0.789320
Si Si2 0.402814 0.443605 0.464722
Si Si3 0.131546 0.807929 0.042784
Si Si4 0.526325 0.634760 0.116240
Si Si5 0.301241 0.874640 0.601667
O O1 0.247040 0.420238 0.680615
O O2 0.079480 0.543716 0.658366
O O3 0.010393 0.288685 0.815731
O O4 0.000000 0.500000 0.000000
O O5 0.500000 0.500000 0.500000
O O6 0.407451 0.558195 0.330875
O O7 0.446590 0.293473 0.350426
O O8 0.261099 0.724927 0.003648
O O9 0.178383 0.843834 0.835837
O O10 0.457460 0.658987 0.023051
O O11 0.675062 0.541165 0.970340
#
# Coordination Sequence:
#
# PCOD8129281 Si02
#       5
#     4   4   4   4   4
#     4  12  29  48  74 116 154 203 260 309 396 458
#     4  12  29  49  82 112 153 203 265 319 383 458
#     4  12  26  50  77 107 158 201 252 321 386 463
#     4  11  27  48  79 114 151 200 263 317 393 456
#     4  11  25  48  79 110 153 198 252 321 389 452
#
# _framework density 24.650993
#
# number of rings (size 3 to 8) (size 9 to 14) (size 15 to 20)
#    0.000    0.400    4.000    2.400   11.200    2.400 
#    0.000    0.000    0.000    0.000    0.000    0.000 
#    0.000    0.000    0.000    0.000    0.000    0.000 
#
# Total GULP energy -247934.620518 kJ/mol
# GULP energy per Si atom -12396.731026 kJ/mol
# Density = 2.459489 g / cm^3
# Si number density = 24.650993 Si / 1000 Ang^3
#
#
#
# Elastic Constant Matrix: (Units=GPa)
#
#
# Indices 1 2 3 4 5 6 
#
# 1 90.2057 17.8569 25.0852 0.0000 -20.3421 0.0000
# 2 17.8569 150.7174 39.4201 0.0000 -19.5995 0.0000
# 3 25.0852 39.4201 116.8598 0.0000 -21.2234 0.0000
# 4 0.0000 0.0000 0.0000 51.4642 0.0000 -11.5205
# 5 -20.3421 -19.5995 -21.2234 0.0000 42.8569 0.0000
# 6 0.0000 0.0000 0.0000 -11.5205 0.0000 29.8055
#
#
#
# Elastic Compliance Matrix: (Units=1/GPa)
#
#
# Indices 1 2 3 4 5 6 
#
# 1 0.012773 -0.000417 -0.001686 0.000000 0.005037 0.000000
# 2 -0.000417 0.007507 -0.002039 0.000000 0.002226 0.000000
# 3 -0.001686 -0.002039 0.010211 0.000000 0.003324 0.000000
# 4 0.000000 0.000000 0.000000 0.021272 0.000000 0.008222
# 5 0.005037 0.002226 0.003324 0.000000 0.028388 0.000000
# 6 0.000000 0.000000 0.000000 0.008222 0.000000 0.036729
#
#
# Mechanical properties :
#
#
# Convention : Reuss Voigt Hill
#
# Bulk Modulus (GPa) = 45.03228 58.05638 51.54433
# Shear Modulus (GPa) = 37.71720 43.18669 40.45195
#
# Velocity S-wave (km/s) = 3.91583 4.19014 4.05530
# Velocity P-wave (km/s) = 6.22515 6.85654 6.54846
#
# Compressibility (1/GPa) = 0.02220629
#
# Stress axis : x y z
#
# Youngs Moduli (GPa) = 78.28897 133.20959 97.93791
#
# Poissons Ratio (x) = 0.05559 0.16516
# Poissons Ratio (y) = 0.03267 0.19965
# Poissons Ratio (z) = 0.13202 0.27155
#
# Static dielectric constant tensor:
#      x y z
#    x 4.410580 0.000000 0.400490 
#    y 0.000000 5.729680 0.000000 
#    z 0.400490 0.000000 3.369290 
# 
# 
# High freq. dielectric constant tensor:
#      x y z
#    x 1.966050 0.000000 0.000620 
#    y 0.000000 1.998750 0.000000 
#    z 0.000620 0.000000 1.993450 
# 
# From -- ./inp_files/12155.got.cif
#   From: 2010.03.12/outbox.cif.g09.slc.cpg/sg14_7_cif.got.tgz:12155.got - 2010.03.31 13:35:05.
