data_PCOD8129148
_publ_section_title
;
Structure prediction by ZEFSAII (Michael W. Deem and Ramdas Pophale) SiO2 
 PCOD8129148
Probable space group: P 21/C
;
_chemical_formula_sum "Si O2"
_cell_formula_units_Z 28
_cell_length_a 14.359711
_cell_length_b 9.030437
_cell_length_c 20.352753
_cell_angle_alpha 90.000000
_cell_angle_beta 27.614575
_cell_angle_gamma 90.000000
_cell_volume 1223.340825
_symmetry_space_group_name_H-M "P 21/C"
_symmetry_group_IT_number 14
_symmetry_cell_setting 'monoclinic'
loop_
_space_group_symop_operation_xyz
x,y,z
-x,1/2+y,1/2-z
-x,-y,-z
x,1/2-y,1/2+z
loop_
_atom_site_type_symbol
_atom_site_label
_atom_site_fract_x
_atom_site_fract_y
_atom_site_fract_z
Si Si1 0.118598 0.550936 0.861318
Si Si2 0.052397 0.653077 0.133527
Si Si3 0.541591 0.236270 0.157515
Si Si4 0.919719 0.376571 0.636496
Si Si5 0.531213 0.013773 0.059333
Si Si6 0.993662 0.019460 0.791729
Si Si7 0.697472 0.012581 0.158743
O O1 0.014935 0.704549 0.904841
O O2 0.362607 0.577734 0.707592
O O3 0.108755 0.416395 0.815331
O O4 0.000000 0.500000 0.000000
O O5 0.096080 0.525219 0.159448
O O6 0.978230 0.805448 0.213404
O O7 0.249744 0.676494 0.966475
O O8 0.366202 0.346058 0.286011
O O9 0.512615 0.181219 0.100209
O O10 0.542639 0.099732 0.208678
O O11 0.730406 0.397793 0.706086
O O12 0.874521 0.424793 0.738950
O O13 0.091740 0.495080 0.510052
O O14 0.758802 0.965136 0.936186
O O15 0.500000 0.000000 0.000000
#
# Coordination Sequence:
#
# PCOD8129148 Si02
#       7
#     4   4   4   4   4   4   4
#     4  12  26  42  74 104 140 188 245 287 365 430
#     4  11  24  46  68 103 139 190 238 292 357 429
#     4  11  26  44  71 105 144 183 242 295 359 429
#     4  11  25  43  70 101 142 184 231 297 357 421
#     4  11  24  46  69 101 141 186 236 295 351 421
#     4  11  24  46  72  97 143 186 238 297 356 427
#     4  11  25  46  69 104 147 182 232 301 364 419
#
# _framework density 22.888144
#
# number of rings (size 3 to 8) (size 9 to 14) (size 15 to 20)
#    0.000    0.857    4.286    2.571   12.000    0.000 
#    2.571    0.714    0.000    0.000    0.000    0.000 
#    0.000    0.000    0.000    0.000    0.000    0.000 
#
# Total GULP energy -346940.999689 kJ/mol
# GULP energy per Si atom -12390.749989 kJ/mol
# Density = 2.283605 g / cm^3
# Si number density = 22.888144 Si / 1000 Ang^3
#
#
#
# Elastic Constant Matrix: (Units=GPa)
#
#
# Indices 1 2 3 4 5 6 
#
# 1 133.2430 61.8181 19.2741 0.0000 18.8899 0.0000
# 2 61.8181 131.4631 20.2235 0.0000 9.8533 0.0000
# 3 19.2741 20.2235 53.7573 0.0000 11.9470 0.0000
# 4 0.0000 0.0000 0.0000 38.5249 0.0000 5.4086
# 5 18.8899 9.8533 11.9470 0.0000 28.3895 0.0000
# 6 0.0000 0.0000 0.0000 5.4086 0.0000 44.6226
#
#
#
# Elastic Compliance Matrix: (Units=1/GPa)
#
#
# Indices 1 2 3 4 5 6 
#
# 1 0.010372 -0.004354 -0.000974 0.000000 -0.004980 0.000000
# 2 -0.004354 0.009975 -0.002279 0.000000 0.000394 0.000000
# 3 -0.000974 -0.002279 0.021500 0.000000 -0.007609 0.000000
# 4 0.000000 0.000000 0.000000 0.026407 0.000000 -0.003201
# 5 -0.004980 0.000394 -0.007609 0.000000 0.041603 0.000000
# 6 0.000000 0.000000 0.000000 -0.003201 0.000000 0.022798
#
#
# Mechanical properties :
#
#
# Convention : Reuss Voigt Hill
#
# Bulk Modulus (GPa) = 37.54811 57.89944 47.72377
# Shear Modulus (GPa) = 31.89852 36.78392 34.34122
#
# Velocity S-wave (km/s) = 3.73724 4.01323 3.87769
# Velocity P-wave (km/s) = 5.92142 6.84298 6.39881
#
# Compressibility (1/GPa) = 0.02663250
#
# Stress axis : x y z
#
# Youngs Moduli (GPa) = 96.41172 100.24808 46.51241
#
# Poissons Ratio (x) = 0.43650 0.04530
# Poissons Ratio (y) = 0.41980 0.10601
# Poissons Ratio (z) = 0.09390 0.22848
#
# Static dielectric constant tensor:
#      x y z
#    x 4.303270 0.000000 0.090090 
#    y 0.000000 4.072020 0.000000 
#    z 0.090090 0.000000 4.076910 
# 
# 
# High freq. dielectric constant tensor:
#      x y z
#    x 1.911560 0.000000 0.010330 
#    y 0.000000 1.902570 0.000000 
#    z 0.010330 0.000000 1.888530 
# 
# From -- ./inp_files/68293.got.cif
#   From: 2010.03.12/outbox.cif.g09.slc.cpg/sg14_35_cif.got.tgz:68293.got - 2010.03.31 13:35:05.
