data_PCOD8129095
_publ_section_title
;
Structure prediction by ZEFSAII (Michael W. Deem and Ramdas Pophale) SiO2 
 PCOD8129095
Probable space group: P 21/C
;
_chemical_formula_sum "Si O2"
_cell_formula_units_Z 28
_cell_length_a 16.250984
_cell_length_b 6.594846
_cell_length_c 14.526373
_cell_angle_alpha 90.000000
_cell_angle_beta 56.156825
_cell_angle_gamma 90.000000
_cell_volume 1293.049525
_symmetry_space_group_name_H-M "P 21/C"
_symmetry_group_IT_number 14
_symmetry_cell_setting 'monoclinic'
loop_
_space_group_symop_operation_xyz
x,y,z
-x,1/2+y,1/2-z
-x,-y,-z
x,1/2-y,1/2+z
loop_
_atom_site_type_symbol
_atom_site_label
_atom_site_fract_x
_atom_site_fract_y
_atom_site_fract_z
Si Si1 0.684882 0.978198 0.940352
Si Si2 0.861870 0.982561 0.162699
Si Si3 0.843556 0.648959 0.872657
Si Si4 0.686178 0.268016 0.257727
Si Si5 0.030805 0.200118 0.532889
Si Si6 0.315171 0.870244 0.444593
Si Si7 0.528104 0.859555 0.567182
O O1 0.706650 0.075444 0.827271
O O2 0.781746 0.857300 0.912647
O O3 0.660924 0.147307 0.031653
O O4 0.590138 0.831906 0.991366
O O5 0.889218 0.887201 0.243927
O O6 0.748590 0.060935 0.233188
O O7 0.877915 0.808961 0.076392
O O8 0.932460 0.167990 0.095266
O O9 0.935708 0.659102 0.884026
O O10 0.775542 0.457758 0.940434
O O11 0.716600 0.368776 0.142136
O O12 0.571039 0.213749 0.321805
O O13 0.000000 0.000000 0.500000
O O14 0.410680 0.013319 0.396112
O O15 0.500000 0.000000 0.500000
#
# Coordination Sequence:
#
# PCOD8129095 Si02
#       7
#     4   4   4   4   4   4   4
#     4  11  24  45  67  99 139 186 218 287 344 396
#     4  11  26  47  68 104 135 180 227 289 340 418
#     4  11  25  45  72 100 136 175 231 280 341 415
#     4  12  24  44  73  95 143 183 229 281 347 405
#     4  11  27  47  72 103 138 176 230 286 351 411
#     4  11  25  43  65 102 135 176 232 276 338 408
#     4  11  24  44  65 101 139 179 235 284 333 413
#
# _framework density 21.654236000000001
#
# number of rings (size 3 to 8) (size 9 to 14) (size 15 to 20)
#    0.000    0.857    2.857    3.000    8.000    1.143 
#    2.571    0.000    0.000    0.000    0.000    0.000 
#    0.000    0.000    0.000    0.000    0.000    0.000 
#
# Total GULP energy -347397.454696 kJ/mol
# GULP energy per Si atom -12407.051953 kJ/mol
# Density = 2.160495 g / cm^3
# Si number density = 21.654236 Si / 1000 Ang^3
#
#
#
# Elastic Constant Matrix: (Units=GPa)
#
#
# Indices 1 2 3 4 5 6 
#
# 1 83.5695 33.2829 22.6215 0.0000 17.6389 0.0000
# 2 33.2829 116.5806 30.0773 0.0000 0.8146 0.0000
# 3 22.6215 30.0773 96.8946 0.0000 17.4199 0.0000
# 4 0.0000 0.0000 0.0000 33.4885 0.0000 5.3134
# 5 17.6389 0.8146 17.4199 0.0000 42.8844 0.0000
# 6 0.0000 0.0000 0.0000 5.3134 0.0000 28.1495
#
#
#
# Elastic Compliance Matrix: (Units=1/GPa)
#
#
# Indices 1 2 3 4 5 6 
#
# 1 0.015061 -0.003928 -0.001291 0.000000 -0.005596 0.000000
# 2 -0.003928 0.010395 -0.002767 0.000000 0.002542 0.000000
# 3 -0.001291 -0.002767 0.012272 0.000000 -0.004401 0.000000
# 4 0.000000 0.000000 0.000000 0.030783 0.000000 -0.005810
# 5 -0.005596 0.002542 -0.004401 0.000000 0.027360 0.000000
# 6 0.000000 0.000000 0.000000 -0.005810 0.000000 0.036621
#
#
# Mechanical properties :
#
#
# Convention : Reuss Voigt Hill
#
# Bulk Modulus (GPa) = 45.96178 52.11201 49.03689
# Shear Modulus (GPa) = 32.10990 34.97535 33.54263
#
# Velocity S-wave (km/s) = 3.85495 4.02328 3.94002
# Velocity P-wave (km/s) = 6.40980 6.76019 6.58733
#
# Compressibility (1/GPa) = 0.02175721
#
# Stress axis : x y z
#
# Youngs Moduli (GPa) = 66.39728 96.19900 81.48596
#
# Poissons Ratio (x) = 0.37783 0.10520
# Poissons Ratio (y) = 0.26078 0.22546
# Poissons Ratio (z) = 0.08572 0.26616
#
# Static dielectric constant tensor:
#      x y z
#    x 4.026100 0.000000 -0.065150 
#    y 0.000000 4.080010 0.000000 
#    z -0.065150 0.000000 4.027050 
# 
# 
# High freq. dielectric constant tensor:
#      x y z
#    x 1.856030 0.000000 0.004000 
#    y 0.000000 1.862010 0.000000 
#    z 0.004000 0.000000 1.855530 
# 
# From -- ./inp_files/48103.got.cif
#   From: 2010.03.12/outbox.cif.g09.slc.cpg/sg14_25_cif.got.tgz:48103.got - 2010.03.31 13:35:05.
