data_PCOD8129520
_publ_section_title
;
Structure prediction by ZEFSAII (Michael W. Deem and Ramdas Pophale) SiO2 
 PCOD8129520
Probable space group: P 21/C
;
_chemical_formula_sum "Si O2"
_cell_formula_units_Z 32
_cell_length_a 9.000000
_cell_length_b 24.000000
_cell_length_c 15.000000
_cell_angle_alpha 90.000000
_cell_angle_beta 150.000000
_cell_angle_gamma 90.000000
_cell_volume 1620.000000
_symmetry_space_group_name_H-M "P 21/C"
_symmetry_group_IT_number 14
_symmetry_cell_setting 'monoclinic'
loop_
_space_group_symop_operation_xyz
x,y,z
-x,1/2+y,1/2-z
-x,-y,-z
x,1/2-y,1/2+z
loop_
_atom_site_type_symbol
_atom_site_label
_atom_site_fract_x
_atom_site_fract_y
_atom_site_fract_z
Si Si1 0.664036 0.080555 0.124807
Si Si2 0.751456 0.007271 0.001454
Si Si3 0.438962 0.258346 0.165362
Si Si4 0.008686 0.317326 0.521494
Si Si5 0.492134 0.200203 0.011390
Si Si6 0.751218 0.634714 0.013712
Si Si7 0.773286 0.069109 0.834146
Si Si8 0.887244 0.708176 0.234808
O O1 0.929333 0.105448 0.321817
O O2 0.493552 0.038507 0.100776
O O3 0.794929 0.049221 0.106489
O O4 0.456553 0.132901 0.985757
O O5 0.652069 0.041849 0.862708
O O6 0.058864 0.976249 0.138836
O O7 0.778385 0.273536 0.359899
O O8 0.376246 0.223162 0.044342
O O9 0.261501 0.317423 0.069345
O O10 0.324738 0.214259 0.179157
O O11 0.989466 0.378290 0.467326
O O12 0.968751 0.323649 0.606364
O O13 0.285508 0.233798 0.832341
O O14 0.830193 0.220557 0.180526
O O15 0.681154 0.664166 0.073093
O O16 0.506148 0.587859 0.869008
#
# Coordination Sequence:
#
# PCOD8129520 Si02
#       8
#     4   4   4   4   4   4   4   4
#     4  10  20  37  56  77 106 139 177 221 262 305
#     4  10  22  37  56  78 100 139 186 221 261 304
#     4  10  20  33  54  82 107 138 171 205 263 327
#     4  11  20  34  54  80 111 137 170 215 259 312
#     4  10  19  35  54  77 110 141 169 209 260 316
#     4   9  20  36  56  78 107 139 171 215 267 315
#     4  10  21  37  56  77 105 139 178 222 261 303
#     4  10  20  33  54  82 110 139 170 205 261 325
#
# _framework density 19.753086
#
# number of rings (size 3 to 8) (size 9 to 14) (size 15 to 20)
#    0.000    2.000    0.000    5.250    0.000    4.000 
#    0.000    0.000    0.000    6.000    0.000    0.000 
#    0.000    0.000    0.000    0.000    0.000    0.000 
#
# Total GULP energy -396567.374896 kJ/mol
# GULP energy per Si atom -12392.730466 kJ/mol
# Density = 1.970813 g / cm^3
# Si number density = 19.753086 Si / 1000 Ang^3
#
#
#
# Elastic Constant Matrix: (Units=GPa)
#
#
# Indices 1 2 3 4 5 6 
#
# 1 67.9074 35.6973 17.5132 0.0000 1.6462 0.0000
# 2 35.6973 121.9319 32.0197 0.0000 9.0749 0.0000
# 3 17.5132 32.0197 34.6559 0.0000 -2.7050 0.0000
# 4 0.0000 0.0000 0.0000 32.9906 0.0000 6.1153
# 5 1.6462 9.0749 -2.7050 0.0000 19.2169 0.0000
# 6 0.0000 0.0000 0.0000 6.1153 0.0000 32.9594
#
#
#
# Elastic Compliance Matrix: (Units=1/GPa)
#
#
# Indices 1 2 3 4 5 6 
#
# 1 0.018210 -0.003775 -0.005761 0.000000 -0.000588 0.000000
# 2 -0.003775 0.012506 -0.010195 0.000000 -0.007017 0.000000
# 3 -0.005761 -0.010195 0.042062 0.000000 0.011229 0.000000
# 4 0.000000 0.000000 0.000000 0.031391 0.000000 -0.005824
# 5 -0.000588 -0.007017 0.011229 0.000000 0.056982 0.000000
# 6 0.000000 0.000000 0.000000 -0.005824 0.000000 0.031421
#
#
# Mechanical properties :
#
#
# Convention : Reuss Voigt Hill
#
# Bulk Modulus (GPa) = 30.01420 43.88395 36.94908
# Shear Modulus (GPa) = 20.56436 26.31769 23.44103
#
# Velocity S-wave (km/s) = 3.23006 3.65407 3.44859
# Velocity P-wave (km/s) = 5.39803 6.32989 5.88244
#
# Compressibility (1/GPa) = 0.03331756
#
# Stress axis : x y z
#
# Youngs Moduli (GPa) = 54.91438 79.96251 23.77442
#
# Poissons Ratio (x) = 0.30184 0.13696
# Poissons Ratio (y) = 0.20729 0.24237
# Poissons Ratio (z) = 0.31635 0.81520
#
# Static dielectric constant tensor:
#      x y z
#    x 3.393620 0.000000 -0.093730 
#    y 0.000000 3.899480 0.000000 
#    z -0.093730 0.000000 3.374300 
# 
# 
# High freq. dielectric constant tensor:
#      x y z
#    x 1.757300 0.000000 -0.005010 
#    y 0.000000 1.785220 0.000000 
#    z -0.005010 0.000000 1.751180 
# 
# From -- ./inp_files/10808.got.cif
#   From: 2010.03.12/outbox.ucp.g09.slc.cvg/sg14_6_cif.got.tgz:10808.got - 2010.05.04 20:10:03.
