data_PCOD8129979
_publ_section_title
;
Structure prediction by ZEFSAII (Michael W. Deem and Ramdas Pophale) SiO2 
 PCOD8129979
Probable space group: C 2/C
;
_chemical_formula_sum "Si O2"
_cell_formula_units_Z 44
_cell_length_a 29.583392
_cell_length_b 12.510974
_cell_length_c 18.142241
_cell_angle_alpha 90.000000
_cell_angle_beta 162.005248
_cell_angle_gamma 90.000000
_cell_volume 2074.387749
_symmetry_space_group_name_H-M "C 2/C"
_symmetry_group_IT_number 15
_symmetry_cell_setting 'monoclinic'
loop_
_space_group_symop_operation_xyz
x,y,z
-x,y,1/2-z
-x,-y,-z
x,-y,1/2+z
1/2+x,1/2+y,z
1/2-x,1/2+y,1/2-z
1/2-x,1/2-y,-z
1/2+x,1/2-y,1/2+z
loop_
_atom_site_type_symbol
_atom_site_label
_atom_site_fract_x
_atom_site_fract_y
_atom_site_fract_z
Si Si1 0.916866 0.269525 0.271730
Si Si2 0.584076 0.442657 0.066249
Si Si3 0.192540 0.628565 0.759896
Si Si4 0.649158 0.428747 0.525138
Si Si5 0.355516 0.186499 0.978240
Si Si6 0.500000 0.247567 0.750000
O O1 0.925641 0.339874 0.359888
O O2 0.985449 0.323549 0.303040
O O3 0.988658 0.153330 0.386596
O O4 0.750000 0.250000 0.000000
O O5 0.616145 0.533157 0.056420
O O6 0.736768 0.392168 0.330792
O O7 0.500000 0.500000 0.000000
O O8 0.222486 0.501345 0.811365
O O9 0.117814 0.658429 0.566207
O O10 0.352862 0.681884 0.015430
O O11 0.706686 0.307327 0.614385
O O12 0.500000 0.437820 0.250000
O O13 0.500000 0.172402 0.250000
#
# Coordination Sequence:
#
# PCOD8129979 Si02
#       6
#     8   8   8   8   8   4
#     4  10  19  33  62  98 121 153 214 270 317 369
#     4  11  22  40  64  91 127 167 215 255 324 380
#     4  10  18  35  61  91 126 162 215 261 325 369
#     4  10  18  37  63  87 120 170 209 257 316 379
#     4  10  22  39  63  92 133 168 212 260 311 386
#     4  10  16  34  62  88 120 160 210 272 308 382
#
# _framework density 21.211077
#
# number of rings (size 3 to 8) (size 9 to 14) (size 15 to 20)
#    0.000    1.818    4.545    2.182    0.000    0.000 
#    0.000   12.727   10.000    0.000    0.000    0.000 
#    0.000    0.000    0.000    0.000    0.000    0.000 
#
# Total GULP energy -272590.752138 kJ/mol
# GULP energy per Si atom -12390.488734 kJ/mol
# Density = 2.116280 g / cm^3
# Si number density = 21.211077 Si / 1000 Ang^3
#
#
#
# Elastic Constant Matrix: (Units=GPa)
#
#
# Indices 1 2 3 4 5 6 
#
# 1 202.7516 65.1368 40.0898 0.0000 3.9197 0.0000
# 2 65.1368 103.9805 40.3126 0.0000 -2.4648 0.0000
# 3 40.0898 40.3126 87.4723 0.0000 -12.6665 0.0000
# 4 0.0000 0.0000 0.0000 -45.5966 0.0000 -53.9731
# 5 3.9197 -2.4648 -12.6665 0.0000 29.5357 0.0000
# 6 0.0000 0.0000 0.0000 -53.9731 0.0000 -22.3828
#
#
#
# Elastic Compliance Matrix: (Units=1/GPa)
#
#
# Indices 1 2 3 4 5 6 
#
# 1 0.006384 -0.003416 -0.001616 0.000000 -0.001825 0.000000
# 2 -0.003416 0.013594 -0.004765 0.000000 -0.000456 0.000000
# 3 -0.001616 -0.004765 0.015292 0.000000 0.006375 0.000000
# 4 0.000000 0.000000 0.000000 0.011827 0.000000 -0.028519
# 5 -0.001825 -0.000456 0.006375 0.000000 0.036795 0.000000
# 6 0.000000 0.000000 0.000000 -0.028519 0.000000 0.024093
#
#
# Mechanical properties :
#
#
# Convention : Reuss Voigt Hill
#
# Bulk Modulus (GPa) = 63.79369 76.14255 69.96812
# Shear Modulus (GPa) = 37.64897 8.88894 23.26896
#
# Velocity S-wave (km/s) = 4.21761 2.04934 3.31572
# Velocity P-wave (km/s) = 7.33884 6.44788 6.90774
#
# Compressibility (1/GPa) = 0.01567553
#
# Stress axis : x y z
#
# Youngs Moduli (GPa) = 156.63019 73.56285 65.39352
#
# Poissons Ratio (x) = 0.25130 0.10568
# Poissons Ratio (y) = 0.53508 0.31161
# Poissons Ratio (z) = 0.25312 0.35054
#
# Static dielectric constant tensor:
#      x y z
#    x 4.841370 0.000000 -0.107660 
#    y 0.000000 3.984790 0.000000 
#    z -0.107660 0.000000 3.883080 
# 
# 
# High freq. dielectric constant tensor:
#      x y z
#    x 1.840590 0.000000 -0.007210 
#    y 0.000000 1.814390 0.000000 
#    z -0.007210 0.000000 1.833130 
# 
# From -- ./inp_files/225216.got.cif
#   From: 2010.06.25/outbox.cif.g09.slc.cpg/sg15_113_cif.got.tgz:225216.got - 2010.06.28 07:06:18.
