data_PCOD8129760
_publ_section_title
;
Structure prediction by ZEFSAII (Michael W. Deem and Ramdas Pophale) SiO2 
 PCOD8129760
Probable space group: C 2/C
;
_chemical_formula_sum "Si O2"
_cell_formula_units_Z 52
_cell_length_a 18.263492
_cell_length_b 8.764459
_cell_length_c 17.224628
_cell_angle_alpha 90.000000
_cell_angle_beta 68.499804
_cell_angle_gamma 90.000000
_cell_volume 2565.287828
_symmetry_space_group_name_H-M "C 2/C"
_symmetry_group_IT_number 15
_symmetry_cell_setting 'monoclinic'
loop_
_space_group_symop_operation_xyz
x,y,z
-x,y,1/2-z
-x,-y,-z
x,-y,1/2+z
1/2+x,1/2+y,z
1/2-x,1/2+y,1/2-z
1/2-x,1/2-y,-z
1/2+x,1/2-y,1/2+z
loop_
_atom_site_type_symbol
_atom_site_label
_atom_site_fract_x
_atom_site_fract_y
_atom_site_fract_z
Si Si1 0.894373 0.410152 0.380006
Si Si2 0.500000 0.132722 0.250000
Si Si3 0.633486 0.666488 0.690942
Si Si4 0.412775 0.606438 0.965466
Si Si5 0.915463 0.846882 0.750837
Si Si6 0.254738 0.865641 0.928208
Si Si7 0.000277 0.790676 0.568397
O O1 0.961553 0.528362 0.330211
O O2 0.879075 0.285105 0.318605
O O3 0.811913 0.493150 0.427747
O O4 0.930089 0.331526 0.443534
O O5 0.433038 0.239947 0.235887
O O6 0.604945 0.673430 0.612010
O O7 0.642318 0.495950 0.722187
O O8 0.714469 0.767096 0.659098
O O9 0.462285 0.455627 0.935644
O O10 0.333454 0.569064 0.046744
O O11 0.463396 0.728616 0.996841
O O12 0.928729 0.780980 0.659284
O O13 0.000000 0.901132 0.750000
O O14 0.250000 0.750000 0.000000
#
# Coordination Sequence:
#
# PCOD8129760 Si02
#       7
#     8   4   8   8   8   8   8
#     4  10  18  33  57  81 101 140 195 231 260 328
#     4  10  16  28  54  80  98 132 188 232 262 310
#     4  10  17  32  55  75 105 143 184 218 268 341
#     4  10  19  35  51  80 114 143 170 229 293 327
#     4  10  16  32  55  80  98 135 195 229 257 321
#     4   9  21  35  50  78 113 145 178 217 278 345
#     4  10  19  32  57  82 108 135 184 241 276 316
#
# _framework density 20.270629
#
# number of rings (size 3 to 8) (size 9 to 14) (size 15 to 20)
#    0.000    2.154    6.154    0.000    0.000    0.615 
#    0.000    8.462    0.000    0.000    0.000    0.000 
#    0.000    0.000    0.000    0.000    0.000    0.000 
#
# Total GULP energy -322091.949531 kJ/mol
# GULP energy per Si atom -12388.151905 kJ/mol
# Density = 2.022449 g / cm^3
# Si number density = 20.270629 Si / 1000 Ang^3
#
#
#
# Elastic Constant Matrix: (Units=GPa)
#
#
# Indices 1 2 3 4 5 6 
#
# 1 52.7215 17.2074 16.8710 0.0000 -8.2202 0.0000
# 2 17.2074 95.3529 19.0482 0.0001 -4.2540 0.0000
# 3 16.8710 19.0482 37.1928 0.0000 -5.0890 0.0000
# 4 0.0000 0.0001 0.0000 30.5001 0.0000 -8.8612
# 5 -8.2202 -4.2540 -5.0890 0.0000 28.0832 0.0000
# 6 0.0000 0.0000 0.0000 -8.8612 0.0000 26.7005
#
#
#
# Elastic Compliance Matrix: (Units=1/GPa)
#
#
# Indices 1 2 3 4 5 6 
#
# 1 0.023254 -0.002233 -0.008736 0.000000 0.004885 0.000000
# 2 -0.002233 0.011911 -0.005055 0.000000 0.000235 0.000000
# 3 -0.008736 -0.005055 0.033822 0.000000 0.002806 0.000000
# 4 0.000000 0.000000 0.000000 0.036285 0.000000 0.012042
# 5 0.004885 0.000235 0.002806 0.000000 0.037582 0.000000
# 6 0.000000 0.000000 0.000000 0.012042 0.000000 0.041449
#
#
# Mechanical properties :
#
#
# Convention : Reuss Voigt Hill
#
# Bulk Modulus (GPa) = 27.07191 32.39114 29.73153
# Shear Modulus (GPa) = 21.86609 25.86613 23.86611
#
# Velocity S-wave (km/s) = 3.28793 3.57605 3.43501
# Velocity P-wave (km/s) = 5.27240 5.75020 5.51648
#
# Compressibility (1/GPa) = 0.03693865
#
# Stress axis : x y z
#
# Youngs Moduli (GPa) = 43.00391 83.95862 29.56617
#
# Poissons Ratio (x) = 0.18750 0.25829
# Poissons Ratio (y) = 0.09604 0.14945
# Poissons Ratio (z) = 0.37568 0.42440
#
# Static dielectric constant tensor:
#      x y z
#    x 3.917050 0.000000 -0.451000 
#    y 0.000000 3.845370 0.000000 
#    z -0.451000 0.000000 3.948370 
# 
# 
# High freq. dielectric constant tensor:
#      x y z
#    x 1.754420 0.000000 -0.030040 
#    y 0.000000 1.799560 0.000000 
#    z -0.030040 0.000000 1.776970 
# 
# From -- ./inp_files/213321.got.cif
#   From: 2010.06.25/outbox.cif.g09.slc.cpg/sg15_107_cif.got.tgz:213321.got - 2010.06.28 07:06:18.
