data_PCOD8129534
_publ_section_title
;
Structure prediction by ZEFSAII (Michael W. Deem and Ramdas Pophale) SiO2 
 PCOD8129534
Probable space group: C 2/C
;
_chemical_formula_sum "Si O2"
_cell_formula_units_Z 30
_cell_length_a 18.000000
_cell_length_b 24.000000
_cell_length_c 15.000000
_cell_angle_alpha 90.000000
_cell_angle_beta 30.000000
_cell_angle_gamma 90.000000
_cell_volume 3240.000000
_symmetry_space_group_name_H-M "C 2/C"
_symmetry_group_IT_number 15
_symmetry_cell_setting 'monoclinic'
loop_
_space_group_symop_operation_xyz
x,y,z
-x,y,1/2-z
-x,-y,-z
x,-y,1/2+z
1/2+x,1/2+y,z
1/2-x,1/2+y,1/2-z
1/2-x,1/2-y,-z
1/2+x,1/2-y,1/2+z
loop_
_atom_site_type_symbol
_atom_site_label
_atom_site_fract_x
_atom_site_fract_y
_atom_site_fract_z
Si Si1 0.226088 0.582162 0.279823
Si Si2 0.000000 0.634244 0.750000
Si Si3 0.289777 0.305950 0.149772
Si Si4 0.616503 0.303707 0.832344
Si Si5 0.693806 0.334443 0.569044
Si Si6 0.680271 0.500706 0.957145
Si Si7 0.147265 0.957767 0.674148
Si Si8 0.098437 0.410472 0.332941
O O1 0.292424 0.643486 0.226443
O O2 0.304521 0.559087 0.108005
O O3 0.253038 0.545038 0.341008
O O4 0.047422 0.582827 0.453829
O O5 0.944819 0.597186 0.725422
O O6 0.135260 0.672290 0.576694
O O7 0.198675 0.252177 0.277406
O O8 0.190165 0.358968 0.278274
O O9 0.445198 0.306229 0.043044
O O10 0.326015 0.307198 0.006553
O O11 0.602243 0.302022 0.739092
O O12 0.643723 0.399313 0.623429
O O13 0.795022 0.536259 0.777797
O O14 0.514465 0.525150 0.121850
O O15 0.712380 0.498658 0.031504
#
# Coordination Sequence:
#
# PCOD8129534 Si02
#       8
#     8   4   8   8   8   8   8   8
#     4  11  22  35  52  76 109 144 184 223 267 316
#     4  10  16  28  50  68 102 144 178 214 262 304
#     4  11  22  32  52  71 103 142 183 214 265 318
#     4  11  22  34  47  72 104 139 181 218 260 314
#     4  10  19  30  49  70 106 141 177 219 254 311
#     4  11  21  33  54  76 104 146 183 222 272 312
#     4  10  20  34  52  74 107 141 181 222 265 308
#     4  11  18  34  50  73 105 138 184 220 266 316
#
# _framework density 9.2592590000000001
#
# number of rings (size 3 to 8) (size 9 to 14) (size 15 to 20)
#    0.000    1.333    5.333    4.000    5.600    0.000 
#    0.000    0.000    0.000    0.000    0.000    0.000 
#    0.000   26.667    0.000    0.133    0.000    0.267 
#
# Total GULP energy -371676.252071 kJ/mol
# GULP energy per Si atom -12389.208402 kJ/mol
# Density = 0.923818 g / cm^3
# Si number density = 9.259259 Si / 1000 Ang^3
#
#
#
# Elastic Constant Matrix: (Units=GPa)
#
#
# Indices 1 2 3 4 5 6 
#
# 1 35.2124 23.8115 34.8446 -0.0155 -3.2041 0.0453
# 2 23.8115 70.8580 45.1276 0.0036 -4.9610 0.0055
# 3 34.8446 45.1276 130.1191 0.0081 -33.6734 0.0114
# 4 -0.0155 0.0036 0.0081 30.6401 -0.0012 0.0930
# 5 -3.2041 -4.9610 -33.6734 -0.0012 33.7786 -0.0198
# 6 0.0453 0.0055 0.0114 0.0930 -0.0198 16.9022
#
#
#
# Elastic Compliance Matrix: (Units=1/GPa)
#
#
# Indices 1 2 3 4 5 6 
#
# 1 0.044254 -0.008426 -0.011000 0.000026 -0.008006 -0.000118
# 2 -0.008426 0.020329 -0.005698 -0.000005 -0.003494 0.000016
# 3 -0.011000 -0.005698 0.016335 -0.000009 0.014404 0.000037
# 4 0.000026 -0.000005 -0.000009 0.032638 -0.000006 -0.000180
# 5 -0.008006 -0.003494 0.014404 -0.000006 0.042691 0.000063
# 6 -0.000118 0.000016 0.000037 -0.000180 0.000063 0.059165
#
#
# Mechanical properties :
#
#
# Convention : Reuss Voigt Hill
#
# Bulk Modulus (GPa) = 32.60679 49.30629 40.95654
# Shear Modulus (GPa) = 18.12363 25.09122 21.60743
#
# Velocity S-wave (km/s) = 3.13177 3.68493 3.41955
# Velocity P-wave (km/s) = 5.54285 6.69239 6.14456
#
# Compressibility (1/GPa) = 0.03066846
#
# Stress axis : x y z
#
# Youngs Moduli (GPa) = 22.59679 49.19169 61.21929
#
# Poissons Ratio (x) = 0.41449 0.67343
# Poissons Ratio (y) = 0.19040 0.34884
# Poissons Ratio (z) = 0.24857 0.28030
#
# Static dielectric constant tensor:
#      x y z
#    x 3.242020 0.000090 -0.350530 
#    y 0.000090 3.265830 0.000230 
#    z -0.350530 0.000230 3.767560 
# 
# 
# High freq. dielectric constant tensor:
#      x y z
#    x 1.673080 -0.000010 -0.038180 
#    y -0.000010 1.696780 0.000010 
#    z -0.038180 0.000010 1.732810 
# 
# From -- ./inp_files/164102.got.cif
#   From: 2010.06.25/outbox.ucp.g09.slc.cvg/sg15_83_cif.got.tgz:164102.got - 2010.06.28 14:40:10.
