data_PCOD8129411
_publ_section_title
;
Structure prediction by ZEFSAII (Michael W. Deem and Ramdas Pophale) SiO2 
 PCOD8129411
Probable space group: P 21/C
;
_chemical_formula_sum "Si O2"
_cell_formula_units_Z 12
_cell_length_a 13.559585
_cell_length_b 6.429711
_cell_length_c 9.650725
_cell_angle_alpha 90.000000
_cell_angle_beta 141.053276
_cell_angle_gamma 90.000000
_cell_volume 528.896190
_symmetry_space_group_name_H-M "P 21/C"
_symmetry_group_IT_number 14
_symmetry_cell_setting 'monoclinic'
loop_
_space_group_symop_operation_xyz
x,y,z
-x,1/2+y,1/2-z
-x,-y,-z
x,1/2-y,1/2+z
loop_
_atom_site_type_symbol
_atom_site_label
_atom_site_fract_x
_atom_site_fract_y
_atom_site_fract_z
Si Si1 0.306391 0.208027 0.571268
Si Si2 0.184534 0.481151 0.205870
Si Si3 0.391228 0.859290 0.480368
O O1 0.231555 0.404080 0.410479
O O2 0.229731 0.187462 0.638787
O O3 0.276933 0.002618 0.447284
O O4 0.493513 0.232657 0.792070
O O5 0.277731 0.696787 0.276117
O O6 0.000000 0.500000 0.000000
O O7 0.500000 0.000000 0.500000
#
# Coordination Sequence:
#
# PCOD8129411 Si02
#       3
#     4   4   4
#     4  12  25  47  74 104 144 191 246 300 362 447
#     4  12  30  45  73 112 149 190 241 311 373 426
#     4  12  24  46  76 107 142 193 252 294 360 444
#
# _framework density 22.688763999999999
#
# number of rings (size 3 to 8) (size 9 to 14) (size 15 to 20)
#    0.000    0.000    6.667    3.000    4.667    1.333 
#    0.000    0.000    0.000    0.000    0.000    0.000 
#    0.000    0.000    0.000    0.000    0.000    0.000 
#
# Total GULP energy -148832.325304 kJ/mol
# GULP energy per Si atom -12402.693775 kJ/mol
# Density = 2.263712 g / cm^3
# Si number density = 22.688764 Si / 1000 Ang^3
#
#
#
# Elastic Constant Matrix: (Units=GPa)
#
#
# Indices 1 2 3 4 5 6 
#
# 1 85.8160 44.5176 59.3108 0.0000 11.4826 0.0000
# 2 44.5176 104.0873 50.9099 0.0000 6.9848 0.0000
# 3 59.3108 50.9099 124.3826 0.0000 19.4480 0.0000
# 4 0.0000 0.0000 0.0000 45.3050 0.0000 -10.8772
# 5 11.4826 6.9848 19.4480 0.0000 47.8878 0.0000
# 6 0.0000 0.0000 0.0000 -10.8772 0.0000 39.4709
#
#
#
# Elastic Compliance Matrix: (Units=1/GPa)
#
#
# Indices 1 2 3 4 5 6 
#
# 1 0.019055 -0.004645 -0.007022 0.000000 -0.001040 0.000000
# 2 -0.004645 0.013148 -0.003247 0.000000 0.000515 0.000000
# 3 -0.007022 -0.003247 0.013219 0.000000 -0.003211 0.000000
# 4 0.000000 0.000000 0.000000 0.023636 0.000000 0.006514
# 5 -0.001040 0.000515 -0.003211 0.000000 0.022360 0.000000
# 6 0.000000 0.000000 0.000000 0.006514 0.000000 0.027130
#
#
# Mechanical properties :
#
#
# Convention : Reuss Voigt Hill
#
# Bulk Modulus (GPa) = 64.13094 69.30696 66.71895
# Shear Modulus (GPa) = 32.55724 37.16925 34.86325
#
# Velocity S-wave (km/s) = 3.79218 4.05189 3.92418
# Velocity P-wave (km/s) = 6.89210 7.24593 7.07123
#
# Compressibility (1/GPa) = 0.01559310
#
# Stress axis : x y z
#
# Youngs Moduli (GPa) = 52.47907 76.05979 75.64720
#
# Poissons Ratio (x) = 0.35332 0.53123
# Poissons Ratio (y) = 0.24378 0.24560
# Poissons Ratio (z) = 0.36853 0.24694
#
# Static dielectric constant tensor:
#      x y z
#    x 3.859020 0.000000 -0.165250 
#    y 0.000000 4.344810 0.000000 
#    z -0.165250 0.000000 4.144130 
# 
# 
# High freq. dielectric constant tensor:
#      x y z
#    x 1.884620 0.000000 -0.014190 
#    y 0.000000 1.904960 0.000000 
#    z -0.014190 0.000000 1.895840 
# 
# From -- ./inp_files/7050.got.cif
#   From: 2010.03.12/outbox.cif.g09.slc.cpg/sg14_4_cif.got.tgz:7050.got - 2010.03.31 13:35:05.
