data_PCOD8129154
_publ_section_title
;
Structure prediction by ZEFSAII (Michael W. Deem and Ramdas Pophale) SiO2 
 PCOD8129154
Probable space group: P 21/C
;
_chemical_formula_sum "Si O2"
_cell_formula_units_Z 32
_cell_length_a 18.208297
_cell_length_b 11.456157
_cell_length_c 14.740829
_cell_angle_alpha 90.000000
_cell_angle_beta 27.864836
_cell_angle_gamma 90.000000
_cell_volume 1437.166659
_symmetry_space_group_name_H-M "P 21/C"
_symmetry_group_IT_number 14
_symmetry_cell_setting 'monoclinic'
loop_
_space_group_symop_operation_xyz
x,y,z
-x,1/2+y,1/2-z
-x,-y,-z
x,1/2-y,1/2+z
loop_
_atom_site_type_symbol
_atom_site_label
_atom_site_fract_x
_atom_site_fract_y
_atom_site_fract_z
Si Si1 0.917848 0.622700 0.589752
Si Si2 0.401051 0.778847 0.781923
Si Si3 0.867743 0.757596 0.959427
Si Si4 0.081536 0.786215 0.556817
Si Si5 0.414236 0.475420 0.001586
Si Si6 0.446081 0.125790 0.029001
Si Si7 0.124252 0.463941 0.940148
Si Si8 0.498384 0.720969 0.864753
O O1 0.922025 0.660753 0.481551
O O2 0.742089 0.601852 0.817527
O O3 0.000000 0.500000 0.500000
O O4 0.007560 0.719751 0.551469
O O5 0.471760 0.902823 0.684491
O O6 0.499128 0.669752 0.629979
O O7 0.406505 0.782604 0.884336
O O8 0.223226 0.787850 0.942642
O O9 0.950333 0.799473 0.777242
O O10 0.919739 0.623914 0.928941
O O11 0.683624 0.778588 0.141301
O O12 0.163104 0.911090 0.442713
O O13 0.500000 0.500000 0.000000
O O14 0.400239 0.600547 0.970364
O O15 0.524700 0.217155 0.013112
O O16 0.257610 0.113329 0.242159
O O17 0.500000 0.000000 0.000000
O O18 0.000000 0.500000 0.000000
#
# Coordination Sequence:
#
# PCOD8129154 Si02
#       8
#     4   4   4   4   4   4   4   4
#     4  12  27  46  73 104 145 186 235 296 357 419
#     4  12  27  44  71 105 139 188 237 288 352 419
#     4  11  26  46  69 106 141 184 236 293 350 421
#     4  12  28  44  70 109 144 185 238 286 358 424
#     4  12  23  48  74  99 143 187 239 291 350 423
#     4  11  24  46  70 100 141 179 238 292 342 418
#     4  11  24  46  72  98 140 186 231 289 355 413
#     4  11  27  44  73 104 138 188 239 290 355 413
#
# _framework density 22.266034000000001
#
# number of rings (size 3 to 8) (size 9 to 14) (size 15 to 20)
#    0.000    0.500    5.000    2.250    7.000    1.000 
#    0.000    0.000    0.000    0.000    0.000    0.000 
#    0.000    0.000    0.000    0.000    0.000    0.000 
#
# Total GULP energy -396560.889207 kJ/mol
# GULP energy per Si atom -12392.527788 kJ/mol
# Density = 2.221536 g / cm^3
# Si number density = 22.266034 Si / 1000 Ang^3
#
#
#
# Elastic Constant Matrix: (Units=GPa)
#
#
# Indices 1 2 3 4 5 6 
#
# 1 92.6225 5.6983 4.4766 0.0000 -6.8098 0.0000
# 2 5.6983 112.3569 -4.5028 0.0000 -1.5230 0.0000
# 3 4.4766 -4.5028 48.6241 0.0000 -0.4103 0.0000
# 4 0.0000 0.0000 0.0000 43.1697 0.0000 -0.5462
# 5 -6.8098 -1.5230 -0.4103 0.0000 29.7327 0.0000
# 6 0.0000 0.0000 0.0000 -0.5462 0.0000 36.8898
#
#
#
# Elastic Compliance Matrix: (Units=1/GPa)
#
#
# Indices 1 2 3 4 5 6 
#
# 1 0.011065 -0.000570 -0.001050 0.000000 0.002491 0.000000
# 2 -0.000570 0.008969 0.000886 0.000000 0.000341 0.000000
# 3 -0.001050 0.000886 0.020745 0.000000 0.000091 0.000000
# 4 0.000000 0.000000 0.000000 0.023169 0.000000 0.000343
# 5 0.002491 0.000341 0.000091 0.000000 0.034222 0.000000
# 6 0.000000 0.000000 0.000000 0.000343 0.000000 0.027113
#
#
# Mechanical properties :
#
#
# Convention : Reuss Voigt Hill
#
# Bulk Modulus (GPa) = 25.43759 29.43865 27.43812
# Shear Modulus (GPa) = 35.75105 38.48721 37.11913
#
# Velocity S-wave (km/s) = 4.01138 4.16205 4.08741
# Velocity P-wave (km/s) = 5.73621 6.02884 5.88435
#
# Compressibility (1/GPa) = 0.03931190
#
# Stress axis : x y z
#
# Youngs Moduli (GPa) = 90.37147 111.49236 48.20336
#
# Poissons Ratio (x) = 0.06350 0.05064
# Poissons Ratio (y) = 0.05147 -0.04270
# Poissons Ratio (z) = 0.09493 -0.09877
#
# Static dielectric constant tensor:
#      x y z
#    x 4.034700 0.000000 -0.109560 
#    y 0.000000 4.157560 0.000000 
#    z -0.109560 0.000000 4.485280 
# 
# 
# High freq. dielectric constant tensor:
#      x y z
#    x 1.884610 0.000000 -0.002730 
#    y 0.000000 1.893890 0.000000 
#    z -0.002730 0.000000 1.875090 
# 
# From -- ./inp_files/48890.got.cif
#   From: 2010.03.12/outbox.cif.g09.slc.cpg/sg14_25_cif.got.tgz:48890.got - 2010.03.31 13:35:05.
