data_PCOD8129626
_publ_section_title
;
Structure prediction by ZEFSAII (Michael W. Deem and Ramdas Pophale) SiO2 
 PCOD8129626
Probable space group: C 2/C
;
_chemical_formula_sum "Si O2"
_cell_formula_units_Z 52
_cell_length_a 8.217065
_cell_length_b 16.070425
_cell_length_c 29.067516
_cell_angle_alpha 90.000000
_cell_angle_beta 42.788219
_cell_angle_gamma 90.000000
_cell_volume 2607.399010
_symmetry_space_group_name_H-M "C 2/C"
_symmetry_group_IT_number 15
_symmetry_cell_setting 'monoclinic'
loop_
_space_group_symop_operation_xyz
x,y,z
-x,y,1/2-z
-x,-y,-z
x,-y,1/2+z
1/2+x,1/2+y,z
1/2-x,1/2+y,1/2-z
1/2-x,1/2-y,-z
1/2+x,1/2-y,1/2+z
loop_
_atom_site_type_symbol
_atom_site_label
_atom_site_fract_x
_atom_site_fract_y
_atom_site_fract_z
Si Si1 0.154127 0.203338 0.671898
Si Si2 0.692733 0.555840 0.598338
Si Si3 0.500000 0.321850 0.750000
Si Si4 0.481785 0.296279 0.853595
Si Si5 0.514806 0.890441 0.952590
Si Si6 0.762676 0.545849 0.324258
Si Si7 0.521297 0.860140 0.640891
O O1 0.150415 0.111425 0.652093
O O2 0.427127 0.225072 0.630637
O O3 0.058754 0.267897 0.653614
O O4 0.000000 0.208275 0.750000
O O5 0.866735 0.481262 0.576761
O O6 0.437093 0.525306 0.632512
O O7 0.812734 0.611236 0.533498
O O8 0.485015 0.265516 0.799516
O O9 0.735979 0.380531 0.701152
O O10 0.218100 0.323593 0.924473
O O11 0.667345 0.373720 0.816644
O O12 0.391214 0.864776 0.930109
O O13 0.828514 0.571149 0.362676
O O14 0.000000 0.511714 0.250000
#
# Coordination Sequence:
#
# PCOD8129626 Si02
#       7
#     8   8   4   8   8   8   8
#     4  11  21  38  55  89 119 152 181 261 302 340
#     4  10  23  39  56  82 131 148 197 242 301 344
#     4  10  14  30  56  88 106 142 192 252 264 352
#     4   9  17  33  62  82 112 149 205 236 290 347
#     4   9  21  40  59  86 107 170 200 236 280 364
#     4  10  18  35  55  86 112 157 193 242 290 363
#     4  10  19  34  63  81 112 149 208 238 287 350
#
# _framework density 19.943245999999998
#
# number of rings (size 3 to 8) (size 9 to 14) (size 15 to 20)
#    0.000    2.154    3.077    0.923    0.000    3.077 
#    4.154    3.077    0.000    0.000    0.000    0.000 
#    0.000    0.000    0.000    0.000    0.000    0.000 
#
# Total GULP energy -322351.025436 kJ/mol
# GULP energy per Si atom -12398.116363 kJ/mol
# Density = 1.989785 g / cm^3
# Si number density = 19.943246 Si / 1000 Ang^3
#
#
#
# Elastic Constant Matrix: (Units=GPa)
#
#
# Indices 1 2 3 4 5 6 
#
# 1 123.9905 36.6821 31.2450 0.0008 4.6503 -0.0001
# 2 36.6821 60.9632 17.6976 -0.0005 0.5223 -0.0015
# 3 31.2450 17.6976 65.0125 -0.0002 1.2931 -0.0077
# 4 0.0008 -0.0005 -0.0002 21.9949 -0.0021 7.7164
# 5 4.6503 0.5223 1.2931 -0.0021 31.6725 -0.0012
# 6 -0.0001 -0.0015 -0.0077 7.7164 -0.0012 28.2457
#
#
#
# Elastic Compliance Matrix: (Units=1/GPa)
#
#
# Indices 1 2 3 4 5 6 
#
# 1 0.010600 -0.005315 -0.003621 0.000000 -0.001321 -0.000001
# 2 -0.005315 0.020477 -0.003031 0.000001 0.000566 0.000000
# 3 -0.003621 -0.003031 0.017950 -0.000002 -0.000151 0.000005
# 4 0.000000 0.000001 -0.000002 0.050284 0.000003 -0.013737
# 5 -0.001321 0.000566 -0.000151 0.000003 0.031764 0.000001
# 6 -0.000001 0.000000 0.000005 -0.013737 0.000001 0.039156
#
#
# Mechanical properties :
#
#
# Convention : Reuss Voigt Hill
#
# Bulk Modulus (GPa) = 39.85353 46.80173 43.32763
# Shear Modulus (GPa) = 24.68776 27.33870 26.01323
#
# Velocity S-wave (km/s) = 3.52220 3.70648 3.61551
# Velocity P-wave (km/s) = 6.04715 6.46806 6.26114
#
# Compressibility (1/GPa) = 0.02509188
#
# Stress axis : x y z
#
# Youngs Moduli (GPa) = 94.34239 48.83607 55.71043
#
# Poissons Ratio (x) = 0.25958 0.20173
# Poissons Ratio (y) = 0.50147 0.16885
# Poissons Ratio (z) = 0.34161 0.14801
#
# Static dielectric constant tensor:
#      x y z
#    x 3.997590 -0.000010 -0.020020 
#    y -0.000010 3.234840 0.000010 
#    z -0.020020 0.000010 3.546280 
# 
# 
# High freq. dielectric constant tensor:
#      x y z
#    x 1.796170 0.000000 0.002970 
#    y 0.000000 1.735680 0.000000 
#    z 0.002970 0.000000 1.771440 
# 
# From -- ./inp_files/308204.got.cif
#   From: 2010.06.25/outbox.cif.g09.slc.cpg/sg15_155_cif.got.tgz:308204.got - 2010.06.28 07:06:18.
