data_PCOD8129587
_publ_section_title
;
Structure prediction by ZEFSAII (Michael W. Deem and Ramdas Pophale) SiO2 
 PCOD8129587
Probable space group: C 2/C
;
_chemical_formula_sum "Si O2"
_cell_formula_units_Z 30
_cell_length_a 21.000000
_cell_length_b 18.000000
_cell_length_c 24.000000
_cell_angle_alpha 90.000000
_cell_angle_beta 160.000000
_cell_angle_gamma 90.000000
_cell_volume 3102.806740
_symmetry_space_group_name_H-M "C 2/C"
_symmetry_group_IT_number 15
_symmetry_cell_setting 'monoclinic'
loop_
_space_group_symop_operation_xyz
x,y,z
-x,y,1/2-z
-x,-y,-z
x,-y,1/2+z
1/2+x,1/2+y,z
1/2-x,1/2+y,1/2-z
1/2-x,1/2-y,-z
1/2+x,1/2-y,1/2+z
loop_
_atom_site_type_symbol
_atom_site_label
_atom_site_fract_x
_atom_site_fract_y
_atom_site_fract_z
Si Si1 0.402042 0.562105 0.726406
Si Si2 0.088290 0.089165 0.385013
Si Si3 0.588436 0.320892 0.166510
Si Si4 0.500000 0.958367 0.250000
Si Si5 0.148121 0.349315 0.216998
Si Si6 0.981552 0.192855 0.070642
Si Si7 0.747638 0.839014 0.805616
Si Si8 0.017592 0.513928 0.145139
O O1 0.500000 0.590117 0.750000
O O2 0.518350 0.492393 0.846890
O O3 0.402259 0.630702 0.769491
O O4 0.195234 0.533085 0.543072
O O5 0.317406 0.089743 0.578579
O O6 0.008696 0.151737 0.361503
O O7 0.000000 0.104369 0.250000
O O8 0.752711 0.349885 0.261504
O O9 0.610170 0.232508 0.197269
O O10 0.391799 0.333246 0.974932
O O11 0.554680 0.009731 0.242168
O O12 0.288811 0.328481 0.382392
O O13 0.993501 0.282809 0.088952
O O14 0.065152 0.432233 0.158081
O O15 0.151769 0.164235 0.171930
O O16 0.641947 0.918448 0.722624
#
# Coordination Sequence:
#
# PCOD8129587 Si02
#       8
#     8   8   8   4   8   8   8   8
#     4  11  24  42  65  97 133 171 224 270 328 400
#     4  11  23  43  68  95 134 179 221 274 326 395
#     4  10  22  44  65  97 134 169 217 279 328 402
#     4  12  22  44  64  94 142 168 228 270 320 396
#     4  10  24  41  68  96 130 174 219 275 338 384
#     4  10  23  43  65  95 134 167 223 277 329 396
#     4  10  23  42  69  96 131 170 219 275 341 386
#     4  12  24  42  66  98 128 179 219 273 335 393
#
# _framework density 9.6686650000000007
#
# number of rings (size 3 to 8) (size 9 to 14) (size 15 to 20)
#    0.000    1.333    4.000    1.600    3.733    2.667 
#    2.400    2.667    1.467    0.000    0.000    0.000 
#    0.000    0.000    0.000    0.000    0.000    0.000 
#
# Total GULP energy -371856.625020 kJ/mol
# GULP energy per Si atom -12395.220834 kJ/mol
# Density = 0.964666 g / cm^3
# Si number density = 9.668665 Si / 1000 Ang^3
#
#
#
# Elastic Constant Matrix: (Units=GPa)
#
#
# Indices 1 2 3 4 5 6 
#
# 1 131.4358 76.2952 42.2464 0.0073 -11.0679 -0.0038
# 2 76.2952 185.8724 54.4740 0.0099 1.9143 0.0275
# 3 42.2464 54.4740 139.9883 0.0693 -1.1079 0.0551
# 4 0.0073 0.0099 0.0693 38.2607 0.0341 -1.6373
# 5 -11.0679 1.9143 -1.1079 0.0341 32.0934 0.0124
# 6 -0.0038 0.0275 0.0551 -1.6373 0.0124 46.4747
#
#
#
# Elastic Compliance Matrix: (Units=1/GPa)
#
#
# Indices 1 2 3 4 5 6 
#
# 1 0.010783 -0.003975 -0.001676 -0.000001 0.003898 0.000004
# 2 -0.003975 0.007544 -0.001751 0.000004 -0.001881 -0.000002
# 3 -0.001676 -0.001751 0.008329 -0.000015 -0.000186 -0.000009
# 4 -0.000001 0.000004 -0.000015 0.026176 -0.000029 0.000922
# 5 0.003898 -0.001881 -0.000186 -0.000029 0.032609 -0.000008
# 6 0.000004 -0.000002 -0.000009 0.000922 -0.000008 0.021550
#
#
# Mechanical properties :
#
#
# Convention : Reuss Voigt Hill
#
# Bulk Modulus (GPa) = 84.37748 89.25864 86.81806
# Shear Modulus (GPa) = 39.76277 42.31780 41.04029
#
# Velocity S-wave (km/s) = 4.53953 4.68311 4.61188
# Velocity P-wave (km/s) = 8.43835 8.68913 8.56465
#
# Compressibility (1/GPa) = 0.01185150
#
# Stress axis : x y z
#
# Youngs Moduli (GPa) = 92.74192 132.55375 120.05795
#
# Poissons Ratio (x) = 0.52687 0.20127
# Poissons Ratio (y) = 0.36863 0.21022
# Poissons Ratio (z) = 0.15548 0.23210
#
# Static dielectric constant tensor:
#      x y z
#    x 3.811440 -0.000160 -0.046110 
#    y -0.000160 3.855550 -0.000420 
#    z -0.046110 -0.000420 3.893560 
# 
# 
# High freq. dielectric constant tensor:
#      x y z
#    x 1.771190 -0.000010 -0.007730 
#    y -0.000010 1.774390 -0.000030 
#    z -0.007730 -0.000030 1.782700 
# 
# From -- ./inp_files/280523.got.cif
#   From: 2010.06.25/outbox.ucp.g09.slc.cvg/sg15_141_cif.got.tgz:280523.got - 2010.06.28 14:40:10.
