data_PCOD8129741
_publ_section_title
;
Structure prediction by ZEFSAII (Michael W. Deem and Ramdas Pophale) SiO2 
 PCOD8129741
Probable space group: C 2/C
;
_chemical_formula_sum "Si O2"
_cell_formula_units_Z 56
_cell_length_a 23.066333
_cell_length_b 13.761028
_cell_length_c 12.435252
_cell_angle_alpha 90.000000
_cell_angle_beta 117.804796
_cell_angle_gamma 90.000000
_cell_volume 3491.422872
_symmetry_space_group_name_H-M "C 2/C"
_symmetry_group_IT_number 15
_symmetry_cell_setting 'monoclinic'
loop_
_space_group_symop_operation_xyz
x,y,z
-x,y,1/2-z
-x,-y,-z
x,-y,1/2+z
1/2+x,1/2+y,z
1/2-x,1/2+y,1/2-z
1/2-x,1/2-y,-z
1/2+x,1/2-y,1/2+z
loop_
_atom_site_type_symbol
_atom_site_label
_atom_site_fract_x
_atom_site_fract_y
_atom_site_fract_z
Si Si1 0.328856 0.638917 0.262768
Si Si2 0.816549 0.688411 0.074597
Si Si3 0.771823 0.476070 0.687741
Si Si4 0.156978 0.859383 0.278029
Si Si5 0.076654 0.011902 0.556484
Si Si6 0.197382 0.343912 0.171169
Si Si7 0.162465 0.964920 0.940476
O O1 0.262781 0.589101 0.250675
O O2 0.390091 0.588207 0.375194
O O3 0.328943 0.753525 0.282841
O O4 0.334468 0.625592 0.138754
O O5 0.810903 0.591912 0.140324
O O6 0.866305 0.760747 0.180904
O O7 0.750000 0.750000 0.000000
O O8 0.840262 0.658199 0.976383
O O9 0.820529 0.554205 0.785722
O O10 0.719147 0.541255 0.578207
O O11 0.223741 0.838533 0.270705
O O12 0.100332 0.897366 0.150206
O O13 0.173386 0.937397 0.383306
O O14 0.093820 0.033116 0.446341
O O15 0.000000 0.000000 0.500000
#
# Coordination Sequence:
#
# PCOD8129741 Si02
#       7
#     8   8   8   8   8   8   8
#     4  10  19  29  46  69 101 136 163 207 256 307
#     4  10  16  28  46  64  95 134 165 199 248 301
#     4  11  16  27  45  69  99 131 165 198 250 306
#     4  10  17  29  49  68  94 134 168 201 253 306
#     4  10  21  35  49  71 101 135 178 216 251 303
#     4  11  18  29  45  73 102 132 164 206 258 313
#     4  10  17  30  45  70  98 132 166 205 256 295
#
# _framework density 16.039304999999999
#
# number of rings (size 3 to 8) (size 9 to 14) (size 15 to 20)
#    0.000    1.714   10.000    0.857    0.000    2.857 
#    0.000    0.000    0.000    0.000    0.000    1.000 
#    0.000    2.286    0.000    0.000    0.000    0.000 
#
# Total GULP energy -347034.701585 kJ/mol
# GULP energy per Si atom -12394.096485 kJ/mol
# Density = 1.600280 g / cm^3
# Si number density = 16.039305 Si / 1000 Ang^3
#
#
#
# Elastic Constant Matrix: (Units=GPa)
#
#
# Indices 1 2 3 4 5 6 
#
# 1 45.9301 27.4666 26.0527 0.0000 -6.3309 0.0000
# 2 27.4666 115.6415 38.2638 0.0000 -9.4376 0.0000
# 3 26.0527 38.2638 65.7494 0.0000 -17.7014 0.0000
# 4 0.0000 0.0000 0.0000 35.6703 0.0000 -8.7132
# 5 -6.3309 -9.4376 -17.7014 0.0000 24.2462 0.0000
# 6 0.0000 0.0000 0.0000 -8.7132 0.0000 16.6728
#
#
#
# Elastic Compliance Matrix: (Units=1/GPa)
#
#
# Indices 1 2 3 4 5 6 
#
# 1 0.029439 -0.003872 -0.009644 0.000000 -0.000861 0.000000
# 2 -0.003872 0.011223 -0.005095 0.000000 -0.000362 0.000000
# 3 -0.009644 -0.005095 0.025868 0.000000 0.014384 0.000000
# 4 0.000000 0.000000 0.000000 0.032137 0.000000 0.016795
# 5 -0.000861 -0.000362 0.014384 0.000000 0.051380 0.000000
# 6 0.000000 0.000000 0.000000 0.016795 0.000000 0.068755
#
#
# Mechanical properties :
#
#
# Convention : Reuss Voigt Hill
#
# Bulk Modulus (GPa) = 34.11772 45.65413 39.88593
# Shear Modulus (GPa) = 18.81170 24.35371 21.58270
#
# Velocity S-wave (km/s) = 3.42841 3.90086 3.67224
# Velocity P-wave (km/s) = 6.08190 6.98675 6.54997
#
# Compressibility (1/GPa) = 0.02931028
#
# Stress axis : x y z
#
# Youngs Moduli (GPa) = 33.96869 89.10081 38.65760
#
# Poissons Ratio (x) = 0.34496 0.37280
# Poissons Ratio (y) = 0.13151 0.19696
# Poissons Ratio (z) = 0.32758 0.45396
#
# Static dielectric constant tensor:
#      x y z
#    x 2.654740 0.000000 -0.360060 
#    y 0.000000 3.197330 0.000000 
#    z -0.360060 0.000000 3.303940 
# 
# 
# High freq. dielectric constant tensor:
#      x y z
#    x 1.558510 0.000000 -0.038130 
#    y 0.000000 1.613410 0.000000 
#    z -0.038130 0.000000 1.621520 
# 
# From -- ./inp_files/112435.got.cif
#   From: 2010.06.25/outbox.cif.g09.slc.cpg/sg15_57_cif.got.tgz:112435.got - 2010.06.28 07:06:18.
