data_PCOD8129941
_publ_section_title
;
Structure prediction by ZEFSAII (Michael W. Deem and Ramdas Pophale) SiO2 
 PCOD8129941
Probable space group: C 2/C
;
_chemical_formula_sum "Si O2"
_cell_formula_units_Z 40
_cell_length_a 9.320147
_cell_length_b 18.876063
_cell_length_c 13.800061
_cell_angle_alpha 90.000000
_cell_angle_beta 109.266490
_cell_angle_gamma 90.000000
_cell_volume 2291.840892
_symmetry_space_group_name_H-M "C 2/C"
_symmetry_group_IT_number 15
_symmetry_cell_setting 'monoclinic'
loop_
_space_group_symop_operation_xyz
x,y,z
-x,y,1/2-z
-x,-y,-z
x,-y,1/2+z
1/2+x,1/2+y,z
1/2-x,1/2+y,1/2-z
1/2-x,1/2-y,-z
1/2+x,1/2-y,1/2+z
loop_
_atom_site_type_symbol
_atom_site_label
_atom_site_fract_x
_atom_site_fract_y
_atom_site_fract_z
Si Si1 0.344284 0.263083 0.168492
Si Si2 0.674871 0.978450 0.041976
Si Si3 0.611389 0.564937 0.523771
Si Si4 0.674457 0.406005 0.253170
Si Si5 0.334615 0.348140 0.972938
O O1 0.500000 0.235757 0.250000
O O2 0.269502 0.324720 0.218624
O O3 0.239249 0.193925 0.133385
O O4 0.372624 0.296172 0.069467
O O5 0.721542 0.959725 0.162168
O O6 0.724164 0.912970 0.982423
O O7 0.500000 0.000000 0.000000
O O8 0.760434 0.050557 0.028007
O O9 0.500000 0.500000 0.500000
O O10 0.692432 0.574030 0.645670
O O11 0.501914 0.630081 0.472417
O O12 0.500000 0.411472 0.250000
#
# Coordination Sequence:
#
# PCOD8129941 Si02
#       5
#     8   8   8   8   8
#     4   9  15  29  52  77 101 133 179 225 253 309
#     4  10  21  34  50  81 113 133 171 230 268 311
#     4  10  17  32  55  78 101 139 180 209 264 330
#     4  10  16  33  56  76 102 144 176 216 270 315
#     4   9  17  30  52  79  97 137 182 213 259 318
#
# _framework density 17.453218
#
# number of rings (size 3 to 8) (size 9 to 14) (size 15 to 20)
#    0.000    2.400    8.000    0.000    0.000    0.800 
#    7.200    0.000    0.000   10.800    0.000    0.000 
#    0.000    0.000    0.000    0.000    0.000    0.000 
#
# Total GULP energy -247789.467474 kJ/mol
# GULP energy per Si atom -12389.473374 kJ/mol
# Density = 1.741349 g / cm^3
# Si number density = 17.453218 Si / 1000 Ang^3
#
#
#
# Elastic Constant Matrix: (Units=GPa)
#
#
# Indices 1 2 3 4 5 6 
#
# 1 95.0203 44.6417 41.1439 0.0000 23.0538 0.0000
# 2 44.6417 84.7788 66.2582 0.0000 10.8401 0.0000
# 3 41.1439 66.2582 131.3501 0.0000 22.3761 0.0000
# 4 0.0000 0.0000 0.0000 42.0629 0.0000 10.5409
# 5 23.0538 10.8401 22.3761 0.0000 22.9773 0.0000
# 6 0.0000 0.0000 0.0000 10.5409 0.0000 21.5098
#
#
#
# Elastic Compliance Matrix: (Units=1/GPa)
#
#
# Indices 1 2 3 4 5 6 
#
# 1 0.017471 -0.008256 0.001216 0.000000 -0.014819 0.000000
# 2 -0.008256 0.023377 -0.010477 0.000000 0.007457 0.000000
# 3 0.001216 -0.010477 0.014246 0.000000 -0.010151 0.000000
# 4 0.000000 0.000000 0.000000 0.027102 0.000000 -0.013282
# 5 -0.014819 0.007457 -0.010151 0.000000 0.064758 0.000000
# 6 0.000000 0.000000 0.000000 -0.013282 0.000000 0.052999
#
#
# Mechanical properties :
#
#
# Convention : Reuss Voigt Hill
#
# Bulk Modulus (GPa) = 49.84320 68.35965 59.10142
# Shear Modulus (GPa) = 20.68906 27.91702 24.30304
#
# Velocity S-wave (km/s) = 3.44670 4.00376 3.73563
# Velocity P-wave (km/s) = 6.66782 7.78626 7.24864
#
# Compressibility (1/GPa) = 0.02006292
#
# Stress axis : x y z
#
# Youngs Moduli (GPa) = 57.23611 42.77710 70.19298
#
# Poissons Ratio (x) = 0.35315 -0.08537
# Poissons Ratio (y) = 0.47252 0.73539
# Poissons Ratio (z) = -0.06961 0.44816
#
# Static dielectric constant tensor:
#      x y z
#    x 3.452050 0.000000 0.199960 
#    y 0.000000 3.498770 0.000000 
#    z 0.199960 0.000000 3.528570 
# 
# 
# High freq. dielectric constant tensor:
#      x y z
#    x 1.633440 0.000000 0.019550 
#    y 0.000000 1.669720 0.000000 
#    z 0.019550 0.000000 1.682470 
# 
# From -- ./inp_files/77944.got.cif
#   From: 2010.06.25/outbox.cif.g09.slc.cpg/sg15_39_cif.got.tgz:77944.got - 2010.06.28 07:06:18.
