data_PCOD8129298
_publ_section_title
;
Structure prediction by ZEFSAII (Michael W. Deem and Ramdas Pophale) SiO2 
 PCOD8129298
Probable space group: P 21/C
;
_chemical_formula_sum "Si O2"
_cell_formula_units_Z 20
_cell_length_a 5.177902
_cell_length_b 22.995754
_cell_length_c 7.464833
_cell_angle_alpha 90.000000
_cell_angle_beta 58.792306
_cell_angle_gamma 90.000000
_cell_volume 760.216606
_symmetry_space_group_name_H-M "P 21/C"
_symmetry_group_IT_number 14
_symmetry_cell_setting 'monoclinic'
loop_
_space_group_symop_operation_xyz
x,y,z
-x,1/2+y,1/2-z
-x,-y,-z
x,1/2-y,1/2+z
loop_
_atom_site_type_symbol
_atom_site_label
_atom_site_fract_x
_atom_site_fract_y
_atom_site_fract_z
Si Si1 0.401504 0.643723 0.820601
Si Si2 0.792658 0.703921 0.972804
Si Si3 0.269689 0.328088 0.638142
Si Si4 0.533088 0.516628 0.766961
Si Si5 0.934176 0.548934 0.283786
O O1 0.668582 0.672029 0.842492
O O2 0.467498 0.647376 0.583850
O O3 0.368072 0.576263 0.889297
O O4 0.094892 0.678331 0.953475
O O5 0.580278 0.692295 0.224650
O O6 0.867609 0.770922 0.907383
O O7 0.022361 0.380806 0.743460
O O8 0.767679 0.532594 0.527093
O O9 0.277551 0.470967 0.802795
O O10 0.741087 0.485256 0.845116
#
# Coordination Sequence:
#
# PCOD8129298 Si02
#       5
#     4   4   4   4   4
#     4  11  26  46  71 101 139 175 223 283 335 400
#     4  12  27  43  69 102 135 180 229 270 343 397
#     4  11  26  46  70 100 139 179 226 282 331 402
#     4   9  18  39  65  94 129 171 215 271 336 392
#     4   9  19  36  66  95 126 173 220 265 334 396
#
# _framework density 26.308288999999998
#
# number of rings (size 3 to 8) (size 9 to 14) (size 15 to 20)
#    0.000    1.600    2.000    1.200    2.800    9.600 
#    0.000    6.000    0.000    0.000    0.000    0.000 
#    0.000    0.000    0.000    0.000    0.000    0.000 
#
# Total GULP energy -247964.552520 kJ/mol
# GULP energy per Si atom -12398.227626 kJ/mol
# Density = 2.624841 g / cm^3
# Si number density = 26.308289 Si / 1000 Ang^3
#
#
#
# Elastic Constant Matrix: (Units=GPa)
#
#
# Indices 1 2 3 4 5 6 
#
# 1 145.0051 93.0286 15.0926 0.0000 14.3427 0.0000
# 2 93.0286 247.0901 48.6743 0.0000 9.7762 0.0000
# 3 15.0926 48.6743 58.9017 0.0000 34.1527 0.0000
# 4 0.0000 0.0000 0.0000 47.4782 0.0000 5.8200
# 5 14.3427 9.7762 34.1527 0.0000 29.2144 0.0000
# 6 0.0000 0.0000 0.0000 5.8200 0.0000 30.1991
#
#
#
# Elastic Compliance Matrix: (Units=1/GPa)
#
#
# Indices 1 2 3 4 5 6 
#
# 1 0.011267 -0.006040 0.012849 0.000000 -0.018531 0.000000
# 2 -0.006040 0.009096 -0.018385 0.000000 0.021415 0.000000
# 3 0.012849 -0.018385 0.089919 0.000000 -0.105274 0.000000
# 4 0.000000 0.000000 0.000000 0.021572 0.000000 -0.004157
# 5 -0.018531 0.021415 -0.105274 0.000000 0.159231 0.000000
# 6 0.000000 0.000000 0.000000 -0.004157 0.000000 0.033915
#
#
# Mechanical properties :
#
#
# Convention : Reuss Voigt Hill
#
# Bulk Modulus (GPa) = 11.47730 84.95420 48.21575
# Shear Modulus (GPa) = 13.25579 40.99176 27.12377
#
# Velocity S-wave (km/s) = 2.24713 3.95160 3.21440
# Velocity P-wave (km/s) = 3.33239 7.29260 5.66952
#
# Compressibility (1/GPa) = 0.08712853
#
# Stress axis : x y z
#
# Youngs Moduli (GPa) = 88.75650 109.94381 11.12115
#
# Poissons Ratio (x) = 0.66404 -0.14290
# Poissons Ratio (y) = 0.53608 0.20447
# Poissons Ratio (z) = -1.14044 2.02137
#
# Static dielectric constant tensor:
#      x y z
#    x 4.226320 0.000000 0.103730 
#    y 0.000000 5.011180 0.000000 
#    z 0.103730 0.000000 5.231320 
# 
# 
# High freq. dielectric constant tensor:
#      x y z
#    x 2.019450 0.000000 0.013490 
#    y 0.000000 2.075510 0.000000 
#    z 0.013490 0.000000 2.105730 
# 
# From -- ./inp_files/6140.got.cif
#   From: 2010.03.12/outbox.cif.g09.slc.cpg/sg14_4_cif.got.tgz:6140.got - 2010.03.31 13:35:05.
