data_PCOD8129745
_publ_section_title
;
Structure prediction by ZEFSAII (Michael W. Deem and Ramdas Pophale) SiO2 
 PCOD8129745
Probable space group: C 2/C
;
_chemical_formula_sum "Si O2"
_cell_formula_units_Z 52
_cell_length_a 15.439189
_cell_length_b 19.810599
_cell_length_c 24.790924
_cell_angle_alpha 90.000000
_cell_angle_beta 156.192664
_cell_angle_gamma 90.000000
_cell_volume 3060.787282
_symmetry_space_group_name_H-M "C 2/C"
_symmetry_group_IT_number 15
_symmetry_cell_setting 'monoclinic'
loop_
_space_group_symop_operation_xyz
x,y,z
-x,y,1/2-z
-x,-y,-z
x,-y,1/2+z
1/2+x,1/2+y,z
1/2-x,1/2+y,1/2-z
1/2-x,1/2-y,-z
1/2+x,1/2-y,1/2+z
loop_
_atom_site_type_symbol
_atom_site_label
_atom_site_fract_x
_atom_site_fract_y
_atom_site_fract_z
Si Si1 0.000000 0.505290 0.250000
Si Si2 0.217926 0.634052 0.352083
Si Si3 0.197331 0.184134 0.214486
Si Si4 0.952746 0.394318 0.135239
Si Si5 0.657706 0.303711 0.142188
Si Si6 0.760474 0.227300 0.928431
Si Si7 0.924823 0.867645 0.648941
O O1 0.208525 0.554209 0.361901
O O2 0.014773 0.462738 0.313126
O O3 0.214698 0.641249 0.285434
O O4 0.425260 0.665486 0.498446
O O5 0.000000 0.670091 0.250000
O O6 0.369512 0.239994 0.332980
O O7 0.119891 0.130578 0.216563
O O8 0.006146 0.232345 0.085448
O O9 0.831225 0.344034 0.105802
O O10 0.180730 0.363089 0.245241
O O11 0.788245 0.408686 0.991531
O O12 0.764590 0.270525 0.150081
O O13 0.636725 0.288914 0.884414
O O14 0.000000 0.896004 0.750000
#
# Coordination Sequence:
#
# PCOD8129745 Si02
#       7
#     4   8   8   8   8   8   8
#     4  10  22  42  50  74 118 150 196 226 250 330
#     4   9  24  40  48  78 110 150 198 228 258 314
#     4  10  18  30  55  79 111 143 171 224 287 331
#     4  11  18  30  55  81 112 149 170 223 287 334
#     4  11  17  30  57  82 105 139 178 227 289 329
#     4  10  16  28  46  88 120 123 159 221 295 344
#     4  11  18  29  50  88 122 131 164 227 300 351
#
# _framework density 16.989093
#
# number of rings (size 3 to 8) (size 9 to 14) (size 15 to 20)
#    0.462    1.231    6.154    0.923    0.000    1.231 
#    0.000    0.000    0.000    0.923    8.000    0.000 
#    0.000    0.000    0.000    0.000    0.000    0.000 
#
# Total GULP energy -322159.789205 kJ/mol
# GULP energy per Si atom -12390.761123 kJ/mol
# Density = 1.695042 g / cm^3
# Si number density = 16.989093 Si / 1000 Ang^3
#
#
#
# Elastic Constant Matrix: (Units=GPa)
#
#
# Indices 1 2 3 4 5 6 
#
# 1 76.6416 9.8503 37.9672 0.0071 1.8184 -0.0066
# 2 9.8503 53.3311 26.5305 0.0025 2.1346 0.0033
# 3 37.9672 26.5305 100.0137 -0.0196 -10.7416 0.0209
# 4 0.0071 0.0025 -0.0196 -6.4054 -0.0005 17.8389
# 5 1.8184 2.1346 -10.7416 -0.0005 27.0006 -0.0007
# 6 -0.0066 0.0033 0.0209 17.8389 -0.0007 13.9418
#
#
#
# Elastic Compliance Matrix: (Units=1/GPa)
#
#
# Indices 1 2 3 4 5 6 
#
# 1 0.016436 0.000492 -0.006783 0.000019 -0.003844 -0.000007
# 2 0.000492 0.022074 -0.006512 0.000009 -0.004369 -0.000007
# 3 -0.006783 -0.006512 0.015048 -0.000027 0.006958 0.000011
# 4 0.000019 0.000009 -0.000027 -0.034210 -0.000012 0.043773
# 5 -0.003844 -0.004369 0.006958 -0.000012 0.040409 0.000007
# 6 -0.000007 -0.000007 0.000011 0.043773 0.000007 0.015718
#
#
# Mechanical properties :
#
#
# Convention : Reuss Voigt Hill
#
# Bulk Modulus (GPa) = 35.77335 42.07583 38.92459
# Shear Modulus (GPa) = 45.29141 17.28328 31.28734
#
# Velocity S-wave (km/s) = 5.16885 3.19300 4.29606
# Velocity P-wave (km/s) = 7.53160 6.19789 6.89706
#
# Compressibility (1/GPa) = 0.02795377
#
# Stress axis : x y z
#
# Youngs Moduli (GPa) = 60.84289 45.30200 66.45316
#
# Poissons Ratio (x) = -0.02231 0.45074
# Poissons Ratio (y) = -0.02996 0.43272
# Poissons Ratio (z) = 0.41269 0.29499
#
# Static dielectric constant tensor:
#      x y z
#    x 3.149170 0.000000 -0.252910 
#    y 0.000000 2.793510 -0.000020 
#    z -0.252910 -0.000020 3.551590 
# 
# 
# High freq. dielectric constant tensor:
#      x y z
#    x 1.639090 0.000000 -0.012740 
#    y 0.000000 1.614220 0.000000 
#    z -0.012740 0.000000 1.666210 
# 
# From -- ./inp_files/274958.got.cif
#   From: 2010.06.25/outbox.cif.g09.slc.cpg/sg15_138_cif.got.tgz:274958.got - 2010.06.28 07:06:18.
