data_PCOD8129004
_publ_section_title
;
Structure prediction by ZEFSAII (Michael W. Deem and Ramdas Pophale) SiO2 
 PCOD8129004
Probable space group: P 21/C
;
_chemical_formula_sum "Si O2"
_cell_formula_units_Z 32
_cell_length_a 8.036923
_cell_length_b 11.590545
_cell_length_c 17.495612
_cell_angle_alpha 90.000000
_cell_angle_beta 113.902743
_cell_angle_gamma 90.000000
_cell_volume 1489.979995
_symmetry_space_group_name_H-M "P 21/C"
_symmetry_group_IT_number 14
_symmetry_cell_setting 'monoclinic'
loop_
_space_group_symop_operation_xyz
x,y,z
-x,1/2+y,1/2-z
-x,-y,-z
x,1/2-y,1/2+z
loop_
_atom_site_type_symbol
_atom_site_label
_atom_site_fract_x
_atom_site_fract_y
_atom_site_fract_z
Si Si1 0.164106 0.685802 0.222275
Si Si2 0.030363 0.345494 0.100574
Si Si3 0.690661 0.499385 0.075817
Si Si4 0.006732 0.402198 0.661745
Si Si5 0.308157 0.927891 0.258287
Si Si6 0.127660 0.284848 0.950319
Si Si7 0.313123 0.053829 0.933639
Si Si8 0.666399 0.957450 0.240201
O O1 0.229378 0.805085 0.270691
O O2 0.333988 0.596783 0.247213
O O3 0.025682 0.622188 0.254572
O O4 0.073082 0.722928 0.124824
O O5 0.048829 0.213298 0.125760
O O6 0.156075 0.416768 0.181239
O O7 0.828263 0.400441 0.069012
O O8 0.106474 0.345097 0.028703
O O9 0.639110 0.489110 0.154337
O O10 0.767758 0.626434 0.082924
O O11 0.500000 0.500000 0.000000
O O12 0.168121 0.494789 0.683686
O O13 0.833070 0.452737 0.585251
O O14 0.483805 0.903907 0.239654
O O15 0.241758 0.164634 0.969040
O O16 0.325366 0.085077 0.845956
O O17 0.500000 0.000000 0.000000
#
# Coordination Sequence:
#
# PCOD8129004 Si02
#       8
#     4   4   4   4   4   4   4   4
#     4  11  23  47  70  97 139 185 229 288 350 419
#     4  12  26  45  70 102 143 186 232 290 356 422
#     4  12  26  43  69 105 141 177 235 292 355 416
#     4  11  24  45  70  95 138 184 232 284 351 422
#     4  12  25  44  74 103 135 189 236 283 361 420
#     4  12  25  44  72  98 143 185 230 295 351 416
#     4  11  27  47  69 102 141 187 237 293 353 416
#     4  11  27  45  72 101 143 184 237 289 352 424
#
# _framework density 21.476797000000001
#
# number of rings (size 3 to 8) (size 9 to 14) (size 15 to 20)
#    0.000    0.500    5.000    2.625    7.000    2.500 
#    0.000    0.000    0.000    0.000    0.000    0.000 
#    0.000    0.000    0.000    0.000    0.000    0.000 
#
# Total GULP energy -396733.452141 kJ/mol
# GULP energy per Si atom -12397.920379 kJ/mol
# Density = 2.142791 g / cm^3
# Si number density = 21.476797 Si / 1000 Ang^3
#
#
#
# Elastic Constant Matrix: (Units=GPa)
#
#
# Indices 1 2 3 4 5 6 
#
# 1 89.6031 21.6138 36.0907 0.0000 9.7433 0.0000
# 2 21.6138 115.7856 18.1908 0.0000 6.5170 0.0000
# 3 36.0907 18.1908 121.2485 0.0000 10.2336 0.0000
# 4 0.0000 0.0000 0.0000 32.0519 0.0000 -3.6947
# 5 9.7433 6.5170 10.2336 0.0000 37.9202 0.0000
# 6 0.0000 0.0000 0.0000 -3.6947 0.0000 30.6114
#
#
#
# Elastic Compliance Matrix: (Units=1/GPa)
#
#
# Indices 1 2 3 4 5 6 
#
# 1 0.013233 -0.001801 -0.003487 0.000000 -0.002149 0.000000
# 2 -0.001801 0.009143 -0.000759 0.000000 -0.000904 0.000000
# 3 -0.003487 -0.000759 0.009530 0.000000 -0.001545 0.000000
# 4 0.000000 0.000000 0.000000 0.031640 0.000000 0.003819
# 5 -0.002149 -0.000904 -0.001545 0.000000 0.027496 0.000000
# 6 0.000000 0.000000 0.000000 0.003819 0.000000 0.033128
#
#
# Mechanical properties :
#
#
# Convention : Reuss Voigt Hill
#
# Bulk Modulus (GPa) = 50.47890 53.15863 51.81877
# Shear Modulus (GPa) = 34.99700 36.83283 35.91492
#
# Velocity S-wave (km/s) = 4.04112 4.14576 4.09377
# Velocity P-wave (km/s) = 6.73269 6.90809 6.82096
#
# Compressibility (1/GPa) = 0.01981026
#
# Stress axis : x y z
#
# Youngs Moduli (GPa) = 75.56738 109.37249 104.93295
#
# Poissons Ratio (x) = 0.19702 0.36593
# Poissons Ratio (y) = 0.13613 0.07967
# Poissons Ratio (z) = 0.26353 0.08304
#
# Static dielectric constant tensor:
#      x y z
#    x 3.782410 0.000000 -0.069920 
#    y 0.000000 4.029530 0.000000 
#    z -0.069920 0.000000 4.013130 
# 
# 
# High freq. dielectric constant tensor:
#      x y z
#    x 1.837360 0.000000 0.002580 
#    y 0.000000 1.858310 0.000000 
#    z 0.002580 0.000000 1.849140 
# 
# From -- ./inp_files/55614.got.cif
#   From: 2010.03.12/outbox.cif.g09.slc.cpg/sg14_28_cif.got.tgz:55614.got - 2010.03.31 13:35:05.
