data_PCOD8129528
_publ_section_title
;
Structure prediction by ZEFSAII (Michael W. Deem and Ramdas Pophale) SiO2 
 PCOD8129528
Probable space group: P 21/C
;
_chemical_formula_sum "Si O2"
_cell_formula_units_Z 32
_cell_length_a 27.000000
_cell_length_b 12.000000
_cell_length_c 15.000000
_cell_angle_alpha 90.000000
_cell_angle_beta 20.000000
_cell_angle_gamma 90.000000
_cell_volume 1662.217897
_symmetry_space_group_name_H-M "P 21/C"
_symmetry_group_IT_number 14
_symmetry_cell_setting 'monoclinic'
loop_
_space_group_symop_operation_xyz
x,y,z
-x,1/2+y,1/2-z
-x,-y,-z
x,1/2-y,1/2+z
loop_
_atom_site_type_symbol
_atom_site_label
_atom_site_fract_x
_atom_site_fract_y
_atom_site_fract_z
Si Si1 0.218095 0.434862 0.187883
Si Si2 0.081835 0.452721 0.046212
Si Si3 0.042665 0.080799 0.811733
Si Si4 0.151075 0.794614 0.385339
Si Si5 0.448974 0.544029 0.913322
Si Si6 0.343852 0.298934 0.535351
Si Si7 0.766808 0.344295 0.587503
Si Si8 0.605016 0.184350 0.178558
O O1 0.076618 0.483237 0.476436
O O2 0.256948 0.309639 0.150291
O O3 0.176776 0.433446 0.153219
O O4 0.354665 0.513608 0.983562
O O5 0.113450 0.442385 0.097043
O O6 0.920474 0.402349 0.299243
O O7 0.084982 0.580398 0.004515
O O8 0.217521 0.385317 0.775416
O O9 0.970202 0.204572 0.942129
O O10 0.204946 0.758430 0.392705
O O11 0.284757 0.791899 0.089820
O O12 0.557105 0.646809 0.710152
O O13 0.551513 0.442466 0.767424
O O14 0.339223 0.569925 0.180761
O O15 0.461203 0.263456 0.413754
O O16 0.688657 0.296718 0.630933
#
# Coordination Sequence:
#
# PCOD8129528 Si02
#       8
#     4   4   4   4   4   4   4   4
#     4  10  22  41  69  91 132 175 215 268 332 392
#     4  11  25  42  65 102 133 168 223 283 318 393
#     4  10  23  41  66  98 130 175 218 270 337 390
#     4  11  23  43  66  99 138 165 224 276 326 392
#     4  11  21  45  63  95 133 175 217 269 322 401
#     4  11  24  41  68  98 135 171 220 273 331 390
#     4  11  25  43  68  96 132 175 223 270 330 389
#     4  11  24  42  70  92 133 182 216 268 335 394
#
# _framework density 19.251387000000001
#
# number of rings (size 3 to 8) (size 9 to 14) (size 15 to 20)
#    0.000    1.250    5.000    0.375    5.250    4.500 
#    0.000    1.250    0.000    0.000    0.000    0.000 
#    0.000    0.000    0.000    0.000    0.000    0.000 
#
# Total GULP energy -396576.023898 kJ/mol
# GULP energy per Si atom -12393.000747 kJ/mol
# Density = 1.920757 g / cm^3
# Si number density = 19.251387 Si / 1000 Ang^3
#
#
#
# Elastic Constant Matrix: (Units=GPa)
#
#
# Indices 1 2 3 4 5 6 
#
# 1 123.1568 23.5720 41.6323 0.0000 -17.4978 0.0000
# 2 23.5720 122.2650 49.7852 0.0000 -2.5305 0.0000
# 3 41.6323 49.7852 134.4064 0.0000 -0.8022 0.0000
# 4 0.0000 0.0000 0.0000 46.6057 0.0000 0.8807
# 5 -17.4978 -2.5305 -0.8022 0.0000 32.0462 0.0000
# 6 0.0000 0.0000 0.0000 0.8807 0.0000 27.0256
#
#
#
# Elastic Compliance Matrix: (Units=1/GPa)
#
#
# Indices 1 2 3 4 5 6 
#
# 1 0.009949 -0.000667 -0.002803 0.000000 0.005310 0.000000
# 2 -0.000667 0.009691 -0.003381 0.000000 0.000316 0.000000
# 3 -0.002803 -0.003381 0.009551 0.000000 -0.001558 0.000000
# 4 0.000000 0.000000 0.000000 0.021470 0.000000 -0.000700
# 5 0.005310 0.000316 -0.001558 0.000000 0.034090 0.000000
# 6 0.000000 0.000000 0.000000 -0.000700 0.000000 0.037025
#
#
# Mechanical properties :
#
#
# Convention : Reuss Voigt Hill
#
# Bulk Modulus (GPa) = 64.56003 67.75638 66.15821
# Shear Modulus (GPa) = 35.55135 38.79141 37.17138
#
# Velocity S-wave (km/s) = 4.30198 4.49374 4.39890
# Velocity P-wave (km/s) = 7.63440 7.88650 7.76147
#
# Compressibility (1/GPa) = 0.01548946
#
# Stress axis : x y z
#
# Youngs Moduli (GPa) = 100.50932 103.19035 104.69605
#
# Poissons Ratio (x) = 0.06882 0.29347
# Poissons Ratio (y) = 0.06703 0.35399
# Poissons Ratio (z) = 0.28174 0.34890
#
# Static dielectric constant tensor:
#      x y z
#    x 3.690940 0.000000 -0.161100 
#    y 0.000000 3.845940 0.000000 
#    z -0.161100 0.000000 3.869200 
# 
# 
# High freq. dielectric constant tensor:
#      x y z
#    x 1.756790 0.000000 -0.013280 
#    y 0.000000 1.774410 0.000000 
#    z -0.013280 0.000000 1.776790 
# 
# From -- ./inp_files/52038.got.cif
#   From: 2010.03.12/outbox.ucp.g09.slc.cvg/sg14_27_cif.got.tgz:52038.got - 2010.05.04 20:10:03.
