data_PCOD8129633
_publ_section_title
;
Structure prediction by ZEFSAII (Michael W. Deem and Ramdas Pophale) SiO2 
 PCOD8129633
Probable space group: C 2/C
;
_chemical_formula_sum "Si O2"
_cell_formula_units_Z 56
_cell_length_a 25.271110
_cell_length_b 18.077510
_cell_length_c 22.043423
_cell_angle_alpha 90.000000
_cell_angle_beta 157.830587
_cell_angle_gamma 90.000000
_cell_volume 3799.988185
_symmetry_space_group_name_H-M "C 2/C"
_symmetry_group_IT_number 15
_symmetry_cell_setting 'monoclinic'
loop_
_space_group_symop_operation_xyz
x,y,z
-x,y,1/2-z
-x,-y,-z
x,-y,1/2+z
1/2+x,1/2+y,z
1/2-x,1/2+y,1/2-z
1/2-x,1/2-y,-z
1/2+x,1/2-y,1/2+z
loop_
_atom_site_type_symbol
_atom_site_label
_atom_site_fract_x
_atom_site_fract_y
_atom_site_fract_z
Si Si1 0.916816 0.161850 0.450583
Si Si2 0.488422 0.699984 0.166804
Si Si3 0.332585 0.740839 0.828139
Si Si4 0.957780 0.995678 0.024488
Si Si5 0.741397 0.622681 0.654138
Si Si6 0.666374 0.391506 0.770961
Si Si7 0.039061 0.658476 0.933816
O O1 0.786755 0.212503 0.333729
O O2 0.925454 0.090380 0.504185
O O3 0.897742 0.141000 0.359435
O O4 0.063429 0.205991 0.611498
O O5 0.500000 0.687391 0.250000
O O6 0.626508 0.666205 0.281311
O O7 0.482904 0.787152 0.146503
O O8 0.349995 0.658264 0.996525
O O9 0.257364 0.676648 0.786785
O O10 0.423453 0.793435 0.967755
O O11 0.090974 0.029130 0.203453
O O12 0.818089 0.042691 0.890111
O O13 0.000000 0.000000 0.000000
O O14 0.899596 0.611166 0.798398
O O15 0.834450 0.398884 0.946407
#
# Coordination Sequence:
#
# PCOD8129633 Si02
#       7
#     8   8   8   8   8   8   8
#     4  10  16  27  43  56  78 104 139 167 208 246
#     4  10  18  28  42  59  81 112 147 174 201 236
#     4  10  15  25  40  57  75 100 131 169 205 238
#     4   9  16  29  41  54  73 109 140 165 202 256
#     4  10  17  28  41  56  81 107 138 174 208 233
#     4   9  17  28  39  54  79 107 136 170 206 235
#     4  10  17  26  38  56  78 105 136 175 206 227
#
# _framework density 14.736886999999999
#
# number of rings (size 3 to 8) (size 9 to 14) (size 15 to 20)
#    0.000    2.286    7.143    1.714    0.000    2.286 
#    0.000    7.857    0.000    0.000    0.000    0.000 
#    0.000    0.000    0.000   20.571    0.000    0.000 
#
# Total GULP energy -347046.211110 kJ/mol
# GULP energy per Si atom -12394.507540 kJ/mol
# Density = 1.470335 g / cm^3
# Si number density = 14.736887 Si / 1000 Ang^3
#
#
#
# Elastic Constant Matrix: (Units=GPa)
#
#
# Indices 1 2 3 4 5 6 
#
# 1 39.3405 30.2081 35.6292 0.0015 14.8978 0.0006
# 2 30.2081 99.3878 54.2204 -0.0001 15.1282 0.0002
# 3 35.6292 54.2204 96.3070 0.0023 38.2368 0.0012
# 4 0.0015 -0.0001 0.0023 15.9364 0.0007 6.3315
# 5 14.8978 15.1282 38.2368 0.0007 25.2935 0.0007
# 6 0.0006 0.0002 0.0012 6.3315 0.0007 14.3865
#
#
#
# Elastic Compliance Matrix: (Units=1/GPa)
#
#
# Indices 1 2 3 4 5 6 
#
# 1 0.041048 -0.006729 -0.008495 -0.000002 -0.007310 0.000000
# 2 -0.006729 0.016532 -0.011170 0.000002 0.010962 0.000000
# 3 -0.008495 -0.011170 0.037959 -0.000003 -0.045699 0.000001
# 4 -0.000002 0.000002 -0.000003 0.076046 0.000004 -0.033468
# 5 -0.007310 0.010962 -0.045699 0.000004 0.106370 -0.000003
# 6 0.000000 0.000000 0.000001 -0.033468 -0.000003 0.084239
#
#
# Mechanical properties :
#
#
# Convention : Reuss Voigt Hill
#
# Bulk Modulus (GPa) = 23.39155 52.79453 38.09304
# Shear Modulus (GPa) = 11.64866 18.78843 15.21854
#
# Velocity S-wave (km/s) = 2.81453 3.57448 3.21703
# Velocity P-wave (km/s) = 5.14484 7.27588 6.30110
#
# Compressibility (1/GPa) = 0.04275047
#
# Stress axis : x y z
#
# Youngs Moduli (GPa) = 24.36161 60.48813 26.34419
#
# Poissons Ratio (x) = 0.40703 0.22380
# Poissons Ratio (y) = 0.16393 0.29427
# Poissons Ratio (z) = 0.20696 0.67567
#
# Static dielectric constant tensor:
#      x y z
#    x 2.498350 0.000000 0.248320 
#    y 0.000000 3.161040 -0.000010 
#    z 0.248320 -0.000010 2.930750 
# 
# 
# High freq. dielectric constant tensor:
#      x y z
#    x 1.515310 0.000000 0.037620 
#    y 0.000000 1.546090 0.000000 
#    z 0.037620 0.000000 1.558980 
# 
# From -- ./inp_files/56169.got.cif
#   From: 2010.06.25/outbox.cif.g09.slc.cpg/sg15_29_cif.got.tgz:56169.got - 2010.06.28 07:06:18.
