data_PCOD8129869
_publ_section_title
;
Structure prediction by ZEFSAII (Michael W. Deem and Ramdas Pophale) SiO2 
 PCOD8129869
Probable space group: C 2/C
;
_chemical_formula_sum "Si O2"
_cell_formula_units_Z 40
_cell_length_a 6.085001
_cell_length_b 20.958922
_cell_length_c 14.736467
_cell_angle_alpha 90.000000
_cell_angle_beta 73.019708
_cell_angle_gamma 90.000000
_cell_volume 1797.483573
_symmetry_space_group_name_H-M "C 2/C"
_symmetry_group_IT_number 15
_symmetry_cell_setting 'monoclinic'
loop_
_space_group_symop_operation_xyz
x,y,z
-x,y,1/2-z
-x,-y,-z
x,-y,1/2+z
1/2+x,1/2+y,z
1/2-x,1/2+y,1/2-z
1/2-x,1/2-y,-z
1/2+x,1/2-y,1/2+z
loop_
_atom_site_type_symbol
_atom_site_label
_atom_site_fract_x
_atom_site_fract_y
_atom_site_fract_z
Si Si1 0.235603 0.067226 0.421609
Si Si2 0.590119 0.665772 0.989157
Si Si3 0.265332 0.044284 0.041033
Si Si4 0.307104 0.262812 0.842695
Si Si5 0.775645 0.392013 0.719812
O O1 0.369189 0.018825 0.476085
O O2 0.365766 0.089613 0.311934
O O3 0.158920 0.130497 0.486956
O O4 0.008715 0.029375 0.412792
O O5 0.640137 0.704158 0.890680
O O6 0.784463 0.609979 0.980074
O O7 0.577103 0.711549 0.078428
O O8 0.373002 0.059999 0.128600
O O9 0.500000 0.236844 0.750000
O O10 0.159778 0.318958 0.812871
O O11 0.500000 0.394864 0.750000
#
# Coordination Sequence:
#
# PCOD8129869 Si02
#       5
#     8   8   8   8   8
#     4   9  16  34  57  77 102 141 189 220 275 323
#     4   8  16  29  55  80  95 139 187 224 265 315
#     4   8  17  33  57  75 102 141 186 226 270 329
#     4  10  16  31  55  75 106 142 188 218 263 331
#     4  11  20  31  51  81 110 146 181 223 275 327
#
# _framework density 22.253335
#
# number of rings (size 3 to 8) (size 9 to 14) (size 15 to 20)
#    1.200    1.600    2.000    0.600    0.000    0.800 
#    0.000    2.000    4.400    0.000    0.000    0.000 
#    0.000    0.000    0.000    0.000    0.000    0.000 
#
# Total GULP energy -247790.566944 kJ/mol
# GULP energy per Si atom -12389.528347 kJ/mol
# Density = 2.220269 g / cm^3
# Si number density = 22.253335 Si / 1000 Ang^3
#
#
#
# Elastic Constant Matrix: (Units=GPa)
#
#
# Indices 1 2 3 4 5 6 
#
# 1 111.5290 58.9682 77.7542 0.0000 10.9994 0.0000
# 2 58.9682 147.8224 117.8515 0.0000 -9.8376 0.0000
# 3 77.7542 117.8515 191.3000 0.0000 -13.4525 0.0000
# 4 0.0000 0.0000 0.0000 47.4755 0.0000 -3.2178
# 5 10.9994 -9.8376 -13.4525 0.0000 45.5026 0.0000
# 6 0.0000 0.0000 0.0000 -3.2178 0.0000 22.5833
#
#
#
# Elastic Compliance Matrix: (Units=1/GPa)
#
#
# Indices 1 2 3 4 5 6 
#
# 1 0.013882 -0.002150 -0.004684 0.000000 -0.005205 0.000000
# 2 -0.002150 0.013637 -0.007438 0.000000 0.001269 0.000000
# 3 -0.004684 -0.007438 0.011928 0.000000 0.003051 0.000000
# 4 0.000000 0.000000 0.000000 0.021269 0.000000 0.003031
# 5 -0.005205 0.001269 0.003051 0.000000 0.024411 0.000000
# 6 0.000000 0.000000 0.000000 0.003031 0.000000 0.044712
#
#
# Mechanical properties :
#
#
# Convention : Reuss Voigt Hill
#
# Bulk Modulus (GPa) = 91.71709 106.64433 99.18071
# Shear Modulus (GPa) = 30.86096 36.18412 33.52254
#
# Velocity S-wave (km/s) = 3.72802 4.03675 3.88545
# Velocity P-wave (km/s) = 7.73533 8.35189 8.04951
#
# Compressibility (1/GPa) = 0.01090309
#
# Stress axis : x y z
#
# Youngs Moduli (GPa) = 72.03715 73.33044 83.83643
#
# Poissons Ratio (x) = 0.15764 0.39268
# Poissons Ratio (y) = 0.15486 0.62358
# Poissons Ratio (z) = 0.33742 0.54544
#
# Static dielectric constant tensor:
#      x y z
#    x 4.107590 0.000000 -0.121140 
#    y 0.000000 4.051990 0.000000 
#    z -0.121140 0.000000 4.367960 
# 
# 
# High freq. dielectric constant tensor:
#      x y z
#    x 1.915130 0.000000 -0.017060 
#    y 0.000000 1.856670 0.000000 
#    z -0.017060 0.000000 1.883880 
# 
# From -- ./inp_files/146243.got.cif
#   From: 2010.06.25/outbox.cif.g09.slc.cpg/sg15_74_cif.got.tgz:146243.got - 2010.06.28 07:06:18.
