data_PCOD8129034
_publ_section_title
;
Structure prediction by ZEFSAII (Michael W. Deem and Ramdas Pophale) SiO2 
 PCOD8129034
Probable space group: P 21/C
;
_chemical_formula_sum "Si O2"
_cell_formula_units_Z 28
_cell_length_a 10.891238
_cell_length_b 9.415843
_cell_length_c 23.777644
_cell_angle_alpha 90.000000
_cell_angle_beta 31.320684
_cell_angle_gamma 90.000000
_cell_volume 1267.548433
_symmetry_space_group_name_H-M "P 21/C"
_symmetry_group_IT_number 14
_symmetry_cell_setting 'monoclinic'
loop_
_space_group_symop_operation_xyz
x,y,z
-x,1/2+y,1/2-z
-x,-y,-z
x,1/2-y,1/2+z
loop_
_atom_site_type_symbol
_atom_site_label
_atom_site_fract_x
_atom_site_fract_y
_atom_site_fract_z
Si Si1 0.722005 0.911137 0.745549
Si Si2 0.266184 0.448605 0.382923
Si Si3 0.628816 0.890065 0.286819
Si Si4 0.210002 0.859283 0.187001
Si Si5 0.000941 0.415332 0.686596
Si Si6 0.122875 0.978920 0.510226
Si Si7 0.290837 0.275649 0.480844
O O1 0.715203 0.759331 0.779577
O O2 0.466682 0.931404 0.815099
O O3 0.785135 0.041130 0.760686
O O4 0.936752 0.890011 0.618643
O O5 0.301127 0.392899 0.306257
O O6 0.322772 0.320477 0.403525
O O7 0.000000 0.500000 0.500000
O O8 0.352552 0.888607 0.406605
O O9 0.740982 0.023026 0.275765
O O10 0.464542 0.785155 0.079967
O O11 0.021782 0.730123 0.268251
O O12 0.151000 0.960171 0.157543
O O13 0.113960 0.382110 0.581955
O O14 0.186194 0.118741 0.521226
O O15 0.000000 0.000000 0.500000
#
# Coordination Sequence:
#
# PCOD8129034 Si02
#       7
#     4   4   4   4   4   4   4
#     4  11  26  43  67 104 144 184 239 296 357 434
#     4  11  24  40  67 103 145 186 235 286 362 439
#     4  12  26  42  69 106 143 191 235 295 363 433
#     4  11  25  47  71 104 137 190 245 300 358 415
#     4  12  24  47  73  98 144 187 245 301 355 422
#     4  12  24  43  71 106 149 188 236 298 368 436
#     4  11  24  44  71 104 144 188 235 299 358 432
#
# _framework density 22.089886
#
# number of rings (size 3 to 8) (size 9 to 14) (size 15 to 20)
#    0.000    0.571    5.714    2.143    4.000    0.000 
#    0.000    5.714    0.000    0.000    0.000    0.000 
#    0.000    0.000    0.000    0.000    0.000    0.000 
#
# Total GULP energy -347109.905154 kJ/mol
# GULP energy per Si atom -12396.782327 kJ/mol
# Density = 2.203961 g / cm^3
# Si number density = 22.089886 Si / 1000 Ang^3
#
#
#
# Elastic Constant Matrix: (Units=GPa)
#
#
# Indices 1 2 3 4 5 6 
#
# 1 76.7819 40.0583 31.0006 0.0000 -10.6863 0.0000
# 2 40.0583 138.0508 43.1710 0.0000 -0.6069 0.0000
# 3 31.0006 43.1710 152.0673 0.0000 -16.7734 0.0000
# 4 0.0000 0.0000 0.0000 32.8648 0.0000 -2.3091
# 5 -10.6863 -0.6069 -16.7734 0.0000 24.6275 0.0000
# 6 0.0000 0.0000 0.0000 -2.3091 0.0000 35.9443
#
#
#
# Elastic Compliance Matrix: (Units=1/GPa)
#
#
# Indices 1 2 3 4 5 6 
#
# 1 0.016764 -0.004368 -0.001499 0.000000 0.006145 0.000000
# 2 -0.004368 0.009136 -0.002041 0.000000 -0.003060 0.000000
# 3 -0.001499 -0.002041 0.007983 0.000000 0.004736 0.000000
# 4 0.000000 0.000000 0.000000 0.030566 0.000000 0.001964
# 5 0.006145 -0.003060 0.004736 0.000000 0.046422 0.000000
# 6 0.000000 0.000000 0.000000 0.001964 0.000000 0.027947
#
#
# Mechanical properties :
#
#
# Convention : Reuss Voigt Hill
#
# Bulk Modulus (GPa) = 55.35235 66.15109 60.75172
# Shear Modulus (GPa) = 31.12224 35.53199 33.32712
#
# Velocity S-wave (km/s) = 3.75759 4.01499 3.88842
# Velocity P-wave (km/s) = 6.62859 7.17669 6.90807
#
# Compressibility (1/GPa) = 0.01806608
#
# Stress axis : x y z
#
# Youngs Moduli (GPa) = 59.65297 109.45734 125.25840
#
# Poissons Ratio (x) = 0.47815 0.18782
# Poissons Ratio (y) = 0.26059 0.25561
# Poissons Ratio (z) = 0.08945 0.22337
#
# Static dielectric constant tensor:
#      x y z
#    x 3.919310 0.000000 -0.192530 
#    y 0.000000 3.943880 0.000000 
#    z -0.192530 0.000000 4.006510 
# 
# 
# High freq. dielectric constant tensor:
#      x y z
#    x 1.859420 0.000000 -0.010270 
#    y 0.000000 1.876000 0.000000 
#    z -0.010270 0.000000 1.880670 
# 
# From -- ./inp_files/77101.got.cif
#   From: 2010.03.12/outbox.cif.g09.slc.cpg/sg14_39_cif.got.tgz:77101.got - 2010.03.31 13:35:05.
