data_PCOD8129234
_publ_section_title
;
Structure prediction by ZEFSAII (Michael W. Deem and Ramdas Pophale) SiO2 
 PCOD8129234
Probable space group: P 21/C
;
_chemical_formula_sum "Si O2"
_cell_formula_units_Z 24
_cell_length_a 11.694208
_cell_length_b 11.019916
_cell_length_c 9.623511
_cell_angle_alpha 90.000000
_cell_angle_beta 70.143083
_cell_angle_gamma 90.000000
_cell_volume 1166.438036
_symmetry_space_group_name_H-M "P 21/C"
_symmetry_group_IT_number 14
_symmetry_cell_setting 'monoclinic'
loop_
_space_group_symop_operation_xyz
x,y,z
-x,1/2+y,1/2-z
-x,-y,-z
x,1/2-y,1/2+z
loop_
_atom_site_type_symbol
_atom_site_label
_atom_site_fract_x
_atom_site_fract_y
_atom_site_fract_z
Si Si1 0.909979 0.476613 0.662964
Si Si2 0.356545 0.868890 0.105857
Si Si3 0.774994 0.787380 0.201771
Si Si4 0.639773 0.858479 0.979368
Si Si5 0.995437 0.882686 0.595116
Si Si6 0.774414 0.237663 0.097061
O O1 0.849786 0.601880 0.740053
O O2 0.990718 0.418804 0.750475
O O3 0.800332 0.387323 0.666632
O O4 0.000000 0.500000 0.500000
O O5 0.288230 0.833451 0.275049
O O6 0.325774 0.008880 0.090989
O O7 0.498306 0.846832 0.070711
O O8 0.314173 0.785963 0.995442
O O9 0.673592 0.741909 0.350978
O O10 0.865354 0.678465 0.127246
O O11 0.713083 0.834866 0.088480
O O12 0.098757 0.788534 0.509927
O O13 0.000000 0.000000 0.500000
#
# Coordination Sequence:
#
# PCOD8129234 Si02
#       6
#     4   4   4   4   4   4
#     4  12  25  42  65  99 137 177 211 271 343 395
#     4  11  25  46  69  95 134 178 228 276 331 391
#     4  12  24  43  68  96 137 170 222 270 335 397
#     4  11  25  45  69  97 131 180 224 278 330 391
#     4  12  27  40  68 101 130 173 220 273 333 402
#     4  12  24  45  67  97 134 174 223 274 336 398
#
# _framework density 20.57546
#
# number of rings (size 3 to 8) (size 9 to 14) (size 15 to 20)
#    0.000    0.333    5.000    4.000    4.667    0.000 
#    0.000    0.833    0.000    0.000    0.000    0.000 
#    0.000    0.000    0.000    0.000    0.000    0.000 
#
# Total GULP energy -297806.171488 kJ/mol
# GULP energy per Si atom -12408.590479 kJ/mol
# Density = 2.052863 g / cm^3
# Si number density = 20.575460 Si / 1000 Ang^3
#
#
#
# Elastic Constant Matrix: (Units=GPa)
#
#
# Indices 1 2 3 4 5 6 
#
# 1 105.4383 30.8745 32.9178 0.0000 6.5977 0.0000
# 2 30.8745 92.0621 28.7405 0.0000 -4.8027 0.0000
# 3 32.9178 28.7405 108.5257 0.0000 -2.5481 0.0000
# 4 0.0000 0.0000 0.0000 39.4445 0.0000 -1.6869
# 5 6.5977 -4.8027 -2.5481 0.0000 35.1031 0.0000
# 6 0.0000 0.0000 0.0000 -1.6869 0.0000 42.1992
#
#
#
# Elastic Compliance Matrix: (Units=1/GPa)
#
#
# Indices 1 2 3 4 5 6 
#
# 1 0.011417 -0.003131 -0.002699 0.000000 -0.002770 0.000000
# 2 -0.003131 0.012768 -0.002381 0.000000 0.002163 0.000000
# 3 -0.002699 -0.002381 0.010686 0.000000 0.000957 0.000000
# 4 0.000000 0.000000 0.000000 0.025395 0.000000 0.001015
# 5 -0.002770 0.002163 0.000957 0.000000 0.029374 0.000000
# 6 0.000000 0.000000 0.000000 0.001015 0.000000 0.023738
#
#
# Mechanical properties :
#
#
# Convention : Reuss Voigt Hill
#
# Bulk Modulus (GPa) = 54.20069 54.56575 54.38322
# Shear Modulus (GPa) = 36.77843 37.58226 37.18034
#
# Velocity S-wave (km/s) = 4.23246 4.27846 4.25552
# Velocity P-wave (km/s) = 7.09116 7.14033 7.11579
#
# Compressibility (1/GPa) = 0.01844995
#
# Stress axis : x y z
#
# Youngs Moduli (GPa) = 87.58947 78.31884 93.57999
#
# Poissons Ratio (x) = 0.24520 0.25256
# Poissons Ratio (y) = 0.27422 0.22281
# Poissons Ratio (z) = 0.23639 0.18648
#
# Static dielectric constant tensor:
#      x y z
#    x 3.563380 0.000000 -0.284670 
#    y 0.000000 3.047560 0.000000 
#    z -0.284670 0.000000 3.520950 
# 
# 
# High freq. dielectric constant tensor:
#      x y z
#    x 1.815190 0.000000 0.003170 
#    y 0.000000 1.820880 0.000000 
#    z 0.003170 0.000000 1.810930 
# 
# From -- ./inp_files/12356.got.cif
#   From: 2010.03.12/outbox.cif.g09.slc.cpg/sg14_7_cif.got.tgz:12356.got - 2010.03.31 13:35:05.
