data_PCOD8129506
_publ_section_title
;
Structure prediction by ZEFSAII (Michael W. Deem and Ramdas Pophale) SiO2 
 PCOD8129506
Probable space group: P 21/C
;
_chemical_formula_sum "Si O2"
_cell_formula_units_Z 32
_cell_length_a 18.180741
_cell_length_b 16.709152
_cell_length_c 22.013479
_cell_angle_alpha 90.000000
_cell_angle_beta 162.591640
_cell_angle_gamma 90.000000
_cell_volume 2000.724374
_symmetry_space_group_name_H-M "P 21/C"
_symmetry_group_IT_number 14
_symmetry_cell_setting 'monoclinic'
loop_
_space_group_symop_operation_xyz
x,y,z
-x,1/2+y,1/2-z
-x,-y,-z
x,1/2-y,1/2+z
loop_
_atom_site_type_symbol
_atom_site_label
_atom_site_fract_x
_atom_site_fract_y
_atom_site_fract_z
Si Si1 0.050274 0.591443 0.775135
Si Si2 0.949728 0.908557 0.724867
Si Si3 0.158943 0.683034 0.975915
Si Si4 0.426833 0.316970 0.609859
Si Si5 0.682887 0.775150 0.591444
Si Si6 0.158941 0.316965 0.975913
Si Si7 0.317114 0.775150 0.408557
Si Si8 0.426835 0.816970 0.109860
O O1 0.759187 0.608135 0.538472
O O2 0.106163 0.500000 0.803090
O O3 0.123589 0.608133 0.902898
O O4 0.208864 0.645579 0.854449
O O5 0.791139 0.854420 0.645553
O O6 0.876414 0.891866 0.597104
O O7 0.240815 0.891865 0.961530
O O8 0.898512 0.720725 0.790378
O O9 0.311501 0.655759 0.155750
O O10 0.305589 0.749986 0.055573
O O11 0.465949 0.279302 0.574077
O O12 0.305589 0.249986 0.555572
O O13 0.500002 0.803088 0.500001
O O14 0.311499 0.344241 0.155749
O O15 0.898512 0.279274 0.790377
O O16 0.465950 0.720698 0.574077
#
# Coordination Sequence:
#
# PCOD8129506 Si02
#       8
#     4   4   4   4   4   4   4   4
#     4   9  17  28  44  68  93 115 142 176 216 263
#     4   9  17  28  44  68  93 115 142 176 216 263
#     4   8  15  29  46  61  81 115 156 187 207 239
#     4   8  15  29  46  61  81 115 156 187 207 239
#     4   9  17  28  44  68  93 115 142 176 216 263
#     4   8  15  29  46  61  81 115 156 187 207 239
#     4   9  17  28  44  68  93 115 142 176 216 263
#     4   8  15  29  46  61  81 115 156 187 207 239
#
# _framework density 15.994206999999999
#
# number of rings (size 3 to 8) (size 9 to 14) (size 15 to 20)
#    0.000    3.500    0.000    3.000    0.000    2.500 
#    0.000    0.000    0.000   12.000    0.000   28.000 
#    0.000    0.000    0.000    0.000    0.000    0.000 
#
# Total GULP energy -396557.701595 kJ/mol
# GULP energy per Si atom -12392.428175 kJ/mol
# Density = 1.595780 g / cm^3
# Si number density = 15.994207 Si / 1000 Ang^3
#
#
#
# Elastic Constant Matrix: (Units=GPa)
#
#
# Indices 1 2 3 4 5 6 
#
# 1 74.2217 49.5806 50.9020 0.0000 1.3435 0.0000
# 2 49.5806 76.3540 41.7076 0.0000 3.0439 0.0000
# 3 50.9020 41.7076 136.6961 0.0000 -25.3066 0.0000
# 4 0.0000 0.0000 0.0000 10.2357 0.0000 0.8482
# 5 1.3435 3.0439 -25.3066 0.0000 20.1853 0.0000
# 6 0.0000 0.0000 0.0000 0.8482 0.0000 12.4172
#
#
#
# Elastic Compliance Matrix: (Units=1/GPa)
#
#
# Indices 1 2 3 4 5 6 
#
# 1 0.028398 -0.013438 -0.008399 0.000000 -0.010393 0.000000
# 2 -0.013438 0.024168 -0.003749 0.000000 -0.007451 0.000000
# 3 -0.008399 -0.003749 0.015360 0.000000 0.020382 0.000000
# 4 0.000000 0.000000 0.000000 0.098253 0.000000 -0.006711
# 5 -0.010393 -0.007451 0.020382 0.000000 0.076909 0.000000
# 6 0.000000 0.000000 0.000000 -0.006711 0.000000 0.080992
#
#
# Mechanical properties :
#
#
# Convention : Reuss Voigt Hill
#
# Bulk Modulus (GPa) = 59.68733 63.51693 61.60213
# Shear Modulus (GPa) = 13.12898 18.23974 15.68436
#
# Velocity S-wave (km/s) = 2.86817 3.38064 3.13489
# Velocity P-wave (km/s) = 6.95469 7.41869 7.19043
#
# Compressibility (1/GPa) = 0.01675397
#
# Stress axis : x y z
#
# Youngs Moduli (GPa) = 35.21377 41.37688 65.10393
#
# Poissons Ratio (x) = 0.55604 0.54678
# Poissons Ratio (y) = 0.47321 0.24409
# Poissons Ratio (z) = 0.29574 0.15513
#
# Static dielectric constant tensor:
#      x y z
#    x 2.809840 0.000000 -0.368560 
#    y 0.000000 2.684420 0.000000 
#    z -0.368560 0.000000 3.767520 
# 
# 
# High freq. dielectric constant tensor:
#      x y z
#    x 1.590540 0.000000 -0.012800 
#    y 0.000000 1.586180 0.000000 
#    z -0.012800 0.000000 1.623830 
# 
# From -- ./inp_files/61453.got.cif
#   From: 2010.03.12/outbox.cif.g09.slc.cpg/sg14_31_cif.got.tgz:61453.got - 2010.03.31 13:35:05.
