data_PCOD8129132
_publ_section_title
;
Structure prediction by ZEFSAII (Michael W. Deem and Ramdas Pophale) SiO2 
 PCOD8129132
Probable space group: P 21/C
;
_chemical_formula_sum "Si O2"
_cell_formula_units_Z 32
_cell_length_a 18.270280
_cell_length_b 11.454601
_cell_length_c 15.079016
_cell_angle_alpha 90.000000
_cell_angle_beta 29.213643
_cell_angle_gamma 90.000000
_cell_volume 1540.203343
_symmetry_space_group_name_H-M "P 21/C"
_symmetry_group_IT_number 14
_symmetry_cell_setting 'monoclinic'
loop_
_space_group_symop_operation_xyz
x,y,z
-x,1/2+y,1/2-z
-x,-y,-z
x,1/2-y,1/2+z
loop_
_atom_site_type_symbol
_atom_site_label
_atom_site_fract_x
_atom_site_fract_y
_atom_site_fract_z
Si Si1 0.607155 0.725668 0.708534
Si Si2 0.427142 0.526378 0.984865
Si Si3 0.093283 0.612866 0.372030
Si Si4 0.955207 0.739442 0.859749
Si Si5 0.892372 0.976436 0.533216
Si Si6 0.848254 0.234632 0.521200
Si Si7 0.510669 0.282599 0.851496
Si Si8 0.417429 0.381102 0.607530
O O1 0.546642 0.608696 0.813747
O O2 0.785855 0.723531 0.518992
O O3 0.541563 0.716288 0.679982
O O4 0.546267 0.836067 0.830902
O O5 0.425104 0.405738 0.933136
O O6 0.500000 0.500000 0.000000
O O7 0.262384 0.580019 0.167172
O O8 0.088233 0.705595 0.457264
O O9 0.000000 0.500000 0.500000
O O10 0.021086 0.670818 0.361799
O O11 0.040615 0.744488 0.677007
O O12 0.970908 0.605449 0.876505
O O13 0.758317 0.901731 0.716796
O O14 0.831811 0.095689 0.553725
O O15 0.000000 0.000000 0.500000
O O16 0.690189 0.292553 0.662899
O O17 0.461874 0.218619 0.992373
O O18 0.500000 0.500000 0.500000
#
# Coordination Sequence:
#
# PCOD8129132 Si02
#       8
#     4   4   4   4   4   4   4   4
#     4  11  27  44  69 106 137 183 232 286 348 414
#     4  12  24  47  73 100 142 183 238 288 346 420
#     4  12  27  45  72 101 142 186 232 293 352 412
#     4  11  28  45  69 104 145 180 234 286 349 418
#     4  11  25  45  71  99 139 182 228 282 344 410
#     4  12  26  46  71 106 138 184 233 284 350 417
#     4  12  27  45  74 103 138 185 232 288 350 411
#     4  11  24  45  69  98 139 177 231 284 340 404
#
# _framework density 20.776475999999999
#
# number of rings (size 3 to 8) (size 9 to 14) (size 15 to 20)
#    0.000    0.500    5.000    1.500    8.750    2.000 
#    0.000    0.000    0.000    0.000    0.000    0.000 
#    0.000    0.000    0.000    0.000    0.000    0.000 
#
# Total GULP energy -396858.185827 kJ/mol
# GULP energy per Si atom -12401.818307 kJ/mol
# Density = 2.072919 g / cm^3
# Si number density = 20.776476 Si / 1000 Ang^3
#
#
#
# Elastic Constant Matrix: (Units=GPa)
#
#
# Indices 1 2 3 4 5 6 
#
# 1 94.5894 5.5705 38.8328 0.0000 4.8793 0.0000
# 2 5.5705 108.8326 44.2422 0.0000 5.7243 0.0000
# 3 38.8328 44.2422 133.7499 0.0000 17.8856 0.0000
# 4 0.0000 0.0000 0.0000 36.5269 0.0000 -4.7756
# 5 4.8793 5.7243 17.8856 0.0000 25.6280 0.0000
# 6 0.0000 0.0000 0.0000 -4.7756 0.0000 28.9868
#
#
#
# Elastic Compliance Matrix: (Units=1/GPa)
#
#
# Indices 1 2 3 4 5 6 
#
# 1 0.012085 0.000934 -0.003840 0.000000 0.000171 0.000000
# 2 0.000934 0.010688 -0.003820 0.000000 0.000101 0.000000
# 3 -0.003840 -0.003820 0.010636 0.000000 -0.005838 0.000000
# 4 0.000000 0.000000 0.000000 0.027980 0.000000 0.004610
# 5 0.000171 0.000101 -0.005838 0.000000 0.043039 0.000000
# 6 0.000000 0.000000 0.000000 0.004610 0.000000 0.035258
#
#
# Mechanical properties :
#
#
# Convention : Reuss Voigt Hill
#
# Bulk Modulus (GPa) = 50.11151 57.16255 53.63703
# Shear Modulus (GPa) = 31.29076 34.79675 33.04376
#
# Velocity S-wave (km/s) = 3.88502 4.09689 3.99236
# Velocity P-wave (km/s) = 6.65554 7.06769 6.86471
#
# Compressibility (1/GPa) = 0.01995550
#
# Stress axis : x y z
#
# Youngs Moduli (GPa) = 82.74821 93.56073 94.02038
#
# Poissons Ratio (x) = -0.08735 0.36107
# Poissons Ratio (y) = -0.07726 0.35916
# Poissons Ratio (z) = 0.31778 0.35741
#
# Static dielectric constant tensor:
#      x y z
#    x 3.723610 0.000000 0.424770 
#    y 0.000000 4.059260 0.000000 
#    z 0.424770 0.000000 3.325450 
# 
# 
# High freq. dielectric constant tensor:
#      x y z
#    x 1.821090 0.000000 0.002480 
#    y 0.000000 1.829630 0.000000 
#    z 0.002480 0.000000 1.829080 
# 
# From -- ./inp_files/48987.got.cif
#   From: 2010.03.12/outbox.cif.g09.slc.cpg/sg14_25_cif.got.tgz:48987.got - 2010.03.31 13:35:05.
