data_PCOD8129572
_publ_section_title
;
Structure prediction by ZEFSAII (Michael W. Deem and Ramdas Pophale) SiO2 
 PCOD8129572
Probable space group: C 2/C
;
_chemical_formula_sum "Si O2"
_cell_formula_units_Z 30
_cell_length_a 18.000000
_cell_length_b 18.000000
_cell_length_c 18.000000
_cell_angle_alpha 90.000000
_cell_angle_beta 30.000000
_cell_angle_gamma 90.000000
_cell_volume 2916.000000
_symmetry_space_group_name_H-M "C 2/C"
_symmetry_group_IT_number 15
_symmetry_cell_setting 'monoclinic'
loop_
_space_group_symop_operation_xyz
x,y,z
-x,y,1/2-z
-x,-y,-z
x,-y,1/2+z
1/2+x,1/2+y,z
1/2-x,1/2+y,1/2-z
1/2-x,1/2-y,-z
1/2+x,1/2-y,1/2+z
loop_
_atom_site_type_symbol
_atom_site_label
_atom_site_fract_x
_atom_site_fract_y
_atom_site_fract_z
Si Si1 0.582196 0.492495 0.287841
Si Si2 0.361341 0.181498 0.417800
Si Si3 0.832883 0.142839 0.214317
Si Si4 0.266767 0.478971 0.499082
Si Si5 0.107547 0.858180 0.374599
Si Si6 0.388582 0.193075 0.704637
Si Si7 0.000000 0.401513 0.250000
Si Si8 0.536820 0.803742 0.914520
O O1 0.657908 0.571208 0.241500
O O2 0.400589 0.493918 0.442608
O O3 0.637740 0.427033 0.294082
O O4 0.653723 0.475355 0.147908
O O5 0.500000 0.206809 0.250000
O O6 0.250000 0.250000 0.500000
O O7 0.302787 0.103755 0.433177
O O8 0.415381 0.171004 0.457700
O O9 0.855068 0.218192 0.245643
O O10 0.682777 0.144528 0.294117
O O11 0.956483 0.127401 0.046978
O O12 0.142649 0.544517 0.613863
O O13 0.236862 0.852544 0.324645
O O14 0.092119 0.779408 0.344806
O O15 0.474593 0.153537 0.699929
O O16 0.473799 0.190366 0.552551
#
# Coordination Sequence:
#
# PCOD8129572 Si02
#       8
#     8   8   8   8   8   8   4   8
#     4  11  23  41  65  93 137 180 222 276 350 395
#     4  12  28  44  72 102 136 183 218 274 348 411
#     4  10  22  40  65  99 124 181 228 283 326 404
#     4  11  26  42  62  98 140 169 226 285 328 420
#     4  10  21  39  65  92 130 169 222 276 337 408
#     4  10  23  42  68  94 134 176 231 289 332 405
#     4  12  24  46  66  94 134 180 226 290 356 382
#     4  10  23  42  66  98 134 168 228 277 332 412
#
# _framework density 10.288066000000001
#
# number of rings (size 3 to 8) (size 9 to 14) (size 15 to 20)
#    0.000    1.333    0.667    3.600   11.200    2.133 
#    0.000   10.000    0.000    0.000    0.000    0.000 
#    0.000    0.000    0.000    0.000    0.000    0.000 
#
# Total GULP energy -371713.003764 kJ/mol
# GULP energy per Si atom -12390.433459 kJ/mol
# Density = 1.026465 g / cm^3
# Si number density = 10.288066 Si / 1000 Ang^3
#
#
#
# Elastic Constant Matrix: (Units=GPa)
#
#
# Indices 1 2 3 4 5 6 
#
# 1 142.9642 59.4620 32.5083 0.0035 -10.2289 -0.0019
# 2 59.4620 154.0461 29.1940 0.0078 -7.9912 -0.0175
# 3 32.5083 29.1940 94.4527 0.0159 -11.6901 -0.0350
# 4 0.0035 0.0078 0.0159 27.4700 -0.0060 8.8278
# 5 -10.2289 -7.9912 -11.6901 -0.0060 35.0819 0.0075
# 6 -0.0019 -0.0175 -0.0350 8.8278 0.0075 25.2101
#
#
#
# Elastic Compliance Matrix: (Units=1/GPa)
#
#
# Indices 1 2 3 4 5 6 
#
# 1 0.008751 -0.002945 -0.001949 0.000003 0.001231 -0.000005
# 2 -0.002945 0.007913 -0.001372 -0.000002 0.000487 0.000004
# 3 -0.001949 -0.001372 0.012071 -0.000012 0.003141 0.000019
# 4 0.000003 -0.000002 -0.000012 0.041019 0.000007 -0.014364
# 5 0.001231 0.000487 0.003141 0.000007 0.030021 -0.000006
# 6 -0.000005 0.000004 0.000019 -0.014364 -0.000006 0.044696
#
#
# Mechanical properties :
#
#
# Convention : Reuss Voigt Hill
#
# Bulk Modulus (GPa) = 61.71606 70.42128 66.06867
# Shear Modulus (GPa) = 30.78706 35.57232 33.17969
#
# Velocity S-wave (km/s) = 3.87234 4.16241 4.01999
# Velocity P-wave (km/s) = 7.07478 7.57627 7.32982
#
# Compressibility (1/GPa) = 0.01620324
#
# Stress axis : x y z
#
# Youngs Moduli (GPa) = 114.27533 126.36679 82.84199
#
# Poissons Ratio (x) = 0.37209 0.16149
# Poissons Ratio (y) = 0.33649 0.11368
# Poissons Ratio (z) = 0.22276 0.17341
#
# Static dielectric constant tensor:
#      x y z
#    x 4.200060 -0.000050 -0.336280 
#    y -0.000050 4.896700 0.000030 
#    z -0.336280 0.000030 3.922150 
# 
# 
# High freq. dielectric constant tensor:
#      x y z
#    x 1.820850 0.000000 -0.014810 
#    y 0.000000 1.829070 0.000000 
#    z -0.014810 0.000000 1.822060 
# 
# From -- ./inp_files/211738.got.cif
#   From: 2010.06.25/outbox.ucp.g09.slc.cvg/sg15_106_cif.got.tgz:211738.got - 2010.06.28 14:40:10.
