data_PCOD8129360
_publ_section_title
;
Structure prediction by ZEFSAII (Michael W. Deem and Ramdas Pophale) SiO2 
 PCOD8129360
Probable space group: P 21/C
;
_chemical_formula_sum "Si O2"
_cell_formula_units_Z 28
_cell_length_a 12.748702
_cell_length_b 16.002154
_cell_length_c 8.522245
_cell_angle_alpha 90.000000
_cell_angle_beta 133.929262
_cell_angle_gamma 90.000000
_cell_volume 1252.130715
_symmetry_space_group_name_H-M "P 21/C"
_symmetry_group_IT_number 14
_symmetry_cell_setting 'monoclinic'
loop_
_space_group_symop_operation_xyz
x,y,z
-x,1/2+y,1/2-z
-x,-y,-z
x,1/2-y,1/2+z
loop_
_atom_site_type_symbol
_atom_site_label
_atom_site_fract_x
_atom_site_fract_y
_atom_site_fract_z
Si Si1 0.136569 0.657158 0.171027
Si Si2 0.798007 0.835419 0.274614
Si Si3 0.762235 0.996088 0.402418
Si Si4 0.193839 0.825206 0.084296
Si Si5 0.920673 0.922709 0.845227
Si Si6 0.706258 0.669842 0.332816
Si Si7 0.425531 0.571520 0.023341
O O1 0.163956 0.568853 0.119559
O O2 0.216375 0.728167 0.149527
O O3 0.215032 0.659362 0.421660
O O4 0.964042 0.670639 0.005618
O O5 0.714840 0.921930 0.234521
O O6 0.705012 0.760906 0.253984
O O7 0.797786 0.827162 0.087213
O O8 0.884670 0.949933 0.632183
O O9 0.632804 0.030964 0.375973
O O10 0.297546 0.886495 0.289772
O O11 0.026909 0.843554 0.958267
O O12 0.775764 0.898986 0.789134
O O13 0.000000 0.000000 0.000000
O O14 0.540044 0.643121 0.190025
O O15 0.500000 0.500000 0.000000
#
# Coordination Sequence:
#
# PCOD8129360 Si02
#       7
#     4   4   4   4   4   4   4
#     4  12  26  45  76 115 143 186 252 311 366 422
#     4  12  26  46  77 109 147 188 248 301 364 435
#     4  12  26  45  73 112 145 186 242 307 364 428
#     4  12  26  46  75 107 148 191 244 308 363 430
#     4  12  22  43  76 103 141 191 241 303 357 414
#     4  12  27  47  73 105 147 198 238 294 362 442
#     4  12  28  50  74 104 149 193 242 294 366 445
#
# _framework density 22.361881
#
# number of rings (size 3 to 8) (size 9 to 14) (size 15 to 20)
#    0.000    0.000    5.714    3.857    4.000    2.857 
#    0.000    0.000    0.000    0.000    0.000    0.000 
#    0.000    0.000    0.000    0.000    0.000    0.000 
#
# Total GULP energy -347319.453647 kJ/mol
# GULP energy per Si atom -12404.266202 kJ/mol
# Density = 2.231098 g / cm^3
# Si number density = 22.361881 Si / 1000 Ang^3
#
#
#
# Elastic Constant Matrix: (Units=GPa)
#
#
# Indices 1 2 3 4 5 6 
#
# 1 98.8185 59.7452 41.4039 0.0000 -6.9055 0.0000
# 2 59.7452 161.6855 31.8575 0.0000 -6.9479 0.0000
# 3 41.4039 31.8575 74.4334 0.0000 -14.8386 0.0000
# 4 0.0000 0.0000 0.0000 27.3877 0.0000 -5.5105
# 5 -6.9055 -6.9479 -14.8386 0.0000 43.0427 0.0000
# 6 0.0000 0.0000 0.0000 -5.5105 0.0000 55.8062
#
#
#
# Elastic Compliance Matrix: (Units=1/GPa)
#
#
# Indices 1 2 3 4 5 6 
#
# 1 0.015674 -0.004451 -0.006932 0.000000 -0.000594 0.000000
# 2 -0.004451 0.008019 -0.000902 0.000000 0.000269 0.000000
# 3 -0.006932 -0.000902 0.018712 0.000000 0.005193 0.000000
# 4 0.000000 0.000000 0.000000 0.037253 0.000000 0.003678
# 5 -0.000594 0.000269 0.005193 0.000000 0.024971 0.000000
# 6 0.000000 0.000000 0.000000 0.003678 0.000000 0.018282
#
#
# Mechanical properties :
#
#
# Convention : Reuss Voigt Hill
#
# Bulk Modulus (GPa) = 56.07301 66.77228 61.42265
# Shear Modulus (GPa) = 32.58881 38.70938 35.64909
#
# Velocity S-wave (km/s) = 3.82165 4.16509 3.99706
# Velocity P-wave (km/s) = 6.67855 7.28391 6.98779
#
# Compressibility (1/GPa) = 0.01783389
#
# Stress axis : x y z
#
# Youngs Moduli (GPa) = 63.80123 124.70280 53.44136
#
# Poissons Ratio (x) = 0.55510 0.37044
# Poissons Ratio (y) = 0.28400 0.04823
# Poissons Ratio (z) = 0.44225 0.11253
#
# Static dielectric constant tensor:
#      x y z
#    x 3.234700 0.000000 0.008030 
#    y 0.000000 3.874410 0.000000 
#    z 0.008030 0.000000 3.901200 
# 
# 
# High freq. dielectric constant tensor:
#      x y z
#    x 1.880020 0.000000 -0.014580 
#    y 0.000000 1.905790 0.000000 
#    z -0.014580 0.000000 1.878290 
# 
# From -- ./inp_files/16434.got.cif
#   From: 2010.03.12/outbox.cif.g09.slc.cpg/sg14_9_cif.got.tgz:16434.got - 2010.03.31 13:35:05.
