data_PCOD8129727
_publ_section_title
;
Structure prediction by ZEFSAII (Michael W. Deem and Ramdas Pophale) SiO2 
 PCOD8129727
Probable space group: C 2/C
;
_chemical_formula_sum "Si O2"
_cell_formula_units_Z 48
_cell_length_a 29.389739
_cell_length_b 13.933567
_cell_length_c 5.316999
_cell_angle_alpha 90.000000
_cell_angle_beta 111.097975
_cell_angle_gamma 90.000000
_cell_volume 2031.377113
_symmetry_space_group_name_H-M "C 2/C"
_symmetry_group_IT_number 15
_symmetry_cell_setting 'monoclinic'
loop_
_space_group_symop_operation_xyz
x,y,z
-x,y,1/2-z
-x,-y,-z
x,-y,1/2+z
1/2+x,1/2+y,z
1/2-x,1/2+y,1/2-z
1/2-x,1/2-y,-z
1/2+x,1/2-y,1/2+z
loop_
_atom_site_type_symbol
_atom_site_label
_atom_site_fract_x
_atom_site_fract_y
_atom_site_fract_z
Si Si1 0.302988 0.396114 0.350259
Si Si2 0.238063 0.889276 0.731792
Si Si3 0.894281 0.394642 0.524157
Si Si4 0.500000 0.832980 0.750000
Si Si5 0.146717 0.609005 0.057336
Si Si6 0.500000 0.291389 0.750000
Si Si7 0.914506 0.939457 0.578869
O O1 0.280114 0.339445 0.544556
O O2 0.280888 0.501954 0.280833
O O3 0.360730 0.396060 0.490787
O O4 0.286688 0.340033 0.062994
O O5 0.295604 0.886310 0.821947
O O6 0.871638 0.500038 0.483151
O O7 0.875310 0.339572 0.737536
O O8 0.952743 0.400798 0.633134
O O9 0.874267 0.339426 0.235557
O O10 0.505732 0.770425 0.512041
O O11 0.452096 0.354362 0.688828
O O12 0.922985 0.986642 0.323633
#
# Coordination Sequence:
#
# PCOD8129727 Si02
#       7
#     8   8   8   4   8   4   8
#     4  10  16  27  49  82 121 144 163 214 294 361
#     4  10  16  28  48  88 131 138 169 216 306 352
#     4  10  20  35  57  81 120 150 202 241 286 338
#     4  12  26  45  57  80 112 168 206 238 292 340
#     4  10  19  32  57  97 115 152 187 246 291 324
#     4  12  28  43  61  82 114 158 202 246 290 358
#     4  12  21  40  62  92 116 143 189 245 310 345
#
# _framework density 23.629290999999998
#
# number of rings (size 3 to 8) (size 9 to 14) (size 15 to 20)
#    0.000    1.333    3.333    7.500    0.000    2.667 
#    0.000    0.000    0.000    0.000    0.000   39.667 
#    0.000    0.000    0.000    0.000    0.000    0.000 
#
# Total GULP energy -297488.300201 kJ/mol
# GULP energy per Si atom -12395.345842 kJ/mol
# Density = 2.357551 g / cm^3
# Si number density = 23.629291 Si / 1000 Ang^3
#
#
#
# Elastic Constant Matrix: (Units=GPa)
#
#
# Indices 1 2 3 4 5 6 
#
# 1 114.2631 0.6133 48.0817 0.0000 -15.4678 0.0000
# 2 0.6133 13.5939 6.5191 0.0000 -2.6698 0.0000
# 3 48.0817 6.5191 176.4979 0.0000 -30.8875 0.0000
# 4 0.0000 0.0000 0.0000 10.7865 0.0000 -5.8050
# 5 -15.4678 -2.6698 -30.8875 0.0000 52.7098 0.0000
# 6 0.0000 0.0000 0.0000 -5.8050 0.0000 -4.2669
#
#
#
# Elastic Compliance Matrix: (Units=1/GPa)
#
#
# Indices 1 2 3 4 5 6 
#
# 1 0.010003 0.001046 -0.002497 0.000000 0.001525 0.000000
# 2 0.001046 0.075276 -0.002612 0.000000 0.002589 0.000000
# 3 -0.002497 -0.002612 0.007010 0.000000 0.003243 0.000000
# 4 0.000000 0.000000 0.000000 0.053522 0.000000 -0.072815
# 5 0.001525 0.002589 0.003243 0.000000 0.021451 0.000000
# 6 0.000000 0.000000 0.000000 -0.072815 0.000000 -0.135301
#
#
# Mechanical properties :
#
#
# Convention : Reuss Voigt Hill
#
# Bulk Modulus (GPa) = 11.88170 46.08701 28.98435
# Shear Modulus (GPa) = 73.37655 28.45528 50.91591
#
# Velocity S-wave (km/s) = 5.57859 3.47398 4.64700
# Velocity P-wave (km/s) = 6.82154 5.96975 6.40981
#
# Compressibility (1/GPa) = 0.08416301
#
# Stress axis : x y z
#
# Youngs Moduli (GPa) = 99.96757 13.28436 142.65459
#
# Poissons Ratio (x) = -0.01389 0.35618
# Poissons Ratio (y) = -0.10453 0.37264
# Poissons Ratio (z) = 0.24960 0.03470
#
# Static dielectric constant tensor:
#      x y z
#    x 5.469750 0.000000 -2.032530 
#    y 0.000000 2.961470 0.000000 
#    z -2.032530 0.000000 7.984020 
# 
# 
# High freq. dielectric constant tensor:
#      x y z
#    x 1.959250 0.000000 -0.011900 
#    y 0.000000 1.876970 0.000000 
#    z -0.011900 0.000000 1.978880 
# 
# From -- ./inp_files/18262.got.cif
#   From: 2010.06.25/outbox.cif.g09.slc.cpg/sg15_10_cif.got.tgz:18262.got - 2010.06.28 07:06:18.
