data_PCOD8129651
_publ_section_title
;
Structure prediction by ZEFSAII (Michael W. Deem and Ramdas Pophale) SiO2 
 PCOD8129651
Probable space group: C 2/C
;
_chemical_formula_sum "Si O2"
_cell_formula_units_Z 40
_cell_length_a 18.381567
_cell_length_b 7.811671
_cell_length_c 24.800693
_cell_angle_alpha 90.000000
_cell_angle_beta 31.105958
_cell_angle_gamma 90.000000
_cell_volume 1839.769846
_symmetry_space_group_name_H-M "C 2/C"
_symmetry_group_IT_number 15
_symmetry_cell_setting 'monoclinic'
loop_
_space_group_symop_operation_xyz
x,y,z
-x,y,1/2-z
-x,-y,-z
x,-y,1/2+z
1/2+x,1/2+y,z
1/2-x,1/2+y,1/2-z
1/2-x,1/2-y,-z
1/2+x,1/2-y,1/2+z
loop_
_atom_site_type_symbol
_atom_site_label
_atom_site_fract_x
_atom_site_fract_y
_atom_site_fract_z
Si Si1 0.354005 0.646628 0.321296
Si Si2 0.850734 0.932973 0.615305
Si Si3 0.655103 0.951126 0.646141
Si Si4 0.859622 0.708408 0.710747
Si Si5 0.830002 0.415875 0.470593
O O1 0.500000 0.568414 0.250000
O O2 0.346060 0.848824 0.337763
O O3 0.341142 0.631202 0.264468
O O4 0.230799 0.542518 0.431134
O O5 0.870170 0.774259 0.643153
O O6 0.763996 0.862575 0.618328
O O7 0.771086 0.080782 0.699108
O O8 0.000000 0.000000 0.500000
O O9 0.500000 0.868805 0.750000
O O10 0.701782 0.934972 0.553475
O O11 0.002894 0.608499 0.633700
O O12 0.750000 0.250000 0.500000
#
# Coordination Sequence:
#
# PCOD8129651 Si02
#       5
#     8   8   8   8   8
#     4   9  15  25  48  81 109 136 188 248 288 336
#     4  11  23  37  60  92 125 161 201 253 312 363
#     4   9  15  31  54  82 104 151 200 239 291 355
#     4  11  20  36  56  91 124 155 198 257 307 363
#     4  10  15  28  54  84 109 141 206 254 288 344
#
# _framework density 21.741848999999998
#
# number of rings (size 3 to 8) (size 9 to 14) (size 15 to 20)
#    0.000    2.000    8.000    3.600    0.000    0.000 
#    0.000    4.000    0.000    2.400    0.000    0.000 
#    0.000    0.000    0.000    0.000    0.000    0.000 
#
# Total GULP energy -247793.296229 kJ/mol
# GULP energy per Si atom -12389.664811 kJ/mol
# Density = 2.169236 g / cm^3
# Si number density = 21.741849 Si / 1000 Ang^3
#
#
#
# Elastic Constant Matrix: (Units=GPa)
#
#
# Indices 1 2 3 4 5 6 
#
# 1 149.9652 15.6028 44.9669 0.0004 7.9514 0.0010
# 2 15.6028 15.6698 7.9420 -0.0011 0.9402 -0.0025
# 3 44.9669 7.9420 139.9068 0.0016 3.4823 -0.0021
# 4 0.0004 -0.0011 0.0016 17.5815 0.0002 6.1418
# 5 7.9514 0.9402 3.4823 0.0002 42.5549 -0.0003
# 6 0.0010 -0.0025 -0.0021 6.1418 -0.0003 22.4595
#
#
#
# Elastic Compliance Matrix: (Units=1/GPa)
#
#
# Indices 1 2 3 4 5 6 
#
# 1 0.008103 -0.006890 -0.002184 0.000000 -0.001183 -0.000001
# 2 -0.006890 0.071623 -0.001848 0.000002 -0.000144 0.000007
# 3 -0.002184 -0.001848 0.007959 -0.000001 -0.000202 0.000001
# 4 0.000000 0.000002 -0.000001 0.062885 0.000000 -0.017197
# 5 -0.001183 -0.000144 -0.000202 0.000000 0.023740 0.000000
# 6 -0.000001 0.000007 0.000001 -0.017197 0.000000 0.049227
#
#
# Mechanical properties :
#
#
# Convention : Reuss Voigt Hill
#
# Bulk Modulus (GPa) = 15.18796 49.17390 32.18093
# Shear Modulus (GPa) = 18.70369 32.32121 25.51245
#
# Velocity S-wave (km/s) = 2.93620 3.85981 3.42925
# Velocity P-wave (km/s) = 4.30068 6.52154 5.52387
#
# Compressibility (1/GPa) = 0.06584165
#
# Stress axis : x y z
#
# Youngs Moduli (GPa) = 123.41747 13.96207 125.63802
#
# Poissons Ratio (x) = 0.09620 0.27435
# Poissons Ratio (y) = 0.85037 0.23213
# Poissons Ratio (z) = 0.26950 0.02580
#
# Static dielectric constant tensor:
#      x y z
#    x 4.398080 -0.000160 0.021500 
#    y -0.000160 2.680020 -0.000190 
#    z 0.021500 -0.000190 3.711120 
# 
# 
# High freq. dielectric constant tensor:
#      x y z
#    x 1.870660 0.000000 0.013630 
#    y 0.000000 1.768670 0.000000 
#    z 0.013630 0.000000 1.872770 
# 
# From -- ./inp_files/298265.got.cif
#   From: 2010.06.25/outbox.cif.g09.slc.cpg/sg15_150_cif.got.tgz:298265.got - 2010.06.28 07:06:18.
