data_PCOD8129779
_publ_section_title
;
Structure prediction by ZEFSAII (Michael W. Deem and Ramdas Pophale) SiO2 
 PCOD8129779
Probable space group: C 2/C
;
_chemical_formula_sum "Si O2"
_cell_formula_units_Z 64
_cell_length_a 13.294825
_cell_length_b 15.928127
_cell_length_c 17.714229
_cell_angle_alpha 90.000000
_cell_angle_beta 78.528717
_cell_angle_gamma 90.000000
_cell_volume 3676.262593
_symmetry_space_group_name_H-M "C 2/C"
_symmetry_group_IT_number 15
_symmetry_cell_setting 'monoclinic'
loop_
_space_group_symop_operation_xyz
x,y,z
-x,y,1/2-z
-x,-y,-z
x,-y,1/2+z
1/2+x,1/2+y,z
1/2-x,1/2+y,1/2-z
1/2-x,1/2-y,-z
1/2+x,1/2-y,1/2+z
loop_
_atom_site_type_symbol
_atom_site_label
_atom_site_fract_x
_atom_site_fract_y
_atom_site_fract_z
Si Si1 0.752164 0.463301 0.150133
Si Si2 0.412349 0.474967 0.708823
Si Si3 0.741338 0.384938 0.857252
Si Si4 0.408303 0.062567 0.211602
Si Si5 0.441405 0.247260 0.160975
Si Si6 0.458746 0.399093 0.071517
Si Si7 0.167070 0.023073 0.503967
Si Si8 0.669463 0.716026 0.679871
O O1 0.678807 0.497068 0.224830
O O2 0.867124 0.492795 0.158068
O O3 0.725198 0.501565 0.072262
O O4 0.736953 0.363982 0.147839
O O5 0.500000 0.438681 0.750000
O O6 0.373183 0.401056 0.659278
O O7 0.450694 0.553778 0.653772
O O8 0.822904 0.415602 0.784819
O O9 0.761259 0.287590 0.869345
O O10 0.749973 0.437040 0.933996
O O11 0.500000 0.026741 0.250000
O O12 0.443503 0.145547 0.157990
O O13 0.426505 0.300284 0.085503
O O14 0.344594 0.273482 0.227983
O O15 0.552560 0.281917 0.169223
O O16 0.576890 0.408151 0.028562
O O17 0.381794 0.437480 0.021261
#
# Coordination Sequence:
#
# PCOD8129779 Si02
#       8
#     8   8   8   8   8   8   8   8
#     4  11  20  31  54  80 106 135 175 219 261 313
#     4  10  16  29  51  76 103 131 170 218 263 305
#     4   9  20  32  49  76 107 133 169 223 264 307
#     4  10  20  37  56  76 101 139 185 225 251 299
#     4  10  16  32  57  76  96 133 187 220 242 301
#     4  10  18  30  51  79 108 136 166 214 266 319
#     4  10  20  31  47  82 116 132 159 214 285 321
#     4  10  17  31  53  78  97 129 186 221 249 297
#
# _framework density 17.408985000000001
#
# number of rings (size 3 to 8) (size 9 to 14) (size 15 to 20)
#    0.000    2.000    6.250    0.000    0.000    0.500 
#    0.000    1.875    0.000    0.000    0.000    0.000 
#    0.000    0.000    0.000    0.000    0.000    0.000 
#
# Total GULP energy -396419.874369 kJ/mol
# GULP energy per Si atom -12388.121074 kJ/mol
# Density = 1.736936 g / cm^3
# Si number density = 17.408985 Si / 1000 Ang^3
#
#
#
# Elastic Constant Matrix: (Units=GPa)
#
#
# Indices 1 2 3 4 5 6 
#
# 1 75.9472 43.9087 18.3516 0.0000 18.7507 0.0000
# 2 43.9087 79.7481 21.9653 0.0000 6.0639 0.0000
# 3 18.3516 21.9653 56.3685 0.0000 11.3315 0.0000
# 4 0.0000 0.0000 0.0000 29.1633 0.0000 -2.8565
# 5 18.7507 6.0639 11.3315 0.0000 25.2744 0.0000
# 6 0.0000 0.0000 0.0000 -2.8565 0.0000 24.1870
#
#
#
# Elastic Compliance Matrix: (Units=1/GPa)
#
#
# Indices 1 2 3 4 5 6 
#
# 1 0.023698 -0.011897 -0.000131 0.000000 -0.014668 0.000000
# 2 -0.011897 0.020043 -0.005214 0.000000 0.006355 0.000000
# 3 -0.000131 -0.005214 0.021480 0.000000 -0.008282 0.000000
# 4 0.000000 0.000000 0.000000 0.034691 0.000000 0.004097
# 5 -0.014668 0.006355 -0.008282 0.000000 0.052636 0.000000
# 6 0.000000 0.000000 0.000000 0.004097 0.000000 0.041828
#
#
# Mechanical properties :
#
#
# Convention : Reuss Voigt Hill
#
# Bulk Modulus (GPa) = 32.53424 42.27942 37.40683
# Shear Modulus (GPa) = 20.91124 24.24749 22.57937
#
# Velocity S-wave (km/s) = 3.46956 3.73609 3.60529
# Velocity P-wave (km/s) = 5.89739 6.55362 6.23414
#
# Compressibility (1/GPa) = 0.03073685
#
# Stress axis : x y z
#
# Youngs Moduli (GPa) = 42.19741 49.89352 46.55524
#
# Poissons Ratio (x) = 0.59356 0.00609
# Poissons Ratio (y) = 0.50201 0.24276
# Poissons Ratio (z) = 0.00552 0.26017
#
# Static dielectric constant tensor:
#      x y z
#    x 3.423800 0.000000 0.066890 
#    y 0.000000 3.394460 0.000000 
#    z 0.066890 0.000000 3.366760 
# 
# 
# High freq. dielectric constant tensor:
#      x y z
#    x 1.653550 0.000000 -0.003890 
#    y 0.000000 1.651290 0.000000 
#    z -0.003890 0.000000 1.668580 
# 
# From -- ./inp_files/199197.got.cif
#   From: 2010.06.25/outbox.cif.g09.slc.cpg/sg15_100_cif.got.tgz:199197.got - 2010.06.28 07:06:18.
