data_PCOD8129149
_publ_section_title
;
Structure prediction by ZEFSAII (Michael W. Deem and Ramdas Pophale) SiO2 
 PCOD8129149
Probable space group: P 21/C
;
_chemical_formula_sum "Si O2"
_cell_formula_units_Z 28
_cell_length_a 18.803856
_cell_length_b 13.969571
_cell_length_c 8.765544
_cell_angle_alpha 90.000000
_cell_angle_beta 31.909265
_cell_angle_gamma 90.000000
_cell_volume 1217.071185
_symmetry_space_group_name_H-M "P 21/C"
_symmetry_group_IT_number 14
_symmetry_cell_setting 'monoclinic'
loop_
_space_group_symop_operation_xyz
x,y,z
-x,1/2+y,1/2-z
-x,-y,-z
x,1/2-y,1/2+z
loop_
_atom_site_type_symbol
_atom_site_label
_atom_site_fract_x
_atom_site_fract_y
_atom_site_fract_z
Si Si1 0.169095 0.969298 0.310008
Si Si2 0.394120 0.875665 0.327966
Si Si3 0.081193 0.145115 0.280006
Si Si4 0.470851 0.534061 0.222176
Si Si5 0.844709 0.508804 0.824086
Si Si6 0.493903 0.216139 0.185916
Si Si7 0.204363 0.203753 0.743926
O O1 0.137706 0.043272 0.232501
O O2 0.159913 0.022596 0.487331
O O3 0.073365 0.875463 0.484165
O O4 0.317862 0.931978 0.014749
O O5 0.395835 0.792273 0.453860
O O6 0.491631 0.958306 0.214832
O O7 0.243868 0.917469 0.573531
O O8 0.454174 0.831936 0.063674
O O9 0.084675 0.227654 0.401609
O O10 0.172696 0.182853 0.976345
O O11 0.544237 0.634100 0.120012
O O12 0.500000 0.500000 0.000000
O O13 0.783481 0.603852 0.865592
O O14 0.000000 0.500000 0.500000
O O15 0.343685 0.262466 0.452924
#
# Coordination Sequence:
#
# PCOD8129149 Si02
#       7
#     4   4   4   4   4   4   4
#     4  11  24  46  68 105 142 189 238 300 358 426
#     4  12  26  47  71 111 145 190 241 309 362 436
#     4  11  25  43  71 103 145 185 249 294 358 433
#     4  12  24  44  74 105 144 186 235 303 361 425
#     4  12  25  47  73 100 149 191 243 292 368 432
#     4  12  24  44  74 106 147 187 246 298 368 431
#     4  12  23  45  73 106 141 200 241 296 361 439
#
# _framework density 23.006050999999999
#
# number of rings (size 3 to 8) (size 9 to 14) (size 15 to 20)
#    0.000    0.286    4.286    5.571    0.000    1.143 
#    0.000    0.000    0.000    0.000    0.000    0.000 
#    0.000    0.000    0.000    0.000    0.000    0.000 
#
# Total GULP energy -347155.726127 kJ/mol
# GULP energy per Si atom -12398.418790 kJ/mol
# Density = 2.295369 g / cm^3
# Si number density = 23.006051 Si / 1000 Ang^3
#
#
#
# Elastic Constant Matrix: (Units=GPa)
#
#
# Indices 1 2 3 4 5 6 
#
# 1 119.6238 42.7692 52.5768 0.0000 -4.3628 0.0000
# 2 42.7692 106.2639 20.6293 0.0000 -3.7105 0.0000
# 3 52.5768 20.6293 130.1292 0.0000 -14.4301 0.0000
# 4 0.0000 0.0000 0.0000 24.2470 0.0000 -1.4954
# 5 -4.3628 -3.7105 -14.4301 0.0000 34.8876 0.0000
# 6 0.0000 0.0000 0.0000 -1.4954 0.0000 59.5573
#
#
#
# Elastic Compliance Matrix: (Units=1/GPa)
#
#
# Indices 1 2 3 4 5 6 
#
# 1 0.011527 -0.003863 -0.004119 0.000000 -0.000673 0.000000
# 2 -0.003863 0.011010 -0.000113 0.000000 0.000641 0.000000
# 3 -0.004119 -0.000113 0.009756 0.000000 0.003508 0.000000
# 4 0.000000 0.000000 0.000000 0.041306 0.000000 0.001037
# 5 -0.000673 0.000641 0.003508 0.000000 0.030098 0.000000
# 6 0.000000 0.000000 0.000000 0.001037 0.000000 0.016817
#
#
# Mechanical properties :
#
#
# Convention : Reuss Voigt Hill
#
# Bulk Modulus (GPa) = 62.10969 65.32972 63.71971
# Shear Modulus (GPa) = 35.19326 39.74115 37.46721
#
# Velocity S-wave (km/s) = 3.91543 4.16074 4.03995
# Velocity P-wave (km/s) = 6.89177 7.17918 7.03695
#
# Compressibility (1/GPa) = 0.01610055
#
# Stress axis : x y z
#
# Youngs Moduli (GPa) = 86.75488 90.82852 102.50027
#
# Poissons Ratio (x) = 0.35088 0.42224
# Poissons Ratio (y) = 0.33514 0.01163
# Poissons Ratio (z) = 0.35738 0.01031
#
# Static dielectric constant tensor:
#      x y z
#    x 4.521700 0.000000 -0.175490 
#    y 0.000000 4.235480 0.000000 
#    z -0.175490 0.000000 4.000170 
# 
# 
# High freq. dielectric constant tensor:
#      x y z
#    x 1.932910 0.000000 -0.000520 
#    y 0.000000 1.909900 0.000000 
#    z -0.000520 0.000000 1.903780 
# 
# From -- ./inp_files/19047.got.cif
#   From: 2010.03.12/outbox.cif.g09.slc.cpg/sg14_10_cif.got.tgz:19047.got - 2010.03.31 13:35:05.
