data_PCOD8129410
_publ_section_title
;
Structure prediction by ZEFSAII (Michael W. Deem and Ramdas Pophale) SiO2 
 PCOD8129410
Probable space group: P 21/C
;
_chemical_formula_sum "Si O2"
_cell_formula_units_Z 20
_cell_length_a 9.084229
_cell_length_b 7.505319
_cell_length_c 23.122153
_cell_angle_alpha 90.000000
_cell_angle_beta 146.263124
_cell_angle_gamma 90.000000
_cell_volume 875.539113
_symmetry_space_group_name_H-M "P 21/C"
_symmetry_group_IT_number 14
_symmetry_cell_setting 'monoclinic'
loop_
_space_group_symop_operation_xyz
x,y,z
-x,1/2+y,1/2-z
-x,-y,-z
x,1/2-y,1/2+z
loop_
_atom_site_type_symbol
_atom_site_label
_atom_site_fract_x
_atom_site_fract_y
_atom_site_fract_z
Si Si1 0.683566 0.688783 0.161021
Si Si2 0.696105 0.477735 0.749715
Si Si3 0.875563 0.961259 0.897394
Si Si4 0.949583 0.142635 0.805591
Si Si5 0.918318 0.078515 0.534830
O O1 0.689819 0.851211 0.207358
O O2 0.876541 0.531845 0.244832
O O3 0.783033 0.767291 0.132372
O O4 0.393165 0.605925 0.060232
O O5 0.439092 0.490400 0.706269
O O6 0.709264 0.288014 0.720185
O O7 0.963004 0.455401 0.875863
O O8 0.928102 0.758541 0.900462
O O9 0.002017 0.086342 0.889363
O O10 0.000000 0.000000 0.000000
O O11 0.000000 0.000000 0.500000
#
# Coordination Sequence:
#
# PCOD8129410 Si02
#       5
#     4   4   4   4   4
#     4  12  26  50  73 110 153 201 248 311 382 450
#     4  12  25  48  74 107 152 195 257 310 370 448
#     4  12  24  45  75 110 144 197 251 311 371 445
#     4  12  27  48  76 110 154 198 249 315 377 455
#     4  12  26  46  76 112 151 199 258 311 377 448
#
# _framework density 22.843069
#
# number of rings (size 3 to 8) (size 9 to 14) (size 15 to 20)
#    0.000    0.000    6.000    4.800    0.000    1.600 
#    3.600    0.000    0.000    0.000    0.000    0.000 
#    0.000    0.000    0.000    0.000    0.000    0.000 
#
# Total GULP energy -247975.110178 kJ/mol
# GULP energy per Si atom -12398.755509 kJ/mol
# Density = 2.279108 g / cm^3
# Si number density = 22.843069 Si / 1000 Ang^3
#
#
#
# Elastic Constant Matrix: (Units=GPa)
#
#
# Indices 1 2 3 4 5 6 
#
# 1 161.6357 38.2450 63.4877 0.0000 22.1336 0.0000
# 2 38.2450 114.0868 23.4143 0.0000 11.1724 0.0000
# 3 63.4877 23.4143 116.5247 0.0000 6.6399 0.0000
# 4 0.0000 0.0000 0.0000 35.0302 0.0000 1.7280
# 5 22.1336 11.1724 6.6399 0.0000 31.9401 0.0000
# 6 0.0000 0.0000 0.0000 1.7280 0.0000 53.1454
#
#
#
# Elastic Compliance Matrix: (Units=1/GPa)
#
#
# Indices 1 2 3 4 5 6 
#
# 1 0.008887 -0.001648 -0.004243 0.000000 -0.004700 0.000000
# 2 -0.001648 0.009712 -0.000936 0.000000 -0.002060 0.000000
# 3 -0.004243 -0.000936 0.011026 0.000000 0.000976 0.000000
# 4 0.000000 0.000000 0.000000 0.028593 0.000000 -0.000930
# 5 -0.004700 -0.002060 0.000976 0.000000 0.035083 0.000000
# 6 0.000000 0.000000 0.000000 -0.000930 0.000000 0.018847
#
#
# Mechanical properties :
#
#
# Convention : Reuss Voigt Hill
#
# Bulk Modulus (GPa) = 62.61606 71.39346 67.00476
# Shear Modulus (GPa) = 38.13160 41.82981 39.98070
#
# Velocity S-wave (km/s) = 4.09012 4.28387 4.18812
# Velocity P-wave (km/s) = 7.05524 7.46930 7.26522
#
# Compressibility (1/GPa) = 0.01597034
#
# Stress axis : x y z
#
# Youngs Moduli (GPa) = 112.52605 102.96936 90.69366
#
# Poissons Ratio (x) = 0.16970 0.38481
# Poissons Ratio (y) = 0.18545 0.08490
# Poissons Ratio (z) = 0.47744 0.09639
#
# Static dielectric constant tensor:
#      x y z
#    x 4.437600 0.000000 -0.048320 
#    y 0.000000 3.221230 0.000000 
#    z -0.048320 0.000000 4.001310 
# 
# 
# High freq. dielectric constant tensor:
#      x y z
#    x 1.912000 0.000000 0.001230 
#    y 0.000000 1.937060 0.000000 
#    z 0.001230 0.000000 1.883240 
# 
# From -- ./inp_files/72114.got.cif
#   From: 2010.03.12/outbox.cif.g09.slc.cpg/sg14_37_cif.got.tgz:72114.got - 2010.03.31 13:35:05.
