data_PCOD8129710
_publ_section_title
;
Structure prediction by ZEFSAII (Michael W. Deem and Ramdas Pophale) SiO2 
 PCOD8129710
Probable space group: C 2/C
;
_chemical_formula_sum "Si O2"
_cell_formula_units_Z 60
_cell_length_a 12.475127
_cell_length_b 20.625612
_cell_length_c 13.998547
_cell_angle_alpha 90.000000
_cell_angle_beta 90.939070
_cell_angle_gamma 90.000000
_cell_volume 3601.442163
_symmetry_space_group_name_H-M "C 2/C"
_symmetry_group_IT_number 15
_symmetry_cell_setting 'monoclinic'
loop_
_space_group_symop_operation_xyz
x,y,z
-x,y,1/2-z
-x,-y,-z
x,-y,1/2+z
1/2+x,1/2+y,z
1/2-x,1/2+y,1/2-z
1/2-x,1/2-y,-z
1/2+x,1/2-y,1/2+z
loop_
_atom_site_type_symbol
_atom_site_label
_atom_site_fract_x
_atom_site_fract_y
_atom_site_fract_z
Si Si1 0.160525 0.729040 0.743936
Si Si2 0.611745 0.704052 0.426295
Si Si3 0.500000 0.883544 0.250000
Si Si4 0.618050 0.710217 0.042940
Si Si5 0.500192 0.928583 0.040875
Si Si6 0.881895 0.284918 0.760896
Si Si7 0.840612 0.664963 0.064835
Si Si8 0.163607 0.334507 0.535471
O O1 0.114306 0.785623 0.812067
O O2 0.128529 0.745519 0.636562
O O3 0.290591 0.728337 0.758868
O O4 0.106878 0.659994 0.766950
O O5 0.497545 0.674379 0.457781
O O6 0.707209 0.657123 0.462318
O O7 0.627715 0.775112 0.469816
O O8 0.513920 0.928196 0.156076
O O9 0.713632 0.657634 0.037582
O O10 0.622550 0.761146 0.956452
O O11 0.596230 0.888548 0.993295
O O12 0.385829 0.898993 0.009883
O O13 0.500000 0.000000 0.000000
O O14 0.858377 0.339482 0.679082
O O15 0.881483 0.324231 0.859334
O O16 0.000000 0.253273 0.750000
#
# Coordination Sequence:
#
# PCOD8129710 Si02
#       8
#     8   8   4   8   8   8   8   8
#     4  10  16  26  51  75 104 138 169 207 265 319
#     4  10  16  28  50  75 105 130 163 220 268 309
#     4  12  20  38  54  74 102 130 184 214 240 322
#     4  10  16  28  50  75 105 130 163 220 268 309
#     4  12  24  38  54  72 104 148 180 214 249 305
#     4  10  18  27  46  74 115 139 155 216 272 317
#     4  10  19  30  46  74 104 136 173 208 261 312
#     4  10  19  30  46  74 104 136 173 208 261 312
#
# _framework density 16.659993
#
# number of rings (size 3 to 8) (size 9 to 14) (size 15 to 20)
#    0.000    1.600    6.667    0.000    0.000    1.067 
#    0.000    0.000    0.000    0.800    0.000    0.000 
#    0.000    0.000    0.000    0.000    0.000    0.000 
#
# Total GULP energy -371825.937639 kJ/mol
# GULP energy per Si atom -12394.197921 kJ/mol
# Density = 1.662207 g / cm^3
# Si number density = 16.659993 Si / 1000 Ang^3
#
#
#
# Elastic Constant Matrix: (Units=GPa)
#
#
# Indices 1 2 3 4 5 6 
#
# 1 159.6715 35.5517 13.4126 0.0000 -9.2867 0.0000
# 2 35.5517 63.5600 24.3691 0.0000 0.7658 0.0000
# 3 13.4126 24.3691 88.2813 0.0000 -2.8669 0.0000
# 4 0.0000 0.0000 0.0000 16.5382 0.0000 0.1442
# 5 -9.2867 0.7658 -2.8669 0.0000 22.5471 0.0000
# 6 0.0000 0.0000 0.0000 0.1442 0.0000 14.1775
#
#
#
# Elastic Compliance Matrix: (Units=1/GPa)
#
#
# Indices 1 2 3 4 5 6 
#
# 1 0.007376 -0.004221 0.000149 0.000000 0.003200 0.000000
# 2 -0.004221 0.020045 -0.004991 0.000000 -0.003054 0.000000
# 3 0.000149 -0.004991 0.012743 0.000000 0.001851 0.000000
# 4 0.000000 0.000000 0.000000 0.060472 0.000000 -0.000615
# 5 0.003200 -0.003054 0.001851 0.000000 0.046009 0.000000
# 6 0.000000 0.000000 0.000000 -0.000615 0.000000 0.070541
#
#
# Mechanical properties :
#
#
# Convention : Reuss Voigt Hill
#
# Bulk Modulus (GPa) = 45.38013 50.90886 48.14450
# Shear Modulus (GPa) = 20.60511 26.53117 23.56814
#
# Velocity S-wave (km/s) = 3.52063 3.99495 3.76527
# Velocity P-wave (km/s) = 6.62002 7.20440 6.91838
#
# Compressibility (1/GPa) = 0.02203608
#
# Stress axis : x y z
#
# Youngs Moduli (GPa) = 135.56645 49.88840 78.47649
#
# Poissons Ratio (x) = 0.21060 -0.01165
# Poissons Ratio (y) = 0.57229 0.39167
# Poissons Ratio (z) = -0.02013 0.24899
#
# Static dielectric constant tensor:
#      x y z
#    x 3.646040 0.000000 -0.068080 
#    y 0.000000 2.482330 0.000000 
#    z -0.068080 0.000000 3.438310 
# 
# 
# High freq. dielectric constant tensor:
#      x y z
#    x 1.663440 0.000000 -0.002400 
#    y 0.000000 1.551020 0.000000 
#    z -0.002400 0.000000 1.671670 
# 
# From -- ./inp_files/147685.got.cif
#   From: 2010.06.25/outbox.cif.g09.slc.cpg/sg15_74_cif.got.tgz:147685.got - 2010.06.28 07:06:18.
