data_PCOD8129668
_publ_section_title
;
Structure prediction by ZEFSAII (Michael W. Deem and Ramdas Pophale) SiO2 
 PCOD8129668
Probable space group: C 2/C
;
_chemical_formula_sum "Si O2"
_cell_formula_units_Z 40
_cell_length_a 12.042629
_cell_length_b 21.365987
_cell_length_c 11.120412
_cell_angle_alpha 90.000000
_cell_angle_beta 133.460587
_cell_angle_gamma 90.000000
_cell_volume 2076.876418
_symmetry_space_group_name_H-M "C 2/C"
_symmetry_group_IT_number 15
_symmetry_cell_setting 'monoclinic'
loop_
_space_group_symop_operation_xyz
x,y,z
-x,y,1/2-z
-x,-y,-z
x,-y,1/2+z
1/2+x,1/2+y,z
1/2-x,1/2+y,1/2-z
1/2-x,1/2-y,-z
1/2+x,1/2-y,1/2+z
loop_
_atom_site_type_symbol
_atom_site_label
_atom_site_fract_x
_atom_site_fract_y
_atom_site_fract_z
Si Si1 0.000000 0.905603 0.250000
Si Si2 0.702496 0.465542 0.583434
Si Si3 0.133971 0.712680 0.501302
Si Si4 0.000000 0.602404 0.250000
Si Si5 0.041162 0.086858 0.419952
Si Si6 0.882109 0.188319 0.857047
O O1 0.135704 0.947740 0.402849
O O2 0.062363 0.864666 0.190307
O O3 0.878462 0.443490 0.724672
O O4 0.678756 0.540696 0.566387
O O5 0.613906 0.432574 0.626903
O O6 0.250000 0.750000 0.500000
O O7 0.090508 0.645968 0.411905
O O8 0.209143 0.704233 0.689216
O O9 0.979298 0.749425 0.410528
O O10 0.098359 0.157534 0.496347
O O11 0.000000 0.085490 0.250000
#
# Coordination Sequence:
#
# PCOD8129668 Si02
#       6
#     4   8   8   4   8   8
#     4  10  15  32  58  90 114 145 196 248 316 358
#     4  10  21  36  65  93 119 158 208 263 307 368
#     4  12  19  34  58  97 124 151 196 268 326 352
#     4  12  21  34  66 106 128 139 206 290 318 338
#     4  10  22  42  61  83 125 183 209 230 311 398
#     4  11  21  33  60  88 120 155 203 255 310 365
#
# _framework density 19.259692000000001
#
# number of rings (size 3 to 8) (size 9 to 14) (size 15 to 20)
#    0.000    1.200    7.000    1.200    0.000    0.000 
#    0.000    5.000    0.000    0.000    0.000    0.000 
#    0.000    0.000    0.000    0.000    0.000    0.000 
#
# Total GULP energy -247860.846718 kJ/mol
# GULP energy per Si atom -12393.042336 kJ/mol
# Density = 1.921586 g / cm^3
# Si number density = 19.259692 Si / 1000 Ang^3
#
#
#
# Elastic Constant Matrix: (Units=GPa)
#
#
# Indices 1 2 3 4 5 6 
#
# 1 73.4401 35.2302 48.0488 0.0000 5.4307 0.0000
# 2 35.2302 64.1217 26.6047 0.0000 10.1533 0.0000
# 3 48.0488 26.6047 112.6076 0.0000 4.2490 0.0000
# 4 0.0000 0.0000 0.0000 39.0236 0.0000 4.9130
# 5 5.4307 10.1533 4.2490 0.0000 34.8473 0.0000
# 6 0.0000 0.0000 0.0000 4.9130 0.0000 26.2400
#
#
#
# Elastic Compliance Matrix: (Units=1/GPa)
#
#
# Indices 1 2 3 4 5 6 
#
# 1 0.023213 -0.009601 -0.007641 0.000000 0.000112 0.000000
# 2 -0.009601 0.022014 -0.000923 0.000000 -0.004805 0.000000
# 3 -0.007641 -0.000923 0.012360 0.000000 -0.000047 0.000000
# 4 0.000000 0.000000 0.000000 0.026244 0.000000 -0.004914
# 5 0.000112 -0.004805 -0.000047 0.000000 0.030085 0.000000
# 6 0.000000 0.000000 0.000000 -0.004914 0.000000 0.039030
#
#
# Mechanical properties :
#
#
# Convention : Reuss Voigt Hill
#
# Bulk Modulus (GPa) = 47.04111 52.21520 49.62815
# Shear Modulus (GPa) = 25.46298 29.37456 27.41877
#
# Velocity S-wave (km/s) = 3.64000 3.90960 3.77720
# Velocity P-wave (km/s) = 6.49182 6.89564 6.69678
#
# Compressibility (1/GPa) = 0.02125800
#
# Stress axis : x y z
#
# Youngs Moduli (GPa) = 43.07888 45.42461 80.90305
#
# Poissons Ratio (x) = 0.43614 0.61815
# Poissons Ratio (y) = 0.41362 0.07467
# Poissons Ratio (z) = 0.32915 0.04192
#
# Static dielectric constant tensor:
#      x y z
#    x 3.438720 0.000000 -0.382500 
#    y 0.000000 3.853430 0.000000 
#    z -0.382500 0.000000 4.315690 
# 
# 
# High freq. dielectric constant tensor:
#      x y z
#    x 1.706170 0.000000 -0.000860 
#    y 0.000000 1.753760 0.000000 
#    z -0.000860 0.000000 1.756070 
# 
# From -- ./inp_files/30227.got.cif
#   From: 2010.06.25/outbox.cif.g09.slc.cpg/sg15_16_cif.got.tgz:30227.got - 2010.06.28 07:06:18.
