data_PCOD8129153
_publ_section_title
;
Structure prediction by ZEFSAII (Michael W. Deem and Ramdas Pophale) SiO2 
 PCOD8129153
Probable space group: P 21/C
;
_chemical_formula_sum "Si O2"
_cell_formula_units_Z 20
_cell_length_a 13.451492
_cell_length_b 12.700158
_cell_length_c 11.161889
_cell_angle_alpha 90.000000
_cell_angle_beta 150.568590
_cell_angle_gamma 90.000000
_cell_volume 936.992023
_symmetry_space_group_name_H-M "P 21/C"
_symmetry_group_IT_number 14
_symmetry_cell_setting 'monoclinic'
loop_
_space_group_symop_operation_xyz
x,y,z
-x,1/2+y,1/2-z
-x,-y,-z
x,1/2-y,1/2+z
loop_
_atom_site_type_symbol
_atom_site_label
_atom_site_fract_x
_atom_site_fract_y
_atom_site_fract_z
Si Si1 0.629020 0.559605 0.037324
Si Si2 0.535684 0.325691 0.358338
Si Si3 0.863821 0.100806 0.375902
Si Si4 0.845837 0.731721 0.420222
Si Si5 0.194554 0.629025 0.914515
O O1 0.754464 0.649896 0.232228
O O2 0.780669 0.477928 0.134307
O O3 0.500000 0.500000 0.000000
O O4 0.482555 0.613479 0.786205
O O5 0.673211 0.399854 0.586242
O O6 0.318206 0.308184 0.191425
O O7 0.633710 0.211488 0.443179
O O8 0.774878 0.102249 0.415241
O O9 0.998368 0.203157 0.496007
O O10 0.000000 0.000000 0.500000
O O11 0.969041 0.672819 0.654853
#
# Coordination Sequence:
#
# PCOD8129153 Si02
#       5
#     4   4   4   4   4
#     4  12  25  43  72 101 137 184 232 287 348 415
#     4  11  25  45  69  99 139 181 233 285 348 417
#     4  11  26  43  69 101 138 182 230 287 352 415
#     4  11  24  46  70 100 139 181 230 290 348 418
#     4  11  25  44  69 101 137 180 230 286 348 414
#
# _framework density 21.344899000000002
#
# number of rings (size 3 to 8) (size 9 to 14) (size 15 to 20)
#    0.000    0.800    2.000    4.200    5.600    6.400 
#    0.000    0.000    0.000    0.000    0.000    0.000 
#    0.000    0.000    0.000    0.000    0.000    0.000 
#
# Total GULP energy -248148.700763 kJ/mol
# GULP energy per Si atom -12407.435038 kJ/mol
# Density = 2.129632 g / cm^3
# Si number density = 21.344899 Si / 1000 Ang^3
#
#
#
# Elastic Constant Matrix: (Units=GPa)
#
#
# Indices 1 2 3 4 5 6 
#
# 1 110.8555 26.3763 44.1919 0.0000 -15.1273 0.0000
# 2 26.3763 93.7877 48.3620 0.0000 -12.7033 0.0000
# 3 44.1919 48.3620 138.5795 0.0000 -11.5332 0.0000
# 4 0.0000 0.0000 0.0000 33.0885 0.0000 -11.6514
# 5 -15.1273 -12.7033 -11.5332 0.0000 37.7216 0.0000
# 6 0.0000 0.0000 0.0000 -11.6514 0.0000 43.9299
#
#
#
# Elastic Compliance Matrix: (Units=1/GPa)
#
#
# Indices 1 2 3 4 5 6 
#
# 1 0.010836 -0.001194 -0.002781 0.000000 0.003093 0.000000
# 2 -0.001194 0.013490 -0.004093 0.000000 0.002813 0.000000
# 3 -0.002781 -0.004093 0.009567 0.000000 0.000432 0.000000
# 4 0.000000 0.000000 0.000000 0.033335 0.000000 0.008841
# 5 0.003093 0.002813 0.000432 0.000000 0.028829 0.000000
# 6 0.000000 0.000000 0.000000 0.008841 0.000000 0.025109
#
#
# Mechanical properties :
#
#
# Convention : Reuss Voigt Hill
#
# Bulk Modulus (GPa) = 56.31902 64.56480 60.44191
# Shear Modulus (GPa) = 34.91111 37.90084 36.40598
#
# Velocity S-wave (km/s) = 4.04861 4.21841 4.13438
# Velocity P-wave (km/s) = 6.94964 7.35123 7.15325
#
# Compressibility (1/GPa) = 0.01775599
#
# Stress axis : x y z
#
# Youngs Moduli (GPa) = 92.28775 74.13094 104.52387
#
# Poissons Ratio (x) = 0.08853 0.29070
# Poissons Ratio (y) = 0.11022 0.42779
# Poissons Ratio (z) = 0.25667 0.30340
#
# Static dielectric constant tensor:
#      x y z
#    x 2.515610 0.000000 0.118790 
#    y 0.000000 4.010830 0.000000 
#    z 0.118790 0.000000 4.066870 
# 
# 
# High freq. dielectric constant tensor:
#      x y z
#    x 1.845620 0.000000 -0.005730 
#    y 0.000000 1.852410 0.000000 
#    z -0.005730 0.000000 1.850120 
# 
# From -- ./inp_files/20631.got.cif
#   From: 2010.03.12/outbox.cif.g09.slc.cpg/sg14_11_cif.got.tgz:20631.got - 2010.03.31 13:35:05.
