data_PCOD8129565
_publ_section_title
;
Structure prediction by ZEFSAII (Michael W. Deem and Ramdas Pophale) SiO2 
 PCOD8129565
Probable space group: C 2/C
;
_chemical_formula_sum "Si O2"
_cell_formula_units_Z 22
_cell_length_a 27.000000
_cell_length_b 9.000000
_cell_length_c 27.000000
_cell_angle_alpha 90.000000
_cell_angle_beta 20.000000
_cell_angle_gamma 90.000000
_cell_volume 2243.994160
_symmetry_space_group_name_H-M "C 2/C"
_symmetry_group_IT_number 15
_symmetry_cell_setting 'monoclinic'
loop_
_space_group_symop_operation_xyz
x,y,z
-x,y,1/2-z
-x,-y,-z
x,-y,1/2+z
1/2+x,1/2+y,z
1/2-x,1/2+y,1/2-z
1/2-x,1/2-y,-z
1/2+x,1/2-y,1/2+z
loop_
_atom_site_type_symbol
_atom_site_label
_atom_site_fract_x
_atom_site_fract_y
_atom_site_fract_z
Si Si1 0.381615 0.321495 0.567725
Si Si2 0.151964 0.721867 0.366072
Si Si3 0.926460 0.505454 0.480357
Si Si4 0.500000 0.734299 0.250000
Si Si5 0.263078 0.922622 0.343616
Si Si6 0.219694 0.676484 0.462092
O O1 0.243942 0.338165 0.733515
O O2 0.529748 0.334426 0.459814
O O3 0.363673 0.455065 0.545070
O O4 0.382997 0.171524 0.534676
O O5 0.072839 0.586759 0.468908
O O6 0.257816 0.805002 0.303922
O O7 0.805398 0.445237 0.556494
O O8 0.078733 0.496383 0.308190
O O9 0.374970 0.636406 0.340963
O O10 0.411446 0.829753 0.374577
O O11 0.232796 0.840905 0.424480
#
# Coordination Sequence:
#
# PCOD8129565 Si02
#       6
#     8   8   8   4   8   8
#     4  12  22  36  57  81 123 166 193 229 284 328
#     4  11  22  36  57  81 117 166 206 236 262 322
#     4  11  22  39  56  86 124 149 196 246 280 329
#     4  10  20  40  68  94 104 136 196 236 300 362
#     4  11  22  38  57  87 120 153 197 240 283 331
#     4  10  22  39  67  90 111 145 183 248 293 350
#
# _framework density 9.8039470000000009
#
# number of rings (size 3 to 8) (size 9 to 14) (size 15 to 20)
#    0.000    1.091    5.455    2.182    0.000    1.455 
#    0.000    0.000    0.000    6.545    0.000    0.000 
#    0.000    0.000    0.000    0.000    0.000    0.000 
#
# Total GULP energy -272746.647592 kJ/mol
# GULP energy per Si atom -12397.574891 kJ/mol
# Density = 0.978163 g / cm^3
# Si number density = 9.803947 Si / 1000 Ang^3
#
#
#
# Elastic Constant Matrix: (Units=GPa)
#
#
# Indices 1 2 3 4 5 6 
#
# 1 107.8371 26.0635 33.6162 0.0054 -5.3930 0.0000
# 2 26.0635 56.1025 -1.0029 0.0262 9.9814 -0.0061
# 3 33.6162 -1.0029 102.6597 0.0208 8.8752 -0.0089
# 4 0.0054 0.0262 0.0208 22.8346 -0.0046 -5.3109
# 5 -5.3930 9.9814 8.8752 -0.0046 39.5102 -0.0005
# 6 0.0000 -0.0061 -0.0089 -5.3109 -0.0005 9.1017
#
#
#
# Elastic Compliance Matrix: (Units=1/GPa)
#
#
# Indices 1 2 3 4 5 6 
#
# 1 0.012530 -0.006689 -0.004551 0.000009 0.004422 -0.000003
# 2 -0.006689 0.022271 0.003032 -0.000028 -0.007220 0.000001
# 3 -0.004551 0.003032 0.011606 -0.000012 -0.003994 0.000006
# 4 0.000009 -0.000028 -0.000012 0.050670 0.000017 0.029566
# 5 0.004422 -0.007220 -0.003994 0.000017 0.028635 0.000003
# 6 -0.000003 0.000001 0.000006 0.029566 0.000003 0.127121
#
#
# Mechanical properties :
#
#
# Convention : Reuss Voigt Hill
#
# Bulk Modulus (GPa) = 33.34268 42.66144 38.00206
# Shear Modulus (GPa) = 17.90545 28.15082 23.02814
#
# Velocity S-wave (km/s) = 3.02516 3.79316 3.43072
# Velocity P-wave (km/s) = 5.40775 6.40223 5.92589
#
# Compressibility (1/GPa) = 0.02999159
#
# Stress axis : x y z
#
# Youngs Moduli (GPa) = 79.81075 44.90176 86.16281
#
# Poissons Ratio (x) = 0.30035 0.39209
# Poissons Ratio (y) = 0.53386 -0.26126
# Poissons Ratio (z) = 0.36318 -0.13615
#
# Static dielectric constant tensor:
#      x y z
#    x 3.763500 -0.000010 -0.045090 
#    y -0.000010 3.315210 0.000010 
#    z -0.045090 0.000010 3.719590 
# 
# 
# High freq. dielectric constant tensor:
#      x y z
#    x 1.769780 0.000000 -0.006330 
#    y 0.000000 1.734110 0.000000 
#    z -0.006330 0.000000 1.780920 
# 
# From -- ./inp_files/68281.got.cif
#   From: 2010.06.25/outbox.ucp.g09.slc.cvg/sg15_35_cif.got.tgz:68281.got - 2010.06.28 14:40:10.
