data_PCOD8129782
_publ_section_title
;
Structure prediction by ZEFSAII (Michael W. Deem and Ramdas Pophale) SiO2 
 PCOD8129782
Probable space group: C 2/C
;
_chemical_formula_sum "Si O2"
_cell_formula_units_Z 60
_cell_length_a 14.409133
_cell_length_b 8.679795
_cell_length_c 24.462894
_cell_angle_alpha 90.000000
_cell_angle_beta 96.858580
_cell_angle_gamma 90.000000
_cell_volume 3037.638840
_symmetry_space_group_name_H-M "C 2/C"
_symmetry_group_IT_number 15
_symmetry_cell_setting 'monoclinic'
loop_
_space_group_symop_operation_xyz
x,y,z
-x,y,1/2-z
-x,-y,-z
x,-y,1/2+z
1/2+x,1/2+y,z
1/2-x,1/2+y,1/2-z
1/2-x,1/2-y,-z
1/2+x,1/2-y,1/2+z
loop_
_atom_site_type_symbol
_atom_site_label
_atom_site_fract_x
_atom_site_fract_y
_atom_site_fract_z
Si Si1 0.958875 0.653477 0.969812
Si Si2 0.595591 0.522690 0.849122
Si Si3 0.500000 0.706068 0.750000
Si Si4 0.203354 0.541252 0.608969
Si Si5 0.547377 0.935720 0.664320
Si Si6 0.587099 0.821234 0.375938
Si Si7 0.272622 0.712244 0.939420
Si Si8 0.975143 0.184360 0.926312
O O1 0.851403 0.634863 0.942276
O O2 0.020599 0.705794 0.923012
O O3 0.000000 0.500000 0.000000
O O4 0.962560 0.789278 0.015040
O O5 0.567221 0.596884 0.789482
O O6 0.693821 0.607642 0.870793
O O7 0.599807 0.338095 0.843230
O O8 0.521042 0.555493 0.891632
O O9 0.560627 0.817221 0.714912
O O10 0.141725 0.534784 0.660815
O O11 0.222687 0.371029 0.591107
O O12 0.529145 0.846361 0.606182
O O13 0.458749 0.050246 0.667349
O O14 0.687660 0.882454 0.405256
O O15 0.371677 0.625856 0.937656
O O16 0.250000 0.750000 0.000000
#
# Coordination Sequence:
#
# PCOD8129782 Si02
#       8
#     8   8   4   8   8   8   8   8
#     4  11  16  32  58  83 119 162 190 220 259 343
#     4  10  23  39  54  85 119 145 181 252 302 328
#     4  10  22  44  62  74 104 146 190 248 304 332
#     4   9  19  34  54  83 114 148 185 228 277 337
#     4   9  19  38  62  79 103 148 201 231 269 346
#     4  10  19  33  56  85 116 144 192 236 278 334
#     4  10  16  29  52  81 116 157 188 217 267 335
#     4  10  19  33  55  81 121 161 186 218 279 336
#
# _framework density 19.752185000000001
#
# number of rings (size 3 to 8) (size 9 to 14) (size 15 to 20)
#    0.000    2.133    5.333    0.000    0.000    1.600 
#    0.000   13.333    0.000    0.000    0.000    0.000 
#    0.000    0.000    0.000    0.000    0.000    0.000 
#
# Total GULP energy -371772.304679 kJ/mol
# GULP energy per Si atom -12392.410156 kJ/mol
# Density = 1.970723 g / cm^3
# Si number density = 19.752185 Si / 1000 Ang^3
#
#
#
# Elastic Constant Matrix: (Units=GPa)
#
#
# Indices 1 2 3 4 5 6 
#
# 1 149.8182 28.7839 42.5733 0.0000 15.7435 0.0000
# 2 28.7839 51.4211 23.5113 0.0000 9.2118 0.0000
# 3 42.5733 23.5113 95.4042 0.0000 11.4620 0.0000
# 4 0.0000 0.0000 0.0000 26.3952 0.0000 -1.4003
# 5 15.7435 9.2118 11.4620 0.0000 25.5299 0.0000
# 6 0.0000 0.0000 0.0000 -1.4003 0.0000 23.9193
#
#
#
# Elastic Compliance Matrix: (Units=1/GPa)
#
#
# Indices 1 2 3 4 5 6 
#
# 1 0.008286 -0.002919 -0.002633 0.000000 -0.002874 0.000000
# 2 -0.002919 0.023788 -0.003958 0.000000 -0.005006 0.000000
# 3 -0.002633 -0.003958 0.012965 0.000000 -0.002769 0.000000
# 4 0.000000 0.000000 0.000000 0.038004 0.000000 0.002225
# 5 -0.002874 -0.005006 -0.002769 0.000000 0.043992 0.000000
# 6 0.000000 0.000000 0.000000 0.002225 0.000000 0.041937
#
#
# Mechanical properties :
#
#
# Convention : Reuss Voigt Hill
#
# Bulk Modulus (GPa) = 38.43499 54.04227 46.23863
# Shear Modulus (GPa) = 25.42402 28.62055 27.02229
#
# Velocity S-wave (km/s) = 3.59158 3.81068 3.70275
# Velocity P-wave (km/s) = 6.05806 6.83968 6.46070
#
# Compressibility (1/GPa) = 0.02601796
#
# Stress axis : x y z
#
# Youngs Moduli (GPa) = 120.68814 42.03795 77.13296
#
# Poissons Ratio (x) = 0.12273 0.20307
# Poissons Ratio (y) = 0.35235 0.30530
# Poissons Ratio (z) = 0.31773 0.16639
#
# Static dielectric constant tensor:
#      x y z
#    x 4.388580 0.000000 0.067710 
#    y 0.000000 3.355410 0.000000 
#    z 0.067710 0.000000 3.470960 
# 
# 
# High freq. dielectric constant tensor:
#      x y z
#    x 1.774010 0.000000 0.001990 
#    y 0.000000 1.743450 0.000000 
#    z 0.001990 0.000000 1.756730 
# 
# From -- ./inp_files/272766.got.cif
#   From: 2010.06.25/outbox.cif.g09.slc.cpg/sg15_137_cif.got.tgz:272766.got - 2010.06.28 07:06:18.
