data_PCOD8129806
_publ_section_title
;
Structure prediction by ZEFSAII (Michael W. Deem and Ramdas Pophale) SiO2 
 PCOD8129806
Probable space group: C 2/C
;
_chemical_formula_sum "Si O2"
_cell_formula_units_Z 44
_cell_length_a 29.210785
_cell_length_b 16.370766
_cell_length_c 5.136213
_cell_angle_alpha 90.000000
_cell_angle_beta 65.974932
_cell_angle_gamma 90.000000
_cell_volume 2243.369281
_symmetry_space_group_name_H-M "C 2/C"
_symmetry_group_IT_number 15
_symmetry_cell_setting 'monoclinic'
loop_
_space_group_symop_operation_xyz
x,y,z
-x,y,1/2-z
-x,-y,-z
x,-y,1/2+z
1/2+x,1/2+y,z
1/2-x,1/2+y,1/2-z
1/2-x,1/2-y,-z
1/2+x,1/2-y,1/2+z
loop_
_atom_site_type_symbol
_atom_site_label
_atom_site_fract_x
_atom_site_fract_y
_atom_site_fract_z
Si Si1 0.478107 0.908374 0.552584
Si Si2 0.890590 0.943058 0.971493
Si Si3 0.365563 0.949098 0.816639
Si Si4 0.301929 0.802486 0.151707
Si Si5 0.687897 0.297583 0.385630
Si Si6 0.000000 0.055031 0.250000
O O1 0.500000 0.860428 0.750000
O O2 0.418968 0.905881 0.714190
O O3 0.500000 0.000000 0.500000
O O4 0.500000 0.861781 0.250000
O O5 0.946083 0.898174 0.855738
O O6 0.883479 0.007588 0.755221
O O7 0.849373 0.873628 0.025087
O O8 0.359902 0.975707 0.529962
O O9 0.324028 0.886087 0.996730
O O10 0.327814 0.770386 0.360176
O O11 0.243875 0.824250 0.337379
O O12 0.311137 0.735340 0.909238
O O13 0.000000 0.000000 0.500000
#
# Coordination Sequence:
#
# PCOD8129806 Si02
#       6
#     8   8   8   8   8   4
#     4  10  16  30  49  72 102 142 171 216 270 313
#     4  10  19  33  61  88 107 139 180 228 271 326
#     4  12  21  33  56  82 106 138 193 240 258 312
#     4  10  23  38  56  78 108 158 180 220 287 325
#     4  10  21  41  57  75 116 147 182 219 280 350
#     4   8  16  30  50  84 112 134 166 212 282 332
#
# _framework density 19.613357000000001
#
# number of rings (size 3 to 8) (size 9 to 14) (size 15 to 20)
#    0.000    1.818    3.636    2.182    0.000    1.455 
#    0.000    0.000    6.000    0.000    0.000    0.000 
#    0.000    0.000    0.000    0.000    0.000    0.000 
#
# Total GULP energy -272554.142432 kJ/mol
# GULP energy per Si atom -12388.824656 kJ/mol
# Density = 1.956872 g / cm^3
# Si number density = 19.613357 Si / 1000 Ang^3
#
#
#
# Elastic Constant Matrix: (Units=GPa)
#
#
# Indices 1 2 3 4 5 6 
#
# 1 92.0596 37.1334 35.7160 0.0000 -10.8419 0.0000
# 2 37.1334 47.9604 20.6205 0.0000 -18.5686 0.0000
# 3 35.7160 20.6205 117.3926 0.0000 7.7740 0.0000
# 4 0.0000 0.0000 0.0000 -25.4655 0.0000 -25.7371
# 5 -10.8419 -18.5686 7.7740 0.0000 42.0605 0.0000
# 6 0.0000 0.0000 0.0000 -25.7371 0.0000 -17.2553
#
#
#
# Elastic Compliance Matrix: (Units=1/GPa)
#
#
# Indices 1 2 3 4 5 6 
#
# 1 0.016750 -0.011812 -0.002999 0.000000 -0.000343 0.000000
# 2 -0.011812 0.037088 -0.003851 0.000000 0.014040 0.000000
# 3 -0.002999 -0.003851 0.010398 0.000000 -0.004395 0.000000
# 4 0.000000 0.000000 0.000000 0.077383 0.000000 -0.115420
# 5 -0.000343 0.014040 -0.004395 0.000000 0.030697 0.000000
# 6 0.000000 0.000000 0.000000 -0.115420 0.000000 0.114202
#
#
# Mechanical properties :
#
#
# Convention : Reuss Voigt Hill
#
# Bulk Modulus (GPa) = 37.15678 49.37249 43.26464
# Shear Modulus (GPa) = 15.02350 10.79747 12.91049
#
# Velocity S-wave (km/s) = 2.77064 2.34885 2.56842
# Velocity P-wave (km/s) = 5.40565 5.70821 5.55899
#
# Compressibility (1/GPa) = 0.02691299
#
# Stress axis : x y z
#
# Youngs Moduli (GPa) = 59.70112 26.96325 96.17150
#
# Poissons Ratio (x) = 0.31850 0.28837
# Poissons Ratio (y) = 0.70521 0.37031
# Poissons Ratio (z) = 0.17902 0.10382
#
# Static dielectric constant tensor:
#      x y z
#    x 4.095290 0.000000 0.178090 
#    y 0.000000 2.960400 0.000000 
#    z 0.178090 0.000000 4.064810 
# 
# 
# High freq. dielectric constant tensor:
#      x y z
#    x 1.777990 0.000000 0.008360 
#    y 0.000000 1.704310 0.000000 
#    z 0.008360 0.000000 1.799590 
# 
# From -- ./inp_files/16913.got.cif
#   From: 2010.06.25/outbox.cif.g09.slc.cpg/sg15_9_cif.got.tgz:16913.got - 2010.06.28 07:06:18.
