data_PCOD8129266
_publ_section_title
;
Structure prediction by ZEFSAII (Michael W. Deem and Ramdas Pophale) SiO2 
 PCOD8129266
Probable space group: P 21/C
;
_chemical_formula_sum "Si O2"
_cell_formula_units_Z 28
_cell_length_a 19.585986
_cell_length_b 8.607971
_cell_length_c 15.719753
_cell_angle_alpha 90.000000
_cell_angle_beta 27.869694
_cell_angle_gamma 90.000000
_cell_volume 1238.906511
_symmetry_space_group_name_H-M "P 21/C"
_symmetry_group_IT_number 14
_symmetry_cell_setting 'monoclinic'
loop_
_space_group_symop_operation_xyz
x,y,z
-x,1/2+y,1/2-z
-x,-y,-z
x,1/2-y,1/2+z
loop_
_atom_site_type_symbol
_atom_site_label
_atom_site_fract_x
_atom_site_fract_y
_atom_site_fract_z
Si Si1 0.734681 0.862217 0.333997
Si Si2 0.118338 0.192819 0.171032
Si Si3 0.166779 0.617495 0.931122
Si Si4 0.210616 0.712673 0.215023
Si Si5 0.458651 0.802732 0.193127
Si Si6 0.345279 0.558234 0.448540
Si Si7 0.903030 0.727063 0.994360
O O1 0.822038 0.804480 0.320691
O O2 0.580118 0.772916 0.497681
O O3 0.711882 0.045944 0.369384
O O4 0.817161 0.836359 0.154522
O O5 0.157392 0.261576 0.035472
O O6 0.944070 0.171820 0.372815
O O7 0.191319 0.023576 0.098079
O O8 0.152601 0.741007 0.871403
O O9 0.333550 0.611431 0.777951
O O10 0.118523 0.448970 0.949624
O O11 0.070105 0.715184 0.308153
O O12 0.328961 0.837264 0.051237
O O13 0.387409 0.663928 0.323551
O O14 0.529182 0.930485 0.177124
#
# Coordination Sequence:
#
# PCOD8129266 Si02
#       7
#     4   4   4   4   4   4   4
#     4  11  27  49  69 109 145 191 238 301 361 437
#     4  11  26  45  77 103 140 187 243 294 363 427
#     4  12  26  45  72 107 143 187 244 299 360 428
#     4  12  25  45  77 102 149 186 245 303 356 426
#     4  11  27  46  71 105 148 185 242 295 367 435
#     4  11  25  47  71 102 143 192 235 296 361 434
#     4  12  26  44  76 106 143 189 246 301 360 427
#
# _framework density 22.600574999999999
#
# number of rings (size 3 to 8) (size 9 to 14) (size 15 to 20)
#    0.000    0.571    2.857    4.286   10.000    2.857 
#    0.000    0.000    0.000    0.000    0.000    0.000 
#    0.000    0.000    0.000    0.000    0.000    0.000 
#
# Total GULP energy -347368.208442 kJ/mol
# GULP energy per Si atom -12406.007444 kJ/mol
# Density = 2.254913 g / cm^3
# Si number density = 22.600575 Si / 1000 Ang^3
#
#
#
# Elastic Constant Matrix: (Units=GPa)
#
#
# Indices 1 2 3 4 5 6 
#
# 1 84.9838 8.9783 36.8299 0.0000 5.5510 0.0000
# 2 8.9783 108.7119 20.4209 0.0000 1.3632 0.0000
# 3 36.8299 20.4209 78.1642 0.0000 0.4419 0.0000
# 4 0.0000 0.0000 0.0000 43.6405 0.0000 6.7728
# 5 5.5510 1.3632 0.4419 0.0000 45.9270 0.0000
# 6 0.0000 0.0000 0.0000 6.7728 0.0000 22.4525
#
#
#
# Elastic Compliance Matrix: (Units=1/GPa)
#
#
# Indices 1 2 3 4 5 6 
#
# 1 0.014925 0.000114 -0.007052 0.000000 -0.001739 0.000000
# 2 0.000114 0.009677 -0.002580 0.000000 -0.000276 0.000000
# 3 -0.007052 -0.002580 0.016786 0.000000 0.000767 0.000000
# 4 0.000000 0.000000 0.000000 0.024040 0.000000 -0.007252
# 5 -0.001739 -0.000276 0.000767 0.000000 0.021985 0.000000
# 6 0.000000 0.000000 0.000000 -0.007252 0.000000 0.046726
#
#
# Mechanical properties :
#
#
# Convention : Reuss Voigt Hill
#
# Bulk Modulus (GPa) = 44.74071 44.92423 44.83247
# Shear Modulus (GPa) = 31.12799 36.11270 33.62035
#
# Velocity S-wave (km/s) = 3.71524 4.00167 3.86111
# Velocity P-wave (km/s) = 6.18411 6.42431 6.30536
#
# Compressibility (1/GPa) = 0.02235101
#
# Stress axis : x y z
#
# Youngs Moduli (GPa) = 67.00247 103.33362 59.57228
#
# Poissons Ratio (x) = -0.01177 0.42012
# Poissons Ratio (y) = -0.00763 0.15372
# Poissons Ratio (z) = 0.47252 0.26664
#
# Static dielectric constant tensor:
#      x y z
#    x 3.890200 0.000000 -0.110980 
#    y 0.000000 4.121110 0.000000 
#    z -0.110980 0.000000 4.235960 
# 
# 
# High freq. dielectric constant tensor:
#      x y z
#    x 1.878150 0.000000 0.000770 
#    y 0.000000 1.903320 0.000000 
#    z 0.000770 0.000000 1.903680 
# 
# From -- ./inp_files/50214.got.cif
#   From: 2010.03.12/outbox.cif.g09.slc.cpg/sg14_26_cif.got.tgz:50214.got - 2010.03.31 13:35:05.
