data_PCOD8129897
_publ_section_title
;
Structure prediction by ZEFSAII (Michael W. Deem and Ramdas Pophale) SiO2 
 PCOD8129897
Probable space group: C 2/C
;
_chemical_formula_sum "Si O2"
_cell_formula_units_Z 56
_cell_length_a 10.324641
_cell_length_b 21.337717
_cell_length_c 21.302992
_cell_angle_alpha 90.000000
_cell_angle_beta 141.362385
_cell_angle_gamma 90.000000
_cell_volume 2930.361615
_symmetry_space_group_name_H-M "C 2/C"
_symmetry_group_IT_number 15
_symmetry_cell_setting 'monoclinic'
loop_
_space_group_symop_operation_xyz
x,y,z
-x,y,1/2-z
-x,-y,-z
x,-y,1/2+z
1/2+x,1/2+y,z
1/2-x,1/2+y,1/2-z
1/2-x,1/2-y,-z
1/2+x,1/2-y,1/2+z
loop_
_atom_site_type_symbol
_atom_site_label
_atom_site_fract_x
_atom_site_fract_y
_atom_site_fract_z
Si Si1 0.000000 0.836645 0.250000
Si Si2 0.448863 0.518438 0.410574
Si Si3 0.745181 0.257480 0.735248
Si Si4 0.000000 0.460737 0.750000
Si Si5 0.506921 0.662975 0.056678
Si Si6 0.726903 0.164967 0.836809
Si Si7 0.111693 0.645213 0.383203
Si Si8 0.098100 0.097440 0.908663
O O1 0.825318 0.795364 0.217516
O O2 0.892689 0.883367 0.159978
O O3 0.500000 0.500000 0.500000
O O4 0.496947 0.591824 0.418678
O O5 0.588735 0.478069 0.414692
O O6 0.205338 0.500222 0.310110
O O7 0.537797 0.290171 0.627749
O O8 0.695441 0.228438 0.784322
O O9 0.922561 0.307876 0.815527
O O10 0.043080 0.419628 0.827499
O O11 0.709509 0.676428 0.091168
O O12 0.302555 0.678362 0.937472
O O13 0.500000 0.131974 0.750000
O O14 0.893871 0.120526 0.867804
O O15 0.198275 0.629463 0.484853
#
# Coordination Sequence:
#
# PCOD8129897 Si02
#       8
#     4   8   8   4   8   8   8   8
#     4  10  21  34  54  84 112 141 176 226 284 316
#     4  11  18  32  52  84 108 138 180 225 276 314
#     4  11  19  34  58  80 110 140 180 231 275 326
#     4  10  17  28  54  82 106 129 178 232 260 316
#     4  10  19  33  55  81 108 138 183 228 269 317
#     4  10  23  35  49  81 111 145 180 218 275 331
#     4  10  16  32  53  87 102 132 184 228 277 304
#     4  10  22  34  56  82 114 143 175 231 274 324
#
# _framework density 19.110268999999999
#
# number of rings (size 3 to 8) (size 9 to 14) (size 15 to 20)
#    0.000    1.714    8.571    0.000    3.000    2.286 
#    0.000    0.000    1.571    0.857    0.000    0.000 
#    0.000    0.000    0.000    0.000    0.000    0.000 
#
# Total GULP energy -347020.856295 kJ/mol
# GULP energy per Si atom -12393.602011 kJ/mol
# Density = 1.906677 g / cm^3
# Si number density = 19.110269 Si / 1000 Ang^3
#
#
#
# Elastic Constant Matrix: (Units=GPa)
#
#
# Indices 1 2 3 4 5 6 
#
# 1 28.9806 14.5598 30.1266 0.0006 -2.7487 0.0006
# 2 14.5598 76.1885 41.0601 0.0004 -20.8020 0.0004
# 3 30.1266 41.0601 160.0365 0.0011 -7.2995 0.0011
# 4 0.0006 0.0004 0.0011 28.0739 0.0010 -4.3271
# 5 -2.7487 -20.8020 -7.2995 0.0010 29.5919 0.0010
# 6 0.0006 0.0004 0.0011 -4.3271 0.0010 17.5886
#
#
#
# Elastic Compliance Matrix: (Units=1/GPa)
#
#
# Indices 1 2 3 4 5 6 
#
# 1 0.044279 -0.004926 -0.007122 -0.000001 -0.001106 -0.000001
# 2 -0.004926 0.019272 -0.003459 -0.000001 0.012237 -0.000001
# 3 -0.007122 -0.003459 0.008431 0.000000 -0.001014 0.000000
# 4 -0.000001 -0.000001 0.000000 0.037024 -0.000002 0.009109
# 5 -0.001106 0.012237 -0.001014 -0.000002 0.042042 -0.000003
# 6 -0.000001 -0.000001 0.000000 0.009109 -0.000003 0.059096
#
#
# Mechanical properties :
#
#
# Convention : Reuss Voigt Hill
#
# Bulk Modulus (GPa) = 24.40936 48.52208 36.46572
# Shear Modulus (GPa) = 19.62214 27.01481 23.31848
#
# Velocity S-wave (km/s) = 3.20783 3.76390 3.49694
# Velocity P-wave (km/s) = 5.14984 6.65845 5.95213
#
# Compressibility (1/GPa) = 0.04096788
#
# Stress axis : x y z
#
# Youngs Moduli (GPa) = 22.58382 51.88905 118.61551
#
# Poissons Ratio (x) = 0.25559 0.84481
# Poissons Ratio (y) = 0.11124 0.41031
# Poissons Ratio (z) = 0.16085 0.17949
#
# Static dielectric constant tensor:
#      x y z
#    x 1.141440 -0.000010 -2.140450 
#    y -0.000010 4.009350 -0.000010 
#    z -2.140450 -0.000010 1.691010 
# 
# 
# High freq. dielectric constant tensor:
#      x y z
#    x 1.687470 0.000000 0.005050 
#    y 0.000000 1.739250 0.000000 
#    z 0.005050 0.000000 1.766090 
# 
# From -- ./inp_files/193346.got.cif
#   From: 2010.06.25/outbox.cif.g09.slc.cpg/sg15_97_cif.got.tgz:193346.got - 2010.06.28 07:06:18.
