data_PCOD8129030
_publ_section_title
;
Structure prediction by ZEFSAII (Michael W. Deem and Ramdas Pophale) SiO2 
 PCOD8129030
Probable space group: P 21/C
;
_chemical_formula_sum "Si O2"
_cell_formula_units_Z 16
_cell_length_a 9.681896
_cell_length_b 11.823250
_cell_length_c 10.011213
_cell_angle_alpha 90.000000
_cell_angle_beta 41.855891
_cell_angle_gamma 90.000000
_cell_volume 764.678107
_symmetry_space_group_name_H-M "P 21/C"
_symmetry_group_IT_number 14
_symmetry_cell_setting 'monoclinic'
loop_
_space_group_symop_operation_xyz
x,y,z
-x,1/2+y,1/2-z
-x,-y,-z
x,1/2-y,1/2+z
loop_
_atom_site_type_symbol
_atom_site_label
_atom_site_fract_x
_atom_site_fract_y
_atom_site_fract_z
Si Si1 0.763450 0.004431 0.945031
Si Si2 0.527260 0.418533 0.855919
Si Si3 0.147187 0.976094 0.517804
Si Si4 0.595909 0.161602 0.844853
O O1 0.718962 0.113274 0.883665
O O2 0.722999 0.040588 0.126751
O O3 0.003493 0.964882 0.753271
O O4 0.627101 0.897524 0.999744
O O5 0.565127 0.294183 0.884412
O O6 0.500000 0.500000 0.000000
O O7 0.317339 0.424313 0.917485
O O8 0.277512 0.863552 0.384440
O O9 0.000000 0.000000 0.500000
#
# Coordination Sequence:
#
# PCOD8129030 Si02
#       4
#     4   4   4   4
#     4   9  20  40  63  88 126 172 208 253 315 378
#     4  11  24  38  63 100 130 159 211 268 317 373
#     4   9  20  43  64  91 121 168 214 246 317 382
#     4   9  20  39  64  88 128 169 205 256 319 374
#
# _framework density 20.923836999999999
#
# number of rings (size 3 to 8) (size 9 to 14) (size 15 to 20)
#    0.000    2.500    0.000    1.500    7.000    3.000 
#    4.500    0.000    0.000    0.000    0.000    0.000 
#    0.000    0.000    0.000    0.000    0.000    0.000 
#
# Total GULP energy -198298.363614 kJ/mol
# GULP energy per Si atom -12393.647726 kJ/mol
# Density = 2.087621 g / cm^3
# Si number density = 20.923837 Si / 1000 Ang^3
#
#
#
# Elastic Constant Matrix: (Units=GPa)
#
#
# Indices 1 2 3 4 5 6 
#
# 1 47.1822 27.3639 28.4282 0.0000 -0.0654 0.0000
# 2 27.3639 159.1787 68.1459 0.0000 6.8824 0.0000
# 3 28.4282 68.1459 194.1522 0.0000 -5.5421 0.0000
# 4 0.0000 0.0000 0.0000 25.0362 0.0000 7.4402
# 5 -0.0654 6.8824 -5.5421 0.0000 37.6739 0.0000
# 6 0.0000 0.0000 0.0000 7.4402 0.0000 21.4360
#
#
#
# Elastic Compliance Matrix: (Units=1/GPa)
#
#
# Indices 1 2 3 4 5 6 
#
# 1 0.024521 -0.003169 -0.002471 0.000000 0.000258 0.000000
# 2 -0.003169 0.007918 -0.002367 0.000000 -0.001800 0.000000
# 3 -0.002471 -0.002367 0.006382 0.000000 0.001367 0.000000
# 4 0.000000 0.000000 0.000000 0.044536 0.000000 -0.015458
# 5 0.000258 -0.001800 0.001367 0.000000 0.027074 0.000000
# 6 0.000000 0.000000 0.000000 -0.015458 0.000000 0.052016
#
#
# Mechanical properties :
#
#
# Convention : Reuss Voigt Hill
#
# Bulk Modulus (GPa) = 43.84244 72.04325 57.94284
# Shear Modulus (GPa) = 26.87273 35.26757 31.07015
#
# Velocity S-wave (km/s) = 3.58762 4.10996 3.85764
# Velocity P-wave (km/s) = 6.17739 7.55171 6.89886
#
# Compressibility (1/GPa) = 0.02280895
#
# Stress axis : x y z
#
# Youngs Moduli (GPa) = 40.78087 126.29540 156.68947
#
# Poissons Ratio (x) = 0.40019 0.38716
# Poissons Ratio (y) = 0.12922 0.37081
# Poissons Ratio (z) = 0.10077 0.29888
#
# Static dielectric constant tensor:
#      x y z
#    x 3.726380 0.000000 -0.256740 
#    y 0.000000 3.492970 0.000000 
#    z -0.256740 0.000000 4.634210 
# 
# 
# High freq. dielectric constant tensor:
#      x y z
#    x 1.803000 0.000000 -0.004370 
#    y 0.000000 1.789170 0.000000 
#    z -0.004370 0.000000 1.845400 
# 
# From -- ./inp_files/7794.got.cif
#   From: 2010.03.12/outbox.cif.g09.slc.cpg/sg14_4_cif.got.tgz:7794.got - 2010.03.31 13:35:05.
