data_PCOD8129974
_publ_section_title
;
Structure prediction by ZEFSAII (Michael W. Deem and Ramdas Pophale) SiO2 
 PCOD8129974
Probable space group: C 2/C
;
_chemical_formula_sum "Si O2"
_cell_formula_units_Z 60
_cell_length_a 13.841158
_cell_length_b 16.100037
_cell_length_c 12.606813
_cell_angle_alpha 90.000000
_cell_angle_beta 92.741400
_cell_angle_gamma 90.000000
_cell_volume 2806.126919
_symmetry_space_group_name_H-M "C 2/C"
_symmetry_group_IT_number 15
_symmetry_cell_setting 'monoclinic'
loop_
_space_group_symop_operation_xyz
x,y,z
-x,y,1/2-z
-x,-y,-z
x,-y,1/2+z
1/2+x,1/2+y,z
1/2-x,1/2+y,1/2-z
1/2-x,1/2-y,-z
1/2+x,1/2-y,1/2+z
loop_
_atom_site_type_symbol
_atom_site_label
_atom_site_fract_x
_atom_site_fract_y
_atom_site_fract_z
Si Si1 0.000000 0.736500 0.250000
Si Si2 0.687851 0.361139 0.796108
Si Si3 0.322698 0.816087 0.625014
Si Si4 0.391976 0.528017 0.649812
Si Si5 0.610264 0.823637 0.288545
Si Si6 0.920486 0.884675 0.364943
Si Si7 0.263233 0.846376 0.013901
Si Si8 0.732435 0.861540 0.097381
O O1 0.079616 0.675163 0.303145
O O2 0.041747 0.791053 0.153963
O O3 0.738406 0.365312 0.684127
O O4 0.608074 0.432967 0.810344
O O5 0.631804 0.273975 0.800601
O O6 0.770589 0.376373 0.891993
O O7 0.335929 0.855628 0.509638
O O8 0.300285 0.718878 0.610827
O O9 0.507613 0.447546 0.404097
O O10 0.378173 0.586345 0.751404
O O11 0.298036 0.556422 0.578118
O O12 0.500000 0.838839 0.250000
O O13 0.645378 0.865424 0.403055
O O14 0.669368 0.869353 0.199564
O O15 0.837211 0.886581 0.448315
O O16 0.250000 0.750000 0.000000
#
# Coordination Sequence:
#
# PCOD8129974 Si02
#       8
#     4   8   8   8   8   8   8   8
#     4  10  16  34  60  84 108 144 208 246 286 340
#     4  10  23  37  55  89 125 154 191 245 305 361
#     4  10  20  35  59  85 117 151 203 249 285 350
#     4  10  20  37  60  87 122 156 189 240 304 369
#     4  10  21  38  60  89 117 156 202 247 299 357
#     4  10  19  34  62  88 117 159 189 238 306 373
#     4  10  20  38  58  83 122 159 197 244 296 350
#     4  10  19  38  58  85 116 157 195 247 300 346
#
# _framework density 21.381784
#
# number of rings (size 3 to 8) (size 9 to 14) (size 15 to 20)
#    0.000    2.133    4.000    1.600    1.867    4.800 
#    4.800    0.000    1.467    1.600    0.000    0.000 
#    0.000    0.000    0.000    0.000    0.000    0.000 
#
# Total GULP energy -371659.468232 kJ/mol
# GULP energy per Si atom -12388.648941 kJ/mol
# Density = 2.133312 g / cm^3
# Si number density = 21.381784 Si / 1000 Ang^3
#
#
#
# Elastic Constant Matrix: (Units=GPa)
#
#
# Indices 1 2 3 4 5 6 
#
# 1 102.4885 24.0455 20.4461 0.0000 23.1668 0.0000
# 2 24.0455 53.2056 2.2291 0.0000 -1.3251 0.0000
# 3 20.4461 2.2291 88.0463 0.0000 11.6898 0.0000
# 4 0.0000 0.0000 0.0000 13.8796 0.0000 -3.0337
# 5 23.1668 -1.3251 11.6898 0.0000 25.4258 0.0000
# 6 0.0000 0.0000 0.0000 -3.0337 0.0000 18.1870
#
#
#
# Elastic Compliance Matrix: (Units=1/GPa)
#
#
# Indices 1 2 3 4 5 6 
#
# 1 0.014595 -0.006857 -0.001494 0.000000 -0.012969 0.000000
# 2 -0.006857 0.022075 0.000054 0.000000 0.007373 0.000000
# 3 -0.001494 0.000054 0.012271 0.000000 -0.004278 0.000000
# 4 0.000000 0.000000 0.000000 0.074774 0.000000 0.012473
# 5 -0.012969 0.007373 -0.004278 0.000000 0.053498 0.000000
# 6 0.000000 0.000000 0.000000 0.012473 0.000000 0.057065
#
#
# Mechanical properties :
#
#
# Convention : Reuss Voigt Hill
#
# Bulk Modulus (GPa) = 30.91217 37.46464 34.18841
# Shear Modulus (GPa) = 19.10918 24.63313 21.87116
#
# Velocity S-wave (km/s) = 2.99275 3.39789 3.20173
# Velocity P-wave (km/s) = 5.14108 5.74055 5.44907
#
# Compressibility (1/GPa) = 0.03234972
#
# Stress axis : x y z
#
# Youngs Moduli (GPa) = 68.51428 45.29988 81.49202
#
# Poissons Ratio (x) = 0.31060 0.12174
# Poissons Ratio (y) = 0.46978 -0.00444
# Poissons Ratio (z) = 0.10235 -0.00247
#
# Static dielectric constant tensor:
#      x y z
#    x 3.810600 0.000000 0.312050 
#    y 0.000000 3.641570 0.000000 
#    z 0.312050 0.000000 5.562730 
# 
# 
# High freq. dielectric constant tensor:
#      x y z
#    x 1.819710 0.000000 0.013000 
#    y 0.000000 1.805340 0.000000 
#    z 0.013000 0.000000 1.845680 
# 
# From -- ./inp_files/98334.got.cif
#   From: 2010.06.25/outbox.cif.g09.slc.cpg/sg15_50_cif.got.tgz:98334.got - 2010.06.28 07:06:18.
