data_PCOD8129849
_publ_section_title
;
Structure prediction by ZEFSAII (Michael W. Deem and Ramdas Pophale) SiO2 
 PCOD8129849
Probable space group: C 2/C
;
_chemical_formula_sum "Si O2"
_cell_formula_units_Z 44
_cell_length_a 21.730040
_cell_length_b 6.888816
_cell_length_c 19.850957
_cell_angle_alpha 90.000000
_cell_angle_beta 123.388911
_cell_angle_gamma 90.000000
_cell_volume 2481.128803
_symmetry_space_group_name_H-M "C 2/C"
_symmetry_group_IT_number 15
_symmetry_cell_setting 'monoclinic'
loop_
_space_group_symop_operation_xyz
x,y,z
-x,y,1/2-z
-x,-y,-z
x,-y,1/2+z
1/2+x,1/2+y,z
1/2-x,1/2+y,1/2-z
1/2-x,1/2-y,-z
1/2+x,1/2-y,1/2+z
loop_
_atom_site_type_symbol
_atom_site_label
_atom_site_fract_x
_atom_site_fract_y
_atom_site_fract_z
Si Si1 0.668560 0.331814 0.952072
Si Si2 0.578632 0.455393 0.774265
Si Si3 0.550186 0.978059 0.413832
Si Si4 0.000000 0.673090 0.250000
Si Si5 0.048650 0.855226 0.613625
Si Si6 0.589558 0.386379 0.492062
O O1 0.644770 0.389143 0.862172
O O2 0.619444 0.161598 0.951764
O O3 0.750000 0.250000 0.000000
O O4 0.660361 0.520409 0.996765
O O5 0.500000 0.360100 0.750000
O O6 0.569914 0.690042 0.772242
O O7 0.598068 0.383196 0.710394
O O8 0.483599 0.863862 0.411480
O O9 0.521960 0.035047 0.323682
O O10 0.579040 0.160139 0.472842
O O11 0.096655 0.910984 0.577054
O O12 0.981547 0.006448 0.581450
#
# Coordination Sequence:
#
# PCOD8129849 Si02
#       6
#     8   8   8   4   8   8
#     4  11  23  37  57  78 115 152 186 229 279 343
#     4  10  16  37  54  81 109 141 180 238 276 321
#     4  11  17  32  56  83 106 139 184 225 289 330
#     4  10  16  30  58  86 106 130 188 240 266 324
#     4  10  19  31  57  82 115 134 175 239 285 322
#     4  10  19  34  51  86 112 139 178 233 280 328
#
# _framework density 17.733865000000002
#
# number of rings (size 3 to 8) (size 9 to 14) (size 15 to 20)
#    0.545    1.091    7.273    1.636    0.000    0.727 
#    0.000    0.000    4.000    0.000    0.000    0.000 
#    0.000    0.000    0.000    0.000    0.000    0.000 
#
# Total GULP energy -272697.854816 kJ/mol
# GULP energy per Si atom -12395.357037 kJ/mol
# Density = 1.769350 g / cm^3
# Si number density = 17.733865 Si / 1000 Ang^3
#
#
#
# Elastic Constant Matrix: (Units=GPa)
#
#
# Indices 1 2 3 4 5 6 
#
# 1 68.7977 26.1637 53.3756 0.0000 -10.9931 0.0000
# 2 26.1637 101.0958 24.8499 0.0002 -4.6382 0.0002
# 3 53.3756 24.8499 109.5539 0.0000 -16.4957 0.0000
# 4 0.0000 0.0002 0.0000 17.3314 0.0000 -0.8775
# 5 -10.9931 -4.6382 -16.4957 0.0000 26.4619 0.0000
# 6 0.0000 0.0002 0.0000 -0.8775 0.0000 17.6323
#
#
#
# Elastic Compliance Matrix: (Units=1/GPa)
#
#
# Indices 1 2 3 4 5 6 
#
# 1 0.024759 -0.003618 -0.010803 0.000000 0.002917 0.000000
# 2 -0.003618 0.011008 -0.000739 0.000000 -0.000035 0.000000
# 3 -0.010803 -0.000739 0.015300 0.000000 0.004920 0.000000
# 4 0.000000 0.000000 0.000000 0.057844 0.000000 0.002879
# 5 0.002917 -0.000035 0.004920 0.000000 0.042063 0.000000
# 6 0.000000 0.000000 0.000000 0.002879 0.000000 0.056857
#
#
# Mechanical properties :
#
#
# Convention : Reuss Voigt Hill
#
# Bulk Modulus (GPa) = 48.20240 54.24730 51.22485
# Shear Modulus (GPa) = 20.40259 23.95568 22.17914
#
# Velocity S-wave (km/s) = 3.39556 3.67937 3.54031
# Velocity P-wave (km/s) = 6.52787 6.97900 6.75720
#
# Compressibility (1/GPa) = 0.02074585
#
# Stress axis : x y z
#
# Youngs Moduli (GPa) = 40.39008 90.84160 65.36149
#
# Poissons Ratio (x) = 0.32870 0.70607
# Poissons Ratio (y) = 0.14615 0.04832
# Poissons Ratio (z) = 0.43632 0.06716
#
# Static dielectric constant tensor:
#      x y z
#    x 2.961370 0.000000 -0.287590 
#    y 0.000000 3.489040 0.000000 
#    z -0.287590 0.000000 3.172710 
# 
# 
# High freq. dielectric constant tensor:
#      x y z
#    x 1.635630 0.000000 -0.034520 
#    y 0.000000 1.703160 0.000000 
#    z -0.034520 0.000000 1.680200 
# 
# From -- ./inp_files/250753.got.cif
#   From: 2010.06.25/outbox.cif.g09.slc.cpg/sg15_126_cif.got.tgz:250753.got - 2010.06.28 07:06:18.
