data_PCOD8129019
_publ_section_title
;
Structure prediction by ZEFSAII (Michael W. Deem and Ramdas Pophale) SiO2 
 PCOD8129019
Probable space group: P 21/C
;
_chemical_formula_sum "Si O2"
_cell_formula_units_Z 28
_cell_length_a 9.333555
_cell_length_b 19.456335
_cell_length_c 9.154030
_cell_angle_alpha 90.000000
_cell_angle_beta 134.563922
_cell_angle_gamma 90.000000
_cell_volume 1184.365759
_symmetry_space_group_name_H-M "P 21/C"
_symmetry_group_IT_number 14
_symmetry_cell_setting 'monoclinic'
loop_
_space_group_symop_operation_xyz
x,y,z
-x,1/2+y,1/2-z
-x,-y,-z
x,1/2-y,1/2+z
loop_
_atom_site_type_symbol
_atom_site_label
_atom_site_fract_x
_atom_site_fract_y
_atom_site_fract_z
Si Si1 0.492901 0.396250 0.230497
Si Si2 0.924769 0.211885 0.228006
Si Si3 0.102844 0.936818 0.148640
Si Si4 0.186552 0.989300 0.524684
Si Si5 0.545631 0.240162 0.278995
Si Si6 0.137931 0.305428 0.600265
Si Si7 0.357956 0.617170 0.354394
O O1 0.684820 0.423009 0.277863
O O2 0.294952 0.440421 0.048477
O O3 0.468805 0.315760 0.175232
O O4 0.500415 0.406865 0.412004
O O5 0.856605 0.134318 0.222241
O O6 0.000635 0.248119 0.426824
O O7 0.111051 0.203214 0.253325
O O8 0.744482 0.254140 0.020324
O O9 0.122744 0.948306 0.335552
O O10 0.942289 0.876675 0.018119
O O11 0.000000 0.000000 0.000000
O O12 0.348157 0.941139 0.724660
O O13 0.000000 0.000000 0.500000
O O14 0.373953 0.201394 0.246620
O O15 0.578568 0.192503 0.160862
#
# Coordination Sequence:
#
# PCOD8129019 Si02
#       7
#     4   4   4   4   4   4   4
#     4  11  26  51  70 111 149 196 247 315 378 446
#     4  11  24  47  68 110 150 186 246 316 363 451
#     4  12  27  50  73 107 149 201 251 307 376 460
#     4  12  29  46  77 107 151 197 252 304 384 450
#     4  11  26  44  79 108 147 192 247 315 373 434
#     4  12  27  44  78 105 149 196 250 299 386 439
#     4  11  23  48  72 104 150 191 246 315 367 447
#
# _framework density 23.641344
#
# number of rings (size 3 to 8) (size 9 to 14) (size 15 to 20)
#    0.000    0.571    4.286    2.571   10.000    1.143 
#    2.571    0.000    0.000    0.000    0.000    0.000 
#    0.000    0.000    0.000    0.000    0.000    0.000 
#
# Total GULP energy -347165.049185 kJ/mol
# GULP energy per Si atom -12398.751757 kJ/mol
# Density = 2.358754 g / cm^3
# Si number density = 23.641344 Si / 1000 Ang^3
#
#
#
# Elastic Constant Matrix: (Units=GPa)
#
#
# Indices 1 2 3 4 5 6 
#
# 1 146.8532 28.9184 20.6175 0.0000 0.8728 0.0000
# 2 28.9184 83.7768 14.6625 0.0000 -7.1520 0.0000
# 3 20.6175 14.6625 57.3110 0.0000 -11.9862 0.0000
# 4 0.0000 0.0000 0.0000 26.7916 0.0000 -4.0365
# 5 0.8728 -7.1520 -11.9862 0.0000 36.6441 0.0000
# 6 0.0000 0.0000 0.0000 -4.0365 0.0000 44.7877
#
#
#
# Elastic Compliance Matrix: (Units=1/GPa)
#
#
# Indices 1 2 3 4 5 6 
#
# 1 0.007619 -0.002324 -0.002447 0.000000 -0.001435 0.000000
# 2 -0.002324 0.013282 -0.002156 0.000000 0.001943 0.000000
# 3 -0.002447 -0.002156 0.020185 0.000000 0.006240 0.000000
# 4 0.000000 0.000000 0.000000 0.037839 0.000000 0.003410
# 5 -0.001435 0.001943 0.006240 0.000000 0.029744 0.000000
# 6 0.000000 0.000000 0.000000 0.003410 0.000000 0.022635
#
#
# Mechanical properties :
#
#
# Convention : Reuss Voigt Hill
#
# Bulk Modulus (GPa) = 36.71947 46.25973 41.48960
# Shear Modulus (GPa) = 32.41802 36.56087 34.48945
#
# Velocity S-wave (km/s) = 3.70705 3.93680 3.82365
# Velocity P-wave (km/s) = 5.82139 6.34620 6.08945
#
# Compressibility (1/GPa) = 0.02723351
#
# Stress axis : x y z
#
# Youngs Moduli (GPa) = 131.24645 75.29026 49.54083
#
# Poissons Ratio (x) = 0.17500 0.12120
# Poissons Ratio (y) = 0.30507 0.10679
# Poissons Ratio (z) = 0.32110 0.16230
#
# Static dielectric constant tensor:
#      x y z
#    x 4.363350 0.000000 -0.141240 
#    y 0.000000 4.241450 0.000000 
#    z -0.141240 0.000000 4.180250 
# 
# 
# High freq. dielectric constant tensor:
#      x y z
#    x 1.952320 0.000000 -0.009550 
#    y 0.000000 1.941590 0.000000 
#    z -0.009550 0.000000 1.937710 
# 
# From -- ./inp_files/10420.got.cif
#   From: 2010.03.12/outbox.cif.g09.slc.cpg/sg14_6_cif.got.tgz:10420.got - 2010.03.31 13:35:05.
