data_PCOD8129725
_publ_section_title
;
Structure prediction by ZEFSAII (Michael W. Deem and Ramdas Pophale) SiO2 
 PCOD8129725
Probable space group: C 2/C
;
_chemical_formula_sum "Si O2"
_cell_formula_units_Z 52
_cell_length_a 8.426388
_cell_length_b 17.661826
_cell_length_c 19.386635
_cell_angle_alpha 90.000000
_cell_angle_beta 52.547941
_cell_angle_gamma 90.000000
_cell_volume 2290.470685
_symmetry_space_group_name_H-M "C 2/C"
_symmetry_group_IT_number 15
_symmetry_cell_setting 'monoclinic'
loop_
_space_group_symop_operation_xyz
x,y,z
-x,y,1/2-z
-x,-y,-z
x,-y,1/2+z
1/2+x,1/2+y,z
1/2-x,1/2+y,1/2-z
1/2-x,1/2-y,-z
1/2+x,1/2-y,1/2+z
loop_
_atom_site_type_symbol
_atom_site_label
_atom_site_fract_x
_atom_site_fract_y
_atom_site_fract_z
Si Si1 0.395498 0.523589 0.676810
Si Si2 0.972739 0.869623 0.609562
Si Si3 0.310875 0.001292 0.133673
Si Si4 0.261582 0.227207 0.622268
Si Si5 0.668310 0.308984 0.302259
Si Si6 0.500000 0.299688 0.750000
Si Si7 0.408062 0.882810 0.500020
O O1 0.407221 0.457645 0.615496
O O2 0.233980 0.491457 0.773946
O O3 0.617191 0.537017 0.648928
O O4 0.322987 0.605633 0.668916
O O5 0.971435 0.853166 0.692016
O O6 0.197907 0.856256 0.521643
O O7 0.817658 0.815814 0.611662
O O8 0.502242 0.948422 0.071706
O O9 0.358081 0.083968 0.089453
O O10 0.243899 0.189679 0.702815
O O11 0.438768 0.186405 0.533764
O O12 0.056841 0.222518 0.634257
O O13 0.808014 0.255271 0.311425
#
# Coordination Sequence:
#
# PCOD8129725 Si02
#       7
#     8   8   8   8   8   4   8
#     4  10  16  33  53  77 102 140 181 223 250 307
#     4  10  21  31  53  81 113 134 179 220 264 306
#     4   9  16  25  51  82 106 135 185 221 249 307
#     4  10  18  33  52  80 105 141 173 219 265 317
#     4  10  19  35  57  72 103 141 183 211 264 317
#     4  10  22  38  50  78 108 140 172 222 268 318
#     4  10  16  27  48  84 110 136 177 219 261 304
#
# _framework density 22.702756999999998
#
# number of rings (size 3 to 8) (size 9 to 14) (size 15 to 20)
#    0.000    2.154    3.077    3.231    0.000    0.000 
#    0.000    3.846    0.000    0.000    0.000   15.077 
#    0.000    0.000    0.000    0.000    0.000    0.000 
#
# Total GULP energy -322349.303864 kJ/mol
# GULP energy per Si atom -12398.050149 kJ/mol
# Density = 2.265108 g / cm^3
# Si number density = 22.702757 Si / 1000 Ang^3
#
#
#
# Elastic Constant Matrix: (Units=GPa)
#
#
# Indices 1 2 3 4 5 6 
#
# 1 51.4454 41.4230 18.3874 -0.0002 -23.8649 0.0001
# 2 41.4230 133.1767 13.2628 0.0000 -24.6346 -0.0001
# 3 18.3874 13.2628 72.3824 -0.0001 -34.7158 0.0000
# 4 -0.0002 0.0000 -0.0001 26.9387 0.0001 -16.6458
# 5 -23.8649 -24.6346 -34.7158 0.0001 29.5613 0.0000
# 6 0.0001 -0.0001 0.0000 -16.6458 0.0000 28.0491
#
#
#
# Elastic Compliance Matrix: (Units=1/GPa)
#
#
# Indices 1 2 3 4 5 6 
#
# 1 0.037647 -0.006015 0.008497 0.000000 0.035358 0.000000
# 2 -0.006015 0.010496 0.003367 0.000000 0.007845 0.000000
# 3 0.008497 0.003367 0.035892 0.000000 0.051816 0.000000
# 4 0.000000 0.000000 0.000000 0.058616 0.000000 0.034786
# 5 0.035358 0.007845 0.051816 0.000000 0.129761 0.000000
# 6 0.000000 0.000000 0.000000 0.034786 0.000000 0.056295
#
#
# Mechanical properties :
#
#
# Convention : Reuss Voigt Hill
#
# Bulk Modulus (GPa) = 10.44577 44.79455 27.62016
# Shear Modulus (GPa) = 14.32998 29.17192 21.75095
#
# Velocity S-wave (km/s) = 2.51509 3.58851 3.09864
# Velocity P-wave (km/s) = 3.61184 6.07812 4.99945
#
# Compressibility (1/GPa) = 0.09573256
#
# Stress axis : x y z
#
# Youngs Moduli (GPa) = 26.56278 95.27845 27.86146
#
# Poissons Ratio (x) = 0.57313 -0.23674
# Poissons Ratio (y) = 0.15978 -0.09382
# Poissons Ratio (z) = -0.22571 -0.32084
#
# Static dielectric constant tensor:
#      x y z
#    x 3.598200 0.000000 -0.522950 
#    y 0.000000 4.158160 0.000000 
#    z -0.522950 0.000000 4.091670 
# 
# 
# High freq. dielectric constant tensor:
#      x y z
#    x 1.840700 0.000000 -0.046400 
#    y 0.000000 1.908970 0.000000 
#    z -0.046400 0.000000 1.889710 
# 
# From -- ./inp_files/233008.got.cif
#   From: 2010.06.25/outbox.cif.g09.slc.cpg/sg15_117_cif.got.tgz:233008.got - 2010.06.28 07:06:18.
