data_PCOD8129807
_publ_section_title
;
Structure prediction by ZEFSAII (Michael W. Deem and Ramdas Pophale) SiO2 
 PCOD8129807
Probable space group: C 2/C
;
_chemical_formula_sum "Si O2"
_cell_formula_units_Z 44
_cell_length_a 20.312413
_cell_length_b 20.678615
_cell_length_c 5.166942
_cell_angle_alpha 90.000000
_cell_angle_beta 97.369216
_cell_angle_gamma 90.000000
_cell_volume 2152.357847
_symmetry_space_group_name_H-M "C 2/C"
_symmetry_group_IT_number 15
_symmetry_cell_setting 'monoclinic'
loop_
_space_group_symop_operation_xyz
x,y,z
-x,y,1/2-z
-x,-y,-z
x,-y,1/2+z
1/2+x,1/2+y,z
1/2-x,1/2+y,1/2-z
1/2-x,1/2-y,-z
1/2+x,1/2-y,1/2+z
loop_
_atom_site_type_symbol
_atom_site_label
_atom_site_fract_x
_atom_site_fract_y
_atom_site_fract_z
Si Si1 0.500000 0.456809 0.250000
Si Si2 0.206988 0.175996 0.716798
Si Si3 0.165032 0.248717 0.207610
Si Si4 0.541538 0.169650 0.518468
Si Si5 0.574455 0.027749 0.510378
Si Si6 0.355638 0.544218 0.713731
O O1 0.500000 0.500000 0.500000
O O2 0.571033 0.419767 0.263645
O O3 0.164790 0.197690 0.443855
O O4 0.284424 0.192266 0.703944
O O5 0.198585 0.099932 0.767886
O O6 0.183561 0.214742 0.952693
O O7 0.091560 0.275364 0.134274
O O8 0.500000 0.151184 0.750000
O O9 0.577680 0.103752 0.449797
O O10 0.500000 0.195416 0.250000
O O11 0.500000 0.000000 0.500000
O O12 0.611996 0.990831 0.294799
O O13 0.346082 0.507526 0.437927
#
# Coordination Sequence:
#
# PCOD8129807 Si02
#       6
#     4   8   8   8   8   8
#     4   8  16  30  50  80 112 144 166 214 300 358
#     4  10  21  43  62  80 118 158 201 234 289 356
#     4  10  23  40  60  82 114 168 196 234 293 340
#     4  12  21  35  57  83 118 146 199 248 283 338
#     4  10  16  30  49  72 105 157 182 214 292 340
#     4  10  19  35  62  89 117 145 187 242 298 352
#
# _framework density 20.442696000000002
#
# number of rings (size 3 to 8) (size 9 to 14) (size 15 to 20)
#    0.000    1.818    3.636    2.182    0.000    0.000 
#    4.909    1.818    0.000    0.000    0.000    0.000 
#    0.000    0.000    0.000    0.000    0.000    0.000 
#
# Total GULP energy -272605.245889 kJ/mol
# GULP energy per Si atom -12391.147540 kJ/mol
# Density = 2.039617 g / cm^3
# Si number density = 20.442696 Si / 1000 Ang^3
#
#
#
# Elastic Constant Matrix: (Units=GPa)
#
#
# Indices 1 2 3 4 5 6 
#
# 1 44.2949 28.9258 20.9134 0.0000 3.0355 0.0000
# 2 28.9258 100.0528 40.0450 0.0000 12.1108 0.0000
# 3 20.9134 40.0450 177.4679 0.0000 1.8158 0.0000
# 4 0.0000 0.0000 0.0000 28.8974 0.0000 0.8530
# 5 3.0355 12.1108 1.8158 0.0000 28.3085 0.0000
# 6 0.0000 0.0000 0.0000 0.8530 0.0000 22.1603
#
#
#
# Elastic Compliance Matrix: (Units=1/GPa)
#
#
# Indices 1 2 3 4 5 6 
#
# 1 0.028257 -0.007555 -0.001628 0.000000 0.000306 0.000000
# 2 -0.007555 0.013624 -0.002134 0.000000 -0.004882 0.000000
# 3 -0.001628 -0.002134 0.006301 0.000000 0.000683 0.000000
# 4 0.000000 0.000000 0.000000 0.034645 0.000000 -0.001334
# 5 0.000306 -0.004882 0.000683 0.000000 0.037337 0.000000
# 6 0.000000 0.000000 0.000000 -0.001334 0.000000 0.045177
#
#
# Mechanical properties :
#
#
# Convention : Reuss Voigt Hill
#
# Bulk Modulus (GPa) = 39.14162 55.73156 47.43659
# Shear Modulus (GPa) = 25.44651 31.33534 28.39093
#
# Velocity S-wave (km/s) = 3.53196 3.91940 3.73071
# Velocity P-wave (km/s) = 5.98511 6.91402 6.46627
#
# Compressibility (1/GPa) = 0.02554825
#
# Stress axis : x y z
#
# Youngs Moduli (GPa) = 35.38921 73.40105 158.69892
#
# Poissons Ratio (x) = 0.55452 0.25842
# Poissons Ratio (y) = 0.26735 0.33865
# Poissons Ratio (z) = 0.05763 0.15663
#
# Static dielectric constant tensor:
#      x y z
#    x 3.248910 0.000000 2.045700 
#    y 0.000000 3.308970 0.000000 
#    z 2.045700 0.000000 -4.303350 
# 
# 
# High freq. dielectric constant tensor:
#      x y z
#    x 1.765840 0.000000 -0.009260 
#    y 0.000000 1.774770 0.000000 
#    z -0.009260 0.000000 1.834110 
# 
# From -- ./inp_files/12955.got.cif
#   From: 2010.06.25/outbox.cif.g09.slc.cpg/sg15_7_cif.got.tgz:12955.got - 2010.06.28 07:06:18.
