data_PCOD8129866
_publ_section_title
;
Structure prediction by ZEFSAII (Michael W. Deem and Ramdas Pophale) SiO2 
 PCOD8129866
Probable space group: C 2/C
;
_chemical_formula_sum "Si O2"
_cell_formula_units_Z 60
_cell_length_a 15.214371
_cell_length_b 11.733079
_cell_length_c 21.693353
_cell_angle_alpha 90.000000
_cell_angle_beta 120.190841
_cell_angle_gamma 90.000000
_cell_volume 3347.225180
_symmetry_space_group_name_H-M "C 2/C"
_symmetry_group_IT_number 15
_symmetry_cell_setting 'monoclinic'
loop_
_space_group_symop_operation_xyz
x,y,z
-x,y,1/2-z
-x,-y,-z
x,-y,1/2+z
1/2+x,1/2+y,z
1/2-x,1/2+y,1/2-z
1/2-x,1/2-y,-z
1/2+x,1/2-y,1/2+z
loop_
_atom_site_type_symbol
_atom_site_label
_atom_site_fract_x
_atom_site_fract_y
_atom_site_fract_z
Si Si1 0.521854 0.166456 0.982500
Si Si2 0.000000 0.375712 0.250000
Si Si3 0.317267 0.759530 0.119895
Si Si4 0.816251 0.090987 0.551260
Si Si5 0.396746 0.171217 0.056570
Si Si6 0.290305 0.052523 0.385940
Si Si7 0.148556 0.131479 0.494624
Si Si8 0.947238 0.486990 0.350461
O O1 0.554266 0.298608 0.989118
O O2 0.494423 0.117593 0.905951
O O3 0.426072 0.168471 0.994434
O O4 0.610975 0.082387 0.037374
O O5 0.923849 0.299186 0.183751
O O6 0.936403 0.452316 0.275354
O O7 0.269174 0.669346 0.151189
O O8 0.321411 0.688783 0.058768
O O9 0.241735 0.864464 0.077166
O O10 0.715118 0.119074 0.476521
O O11 0.890205 0.200702 0.582984
O O12 0.782767 0.040325 0.606311
O O13 0.877416 0.999083 0.530897
O O14 0.481106 0.099125 0.123045
O O15 0.333421 0.008035 0.335887
#
# Coordination Sequence:
#
# PCOD8129866 Si02
#       8
#     8   4   8   8   8   8   8   8
#     4  10  16  31  54  78 102 135 173 218 253 311
#     4  12  22  32  56  78 106 128 186 226 258 310
#     4   9  18  31  53  80 101 135 171 225 257 310
#     4  10  17  28  49  80 105 133 163 215 256 310
#     4  10  19  29  49  78 110 132 171 207 261 316
#     4   9  17  33  56  72 103 139 175 207 261 313
#     4   9  17  31  54  78 106 130 174 219 270 293
#     4  11  19  34  51  78 102 139 175 213 261 311
#
# _framework density 17.925294999999998
#
# number of rings (size 3 to 8) (size 9 to 14) (size 15 to 20)
#    0.000    2.133    4.000    2.400    0.000    0.533 
#    0.000    1.333    2.933    9.600    0.000    0.000 
#    0.000    0.000    0.000    0.000    0.000    0.000 
#
# Total GULP energy -371745.612254 kJ/mol
# GULP energy per Si atom -12391.520408 kJ/mol
# Density = 1.788450 g / cm^3
# Si number density = 17.925295 Si / 1000 Ang^3
#
#
#
# Elastic Constant Matrix: (Units=GPa)
#
#
# Indices 1 2 3 4 5 6 
#
# 1 67.2431 41.2190 27.6929 0.0000 -11.6854 0.0000
# 2 41.2190 107.0855 25.5600 0.0000 -3.9324 0.0000
# 3 27.6929 25.5600 52.7711 0.0000 -6.9207 0.0000
# 4 0.0000 0.0000 0.0000 5.9903 0.0000 -3.4299
# 5 -11.6854 -3.9324 -6.9207 0.0000 24.4026 0.0000
# 6 0.0000 0.0000 0.0000 -3.4299 0.0000 33.0579
#
#
#
# Elastic Compliance Matrix: (Units=1/GPa)
#
#
# Indices 1 2 3 4 5 6 
#
# 1 0.023866 -0.006958 -0.008104 0.000000 0.008009 0.000000
# 2 -0.006958 0.012589 -0.002718 0.000000 -0.002074 0.000000
# 3 -0.008104 -0.002718 0.024878 0.000000 0.002737 0.000000
# 4 0.000000 0.000000 0.000000 0.177479 0.000000 0.018414
# 5 0.008009 -0.002074 0.002737 0.000000 0.045256 0.000000
# 6 0.000000 0.000000 0.000000 0.018414 0.000000 0.032161
#
#
# Mechanical properties :
#
#
# Convention : Reuss Voigt Hill
#
# Bulk Modulus (GPa) = 38.80035 46.22706 42.51371
# Shear Modulus (GPa) = 13.87427 21.53201 17.70314
#
# Velocity S-wave (km/s) = 2.78511 3.46960 3.14603
# Velocity P-wave (km/s) = 5.65995 6.47268 6.07991
#
# Compressibility (1/GPa) = 0.02577296
#
# Stress axis : x y z
#
# Youngs Moduli (GPa) = 41.90130 79.43302 40.19625
#
# Poissons Ratio (x) = 0.55269 0.32574
# Poissons Ratio (y) = 0.29155 0.10927
# Poissons Ratio (z) = 0.33955 0.21593
#
# Static dielectric constant tensor:
#      x y z
#    x 3.594650 0.000000 -0.125330 
#    y 0.000000 3.615920 0.000000 
#    z -0.125330 0.000000 2.860940 
# 
# 
# High freq. dielectric constant tensor:
#      x y z
#    x 1.694880 0.000000 -0.009320 
#    y 0.000000 1.698590 0.000000 
#    z -0.009320 0.000000 1.637050 
# 
# From -- ./inp_files/243758.got.cif
#   From: 2010.06.25/outbox.cif.g09.slc.cpg/sg15_122_cif.got.tgz:243758.got - 2010.06.28 07:06:18.
