data_PCOD8129479
_publ_section_title
;
Structure prediction by ZEFSAII (Michael W. Deem and Ramdas Pophale) SiO2 
 PCOD8129479
Probable space group: P 21/C
;
_chemical_formula_sum "Si O2"
_cell_formula_units_Z 16
_cell_length_a 12.195695
_cell_length_b 7.556471
_cell_length_c 8.530309
_cell_angle_alpha 90.000000
_cell_angle_beta 46.188315
_cell_angle_gamma 90.000000
_cell_volume 567.281122
_symmetry_space_group_name_H-M "P 21/C"
_symmetry_group_IT_number 14
_symmetry_cell_setting 'monoclinic'
loop_
_space_group_symop_operation_xyz
x,y,z
-x,1/2+y,1/2-z
-x,-y,-z
x,1/2-y,1/2+z
loop_
_atom_site_type_symbol
_atom_site_label
_atom_site_fract_x
_atom_site_fract_y
_atom_site_fract_z
Si Si1 0.711856 0.582699 0.719509
Si Si2 0.048930 0.136122 0.582589
Si Si3 0.228416 0.851218 0.577228
Si Si4 0.469608 0.148430 0.901734
O O1 0.869613 0.691739 0.568759
O O2 0.738817 0.387293 0.769397
O O3 0.652844 0.569831 0.599727
O O4 0.588705 0.676094 0.955134
O O5 0.895641 0.196504 0.824147
O O6 0.167842 0.041185 0.578299
O O7 0.000000 0.000000 0.500000
O O8 0.379251 0.793665 0.338553
O O9 0.500000 0.000000 0.000000
#
# Coordination Sequence:
#
# PCOD8129479 Si02
#       4
#     4   4   4   4
#     4  12  26  54  81 125 166 221 290 346 423 500
#     4  12  28  52  83 121 172 221 279 346 429 510
#     4  12  28  52  84 123 171 224 284 349 422 509
#     4  12  26  51  85 120 168 217 281 353 419 497
#
# _framework density 28.204706999999999
#
# number of rings (size 3 to 8) (size 9 to 14) (size 15 to 20)
#    0.000    0.000    5.000    3.000    3.500    2.000 
#    0.000    0.000    0.000    0.000    0.000    0.000 
#    0.000    0.000    0.000    0.000    0.000    0.000 
#
# Total GULP energy -198545.677340 kJ/mol
# GULP energy per Si atom -12409.104834 kJ/mol
# Density = 2.814051 g / cm^3
# Si number density = 28.204707 Si / 1000 Ang^3
#
#
#
# Elastic Constant Matrix: (Units=GPa)
#
#
# Indices 1 2 3 4 5 6 
#
# 1 144.3752 6.6755 17.0294 0.0000 12.8149 0.0000
# 2 6.6755 43.0722 -8.6875 0.0000 -1.5391 0.0000
# 3 17.0294 -8.6875 134.3670 0.0000 -24.4908 0.0000
# 4 0.0000 0.0000 0.0000 35.8592 0.0000 3.6247
# 5 12.8149 -1.5391 -24.4908 0.0000 50.1443 0.0000
# 6 0.0000 0.0000 0.0000 3.6247 0.0000 60.4730
#
#
#
# Elastic Compliance Matrix: (Units=1/GPa)
#
#
# Indices 1 2 3 4 5 6 
#
# 1 0.007418 -0.001555 -0.001531 0.000000 -0.002691 0.000000
# 2 -0.001555 0.023968 0.002144 0.000000 0.002180 0.000000
# 3 -0.001531 0.002144 0.008626 0.000000 0.004670 0.000000
# 4 0.000000 0.000000 0.000000 0.028057 0.000000 -0.001682
# 5 -0.002691 0.002180 0.004670 0.000000 0.022978 0.000000
# 6 0.000000 0.000000 0.000000 -0.001682 0.000000 0.016637
#
#
# Mechanical properties :
#
#
# Convention : Reuss Voigt Hill
#
# Bulk Modulus (GPa) = 26.22702 39.09437 32.66070
# Shear Modulus (GPa) = 40.89074 49.74843 45.31958
#
# Velocity S-wave (km/s) = 3.81173 4.20436 4.01285
# Velocity P-wave (km/s) = 5.35644 6.12045 5.75114
#
# Compressibility (1/GPa) = 0.03812861
#
# Stress axis : x y z
#
# Youngs Moduli (GPa) = 134.81162 41.72214 115.92576
#
# Poissons Ratio (x) = 0.06486 0.17750
# Poissons Ratio (y) = 0.20958 -0.24855
# Poissons Ratio (z) = 0.20642 -0.08945
#
# Static dielectric constant tensor:
#      x y z
#    x 5.953240 0.000000 -0.151960 
#    y 0.000000 5.214130 0.000000 
#    z -0.151960 0.000000 5.577980 
# 
# 
# High freq. dielectric constant tensor:
#      x y z
#    x 2.165970 0.000000 -0.003080 
#    y 0.000000 2.144110 0.000000 
#    z -0.003080 0.000000 2.152090 
# 
# From -- ./inp_files/7273.got.cif
#   From: 2010.03.12/outbox.cif.g09.slc.cpg/sg14_4_cif.got.tgz:7273.got - 2010.03.31 13:35:05.
