data_PCOD8129476
_publ_section_title
;
Structure prediction by ZEFSAII (Michael W. Deem and Ramdas Pophale) SiO2 
 PCOD8129476
Probable space group: P 21/C
;
_chemical_formula_sum "Si O2"
_cell_formula_units_Z 16
_cell_length_a 10.894226
_cell_length_b 8.132621
_cell_length_c 12.969747
_cell_angle_alpha 90.000000
_cell_angle_beta 143.911374
_cell_angle_gamma 90.000000
_cell_volume 676.862134
_symmetry_space_group_name_H-M "P 21/C"
_symmetry_group_IT_number 14
_symmetry_cell_setting 'monoclinic'
loop_
_space_group_symop_operation_xyz
x,y,z
-x,1/2+y,1/2-z
-x,-y,-z
x,1/2-y,1/2+z
loop_
_atom_site_type_symbol
_atom_site_label
_atom_site_fract_x
_atom_site_fract_y
_atom_site_fract_z
Si Si1 0.994974 0.275967 0.287912
Si Si2 0.404277 0.544886 0.043011
Si Si3 0.742244 0.539741 0.675766
Si Si4 0.302792 0.304684 0.151796
O O1 0.183997 0.290693 0.331565
O O2 0.108391 0.303404 0.476221
O O3 0.875535 0.103183 0.211924
O O4 0.833972 0.415631 0.145633
O O5 0.409943 0.396741 0.128200
O O6 0.523987 0.697875 0.173905
O O7 0.500000 0.500000 0.000000
O O8 0.500000 0.500000 0.500000
O O9 0.786530 0.561590 0.827550
#
# Coordination Sequence:
#
# PCOD8129476 Si02
#       4
#     4   4   4   4
#     4  12  27  47  77 110 154 201 260 318 398 455
#     4  12  29  49  79 117 156 202 270 322 387 479
#     4  12  26  51  76 114 158 203 264 326 386 480
#     4  12  27  48  80 110 159 210 254 325 400 453
#
# _framework density 23.638493
#
# number of rings (size 3 to 8) (size 9 to 14) (size 15 to 20)
#    0.000    0.000    5.000    3.750    3.500    1.000 
#    0.000    0.000    0.000    0.000    0.000    0.000 
#    0.000    0.000    0.000    0.000    0.000    0.000 
#
# Total GULP energy -198255.622593 kJ/mol
# GULP energy per Si atom -12390.976412 kJ/mol
# Density = 2.358469 g / cm^3
# Si number density = 23.638493 Si / 1000 Ang^3
#
#
#
# Elastic Constant Matrix: (Units=GPa)
#
#
# Indices 1 2 3 4 5 6 
#
# 1 194.3713 86.5209 88.9274 0.0000 -13.7238 0.0000
# 2 86.5209 88.8004 55.4650 0.0000 0.7766 0.0000
# 3 88.9274 55.4650 180.2943 0.0000 3.1139 0.0000
# 4 0.0000 0.0000 0.0000 45.6101 0.0000 -5.8166
# 5 -13.7238 0.7766 3.1139 0.0000 47.7109 0.0000
# 6 0.0000 0.0000 0.0000 -5.8166 0.0000 56.7221
#
#
#
# Elastic Compliance Matrix: (Units=1/GPa)
#
#
# Indices 1 2 3 4 5 6 
#
# 1 0.010317 -0.008501 -0.002530 0.000000 0.003271 0.000000
# 2 -0.008501 0.020944 -0.002205 0.000000 -0.002642 0.000000
# 3 -0.002530 -0.002205 0.007493 0.000000 -0.001181 0.000000
# 4 0.000000 0.000000 0.000000 0.022215 0.000000 0.002278
# 5 0.003271 -0.002642 -0.001181 0.000000 0.022021 0.000000
# 6 0.000000 0.000000 0.000000 0.002278 0.000000 0.017863
#
#
# Mechanical properties :
#
#
# Convention : Reuss Voigt Hill
#
# Bulk Modulus (GPa) = 81.41221 102.81027 92.11124
# Shear Modulus (GPa) = 38.04621 45.51213 41.77917
#
# Velocity S-wave (km/s) = 4.01621 4.39263 4.20863
# Velocity P-wave (km/s) = 7.48478 8.32551 7.91631
#
# Compressibility (1/GPa) = 0.01228317
#
# Stress axis : x y z
#
# Youngs Moduli (GPa) = 96.92457 47.74685 133.45619
#
# Poissons Ratio (x) = 0.40588 0.33768
# Poissons Ratio (y) = 0.82392 0.29422
# Poissons Ratio (z) = 0.24524 0.10526
#
# Static dielectric constant tensor:
#      x y z
#    x 3.990620 0.000000 -0.450790 
#    y 0.000000 4.240400 0.000000 
#    z -0.450790 0.000000 4.260560 
# 
# 
# High freq. dielectric constant tensor:
#      x y z
#    x 1.948410 0.000000 0.002600 
#    y 0.000000 1.932370 0.000000 
#    z 0.002600 0.000000 1.960040 
# 
# From -- ./inp_files/22536.got.cif
#   From: 2010.03.12/outbox.cif.g09.slc.cpg/sg14_12_cif.got.tgz:22536.got - 2010.03.31 13:35:05.
