data_PCOD8129907
_publ_section_title
;
Structure prediction by ZEFSAII (Michael W. Deem and Ramdas Pophale) SiO2 
 PCOD8129907
Probable space group: C 2/C
;
_chemical_formula_sum "Si O2"
_cell_formula_units_Z 44
_cell_length_a 8.721016
_cell_length_b 17.691308
_cell_length_c 18.504737
_cell_angle_alpha 90.000000
_cell_angle_beta 59.888400
_cell_angle_gamma 90.000000
_cell_volume 2469.739160
_symmetry_space_group_name_H-M "C 2/C"
_symmetry_group_IT_number 15
_symmetry_cell_setting 'monoclinic'
loop_
_space_group_symop_operation_xyz
x,y,z
-x,y,1/2-z
-x,-y,-z
x,-y,1/2+z
1/2+x,1/2+y,z
1/2-x,1/2+y,1/2-z
1/2-x,1/2-y,-z
1/2+x,1/2-y,1/2+z
loop_
_atom_site_type_symbol
_atom_site_label
_atom_site_fract_x
_atom_site_fract_y
_atom_site_fract_z
Si Si1 0.644014 0.587656 0.877509
Si Si2 0.809068 0.130317 0.475167
Si Si3 0.378621 0.347023 0.344372
Si Si4 0.579137 0.486708 0.658341
Si Si5 0.518477 0.225319 0.901668
Si Si6 0.500000 0.840993 0.250000
O O1 0.657891 0.582614 0.960112
O O2 0.500580 0.653179 0.888141
O O3 0.579935 0.507201 0.860461
O O4 0.830626 0.605488 0.796235
O O5 0.793380 0.073235 0.411156
O O6 0.624957 0.174623 0.522639
O O7 0.973758 0.187083 0.424686
O O8 0.500000 0.317813 0.250000
O O9 0.318303 0.435072 0.344248
O O10 0.208804 0.293346 0.391964
O O11 0.500000 0.449650 0.750000
O O12 0.517513 0.211327 0.816244
#
# Coordination Sequence:
#
# PCOD8129907 Si02
#       6
#     8   8   8   8   8   4
#     4   9  18  33  56  74 100 138 175 215 257 310
#     4  10  21  32  51  80 108 132 172 222 264 304
#     4   9  17  34  55  76  97 138 182 207 259 315
#     4   9  18  34  55  75 102 137 178 215 260 304
#     4  10  20  33  50  80 105 137 174 212 266 316
#     4  10  16  32  56  72 100 138 178 210 252 322
#
# _framework density 17.815646000000001
#
# number of rings (size 3 to 8) (size 9 to 14) (size 15 to 20)
#    1.091    1.455    1.818    0.545    1.273    1.455 
#    0.000    0.000    2.000    0.000    0.000    0.000 
#    0.000    0.000    0.000    0.000    0.000    0.000 
#
# Total GULP energy -272623.419009 kJ/mol
# GULP energy per Si atom -12391.973591 kJ/mol
# Density = 1.777510 g / cm^3
# Si number density = 17.815646 Si / 1000 Ang^3
#
#
#
# Elastic Constant Matrix: (Units=GPa)
#
#
# Indices 1 2 3 4 5 6 
#
# 1 59.2179 6.0798 20.7058 0.0000 -16.5386 0.0000
# 2 6.0798 48.4038 36.0896 0.0000 -8.1239 0.0000
# 3 20.7058 36.0896 105.2579 0.0000 -1.9954 0.0000
# 4 0.0000 0.0000 0.0000 17.7016 0.0000 -2.2044
# 5 -16.5386 -8.1239 -1.9954 0.0000 28.5772 0.0000
# 6 0.0000 0.0000 0.0000 -2.2044 0.0000 14.4189
#
#
#
# Elastic Compliance Matrix: (Units=1/GPa)
#
#
# Indices 1 2 3 4 5 6 
#
# 1 0.022120 0.003393 -0.005261 0.000000 0.013399 0.000000
# 2 0.003393 0.029854 -0.010719 0.000000 0.009702 0.000000
# 3 -0.005261 -0.010719 0.014114 0.000000 -0.005106 0.000000
# 4 0.000000 0.000000 0.000000 0.057589 0.000000 0.008804
# 5 0.013399 0.009702 -0.005106 0.000000 0.045149 0.000000
# 6 0.000000 0.000000 0.000000 0.008804 0.000000 0.070699
#
#
# Mechanical properties :
#
#
# Convention : Reuss Voigt Hill
#
# Bulk Modulus (GPa) = 24.44211 37.62557 31.03384
# Shear Modulus (GPa) = 17.96385 22.13983 20.05184
#
# Velocity S-wave (km/s) = 3.17885 3.52905 3.35851
# Velocity P-wave (km/s) = 5.21754 6.14579 5.70059
#
# Compressibility (1/GPa) = 0.04091301
#
# Stress axis : x y z
#
# Youngs Moduli (GPa) = 45.20826 33.49623 70.85231
#
# Poissons Ratio (x) = -0.11364 0.37272
# Poissons Ratio (y) = -0.15337 0.75950
# Poissons Ratio (z) = 0.23782 0.35906
#
# Static dielectric constant tensor:
#      x y z
#    x 3.151570 0.000000 0.039120 
#    y 0.000000 2.945630 0.000000 
#    z 0.039120 0.000000 3.341790 
# 
# 
# High freq. dielectric constant tensor:
#      x y z
#    x 1.675220 0.000000 0.007820 
#    y 0.000000 1.656010 0.000000 
#    z 0.007820 0.000000 1.698310 
# 
# From -- ./inp_files/231975.got.cif
#   From: 2010.06.25/outbox.cif.g09.slc.cpg/sg15_116_cif.got.tgz:231975.got - 2010.06.28 07:06:18.
