data_PCOD8129305
_publ_section_title
;
Structure prediction by ZEFSAII (Michael W. Deem and Ramdas Pophale) SiO2 
 PCOD8129305
Probable space group: P 21/C
;
_chemical_formula_sum "Si O2"
_cell_formula_units_Z 20
_cell_length_a 17.407960
_cell_length_b 4.661228
_cell_length_c 9.388168
_cell_angle_alpha 90.000000
_cell_angle_beta 107.411722
_cell_angle_gamma 90.000000
_cell_volume 726.873761
_symmetry_space_group_name_H-M "P 21/C"
_symmetry_group_IT_number 14
_symmetry_cell_setting 'monoclinic'
loop_
_space_group_symop_operation_xyz
x,y,z
-x,1/2+y,1/2-z
-x,-y,-z
x,1/2-y,1/2+z
loop_
_atom_site_type_symbol
_atom_site_label
_atom_site_fract_x
_atom_site_fract_y
_atom_site_fract_z
Si Si1 0.158123 0.433347 0.042323
Si Si2 0.372996 0.879962 0.900967
Si Si3 0.512446 0.677699 0.159309
Si Si4 0.269648 0.560232 0.615713
Si Si5 0.054161 0.360742 0.253013
O O1 0.193717 0.744746 0.025475
O O2 0.087767 0.456621 0.119072
O O3 0.233298 0.245412 0.142094
O O4 0.123933 0.292477 0.880422
O O5 0.312577 0.692956 0.776135
O O6 0.404336 0.163251 0.835645
O O7 0.448568 0.671297 0.991617
O O8 0.329863 0.991294 0.018743
O O9 0.529782 0.363979 0.236011
O O10 0.020878 0.644192 0.313929
#
# Coordination Sequence:
#
# PCOD8129305 Si02
#       5
#     4   4   4   4   4
#     4  12  26  45  69 106 142 180 232 284 344 432
#     4  11  26  47  72 102 138 194 234 300 352 418
#     4  11  26  47  72 103 138 181 258 293 354 417
#     4  12  26  45  69 102 146 186 230 288 366 414
#     4  12  24  45  74 102 138 182 230 282 342 404
#
# _framework density 27.515094999999999
#
# number of rings (size 3 to 8) (size 9 to 14) (size 15 to 20)
#    0.000    0.400    2.000    6.000    2.800    6.400 
#    0.000    0.000    0.000    0.000    0.000    0.000 
#    0.000    0.000    0.000    0.000    0.000    0.000 
#
# Total GULP energy -248283.422582 kJ/mol
# GULP energy per Si atom -12414.171129 kJ/mol
# Density = 2.745247 g / cm^3
# Si number density = 27.515095 Si / 1000 Ang^3
#
#
#
# Elastic Constant Matrix: (Units=GPa)
#
#
# Indices 1 2 3 4 5 6 
#
# 1 103.7284 -2.6700 -0.1988 0.0000 -15.2015 0.0000
# 2 -2.6700 80.4739 -17.5721 0.0000 -11.8686 0.0000
# 3 -0.1988 -17.5721 89.7041 0.0000 -9.8690 0.0000
# 4 0.0000 0.0000 0.0000 27.9497 0.0000 1.3270
# 5 -15.2015 -11.8686 -9.8690 0.0000 43.2757 0.0000
# 6 0.0000 0.0000 0.0000 1.3270 0.0000 51.1022
#
#
#
# Elastic Compliance Matrix: (Units=1/GPa)
#
#
# Indices 1 2 3 4 5 6 
#
# 1 0.010265 0.001088 0.000683 0.000000 0.004060 0.000000
# 2 0.001088 0.013905 0.003270 0.000000 0.004942 0.000000
# 3 0.000683 0.003270 0.012221 0.000000 0.003924 0.000000
# 4 0.000000 0.000000 0.000000 0.035823 0.000000 -0.000930
# 5 0.004060 0.004942 0.003924 0.000000 0.026784 0.000000
# 6 0.000000 0.000000 0.000000 -0.000930 0.000000 0.019593
#
#
# Mechanical properties :
#
#
# Convention : Reuss Voigt Hill
#
# Bulk Modulus (GPa) = 21.51755 25.89164 23.70460
# Shear Modulus (GPa) = 40.32247 44.08866 42.20557
#
# Velocity S-wave (km/s) = 3.83230 4.00727 3.92076
# Velocity P-wave (km/s) = 5.23634 5.55350 5.39725
#
# Compressibility (1/GPa) = 0.04647369
#
# Stress axis : x y z
#
# Youngs Moduli (GPa) = 97.41965 71.91482 81.82302
#
# Poissons Ratio (x) = -0.07827 -0.05585
# Poissons Ratio (y) = -0.10603 -0.26756
# Poissons Ratio (z) = -0.06650 -0.23516
#
# Static dielectric constant tensor:
#      x y z
#    x 5.213200 0.000000 -0.023100 
#    y 0.000000 5.208070 0.000000 
#    z -0.023100 0.000000 4.893730 
# 
# 
# High freq. dielectric constant tensor:
#      x y z
#    x 2.129020 0.000000 -0.006260 
#    y 0.000000 2.123500 0.000000 
#    z -0.006260 0.000000 2.123830 
# 
# From -- ./inp_files/17289.got.cif
#   From: 2010.03.12/outbox.cif.g09.slc.cpg/sg14_9_cif.got.tgz:17289.got - 2010.03.31 13:35:05.
