data_PCOD8129309
_publ_section_title
;
Structure prediction by ZEFSAII (Michael W. Deem and Ramdas Pophale) SiO2 
 PCOD8129309
Probable space group: P 21/C
;
_chemical_formula_sum "Si O2"
_cell_formula_units_Z 12
_cell_length_a 13.241416
_cell_length_b 4.588981
_cell_length_c 21.000388
_cell_angle_alpha 90.000000
_cell_angle_beta 18.489931
_cell_angle_gamma 90.000000
_cell_volume 404.693553
_symmetry_space_group_name_H-M "P 21/C"
_symmetry_group_IT_number 14
_symmetry_cell_setting 'monoclinic'
loop_
_space_group_symop_operation_xyz
x,y,z
-x,1/2+y,1/2-z
-x,-y,-z
x,1/2-y,1/2+z
loop_
_atom_site_type_symbol
_atom_site_label
_atom_site_fract_x
_atom_site_fract_y
_atom_site_fract_z
Si Si1 0.902716 0.466204 0.348088
Si Si2 0.720335 0.619442 0.751905
Si Si3 0.325873 0.829018 0.325860
O O1 0.558979 0.317666 0.554887
O O2 0.866087 0.782529 0.337660
O O3 0.063343 0.501541 0.320581
O O4 0.600865 0.334684 0.784594
O O5 0.948652 0.829666 0.570385
O O6 0.511103 0.648563 0.271376
#
# Coordination Sequence:
#
# PCOD8129309 Si02
#       3
#     4   4   4
#     4  12  28  48  74 108 150 196 242 294 358 440
#     4  11  26  50  76 108 146 191 248 298 368 426
#     4  11  26  47  78 109 146 189 238 317 358 429
#
# _framework density 29.652066999999999
#
# number of rings (size 3 to 8) (size 9 to 14) (size 15 to 20)
#    0.000    0.667    3.333    2.000    4.667   10.667 
#    0.000    0.000    0.000    0.000    0.000    0.000 
#    0.000    0.000    0.000    0.000    0.000    0.000 
#
# Total GULP energy -149005.587987 kJ/mol
# GULP energy per Si atom -12417.132332 kJ/mol
# Density = 2.958458 g / cm^3
# Si number density = 29.652067 Si / 1000 Ang^3
#
#
#
# Elastic Constant Matrix: (Units=GPa)
#
#
# Indices 1 2 3 4 5 6 
#
# 1 123.1273 4.3390 13.1189 0.0000 -8.8706 0.0000
# 2 4.3390 108.5633 -4.4365 0.0000 -6.0378 0.0000
# 3 13.1189 -4.4365 91.8538 0.0000 -13.3117 0.0000
# 4 0.0000 0.0000 0.0000 31.3670 0.0000 9.7508
# 5 -8.8706 -6.0378 -13.3117 0.0000 57.8295 0.0000
# 6 0.0000 0.0000 0.0000 9.7508 0.0000 48.4763
#
#
#
# Elastic Compliance Matrix: (Units=1/GPa)
#
#
# Indices 1 2 3 4 5 6 
#
# 1 0.008318 -0.000320 -0.001059 0.000000 0.000999 0.000000
# 2 -0.000320 0.009310 0.000651 0.000000 0.001073 0.000000
# 3 -0.001059 0.000651 0.011437 0.000000 0.002538 0.000000
# 4 0.000000 0.000000 0.000000 0.034007 0.000000 -0.006840
# 5 0.000999 0.001073 0.002538 0.000000 0.018142 0.000000
# 6 0.000000 0.000000 0.000000 -0.006840 0.000000 0.022005
#
#
# Mechanical properties :
#
#
# Convention : Reuss Voigt Hill
#
# Bulk Modulus (GPa) = 36.21951 38.84302 37.53126
# Shear Modulus (GPa) = 43.90672 48.23609 46.07141
#
# Velocity S-wave (km/s) = 3.85220 4.03766 3.94602
# Velocity P-wave (km/s) = 5.65927 5.90465 5.78326
#
# Compressibility (1/GPa) = 0.02760943
#
# Stress axis : x y z
#
# Youngs Moduli (GPa) = 120.22534 107.40819 87.43267
#
# Poissons Ratio (x) = 0.03439 0.09256
# Poissons Ratio (y) = 0.03849 -0.05691
# Poissons Ratio (z) = 0.12728 -0.06991
#
# Static dielectric constant tensor:
#      x y z
#    x 5.812150 0.000000 0.086220 
#    y 0.000000 5.648700 0.000000 
#    z 0.086220 0.000000 5.629920 
# 
# 
# High freq. dielectric constant tensor:
#      x y z
#    x 2.251340 0.000000 -0.011290 
#    y 0.000000 2.226900 0.000000 
#    z -0.011290 0.000000 2.226480 
# 
# From -- ./inp_files/7070.got.cif
#   From: 2010.03.12/outbox.cif.g09.slc.cpg/sg14_4_cif.got.tgz:7070.got - 2010.03.31 13:35:05.
