data_PCOD8129255
_publ_section_title
;
Structure prediction by ZEFSAII (Michael W. Deem and Ramdas Pophale) SiO2 
 PCOD8129255
Probable space group: P 21/C
;
_chemical_formula_sum "Si O2"
_cell_formula_units_Z 24
_cell_length_a 5.060982
_cell_length_b 17.372044
_cell_length_c 10.638929
_cell_angle_alpha 90.000000
_cell_angle_beta 85.673924
_cell_angle_gamma 90.000000
_cell_volume 932.705446
_symmetry_space_group_name_H-M "P 21/C"
_symmetry_group_IT_number 14
_symmetry_cell_setting 'monoclinic'
loop_
_space_group_symop_operation_xyz
x,y,z
-x,1/2+y,1/2-z
-x,-y,-z
x,1/2-y,1/2+z
loop_
_atom_site_type_symbol
_atom_site_label
_atom_site_fract_x
_atom_site_fract_y
_atom_site_fract_z
Si Si1 0.581851 0.518450 0.856591
Si Si2 0.423716 0.412251 0.520273
Si Si3 0.355727 0.740637 0.428249
Si Si4 0.337119 0.168501 0.763299
Si Si5 0.847468 0.789738 0.578973
Si Si6 0.107888 0.438437 0.763738
O O1 0.699619 0.606091 0.847753
O O2 0.315636 0.508081 0.782864
O O3 0.804746 0.462990 0.790571
O O4 0.500000 0.500000 0.000000
O O5 0.500000 0.500000 0.500000
O O6 0.641392 0.353519 0.574757
O O7 0.374552 0.384478 0.382402
O O8 0.162359 0.408426 0.619804
O O9 0.423469 0.775102 0.288492
O O10 0.569335 0.767968 0.524529
O O11 0.073482 0.777369 0.468561
O O12 0.101918 0.228470 0.807205
O O13 0.835564 0.874948 0.632609
#
# Coordination Sequence:
#
# PCOD8129255 Si02
#       6
#     4   4   4   4   4   4
#     4  12  27  45  76 105 149 190 246 301 366 435
#     4  11  25  49  75 108 151 197 240 304 371 439
#     4  11  26  48  76 106 143 192 247 301 361 432
#     4  11  25  47  73 108 144 193 245 303 366 441
#     4  11  25  46  74 103 143 186 245 304 364 430
#     4  12  25  48  72 108 147 191 243 298 368 438
#
# _framework density 25.731596
#
# number of rings (size 3 to 8) (size 9 to 14) (size 15 to 20)
#    0.000    0.667    3.333    3.500    2.333    7.333 
#    0.000    0.000    0.000    0.000    0.000    0.000 
#    0.000    0.000    0.000    0.000    0.000    0.000 
#
# Total GULP energy -297327.840922 kJ/mol
# GULP energy per Si atom -12388.660038 kJ/mol
# Density = 2.567303 g / cm^3
# Si number density = 25.731596 Si / 1000 Ang^3
#
#
#
# Elastic Constant Matrix: (Units=GPa)
#
#
# Indices 1 2 3 4 5 6 
#
# 1 52.3956 -7.0361 2.4068 0.0000 -22.6156 0.0000
# 2 -7.0361 100.0141 -2.8026 0.0000 -9.2110 0.0000
# 3 2.4068 -2.8026 126.5296 0.0000 -34.1520 0.0000
# 4 0.0000 0.0000 0.0000 61.3720 0.0000 -6.2730
# 5 -22.6156 -9.2110 -34.1520 0.0000 36.0217 0.0000
# 6 0.0000 0.0000 0.0000 -6.2730 0.0000 17.0113
#
#
#
# Elastic Compliance Matrix: (Units=1/GPa)
#
#
# Indices 1 2 3 4 5 6 
#
# 1 0.031286 0.004925 0.006929 0.000000 0.027471 0.000000
# 2 0.004925 0.011165 0.002364 0.000000 0.008188 0.000000
# 3 0.006929 0.002364 0.012312 0.000000 0.016627 0.000000
# 4 0.000000 0.000000 0.000000 0.016932 0.000000 0.006244
# 5 0.027471 0.008188 0.016627 0.000000 0.062866 0.000000
# 6 0.000000 0.000000 0.000000 0.006244 0.000000 0.061087
#
#
# Mechanical properties :
#
#
# Convention : Reuss Voigt Hill
#
# Bulk Modulus (GPa) = 12.01943 29.34172 20.68057
# Shear Modulus (GPa) = 25.64811 41.97242 33.81027
#
# Velocity S-wave (km/s) = 3.16057 4.04315 3.62879
# Velocity P-wave (km/s) = 4.24266 5.76401 5.06083
#
# Compressibility (1/GPa) = 0.08319862
#
# Stress axis : x y z
#
# Youngs Moduli (GPa) = 31.96312 89.56210 81.22309
#
# Poissons Ratio (x) = -0.44111 -0.56277
# Poissons Ratio (y) = -0.15742 -0.19199
# Poissons Ratio (z) = -0.22146 -0.21170
#
# Static dielectric constant tensor:
#      x y z
#    x 4.108010 0.000000 -0.246070 
#    y 0.000000 5.375800 0.000000 
#    z -0.246070 0.000000 5.363600 
# 
# 
# High freq. dielectric constant tensor:
#      x y z
#    x 1.985070 0.000000 -0.020960 
#    y 0.000000 2.054870 0.000000 
#    z -0.020960 0.000000 2.064800 
# 
# From -- ./inp_files/21166.got.cif
#   From: 2010.03.12/outbox.cif.g09.slc.cpg/sg14_11_cif.got.tgz:21166.got - 2010.03.31 13:35:05.
