data_PCOD8129817
_publ_section_title
;
Structure prediction by ZEFSAII (Michael W. Deem and Ramdas Pophale) SiO2 
 PCOD8129817
Probable space group: C 2/C
;
_chemical_formula_sum "Si O2"
_cell_formula_units_Z 48
_cell_length_a 19.114615
_cell_length_b 16.744001
_cell_length_c 9.045323
_cell_angle_alpha 90.000000
_cell_angle_beta 52.795635
_cell_angle_gamma 90.000000
_cell_volume 2305.822396
_symmetry_space_group_name_H-M "C 2/C"
_symmetry_group_IT_number 15
_symmetry_cell_setting 'monoclinic'
loop_
_space_group_symop_operation_xyz
x,y,z
-x,y,1/2-z
-x,-y,-z
x,-y,1/2+z
1/2+x,1/2+y,z
1/2-x,1/2+y,1/2-z
1/2-x,1/2-y,-z
1/2+x,1/2-y,1/2+z
loop_
_atom_site_type_symbol
_atom_site_label
_atom_site_fract_x
_atom_site_fract_y
_atom_site_fract_z
Si Si1 0.435824 0.035263 0.459274
Si Si2 0.000000 0.180661 0.750000
Si Si3 0.000000 0.845185 0.750000
Si Si4 0.933516 0.727509 0.056601
Si Si5 0.686745 0.111045 0.424686
Si Si6 0.620397 0.821963 0.301248
Si Si7 0.120987 0.862511 0.853982
O O1 0.370889 0.107957 0.588330
O O2 0.500000 0.000000 0.500000
O O3 0.368985 0.968673 0.485965
O O4 0.500000 0.067358 0.250000
O O5 0.053929 0.236651 0.795559
O O6 0.066545 0.122898 0.574858
O O7 0.071916 0.796065 0.561814
O O8 0.061412 0.892134 0.789933
O O9 0.849287 0.669459 0.159352
O O10 0.016674 0.674884 0.896401
O O11 0.681898 0.158538 0.584559
O O12 0.787977 0.089302 0.259913
O O13 0.642578 0.732651 0.326993
#
# Coordination Sequence:
#
# PCOD8129817 Si02
#       7
#     8   4   4   8   8   8   8
#     4  12  23  35  58  84 129 166 176 223 300 371
#     4   8  20  34  46  81 115 154 184 238 310 334
#     4   8  16  32  52  75 103 158 180 238 294 328
#     4  10  16  30  52  75 119 152 186 222 287 352
#     4  12  20  34  55  89 114 155 205 242 275 351
#     4  10  20  35  53  84 120 160 186 227 292 350
#     4  10  21  34  61  81 119 147 202 252 289 339
#
# _framework density 20.816869000000001
#
# number of rings (size 3 to 8) (size 9 to 14) (size 15 to 20)
#    0.000    2.000    6.667    0.500    4.667    0.667 
#    0.000    0.000    0.000    0.000    0.000    3.500 
#    0.000    0.000    0.000    0.000    0.000    0.000 
#
# Total GULP energy -297316.653880 kJ/mol
# GULP energy per Si atom -12388.193912 kJ/mol
# Density = 2.076949 g / cm^3
# Si number density = 20.816869 Si / 1000 Ang^3
#
#
#
# Elastic Constant Matrix: (Units=GPa)
#
#
# Indices 1 2 3 4 5 6 
#
# 1 82.8369 3.5957 43.2913 0.0000 -11.9253 0.0000
# 2 3.5957 25.0550 3.3323 0.0000 -2.2710 0.0000
# 3 43.2913 3.3323 127.5915 0.0000 3.9692 0.0000
# 4 0.0000 0.0000 0.0000 16.6736 0.0000 -3.6277
# 5 -11.9253 -2.2710 3.9692 0.0000 38.1861 0.0000
# 6 0.0000 0.0000 0.0000 -3.6277 0.0000 13.4389
#
#
#
# Elastic Compliance Matrix: (Units=1/GPa)
#
#
# Indices 1 2 3 4 5 6 
#
# 1 0.015770 -0.001040 -0.005492 0.000000 0.005434 0.000000
# 2 -0.001040 0.040359 -0.000768 0.000000 0.002155 0.000000
# 3 -0.005492 -0.000768 0.009808 0.000000 -0.002780 0.000000
# 4 0.000000 0.000000 0.000000 0.063717 0.000000 0.017200
# 5 0.005434 0.002155 -0.002780 0.000000 0.028302 0.000000
# 6 0.000000 0.000000 0.000000 0.017200 0.000000 0.079054
#
#
# Mechanical properties :
#
#
# Convention : Reuss Voigt Hill
#
# Bulk Modulus (GPa) = 19.47997 37.32466 28.40232
# Shear Modulus (GPa) = 18.60655 26.01065 22.30860
#
# Velocity S-wave (km/s) = 2.99293 3.53866 3.27717
# Velocity P-wave (km/s) = 4.61753 5.88771 5.29087
#
# Compressibility (1/GPa) = 0.05133477
#
# Stress axis : x y z
#
# Youngs Moduli (GPa) = 63.41255 24.77765 101.96115
#
# Poissons Ratio (x) = 0.02577 0.56002
# Poissons Ratio (y) = 0.06596 0.07833
# Poissons Ratio (z) = 0.34829 0.01903
#
# Static dielectric constant tensor:
#      x y z
#    x 3.269450 0.000000 -0.335130 
#    y 0.000000 3.468070 0.000000 
#    z -0.335130 0.000000 3.546640 
# 
# 
# High freq. dielectric constant tensor:
#      x y z
#    x 1.793100 0.000000 0.011990 
#    y 0.000000 1.772670 0.000000 
#    z 0.011990 0.000000 1.817210 
# 
# From -- ./inp_files/63034.got.cif
#   From: 2010.06.25/outbox.cif.g09.slc.cpg/sg15_32_cif.got.tgz:63034.got - 2010.06.28 07:06:18.
