data_PCOD8129077
_publ_section_title
;
Structure prediction by ZEFSAII (Michael W. Deem and Ramdas Pophale) SiO2 
 PCOD8129077
Probable space group: P 21/C
;
_chemical_formula_sum "Si O2"
_cell_formula_units_Z 28
_cell_length_a 8.715481
_cell_length_b 16.607747
_cell_length_c 9.097672
_cell_angle_alpha 90.000000
_cell_angle_beta 98.716600
_cell_angle_gamma 90.000000
_cell_volume 1301.628565
_symmetry_space_group_name_H-M "P 21/C"
_symmetry_group_IT_number 14
_symmetry_cell_setting 'monoclinic'
loop_
_space_group_symop_operation_xyz
x,y,z
-x,1/2+y,1/2-z
-x,-y,-z
x,1/2-y,1/2+z
loop_
_atom_site_type_symbol
_atom_site_label
_atom_site_fract_x
_atom_site_fract_y
_atom_site_fract_z
Si Si1 0.725068 0.225140 0.818332
Si Si2 0.445885 0.325867 0.850050
Si Si3 0.112312 0.426664 0.539117
Si Si4 0.793563 0.808657 0.215933
Si Si5 0.938104 0.212335 0.118630
Si Si6 0.517535 0.892264 0.342160
Si Si7 0.440968 0.034331 0.147061
O O1 0.591397 0.267254 0.893034
O O2 0.789949 0.285317 0.703204
O O3 0.646918 0.146482 0.733774
O O4 0.873637 0.207490 0.942584
O O5 0.286013 0.275417 0.849214
O O6 0.466035 0.370853 0.693545
O O7 0.460958 0.392137 0.979972
O O8 0.162930 0.370877 0.407521
O O9 0.257276 0.474538 0.624834
O O10 0.000000 0.500000 0.500000
O O11 0.037151 0.369333 0.652710
O O12 0.666179 0.846702 0.301938
O O13 0.949082 0.788550 0.332477
O O14 0.520855 0.983329 0.286927
O O15 0.500000 0.000000 0.000000
#
# Coordination Sequence:
#
# PCOD8129077 Si02
#       7
#     4   4   4   4   4   4   4
#     4  11  25  39  70 100 132 180 236 286 342 416
#     4  11  25  44  69 101 137 184 239 288 351 419
#     4  12  26  43  68 105 143 183 231 292 364 418
#     4  11  24  43  71 101 138 189 237 290 352 428
#     4  12  23  44  65 101 142 180 230 289 354 428
#     4  11  24  44  68  96 140 180 234 292 349 415
#     4  12  26  44  69  99 138 183 235 289 351 424
#
# _framework density 21.511513000000001
#
# number of rings (size 3 to 8) (size 9 to 14) (size 15 to 20)
#    0.000    0.571    5.714    2.143    6.000    0.000 
#    0.000    0.000    0.000    3.429    0.000    0.000 
#    0.000    0.000    0.000    0.000    0.000    0.000 
#
# Total GULP energy -346922.698440 kJ/mol
# GULP energy per Si atom -12390.096373 kJ/mol
# Density = 2.146255 g / cm^3
# Si number density = 21.511513 Si / 1000 Ang^3
#
#
#
# Elastic Constant Matrix: (Units=GPa)
#
#
# Indices 1 2 3 4 5 6 
#
# 1 104.1582 24.9038 23.7506 0.0000 8.5022 0.0000
# 2 24.9038 90.6913 31.9968 0.0000 -3.5492 0.0000
# 3 23.7506 31.9968 81.0722 0.0000 1.7302 0.0000
# 4 0.0000 0.0000 0.0000 41.8944 0.0000 -2.2971
# 5 8.5022 -3.5492 1.7302 0.0000 34.7855 0.0000
# 6 0.0000 0.0000 0.0000 -2.2971 0.0000 42.9232
#
#
#
# Elastic Compliance Matrix: (Units=1/GPa)
#
#
# Indices 1 2 3 4 5 6 
#
# 1 0.010888 -0.002317 -0.002216 0.000000 -0.002787 0.000000
# 2 -0.002317 0.013388 -0.004651 0.000000 0.002164 0.000000
# 3 -0.002216 -0.004651 0.014834 0.000000 -0.000671 0.000000
# 4 0.000000 0.000000 0.000000 0.023940 0.000000 0.001281
# 5 -0.002787 0.002164 -0.000671 0.000000 0.029683 0.000000
# 6 0.000000 0.000000 0.000000 0.001281 0.000000 0.023366
#
#
# Mechanical properties :
#
#
# Convention : Reuss Voigt Hill
#
# Bulk Modulus (GPa) = 48.21222 48.58045 48.39634
# Shear Modulus (GPa) = 35.36552 36.93865 36.15209
#
# Velocity S-wave (km/s) = 4.05906 4.14836 4.10395
# Velocity P-wave (km/s) = 6.66550 6.75112 6.70845
#
# Compressibility (1/GPa) = 0.02074163
#
# Stress axis : x y z
#
# Youngs Moduli (GPa) = 91.84826 74.69138 67.41346
#
# Poissons Ratio (x) = 0.17307 0.14936
# Poissons Ratio (y) = 0.21282 0.31357
# Poissons Ratio (z) = 0.20350 0.34742
#
# Static dielectric constant tensor:
#      x y z
#    x 4.144960 0.000000 0.068680 
#    y 0.000000 3.817750 0.000000 
#    z 0.068680 0.000000 3.767870 
# 
# 
# High freq. dielectric constant tensor:
#      x y z
#    x 1.864090 0.000000 0.004560 
#    y 0.000000 1.837230 0.000000 
#    z 0.004560 0.000000 1.836780 
# 
# From -- ./inp_files/9439.got.cif
#   From: 2010.03.12/outbox.cif.g09.slc.cpg/sg14_5_cif.got.tgz:9439.got - 2010.03.31 13:35:05.
