data_PCOD8129623
_publ_section_title
;
Structure prediction by ZEFSAII (Michael W. Deem and Ramdas Pophale) SiO2 
 PCOD8129623
Probable space group: C 2/C
;
_chemical_formula_sum "Si O2"
_cell_formula_units_Z 32
_cell_length_a 18.896828
_cell_length_b 7.188564
_cell_length_c 13.524635
_cell_angle_alpha 90.000000
_cell_angle_beta 135.058798
_cell_angle_gamma 90.000000
_cell_volume 1297.763246
_symmetry_space_group_name_H-M "C 2/C"
_symmetry_group_IT_number 15
_symmetry_cell_setting 'monoclinic'
loop_
_space_group_symop_operation_xyz
x,y,z
-x,y,1/2-z
-x,-y,-z
x,-y,1/2+z
1/2+x,1/2+y,z
1/2-x,1/2+y,1/2-z
1/2-x,1/2-y,-z
1/2+x,1/2-y,1/2+z
loop_
_atom_site_type_symbol
_atom_site_label
_atom_site_fract_x
_atom_site_fract_y
_atom_site_fract_z
Si Si1 0.882501 0.181392 0.929741
Si Si2 0.285841 0.948728 0.683828
Si Si3 0.073377 0.321664 0.061621
Si Si4 0.107958 0.500128 0.906331
O O1 0.833146 0.977731 0.905041
O O2 0.828836 0.266516 0.778941
O O3 0.001484 0.151151 0.024285
O O4 0.863465 0.312147 0.006411
O O5 0.306152 0.946503 0.587208
O O6 0.334923 0.142807 0.772993
O O7 0.108919 0.323222 0.982226
O O8 0.000000 0.500000 0.000000
O O9 0.000000 0.525881 0.750000
#
# Coordination Sequence:
#
# PCOD8129623 Si02
#       4
#     8   8   8   8
#     4  10  19  30  50  78  98 129 164 207 248 285
#     4  10  18  32  50  76 100 126 168 207 240 296
#     4   8  16  29  48  69  95 131 163 190 242 291
#     4  10  14  30  55  71  89 131 179 193 224 298
#
# _framework density 24.657812
#
# number of rings (size 3 to 8) (size 9 to 14) (size 15 to 20)
#    0.000    3.000    7.500    0.750    0.000    0.000 
#    0.000    6.250    0.000    0.000    0.000    0.000 
#    0.000    0.000    0.000    0.000    0.000    0.000 
#
# Total GULP energy -198267.518408 kJ/mol
# GULP energy per Si atom -12391.719900 kJ/mol
# Density = 2.460169 g / cm^3
# Si number density = 24.657812 Si / 1000 Ang^3
#
#
#
# Elastic Constant Matrix: (Units=GPa)
#
#
# Indices 1 2 3 4 5 6 
#
# 1 165.1455 -29.4352 28.2813 0.0000 -25.7102 0.0000
# 2 -29.4352 33.4892 1.8048 0.0000 -13.1958 0.0000
# 3 28.2813 1.8048 57.3148 0.0000 -29.3219 0.0000
# 4 0.0000 0.0000 0.0000 17.0798 0.0000 2.9912
# 5 -25.7102 -13.1958 -29.3219 0.0000 51.6756 0.0000
# 6 0.0000 0.0000 0.0000 2.9912 0.0000 12.4025
#
#
#
# Elastic Compliance Matrix: (Units=1/GPa)
#
#
# Indices 1 2 3 4 5 6 
#
# 1 0.009249 0.010751 -0.001611 0.000000 0.006432 0.000000
# 2 0.010751 0.046596 0.002891 0.000000 0.018888 0.000000
# 3 -0.001611 0.002891 0.025530 0.000000 0.014423 0.000000
# 4 0.000000 0.000000 0.000000 0.061131 0.000000 -0.014743
# 5 0.006432 0.018888 0.014423 0.000000 0.035559 0.000000
# 6 0.000000 0.000000 0.000000 -0.014743 0.000000 0.084185
#
#
# Mechanical properties :
#
#
# Convention : Reuss Voigt Hill
#
# Bulk Modulus (GPa) = 9.48448 28.58346 19.03397
# Shear Modulus (GPa) = 18.29260 33.25149 25.77204
#
# Velocity S-wave (km/s) = 2.72666 3.67620 3.23644
# Velocity P-wave (km/s) = 3.71049 5.44394 4.65855
#
# Compressibility (1/GPa) = 0.10543545
#
# Stress axis : x y z
#
# Youngs Moduli (GPa) = 108.12195 21.46099 39.16913
#
# Poissons Ratio (x) = -0.23072 0.06312
# Poissons Ratio (y) = -1.16238 -0.11323
# Poissons Ratio (z) = 0.17423 -0.06204
#
# Static dielectric constant tensor:
#      x y z
#    x 5.897920 0.000000 0.483120 
#    y 0.000000 4.272530 0.000000 
#    z 0.483120 0.000000 4.635480 
# 
# 
# High freq. dielectric constant tensor:
#      x y z
#    x 2.009590 0.000000 0.008770 
#    y 0.000000 1.960360 0.000000 
#    z 0.008770 0.000000 1.968790 
# 
# From -- ./inp_files/102553.got.cif
#   From: 2010.06.25/outbox.cif.g09.slc.cpg/sg15_52_cif.got.tgz:102553.got - 2010.06.28 07:06:18.
