data_PCOD8129182
_publ_section_title
;
Structure prediction by ZEFSAII (Michael W. Deem and Ramdas Pophale) SiO2 
 PCOD8129182
Probable space group: P 21/C
;
_chemical_formula_sum "Si O2"
_cell_formula_units_Z 24
_cell_length_a 11.644321
_cell_length_b 10.300094
_cell_length_c 9.465490
_cell_angle_alpha 90.000000
_cell_angle_beta 63.532701
_cell_angle_gamma 90.000000
_cell_volume 1016.279433
_symmetry_space_group_name_H-M "P 21/C"
_symmetry_group_IT_number 14
_symmetry_cell_setting 'monoclinic'
loop_
_space_group_symop_operation_xyz
x,y,z
-x,1/2+y,1/2-z
-x,-y,-z
x,1/2-y,1/2+z
loop_
_atom_site_type_symbol
_atom_site_label
_atom_site_fract_x
_atom_site_fract_y
_atom_site_fract_z
Si Si1 0.270427 0.427349 0.081770
Si Si2 0.876501 0.197777 0.948753
Si Si3 0.037581 0.308865 0.090459
Si Si4 0.611672 0.296269 0.021005
Si Si5 0.204212 0.075564 0.934163
Si Si6 0.555583 0.700236 0.620174
O O1 0.139843 0.427456 0.055971
O O2 0.226366 0.377050 0.260448
O O3 0.337959 0.566066 0.065776
O O4 0.373856 0.336644 0.948245
O O5 0.922097 0.183758 0.764261
O O6 0.729193 0.235253 0.038641
O O7 0.967543 0.302867 0.976907
O O8 0.874126 0.058171 0.025908
O O9 0.116515 0.176726 0.066374
O O10 0.494893 0.309903 0.192828
O O11 0.563059 0.197721 0.924326
O O12 0.341457 0.080848 0.944070
#
# Coordination Sequence:
#
# PCOD8129182 Si02
#       6
#     4   4   4   4   4   4
#     4  11  24  47  76  96 141 194 224 290 360 411
#     4  12  26  45  71 105 143 183 234 291 352 418
#     4  11  25  46  72 103 137 185 240 282 352 424
#     4  12  26  45  71 105 143 183 234 291 352 418
#     4  11  24  47  76  96 141 194 224 290 360 411
#     4  11  25  46  72 103 137 185 240 282 352 424
#
# _framework density 23.615549000000001
#
# number of rings (size 3 to 8) (size 9 to 14) (size 15 to 20)
#    0.000    0.667    3.333    4.000    4.667    1.333 
#    6.000    0.000    0.000    0.000    0.000    0.000 
#    0.000    0.000    0.000    0.000    0.000    0.000 
#
# Total GULP energy -297425.147685 kJ/mol
# GULP energy per Si atom -12392.714487 kJ/mol
# Density = 2.356180 g / cm^3
# Si number density = 23.615549 Si / 1000 Ang^3
#
#
#
# Elastic Constant Matrix: (Units=GPa)
#
#
# Indices 1 2 3 4 5 6 
#
# 1 123.7162 26.0114 8.0715 0.0000 12.7910 0.0000
# 2 26.0114 54.0036 25.0078 0.0000 0.7383 0.0000
# 3 8.0715 25.0078 96.0015 0.0000 -14.8833 0.0000
# 4 0.0000 0.0000 0.0000 33.3632 0.0000 -4.9410
# 5 12.7910 0.7383 -14.8833 0.0000 39.7040 0.0000
# 6 0.0000 0.0000 0.0000 -4.9410 0.0000 30.2004
#
#
#
# Elastic Compliance Matrix: (Units=1/GPa)
#
#
# Indices 1 2 3 4 5 6 
#
# 1 0.009321 -0.004405 -0.000094 0.000000 -0.002956 0.000000
# 2 -0.004405 0.023395 -0.005915 0.000000 -0.001233 0.000000
# 3 -0.000094 -0.005915 0.012727 0.000000 0.004911 0.000000
# 4 0.000000 0.000000 0.000000 0.030717 0.000000 0.005026
# 5 -0.002956 -0.001233 0.004911 0.000000 0.028003 0.000000
# 6 0.000000 0.000000 0.000000 0.005026 0.000000 0.033934
#
#
# Mechanical properties :
#
#
# Convention : Reuss Voigt Hill
#
# Bulk Modulus (GPa) = 40.62887 43.54474 42.08681
# Shear Modulus (GPa) = 29.91656 34.96225 32.43940
#
# Velocity S-wave (km/s) = 3.56310 3.85187 3.71029
# Velocity P-wave (km/s) = 5.84544 6.18559 6.01792
#
# Compressibility (1/GPa) = 0.02461304
#
# Stress axis : x y z
#
# Youngs Moduli (GPa) = 107.28368 42.74381 78.57521
#
# Poissons Ratio (x) = 0.18831 0.00742
# Poissons Ratio (y) = 0.47263 0.46478
# Poissons Ratio (z) = 0.01013 0.25283
#
# Static dielectric constant tensor:
#      x y z
#    x 4.731390 0.000000 -0.138150 
#    y 0.000000 4.085440 0.000000 
#    z -0.138150 0.000000 4.059950 
# 
# 
# High freq. dielectric constant tensor:
#      x y z
#    x 1.964400 0.000000 -0.016170 
#    y 0.000000 1.907420 0.000000 
#    z -0.016170 0.000000 1.934680 
# 
# From -- ./inp_files/12357.got.cif
#   From: 2010.03.12/outbox.cif.g09.slc.cpg/sg14_7_cif.got.tgz:12357.got - 2010.03.31 13:35:05.
