data_PCOD8129391
_publ_section_title
;
Structure prediction by ZEFSAII (Michael W. Deem and Ramdas Pophale) SiO2 
 PCOD8129391
Probable space group: P 21/C
;
_chemical_formula_sum "Si O2"
_cell_formula_units_Z 32
_cell_length_a 28.661570
_cell_length_b 10.835036
_cell_length_c 29.121072
_cell_angle_alpha 90.000000
_cell_angle_beta 169.808246
_cell_angle_gamma 90.000000
_cell_volume 1600.189100
_symmetry_space_group_name_H-M "P 21/C"
_symmetry_group_IT_number 14
_symmetry_cell_setting 'monoclinic'
loop_
_space_group_symop_operation_xyz
x,y,z
-x,1/2+y,1/2-z
-x,-y,-z
x,1/2-y,1/2+z
loop_
_atom_site_type_symbol
_atom_site_label
_atom_site_fract_x
_atom_site_fract_y
_atom_site_fract_z
Si Si1 0.887496 0.438082 0.500012
Si Si2 0.198901 0.124975 0.000002
Si Si3 0.445388 0.975684 0.500008
Si Si4 0.693963 0.939335 0.999976
Si Si5 0.571640 0.304934 0.500003
Si Si6 0.320874 0.719798 0.499998
Si Si7 0.137035 0.851497 0.499972
Si Si8 0.052287 0.459609 0.999998
O O1 0.838396 0.512510 0.499998
O O2 0.667984 0.470754 0.249552
O O3 0.875087 0.293319 0.500014
O O4 0.168899 0.470758 0.750468
O O5 0.944141 0.207206 0.750464
O O6 0.252215 0.089835 0.000006
O O7 0.443211 0.207209 0.249535
O O8 0.448782 0.829945 0.500006
O O9 0.500000 0.000000 0.500000
O O10 0.418082 0.885891 0.750755
O O11 0.699918 0.084929 0.000008
O O12 0.916482 0.885874 0.249160
O O13 0.625468 0.295747 0.499996
O O14 0.305629 0.376739 0.249152
O O15 0.807326 0.376732 0.750851
O O16 0.088648 0.927029 0.499984
O O17 0.000000 0.500000 0.000000
#
# Coordination Sequence:
#
# PCOD8129391 Si02
#       8
#     4   4   4   4   4   4   4   4
#     4  12  26  47  66 100 141 176 220 279 338 402
#     4  12  26  43  70  99 130 177 223 277 336 394
#     4  12  27  44  72 100 135 182 226 277 337 399
#     4  12  27  44  70  99 132 180 223 276 339 399
#     4  12  23  46  70  97 135 175 232 280 326 396
#     4  12  23  48  70  97 135 175 230 280 328 394
#     4  12  26  47  66 100 143 176 220 279 342 404
#     4  12  26  43  72 102 135 181 224 280 338 400
#
# _framework density 19.997636
#
# number of rings (size 3 to 8) (size 9 to 14) (size 15 to 20)
#    0.000    0.000    5.000    4.500    7.000    0.000 
#    0.000    0.000    0.000    0.000    0.000    0.000 
#    0.000    0.000    0.000    0.000    0.000    0.000 
#
# Total GULP energy -396653.569476 kJ/mol
# GULP energy per Si atom -12395.424046 kJ/mol
# Density = 1.995212 g / cm^3
# Si number density = 19.997636 Si / 1000 Ang^3
#
#
#
# Elastic Constant Matrix: (Units=GPa)
#
#
# Indices 1 2 3 4 5 6 
#
# 1 254.5092 100.8303 72.9307 0.0000 285.7738 0.0000
# 2 100.8303 216.8788 105.9139 0.0000 0.5196 0.0000
# 3 72.9307 105.9139 241.7171 0.0000 -287.9086 0.0000
# 4 0.0000 0.0000 0.0000 43.0662 0.0000 -0.0336
# 5 285.7738 0.5196 -287.9086 0.0000 3398.6115 0.0000
# 6 0.0000 0.0000 0.0000 -0.0336 0.0000 43.8323
#
#
#
# Elastic Compliance Matrix: (Units=1/GPa)
#
#
# Indices 1 2 3 4 5 6 
#
# 1 0.005890 -0.001905 -0.001704 0.000000 -0.000639 0.000000
# 2 -0.001905 0.006668 -0.002400 0.000000 -0.000044 0.000000
# 3 -0.001704 -0.002400 0.006533 0.000000 0.000697 0.000000
# 4 0.000000 0.000000 0.000000 0.023220 0.000000 0.000018
# 5 -0.000639 -0.000044 0.000697 0.000000 0.000407 0.000000
# 6 0.000000 0.000000 0.000000 0.000018 0.000000 0.022814
#
#
# Mechanical properties :
#
#
# Convention : Reuss Voigt Hill
#
# Bulk Modulus (GPa) = 141.35579 141.38391 141.36985
# Shear Modulus (GPa) = 62.57207 725.99734 394.28471
#
# Velocity S-wave (km/s) = 5.59979 19.07432 14.05680
# Velocity P-wave (km/s) = 10.61367 23.57881 18.28401
#
# Compressibility (1/GPa) = 0.00707435
#
# Stress axis : x y z
#
# Youngs Moduli (GPa) = 169.78470 149.96001 153.06711
#
# Poissons Ratio (x) = 0.28561 0.26083
# Poissons Ratio (y) = 0.32337 0.36735
# Poissons Ratio (z) = 0.28932 0.35989
#
# Static dielectric constant tensor:
#      x y z
#    x 3.918800 0.000000 0.005260 
#    y 0.000000 3.941900 0.000000 
#    z 0.005260 0.000000 4.041350 
# 
# 
# High freq. dielectric constant tensor:
#      x y z
#    x 1.806570 0.000000 0.000100 
#    y 0.000000 1.802630 0.000000 
#    z 0.000100 0.000000 1.808790 
# 
# From -- ./inp_files/78345.got.cif
#   From: 2010.03.12/outbox.cif.g09.slc.cpg/sg14_40_cif.got.tgz:78345.got - 2010.03.31 13:35:05.
