data_PCOD8129427
_publ_section_title
;
Structure prediction by ZEFSAII (Michael W. Deem and Ramdas Pophale) SiO2 
 PCOD8129427
Probable space group: P 21/C
;
_chemical_formula_sum "Si O2"
_cell_formula_units_Z 20
_cell_length_a 19.743337
_cell_length_b 6.839246
_cell_length_c 14.026335
_cell_angle_alpha 90.000000
_cell_angle_beta 27.987457
_cell_angle_gamma 90.000000
_cell_volume 888.798731
_symmetry_space_group_name_H-M "P 21/C"
_symmetry_group_IT_number 14
_symmetry_cell_setting 'monoclinic'
loop_
_space_group_symop_operation_xyz
x,y,z
-x,1/2+y,1/2-z
-x,-y,-z
x,1/2-y,1/2+z
loop_
_atom_site_type_symbol
_atom_site_label
_atom_site_fract_x
_atom_site_fract_y
_atom_site_fract_z
Si Si1 0.657649 0.270263 0.965364
Si Si2 0.852515 0.729909 0.946329
Si Si3 0.941675 0.459049 0.677362
Si Si4 0.352144 0.901339 0.215063
Si Si5 0.613194 0.034493 0.195559
O O1 0.777794 0.386467 0.874409
O O2 0.723163 0.190822 0.784988
O O3 0.601714 0.087761 0.097937
O O4 0.525517 0.410719 0.102350
O O5 0.755627 0.556019 0.106267
O O6 0.758822 0.916249 0.033846
O O7 0.940707 0.654347 0.743964
O O8 0.963944 0.791180 0.889959
O O9 0.000000 0.500000 0.500000
O O10 0.387725 0.734333 0.245741
O O11 0.500000 0.000000 0.000000
#
# Coordination Sequence:
#
# PCOD8129427 Si02
#       5
#     4   4   4   4   4
#     4  12  25  44  78 106 147 191 253 302 381 442
#     4  12  28  52  73 109 158 194 256 311 381 453
#     4  12  29  48  75 108 150 206 245 310 380 453
#     4  12  26  47  77 112 144 199 243 318 379 440
#     4  12  25  50  74 111 148 191 253 317 367 451
#
# _framework density 22.502282000000001
#
# number of rings (size 3 to 8) (size 9 to 14) (size 15 to 20)
#    0.000    0.000    4.000    5.400    8.400    0.800 
#    0.000    0.000    0.000    0.000    0.000    0.000 
#    0.000    0.000    0.000    0.000    0.000    0.000 
#
# Total GULP energy -248156.473602 kJ/mol
# GULP energy per Si atom -12407.823680 kJ/mol
# Density = 2.245107 g / cm^3
# Si number density = 22.502282 Si / 1000 Ang^3
#
#
#
# Elastic Constant Matrix: (Units=GPa)
#
#
# Indices 1 2 3 4 5 6 
#
# 1 125.4374 41.8860 49.2594 0.0000 8.2393 0.0000
# 2 41.8860 99.0804 41.9476 0.0000 9.2171 0.0000
# 3 49.2594 41.9476 106.1051 0.0000 17.9858 0.0000
# 4 0.0000 0.0000 0.0000 28.1740 0.0000 -3.3394
# 5 8.2393 9.2171 17.9858 0.0000 46.0057 0.0000
# 6 0.0000 0.0000 0.0000 -3.3394 0.0000 52.9511
#
#
#
# Elastic Compliance Matrix: (Units=1/GPa)
#
#
# Indices 1 2 3 4 5 6 
#
# 1 0.010366 -0.002820 -0.003725 0.000000 0.000165 0.000000
# 2 -0.002820 0.012904 -0.003684 0.000000 -0.000640 0.000000
# 3 -0.003725 -0.003684 0.013250 0.000000 -0.003775 0.000000
# 4 0.000000 0.000000 0.000000 0.035761 0.000000 0.002255
# 5 0.000165 -0.000640 -0.003775 0.000000 0.023311 0.000000
# 6 0.000000 0.000000 0.000000 0.002255 0.000000 0.019028
#
#
# Mechanical properties :
#
#
# Convention : Reuss Voigt Hill
#
# Bulk Modulus (GPa) = 62.26000 66.31209 64.28605
# Shear Modulus (GPa) = 35.60419 38.59483 37.09951
#
# Velocity S-wave (km/s) = 3.98206 4.14593 4.06482
# Velocity P-wave (km/s) = 6.99077 7.24233 7.11766
#
# Compressibility (1/GPa) = 0.01606168
#
# Stress axis : x y z
#
# Youngs Moduli (GPa) = 96.46926 77.49406 75.46968
#
# Poissons Ratio (x) = 0.21856 0.28116
# Poissons Ratio (y) = 0.27207 0.27801
# Poissons Ratio (z) = 0.35939 0.28547
#
# Static dielectric constant tensor:
#      x y z
#    x 4.353150 0.000000 0.186240 
#    y 0.000000 4.375800 0.000000 
#    z 0.186240 0.000000 4.282340 
# 
# 
# High freq. dielectric constant tensor:
#      x y z
#    x 1.907790 0.000000 0.005810 
#    y 0.000000 1.897420 0.000000 
#    z 0.005810 0.000000 1.895930 
# 
# From -- ./inp_files/49560.got.cif
#   From: 2010.03.12/outbox.cif.g09.slc.cpg/sg14_25_cif.got.tgz:49560.got - 2010.03.31 13:35:05.
