data_PCOD8129455
_publ_section_title
;
Structure prediction by ZEFSAII (Michael W. Deem and Ramdas Pophale) SiO2 
 PCOD8129455
Probable space group: P 21/C
;
_chemical_formula_sum "Si O2"
_cell_formula_units_Z 20
_cell_length_a 7.362944
_cell_length_b 5.248924
_cell_length_c 20.457590
_cell_angle_alpha 90.000000
_cell_angle_beta 105.408815
_cell_angle_gamma 90.000000
_cell_volume 762.215639
_symmetry_space_group_name_H-M "P 21/C"
_symmetry_group_IT_number 14
_symmetry_cell_setting 'monoclinic'
loop_
_space_group_symop_operation_xyz
x,y,z
-x,1/2+y,1/2-z
-x,-y,-z
x,1/2-y,1/2+z
loop_
_atom_site_type_symbol
_atom_site_label
_atom_site_fract_x
_atom_site_fract_y
_atom_site_fract_z
Si Si1 0.308729 0.347945 0.778923
Si Si2 0.697874 0.613414 0.000516
Si Si3 0.892779 0.401589 0.551956
Si Si4 0.691642 0.950416 0.350808
Si Si5 0.041466 0.840886 0.181159
O O1 0.501295 0.376926 0.837932
O O2 0.192914 0.608789 0.753236
O O3 0.165686 0.179574 0.807557
O O4 0.359498 0.243157 0.711902
O O5 0.721174 0.672718 0.925164
O O6 0.500000 0.500000 0.000000
O O7 0.728539 0.879495 0.042928
O O8 0.838754 0.390940 0.037524
O O9 0.000000 0.500000 0.500000
O O10 0.023553 0.417257 0.629573
O O11 0.882871 0.102914 0.352942
#
# Coordination Sequence:
#
# PCOD8129455 Si02
#       5
#     4   4   4   4   4
#     4  12  26  45  71 108 140 193 242 302 375 432
#     4  12  28  49  76 110 148 196 249 306 371 441
#     4  12  26  48  76 106 147 196 244 305 374 431
#     4  12  26  46  73 105 149 187 245 308 364 442
#     4  12  26  45  74 105 147 189 246 304 368 445
#
# _framework density 26.239293
#
# number of rings (size 3 to 8) (size 9 to 14) (size 15 to 20)
#    0.000    0.000    6.000    3.600    2.800    3.200 
#    0.000    0.000    0.000    0.000    0.000    0.000 
#    0.000    0.000    0.000    0.000    0.000    0.000 
#
# Total GULP energy -247903.587316 kJ/mol
# GULP energy per Si atom -12395.179366 kJ/mol
# Density = 2.617957 g / cm^3
# Si number density = 26.239293 Si / 1000 Ang^3
#
#
#
# Elastic Constant Matrix: (Units=GPa)
#
#
# Indices 1 2 3 4 5 6 
#
# 1 97.8076 -6.2004 2.8431 0.0000 -1.4387 0.0000
# 2 -6.2004 65.2983 15.8398 0.0000 10.1955 0.0000
# 3 2.8431 15.8398 118.3117 0.0000 4.8678 0.0000
# 4 0.0000 0.0000 0.0000 47.2321 0.0000 1.6027
# 5 -1.4387 10.1955 4.8678 0.0000 41.3450 0.0000
# 6 0.0000 0.0000 0.0000 1.6027 0.0000 35.6590
#
#
#
# Elastic Compliance Matrix: (Units=1/GPa)
#
#
# Indices 1 2 3 4 5 6 
#
# 1 0.010304 0.001051 -0.000394 0.000000 0.000146 0.000000
# 2 0.001051 0.016510 -0.002080 0.000000 -0.003790 0.000000
# 3 -0.000394 -0.002080 0.008762 0.000000 -0.000532 0.000000
# 4 0.000000 0.000000 0.000000 0.021204 0.000000 -0.000953
# 5 0.000146 -0.003790 -0.000532 0.000000 0.025189 0.000000
# 6 0.000000 0.000000 0.000000 -0.000953 0.000000 0.028086
#
#
# Mechanical properties :
#
#
# Convention : Reuss Voigt Hill
#
# Bulk Modulus (GPa) = 30.55177 34.04253 32.29715
# Shear Modulus (GPa) = 40.38358 42.77621 41.57990
#
# Velocity S-wave (km/s) = 3.92733 4.04200 3.98508
# Velocity P-wave (km/s) = 5.67750 5.89794 5.78877
#
# Compressibility (1/GPa) = 0.03273133
#
# Stress axis : x y z
#
# Youngs Moduli (GPa) = 97.04582 60.56781 114.12819
#
# Poissons Ratio (x) = -0.06368 0.04501
# Poissons Ratio (y) = -0.10203 0.23736
# Poissons Ratio (z) = 0.03827 0.12597
#
# Static dielectric constant tensor:
#      x y z
#    x 5.078190 0.000000 0.169400 
#    y 0.000000 4.869650 0.000000 
#    z 0.169400 0.000000 5.137190 
# 
# 
# High freq. dielectric constant tensor:
#      x y z
#    x 2.068880 0.000000 0.002980 
#    y 0.000000 2.042850 0.000000 
#    z 0.002980 0.000000 2.065420 
# 
# From -- ./inp_files/64033.got.cif
#   From: 2010.03.12/outbox.cif.g09.slc.cpg/sg14_33_cif.got.tgz:64033.got - 2010.03.31 13:35:05.
