data_PCOD8129138
_publ_section_title
;
Structure prediction by ZEFSAII (Michael W. Deem and Ramdas Pophale) SiO2 
 PCOD8129138
Probable space group: P 21/C
;
_chemical_formula_sum "Si O2"
_cell_formula_units_Z 28
_cell_length_a 21.697139
_cell_length_b 7.385348
_cell_length_c 9.644584
_cell_angle_alpha 90.000000
_cell_angle_beta 127.147756
_cell_angle_gamma 90.000000
_cell_volume 1231.854250
_symmetry_space_group_name_H-M "P 21/C"
_symmetry_group_IT_number 14
_symmetry_cell_setting 'monoclinic'
loop_
_space_group_symop_operation_xyz
x,y,z
-x,1/2+y,1/2-z
-x,-y,-z
x,1/2-y,1/2+z
loop_
_atom_site_type_symbol
_atom_site_label
_atom_site_fract_x
_atom_site_fract_y
_atom_site_fract_z
Si Si1 0.910081 0.753143 0.601389
Si Si2 0.410413 0.040305 0.883442
Si Si3 0.308415 0.702850 0.670165
Si Si4 0.055455 0.590336 0.685353
Si Si5 0.208544 0.756313 0.281860
Si Si6 0.347979 0.330985 0.587938
Si Si7 0.817572 0.854211 0.219145
O O1 0.861484 0.733069 0.393205
O O2 0.874832 0.613577 0.665941
O O3 0.001444 0.722154 0.703424
O O4 0.901231 0.953061 0.653025
O O5 0.390334 0.173771 0.729857
O O6 0.368400 0.845950 0.815006
O O7 0.390959 0.138120 0.001170
O O8 0.500000 0.000000 0.000000
O O9 0.263089 0.801866 0.485123
O O10 0.244460 0.644392 0.697539
O O11 0.349868 0.518703 0.677288
O O12 0.119890 0.693935 0.686136
O O13 0.000000 0.500000 0.500000
O O14 0.209268 0.542265 0.251600
O O15 0.260692 0.257822 0.440465
#
# Coordination Sequence:
#
# PCOD8129138 Si02
#       7
#     4   4   4   4   4   4   4
#     4  12  26  43  68  97 141 181 246 306 371 433
#     4  12  29  50  80 118 155 195 243 305 381 454
#     4  11  25  50  75 109 148 196 249 304 374 443
#     4  12  28  41  64 100 137 189 240 306 376 425
#     4  11  26  44  71  97 144 192 244 304 366 443
#     4  11  28  48  79 113 148 197 251 303 372 456
#     4  11  24  45  71 100 135 187 245 302 369 434
#
# _framework density 22.729963000000001
#
# number of rings (size 3 to 8) (size 9 to 14) (size 15 to 20)
#    0.000    0.571    4.286    2.571   14.000    1.714 
#    0.000    0.000    0.000    0.000    0.000    0.000 
#    0.000    0.000    0.000    0.000    0.000    0.000 
#
# Total GULP energy -347290.075197 kJ/mol
# GULP energy per Si atom -12403.216971 kJ/mol
# Density = 2.267823 g / cm^3
# Si number density = 22.729963 Si / 1000 Ang^3
#
#
#
# Elastic Constant Matrix: (Units=GPa)
#
#
# Indices 1 2 3 4 5 6 
#
# 1 137.2584 16.3245 50.5755 0.0000 -1.1390 0.0000
# 2 16.3245 61.2925 38.0569 0.0000 8.4407 0.0000
# 3 50.5755 38.0569 116.5504 0.0000 -1.4503 0.0000
# 4 0.0000 0.0000 0.0000 41.6897 0.0000 2.7203
# 5 -1.1390 8.4407 -1.4503 0.0000 44.0869 0.0000
# 6 0.0000 0.0000 0.0000 2.7203 0.0000 34.1913
#
#
#
# Elastic Compliance Matrix: (Units=1/GPa)
#
#
# Indices 1 2 3 4 5 6 
#
# 1 0.008673 0.000016 -0.003767 0.000000 0.000097 0.000000
# 2 0.000016 0.021248 -0.006999 0.000000 -0.004298 0.000000
# 3 -0.003767 -0.006999 0.012521 0.000000 0.001654 0.000000
# 4 0.000000 0.000000 0.000000 0.024112 0.000000 -0.001918
# 5 0.000097 -0.004298 0.001654 0.000000 0.023562 0.000000
# 6 0.000000 0.000000 0.000000 -0.001918 0.000000 0.029400
#
#
# Mechanical properties :
#
#
# Convention : Reuss Voigt Hill
#
# Bulk Modulus (GPa) = 47.75197 58.33504 53.04351
# Shear Modulus (GPa) = 33.78474 38.00322 35.89398
#
# Velocity S-wave (km/s) = 3.85951 4.09338 3.97816
# Velocity P-wave (km/s) = 6.39649 6.93261 6.66994
#
# Compressibility (1/GPa) = 0.02094154
#
# Stress axis : x y z
#
# Youngs Moduli (GPa) = 115.30575 47.06268 79.86851
#
# Poissons Ratio (x) = -0.00075 0.30089
# Poissons Ratio (y) = -0.00184 0.55896
# Poissons Ratio (z) = 0.43440 0.32937
#
# Static dielectric constant tensor:
#      x y z
#    x 4.527140 0.000000 0.027550 
#    y 0.000000 3.974140 0.000000 
#    z 0.027550 0.000000 4.215200 
# 
# 
# High freq. dielectric constant tensor:
#      x y z
#    x 1.909500 0.000000 -0.009590 
#    y 0.000000 1.890020 0.000000 
#    z -0.009590 0.000000 1.903330 
# 
# From -- ./inp_files/18780.got.cif
#   From: 2010.03.12/outbox.cif.g09.slc.cpg/sg14_10_cif.got.tgz:18780.got - 2010.03.31 13:35:05.
