data_PCOD8129285
_publ_section_title
;
Structure prediction by ZEFSAII (Michael W. Deem and Ramdas Pophale) SiO2 
 PCOD8129285
Probable space group: P 21/C
;
_chemical_formula_sum "Si O2"
_cell_formula_units_Z 16
_cell_length_a 11.407714
_cell_length_b 9.246906
_cell_length_c 8.724092
_cell_angle_alpha 90.000000
_cell_angle_beta 139.359936
_cell_angle_gamma 90.000000
_cell_volume 599.376486
_symmetry_space_group_name_H-M "P 21/C"
_symmetry_group_IT_number 14
_symmetry_cell_setting 'monoclinic'
loop_
_space_group_symop_operation_xyz
x,y,z
-x,1/2+y,1/2-z
-x,-y,-z
x,1/2-y,1/2+z
loop_
_atom_site_type_symbol
_atom_site_label
_atom_site_fract_x
_atom_site_fract_y
_atom_site_fract_z
Si Si1 0.387781 0.223584 0.318159
Si Si2 0.105316 0.604627 0.716582
Si Si3 0.018047 0.342053 0.080942
Si Si4 0.473432 0.041846 0.675244
O O1 0.195495 0.259159 0.197303
O O2 0.513570 0.155297 0.576981
O O3 0.479834 0.368249 0.340059
O O4 0.380782 0.090442 0.183785
O O5 0.000000 0.500000 0.500000
O O6 0.146565 0.747948 0.655356
O O7 0.981164 0.658379 0.735065
O O8 0.277637 0.529109 0.960118
O O9 0.000000 0.500000 0.000000
#
# Coordination Sequence:
#
# PCOD8129285 Si02
#       4
#     4   4   4   4
#     4  11  25  50  73 111 152 204 252 315 391 457
#     4  12  25  46  77 113 151 199 259 320 389 462
#     4  12  24  47  77 111 151 200 259 323 381 458
#     4  11  26  49  74 112 157 203 258 317 384 471
#
# _framework density 26.694407999999999
#
# number of rings (size 3 to 8) (size 9 to 14) (size 15 to 20)
#    0.000    0.500    5.000    3.000    0.000    5.000 
#    9.000    0.000    0.000    0.000    0.000    0.000 
#    0.000    0.000    0.000    0.000    0.000    0.000 
#
# Total GULP energy -198278.263884 kJ/mol
# GULP energy per Si atom -12392.391493 kJ/mol
# Density = 2.663365 g / cm^3
# Si number density = 26.694408 Si / 1000 Ang^3
#
#
#
# Elastic Constant Matrix: (Units=GPa)
#
#
# Indices 1 2 3 4 5 6 
#
# 1 168.5520 77.8663 47.4442 0.0000 -23.5141 0.0000
# 2 77.8663 207.1668 68.1406 0.0000 -13.3460 0.0000
# 3 47.4442 68.1406 67.6421 0.0000 -14.2193 0.0000
# 4 0.0000 0.0000 0.0000 64.5368 0.0000 -14.2039
# 5 -23.5141 -13.3460 -14.2193 0.0000 42.4349 0.0000
# 6 0.0000 0.0000 0.0000 -14.2039 0.0000 71.6081
#
#
#
# Elastic Compliance Matrix: (Units=1/GPa)
#
#
# Indices 1 2 3 4 5 6 
#
# 1 0.008068 -0.001771 -0.003283 0.000000 0.002813 0.000000
# 2 -0.001771 0.007609 -0.006590 0.000000 -0.000797 0.000000
# 3 -0.003283 -0.006590 0.024643 0.000000 0.004366 0.000000
# 4 0.000000 0.000000 0.000000 0.016202 0.000000 0.003214
# 5 0.002813 -0.000797 0.004366 0.000000 0.026337 0.000000
# 6 0.000000 0.000000 0.000000 0.003214 0.000000 0.014602
#
#
# Mechanical properties :
#
#
# Convention : Reuss Voigt Hill
#
# Bulk Modulus (GPa) = 58.71741 92.25145 75.48443
# Shear Modulus (GPa) = 39.54839 52.37661 45.96250
#
# Velocity S-wave (km/s) = 3.85323 4.43434 4.15396
# Velocity P-wave (km/s) = 6.46842 7.80072 7.16560
#
# Compressibility (1/GPa) = 0.01703072
#
# Stress axis : x y z
#
# Youngs Moduli (GPa) = 123.95013 131.42110 40.57954
#
# Poissons Ratio (x) = 0.23279 0.13322
# Poissons Ratio (y) = 0.21955 0.26743
# Poissons Ratio (z) = 0.40692 0.86610
#
# Static dielectric constant tensor:
#      x y z
#    x 5.359540 0.000000 -0.241860 
#    y 0.000000 5.943160 0.000000 
#    z -0.241860 0.000000 4.351890 
# 
# 
# High freq. dielectric constant tensor:
#      x y z
#    x 2.084690 0.000000 -0.014780 
#    y 0.000000 2.102060 0.000000 
#    z -0.014780 0.000000 2.044160 
# 
# From -- ./inp_files/7275.got.cif
#   From: 2010.03.12/outbox.cif.g09.slc.cpg/sg14_4_cif.got.tgz:7275.got - 2010.03.31 13:35:05.
