data_PCOD8129473
_publ_section_title
;
Structure prediction by ZEFSAII (Michael W. Deem and Ramdas Pophale) SiO2 
 PCOD8129473
Probable space group: P 21/C
;
_chemical_formula_sum "Si O2"
_cell_formula_units_Z 16
_cell_length_a 8.394058
_cell_length_b 16.855342
_cell_length_c 9.675363
_cell_angle_alpha 90.000000
_cell_angle_beta 150.140673
_cell_angle_gamma 90.000000
_cell_volume 681.545257
_symmetry_space_group_name_H-M "P 21/C"
_symmetry_group_IT_number 14
_symmetry_cell_setting 'monoclinic'
loop_
_space_group_symop_operation_xyz
x,y,z
-x,1/2+y,1/2-z
-x,-y,-z
x,1/2-y,1/2+z
loop_
_atom_site_type_symbol
_atom_site_label
_atom_site_fract_x
_atom_site_fract_y
_atom_site_fract_z
Si Si1 0.025573 0.529572 0.363791
Si Si2 0.594934 0.292345 0.810711
Si Si3 0.296754 0.969837 0.635744
Si Si4 0.220161 0.205058 0.307538
O O1 0.909533 0.618548 0.254617
O O2 0.000000 0.500000 0.500000
O O3 0.396277 0.523921 0.596501
O O4 0.797003 0.474499 0.097172
O O5 0.943887 0.269058 0.127589
O O6 0.613256 0.379836 0.759030
O O7 0.502980 0.228011 0.625136
O O8 0.338448 0.290977 0.739956
O O9 0.000000 0.000000 0.500000
#
# Coordination Sequence:
#
# PCOD8129473 Si02
#       4
#     4   4   4   4
#     4  12  26  50  77 105 144 199 245 300 364 437
#     4  12  28  48  73 109 150 193 244 301 368 440
#     4  12  28  48  77 110 149 191 249 305 363 434
#     4  12  28  47  75 105 150 194 243 301 372 437
#
# _framework density 23.476061000000001
#
# number of rings (size 3 to 8) (size 9 to 14) (size 15 to 20)
#    0.000    0.000    2.500    6.000   14.000    0.000 
#    0.000    0.000    0.000    0.000    0.000    0.000 
#    0.000    0.000    0.000    0.000    0.000    0.000 
#
# Total GULP energy -198567.019320 kJ/mol
# GULP energy per Si atom -12410.438707 kJ/mol
# Density = 2.342263 g / cm^3
# Si number density = 23.476061 Si / 1000 Ang^3
#
#
#
# Elastic Constant Matrix: (Units=GPa)
#
#
# Indices 1 2 3 4 5 6 
#
# 1 79.1822 59.3770 8.3167 0.0000 22.4958 0.0000
# 2 59.3770 134.4746 34.5163 0.0000 1.7527 0.0000
# 3 8.3167 34.5163 101.2128 0.0000 3.4768 0.0000
# 4 0.0000 0.0000 0.0000 52.5509 0.0000 5.5335
# 5 22.4958 1.7527 3.4768 0.0000 43.7361 0.0000
# 6 0.0000 0.0000 0.0000 5.5335 0.0000 36.2041
#
#
#
# Elastic Compliance Matrix: (Units=1/GPa)
#
#
# Indices 1 2 3 4 5 6 
#
# 1 0.024155 -0.011074 0.002209 0.000000 -0.012156 0.000000
# 2 -0.011074 0.013227 -0.003789 0.000000 0.005467 0.000000
# 3 0.002209 -0.003789 0.011055 0.000000 -0.001863 0.000000
# 4 0.000000 0.000000 0.000000 0.019340 0.000000 -0.002956
# 5 -0.012156 0.005467 -0.001863 0.000000 0.029046 0.000000
# 6 0.000000 0.000000 0.000000 -0.002956 0.000000 0.028073
#
#
# Mechanical properties :
#
#
# Convention : Reuss Voigt Hill
#
# Bulk Modulus (GPa) = 43.23421 57.69884 50.46653
# Shear Modulus (GPa) = 31.66295 40.67553 36.16924
#
# Velocity S-wave (km/s) = 3.67649 4.16701 3.92942
# Velocity P-wave (km/s) = 6.03974 6.91253 6.49082
#
# Compressibility (1/GPa) = 0.02312983
#
# Stress axis : x y z
#
# Youngs Moduli (GPa) = 41.39949 75.60098 90.45928
#
# Poissons Ratio (x) = 0.83722 -0.19986
# Poissons Ratio (y) = 0.45847 0.34272
# Poissons Ratio (z) = -0.09147 0.28643
#
# Static dielectric constant tensor:
#      x y z
#    x 4.251000 0.000000 0.149620 
#    y 0.000000 4.725230 0.000000 
#    z 0.149620 0.000000 4.535560 
# 
# 
# High freq. dielectric constant tensor:
#      x y z
#    x 1.939280 0.000000 0.008830 
#    y 0.000000 1.934890 0.000000 
#    z 0.008830 0.000000 1.948060 
# 
# From -- ./inp_files/8948.got.cif
#   From: 2010.03.12/outbox.cif.g09.slc.cpg/sg14_5_cif.got.tgz:8948.got - 2010.03.31 13:35:05.
