data_PCOD8129968
_publ_section_title
;
Structure prediction by ZEFSAII (Michael W. Deem and Ramdas Pophale) SiO2 
 PCOD8129968
Probable space group: C 2/C
;
_chemical_formula_sum "Si O2"
_cell_formula_units_Z 48
_cell_length_a 23.279470
_cell_length_b 17.289201
_cell_length_c 8.708754
_cell_angle_alpha 90.000000
_cell_angle_beta 138.182907
_cell_angle_gamma 90.000000
_cell_volume 2337.061873
_symmetry_space_group_name_H-M "C 2/C"
_symmetry_group_IT_number 15
_symmetry_cell_setting 'monoclinic'
loop_
_space_group_symop_operation_xyz
x,y,z
-x,y,1/2-z
-x,-y,-z
x,-y,1/2+z
1/2+x,1/2+y,z
1/2-x,1/2+y,1/2-z
1/2-x,1/2-y,-z
1/2+x,1/2-y,1/2+z
loop_
_atom_site_type_symbol
_atom_site_label
_atom_site_fract_x
_atom_site_fract_y
_atom_site_fract_z
Si Si1 0.309598 0.966903 0.631779
Si Si2 0.814305 0.015567 0.367207
Si Si3 0.075508 0.351436 0.793696
Si Si4 0.966239 0.740809 0.852292
Si Si5 0.132588 0.110554 0.297922
Si Si6 0.676793 0.855495 0.283736
O O1 0.251532 0.934928 0.657263
O O2 0.392559 0.914306 0.766367
O O3 0.342002 0.053245 0.734359
O O4 0.246846 0.963386 0.360829
O O5 0.873933 0.072462 0.385077
O O6 0.872096 0.957608 0.584713
O O7 0.000000 0.387634 0.750000
O O8 0.039155 0.279194 0.624033
O O9 0.151605 0.325872 0.061734
O O10 0.946369 0.831743 0.834191
O O11 0.880428 0.689897 0.705807
O O12 0.000000 0.724084 0.750000
O O13 0.221959 0.158992 0.487127
#
# Coordination Sequence:
#
# PCOD8129968 Si02
#       6
#     8   8   8   8   8   8
#     4  10  16  34  59  93 115 151 207 250 287 352
#     4   8  18  33  66  88 108 146 210 260 288 329
#     4  10  21  36  53  84 130 162 190 238 300 368
#     4  11  25  37  55  85 132 163 194 235 308 372
#     4  10  19  41  62  90 115 153 205 256 295 353
#     4   9  20  38  59  84 122 161 204 241 294 358
#
# _framework density 20.538609999999998
#
# number of rings (size 3 to 8) (size 9 to 14) (size 15 to 20)
#    0.000    2.667    3.333    0.500    4.667    3.333 
#    0.000   11.667    0.000    0.000    0.000    0.000 
#    0.000    0.000    0.000    0.000    0.000    0.000 
#
# Total GULP energy -297432.966287 kJ/mol
# GULP energy per Si atom -12393.040262 kJ/mol
# Density = 2.049186 g / cm^3
# Si number density = 20.538610 Si / 1000 Ang^3
#
#
#
# Elastic Constant Matrix: (Units=GPa)
#
#
# Indices 1 2 3 4 5 6 
#
# 1 96.0704 47.1793 51.3959 0.0000 -31.2139 0.0000
# 2 47.1793 86.4502 44.1626 0.0000 -6.2959 0.0000
# 3 51.3959 44.1626 65.0863 0.0000 -17.6268 0.0000
# 4 0.0000 0.0000 0.0000 30.2885 0.0000 9.2317
# 5 -31.2139 -6.2959 -17.6268 0.0000 27.3759 0.0000
# 6 0.0000 0.0000 0.0000 9.2317 0.0000 47.1341
#
#
#
# Elastic Compliance Matrix: (Units=1/GPa)
#
#
# Indices 1 2 3 4 5 6 
#
# 1 0.026865 -0.008118 -0.009588 0.000000 0.022591 0.000000
# 2 -0.008118 0.020614 -0.010657 0.000000 -0.011378 0.000000
# 3 -0.009588 -0.010657 0.032148 0.000000 0.007317 0.000000
# 4 0.000000 0.000000 0.000000 0.035112 0.000000 -0.006877
# 5 0.022591 -0.011378 0.007317 0.000000 0.064381 0.000000
# 6 0.000000 0.000000 0.000000 -0.006877 0.000000 0.022563
#
#
# Mechanical properties :
#
#
# Convention : Reuss Voigt Hill
#
# Bulk Modulus (GPa) = 43.66829 59.23136 51.44982
# Shear Modulus (GPa) = 18.79398 27.95096 23.37247
#
# Velocity S-wave (km/s) = 3.02827 3.69304 3.37705
# Velocity P-wave (km/s) = 5.79094 6.86195 6.34907
#
# Compressibility (1/GPa) = 0.02289991
#
# Stress axis : x y z
#
# Youngs Moduli (GPa) = 37.22312 48.51185 31.10620
#
# Poissons Ratio (x) = 0.39384 0.29823
# Poissons Ratio (y) = 0.30219 0.33151
# Poissons Ratio (z) = 0.35688 0.51701
#
# Static dielectric constant tensor:
#      x y z
#    x 3.922920 0.000000 -0.298130 
#    y 0.000000 3.409970 0.000000 
#    z -0.298130 0.000000 3.712470 
# 
# 
# High freq. dielectric constant tensor:
#      x y z
#    x 1.810440 0.000000 -0.018740 
#    y 0.000000 1.773270 0.000000 
#    z -0.018740 0.000000 1.791120 
# 
# From -- ./inp_files/63315.got.cif
#   From: 2010.06.25/outbox.cif.g09.slc.cpg/sg15_32_cif.got.tgz:63315.got - 2010.06.28 07:06:18.
