data_PCOD8129348
_publ_section_title
;
Structure prediction by ZEFSAII (Michael W. Deem and Ramdas Pophale) SiO2 
 PCOD8129348
Probable space group: P 21/C
;
_chemical_formula_sum "Si O2"
_cell_formula_units_Z 24
_cell_length_a 8.475790
_cell_length_b 14.433631
_cell_length_c 9.719910
_cell_angle_alpha 90.000000
_cell_angle_beta 90.741765
_cell_angle_gamma 90.000000
_cell_volume 1188.999395
_symmetry_space_group_name_H-M "P 21/C"
_symmetry_group_IT_number 14
_symmetry_cell_setting 'monoclinic'
loop_
_space_group_symop_operation_xyz
x,y,z
-x,1/2+y,1/2-z
-x,-y,-z
x,1/2-y,1/2+z
loop_
_atom_site_type_symbol
_atom_site_label
_atom_site_fract_x
_atom_site_fract_y
_atom_site_fract_z
Si Si1 0.958035 0.489312 0.657811
Si Si2 0.180302 0.319414 0.281109
Si Si3 0.310841 0.677643 0.984807
Si Si4 0.326846 0.193919 0.499050
Si Si5 0.141702 0.787827 0.759502
Si Si6 0.158275 0.491573 0.912585
O O1 0.839250 0.570459 0.702865
O O2 0.876019 0.391318 0.683482
O O3 0.000000 0.500000 0.500000
O O4 0.116577 0.497799 0.750519
O O5 0.249166 0.282616 0.425188
O O6 0.017676 0.271265 0.233885
O O7 0.305588 0.298869 0.162386
O O8 0.489557 0.690058 0.034547
O O9 0.194264 0.711384 0.102618
O O10 0.275925 0.738976 0.850879
O O11 0.282790 0.570063 0.952491
O O12 0.237864 0.106081 0.437594
O O13 0.000000 0.500000 0.000000
#
# Coordination Sequence:
#
# PCOD8129348 Si02
#       6
#     4   4   4   4   4   4
#     4  12  24  40  67  99 122 163 229 270 309 375
#     4  12  23  43  68  94 129 173 223 263 316 399
#     4  12  25  42  65  99 134 169 213 277 332 376
#     4  12  25  42  65  99 134 169 213 277 332 376
#     4  12  23  43  68  94 129 173 223 263 316 399
#     4  12  21  44  69  93 125 174 225 263 316 397
#
# _framework density 20.185040000000001
#
# number of rings (size 3 to 8) (size 9 to 14) (size 15 to 20)
#    0.000    0.000    6.667    4.500    0.000    0.000 
#    0.000    0.833    0.000    0.000    0.000    0.000 
#    0.000    0.000    0.000    0.000    0.000    0.000 
#
# Total GULP energy -297776.020494 kJ/mol
# GULP energy per Si atom -12407.334187 kJ/mol
# Density = 2.013910 g / cm^3
# Si number density = 20.185040 Si / 1000 Ang^3
#
#
#
# Elastic Constant Matrix: (Units=GPa)
#
#
# Indices 1 2 3 4 5 6 
#
# 1 86.5157 20.9289 6.3331 0.0000 10.1559 0.0000
# 2 20.9289 98.8674 -2.5319 0.0000 3.9095 0.0000
# 3 6.3331 -2.5319 104.6438 0.0000 -6.6281 0.0000
# 4 0.0000 0.0000 0.0000 32.1688 0.0000 3.0392
# 5 10.1559 3.9095 -6.6281 0.0000 34.2380 0.0000
# 6 0.0000 0.0000 0.0000 3.0392 0.0000 26.6307
#
#
#
# Elastic Compliance Matrix: (Units=1/GPa)
#
#
# Indices 1 2 3 4 5 6 
#
# 1 0.012689 -0.002568 -0.001063 0.000000 -0.003677 0.000000
# 2 -0.002568 0.010683 0.000390 0.000000 -0.000383 0.000000
# 3 -0.001063 0.000390 0.009767 0.000000 0.002162 0.000000
# 4 0.000000 0.000000 0.000000 0.031425 0.000000 -0.003586
# 5 -0.003677 -0.000383 0.002162 0.000000 0.030760 0.000000
# 6 0.000000 0.000000 0.000000 -0.003586 0.000000 0.037960
#
#
# Mechanical properties :
#
#
# Convention : Reuss Voigt Hill
#
# Bulk Modulus (GPa) = 37.51384 37.72078 37.61731
# Shear Modulus (GPa) = 33.63553 36.29395 34.96474
#
# Velocity S-wave (km/s) = 4.08653 4.24496 4.16650
# Velocity P-wave (km/s) = 6.39466 6.53867 6.46707
#
# Compressibility (1/GPa) = 0.02665683
#
# Stress axis : x y z
#
# Youngs Moduli (GPa) = 78.80724 93.60424 102.38664
#
# Poissons Ratio (x) = 0.24037 0.10883
# Poissons Ratio (y) = 0.20237 -0.03990
# Poissons Ratio (z) = 0.08377 -0.03647
#
# Static dielectric constant tensor:
#      x y z
#    x 3.700640 0.000000 -0.126430 
#    y 0.000000 3.921520 0.000000 
#    z -0.126430 0.000000 4.033880 
# 
# 
# High freq. dielectric constant tensor:
#      x y z
#    x 1.772220 0.000000 0.003430 
#    y 0.000000 1.806540 0.000000 
#    z 0.003430 0.000000 1.806450 
# 
# From -- ./inp_files/8402.got.cif
#   From: 2010.03.12/outbox.cif.g09.slc.cpg/sg14_5_cif.got.tgz:8402.got - 2010.03.31 13:35:05.
