data_PCOD8129984
_publ_section_title
;
Structure prediction by ZEFSAII (Michael W. Deem and Ramdas Pophale) SiO2 
 PCOD8129984
Probable space group: C 2/C
;
_chemical_formula_sum "Si O2"
_cell_formula_units_Z 36
_cell_length_a 20.027283
_cell_length_b 7.237936
_cell_length_c 11.358760
_cell_angle_alpha 90.000000
_cell_angle_beta 61.254625
_cell_angle_gamma 90.000000
_cell_volume 1443.614343
_symmetry_space_group_name_H-M "C 2/C"
_symmetry_group_IT_number 15
_symmetry_cell_setting 'monoclinic'
loop_
_space_group_symop_operation_xyz
x,y,z
-x,y,1/2-z
-x,-y,-z
x,-y,1/2+z
1/2+x,1/2+y,z
1/2-x,1/2+y,1/2-z
1/2-x,1/2-y,-z
1/2+x,1/2-y,1/2+z
loop_
_atom_site_type_symbol
_atom_site_label
_atom_site_fract_x
_atom_site_fract_y
_atom_site_fract_z
Si Si1 0.849523 0.644248 0.228172
Si Si2 0.374130 0.368834 0.432918
Si Si3 0.000000 0.152248 0.250000
Si Si4 0.493324 0.722551 0.004073
Si Si5 0.744481 0.353451 0.382017
O O1 0.837455 0.749275 0.361175
O O2 0.827581 0.429219 0.270270
O O3 0.789208 0.716690 0.185002
O O4 0.935341 0.666097 0.109029
O O5 0.426622 0.524073 0.328798
O O6 0.421176 0.233637 0.482085
O O7 0.308773 0.466429 0.563207
O O8 0.985556 0.282500 0.147708
O O9 0.500000 0.500000 0.000000
O O10 0.750000 0.250000 0.500000
#
# Coordination Sequence:
#
# PCOD8129984 Si02
#       5
#     8   8   4   8   8
#     4  12  23  44  72 108 146 199 252 303 368 449
#     4  11  19  40  74 106 146 191 243 301 372 439
#     4  10  16  34  68 108 138 188 242 276 372 424
#     4  10  18  36  74 108 140 194 244 295 364 444
#     4  12  27  44  70 106 154 199 245 307 377 448
#
# _framework density 24.93741
#
# number of rings (size 3 to 8) (size 9 to 14) (size 15 to 20)
#    0.000    0.889    8.889    2.000    0.000    0.000 
#    0.000    0.000    4.889    8.000    0.000    0.000 
#    0.000    0.000    0.000    0.000    0.000    0.000 
#
# Total GULP energy -223194.025674 kJ/mol
# GULP energy per Si atom -12399.668093 kJ/mol
# Density = 2.488065 g / cm^3
# Si number density = 24.937410 Si / 1000 Ang^3
#
#
#
# Elastic Constant Matrix: (Units=GPa)
#
#
# Indices 1 2 3 4 5 6 
#
# 1 146.4991 55.3490 65.7455 0.0000 30.7590 0.0000
# 2 55.3490 52.0592 42.1196 0.0000 12.4217 0.0000
# 3 65.7455 42.1196 141.2807 0.0000 26.6346 0.0000
# 4 0.0000 0.0000 0.0000 48.1473 0.0000 1.6505
# 5 30.7590 12.4217 26.6346 0.0000 61.2635 0.0000
# 6 0.0000 0.0000 0.0000 1.6505 0.0000 17.1034
#
#
#
# Elastic Compliance Matrix: (Units=1/GPa)
#
#
# Indices 1 2 3 4 5 6 
#
# 1 0.012519 -0.010965 -0.001951 0.000000 -0.003214 0.000000
# 2 -0.010965 0.035149 -0.005524 0.000000 0.000780 0.000000
# 3 -0.001951 -0.005524 0.010062 0.000000 -0.002275 0.000000
# 4 0.000000 0.000000 0.000000 0.020839 0.000000 -0.002011
# 5 -0.003214 0.000780 -0.002275 0.000000 0.018768 0.000000
# 6 0.000000 0.000000 0.000000 -0.002011 0.000000 0.058662
#
#
# Mechanical properties :
#
#
# Convention : Reuss Voigt Hill
#
# Bulk Modulus (GPa) = 47.95795 74.02967 60.99381
# Shear Modulus (GPa) = 25.02167 37.07783 31.04975
#
# Velocity S-wave (km/s) = 3.17105 3.86013 3.53244
# Velocity P-wave (km/s) = 5.71669 7.04401 6.41477
#
# Compressibility (1/GPa) = 0.02085160
#
# Stress axis : x y z
#
# Youngs Moduli (GPa) = 79.87908 28.45004 99.38827
#
# Poissons Ratio (x) = 0.31195 0.19390
# Poissons Ratio (y) = 0.87585 0.54897
# Poissons Ratio (z) = 0.15584 0.15714
#
# Static dielectric constant tensor:
#      x y z
#    x 5.027660 0.000000 0.096110 
#    y 0.000000 4.169210 0.000000 
#    z 0.096110 0.000000 5.404670 
# 
# 
# High freq. dielectric constant tensor:
#      x y z
#    x 2.009340 0.000000 0.011510 
#    y 0.000000 1.962120 0.000000 
#    z 0.011510 0.000000 2.012350 
# 
# From -- ./inp_files/109526.got.cif
#   From: 2010.06.25/outbox.cif.g09.slc.cpg/sg15_55_cif.got.tgz:109526.got - 2010.06.28 07:06:18.
