data_PCOD8129889
_publ_section_title
;
Structure prediction by ZEFSAII (Michael W. Deem and Ramdas Pophale) SiO2 
 PCOD8129889
Probable space group: C 2/C
;
_chemical_formula_sum "Si O2"
_cell_formula_units_Z 56
_cell_length_a 28.019347
_cell_length_b 18.750051
_cell_length_c 5.239364
_cell_angle_alpha 90.000000
_cell_angle_beta 109.571247
_cell_angle_gamma 90.000000
_cell_volume 2593.546084
_symmetry_space_group_name_H-M "C 2/C"
_symmetry_group_IT_number 15
_symmetry_cell_setting 'monoclinic'
loop_
_space_group_symop_operation_xyz
x,y,z
-x,y,1/2-z
-x,-y,-z
x,-y,1/2+z
1/2+x,1/2+y,z
1/2-x,1/2+y,1/2-z
1/2-x,1/2-y,-z
1/2+x,1/2-y,1/2+z
loop_
_atom_site_type_symbol
_atom_site_label
_atom_site_fract_x
_atom_site_fract_y
_atom_site_fract_z
Si Si1 0.177930 0.310647 0.779990
Si Si2 0.137827 0.619891 0.709003
Si Si3 0.216702 0.151665 0.850417
Si Si4 0.134547 0.956286 0.251484
Si Si5 0.478718 0.419758 0.459948
Si Si6 0.262032 0.956502 0.108186
Si Si7 0.477613 0.080112 0.961492
O O1 0.146906 0.332361 0.475277
O O2 0.190848 0.227823 0.779483
O O3 0.144667 0.330222 0.970744
O O4 0.232231 0.350861 0.885471
O O5 0.177402 0.554431 0.776090
O O6 0.083083 0.583067 0.631160
O O7 0.175604 0.101526 0.906452
O O8 0.233638 0.119896 0.601724
O O9 0.081019 0.917610 0.170284
O O10 0.140388 0.018819 0.468678
O O11 0.500000 0.378748 0.250000
O O12 0.500000 0.500000 0.500000
O O13 0.500000 0.379945 0.750000
O O14 0.244659 0.006239 0.316687
O O15 0.500000 0.119199 0.750000
O O16 0.500000 0.120144 0.250000
O O17 0.500000 0.000000 0.000000
#
# Coordination Sequence:
#
# PCOD8129889 Si02
#       7
#     8   8   8   8   8   8   8
#     4  10  24  44  65  83 123 177 218 257 290 392
#     4  11  23  41  67  92 124 172 217 254 321 378
#     4  10  24  42  61  91 123 168 215 251 316 360
#     4  12  22  34  60  90 123 151 192 257 311 377
#     4  10  16  32  52  78 111 149 181 218 291 367
#     4  11  23  36  59  91 134 158 191 262 316 389
#     4  10  22  37  63  98 127 161 203 268 322 395
#
# _framework density 21.59206
#
# number of rings (size 3 to 8) (size 9 to 14) (size 15 to 20)
#    0.000    1.429    2.857    3.429    4.000    9.714 
#    0.000    0.000    0.000    5.143    0.000    0.000 
#    0.000    0.000    0.000    0.000    0.000    0.000 
#
# Total GULP energy -347026.526463 kJ/mol
# GULP energy per Si atom -12393.804517 kJ/mol
# Density = 2.154292 g / cm^3
# Si number density = 21.592060 Si / 1000 Ang^3
#
#
#
# Elastic Constant Matrix: (Units=GPa)
#
#
# Indices 1 2 3 4 5 6 
#
# 1 158.1733 54.0871 60.4989 0.0000 8.9673 0.0000
# 2 54.0871 59.0119 30.2353 0.0000 3.4524 0.0000
# 3 60.4989 30.2353 156.8493 0.0000 -20.1575 0.0000
# 4 0.0000 0.0000 0.0000 17.2050 0.0000 6.9067
# 5 8.9673 3.4524 -20.1575 0.0000 45.9130 0.0000
# 6 0.0000 0.0000 0.0000 6.9067 0.0000 18.4453
#
#
#
# Elastic Compliance Matrix: (Units=1/GPa)
#
#
# Indices 1 2 3 4 5 6 
#
# 1 0.010184 -0.007762 -0.002769 0.000000 -0.002621 0.000000
# 2 -0.007762 0.025169 -0.002020 0.000000 -0.001263 0.000000
# 3 -0.002769 -0.002020 0.008396 0.000000 0.004379 0.000000
# 4 0.000000 0.000000 0.000000 0.068405 0.000000 -0.025614
# 5 -0.002621 -0.001263 0.004379 0.000000 0.024310 0.000000
# 6 0.000000 0.000000 0.000000 -0.025614 0.000000 0.063805
#
#
# Mechanical properties :
#
#
# Convention : Reuss Voigt Hill
#
# Bulk Modulus (GPa) = 53.62881 73.74191 63.68536
# Shear Modulus (GPa) = 21.59027 31.59354 26.59190
#
# Velocity S-wave (km/s) = 3.16558 3.82933 3.51317
# Velocity P-wave (km/s) = 6.18485 7.33336 6.78346
#
# Compressibility (1/GPa) = 0.01864669
#
# Stress axis : x y z
#
# Youngs Moduli (GPa) = 98.19298 39.73121 119.11033
#
# Poissons Ratio (x) = 0.30840 0.32977
# Poissons Ratio (y) = 0.76220 0.24062
# Poissons Ratio (z) = 0.27186 0.08026
#
# Static dielectric constant tensor:
#      x y z
#    x 4.225790 0.000000 -0.236960 
#    y 0.000000 3.560810 0.000000 
#    z -0.236960 0.000000 4.210410 
# 
# 
# High freq. dielectric constant tensor:
#      x y z
#    x 1.865910 0.000000 -0.007280 
#    y 0.000000 1.796740 0.000000 
#    z -0.007280 0.000000 1.866220 
# 
# From -- ./inp_files/17215.got.cif
#   From: 2010.06.25/outbox.cif.g09.slc.cpg/sg15_9_cif.got.tgz:17215.got - 2010.06.28 07:06:18.
