data_PCOD8129983
_publ_section_title
;
Structure prediction by ZEFSAII (Michael W. Deem and Ramdas Pophale) SiO2 
 PCOD8129983
Probable space group: C 2/C
;
_chemical_formula_sum "Si O2"
_cell_formula_units_Z 44
_cell_length_a 21.362090
_cell_length_b 14.353252
_cell_length_c 12.717283
_cell_angle_alpha 90.000000
_cell_angle_beta 144.495653
_cell_angle_gamma 90.000000
_cell_volume 2264.584929
_symmetry_space_group_name_H-M "C 2/C"
_symmetry_group_IT_number 15
_symmetry_cell_setting 'monoclinic'
loop_
_space_group_symop_operation_xyz
x,y,z
-x,y,1/2-z
-x,-y,-z
x,-y,1/2+z
1/2+x,1/2+y,z
1/2-x,1/2+y,1/2-z
1/2-x,1/2-y,-z
1/2+x,1/2-y,1/2+z
loop_
_atom_site_type_symbol
_atom_site_label
_atom_site_fract_x
_atom_site_fract_y
_atom_site_fract_z
Si Si1 0.271662 0.387381 0.266498
Si Si2 0.500000 0.803389 0.750000
Si Si3 0.221044 0.644861 0.477706
Si Si4 0.446313 0.752526 0.063377
Si Si5 0.600057 0.732855 0.081682
Si Si6 0.727388 0.097580 0.250990
O O1 0.376373 0.343707 0.468828
O O2 0.174231 0.322044 0.166647
O O3 0.227912 0.488994 0.231132
O O4 0.298667 0.389030 0.178276
O O5 0.399988 0.869523 0.643207
O O6 0.484491 0.734716 0.629471
O O7 0.250000 0.750000 0.500000
O O8 0.238211 0.594646 0.391609
O O9 0.500000 0.771020 0.250000
O O10 0.544470 0.737739 0.118117
O O11 0.376950 0.843524 0.931623
O O12 0.668926 0.638811 0.166232
#
# Coordination Sequence:
#
# PCOD8129983 Si02
#       6
#     8   4   8   8   8   8
#     4  10  24  40  62  99 124 168 218 270 322 383
#     4  10  16  34  64  90 106 156 216 256 296 366
#     4  11  18  39  65  86 122 164 212 266 312 371
#     4  11  24  43  62  90 137 175 209 261 334 396
#     4  10  21  39  64  88 125 168 210 265 322 371
#     4  11  23  40  65  95 129 167 215 276 318 380
#
# _framework density 19.429608999999999
#
# number of rings (size 3 to 8) (size 9 to 14) (size 15 to 20)
#    0.000    1.455    7.273    0.000    0.000    7.273 
#    8.182    0.000    0.000    0.000    0.000    0.000 
#    0.000    0.000    0.000    0.000    0.000    0.000 
#
# Total GULP energy -272544.053751 kJ/mol
# GULP energy per Si atom -12388.366080 kJ/mol
# Density = 1.938539 g / cm^3
# Si number density = 19.429609 Si / 1000 Ang^3
#
#
#
# Elastic Constant Matrix: (Units=GPa)
#
#
# Indices 1 2 3 4 5 6 
#
# 1 122.2217 21.7353 33.4730 0.0000 -19.6478 0.0000
# 2 21.7353 95.8118 19.3256 0.0000 -4.7450 0.0000
# 3 33.4730 19.3256 92.1888 0.0000 -20.4108 0.0000
# 4 0.0000 0.0000 0.0000 15.5499 0.0000 -5.8844
# 5 -19.6478 -4.7450 -20.4108 0.0000 31.2838 0.0000
# 6 0.0000 0.0000 0.0000 -5.8844 0.0000 26.6879
#
#
#
# Elastic Compliance Matrix: (Units=1/GPa)
#
#
# Indices 1 2 3 4 5 6 
#
# 1 0.009787 -0.001547 -0.002244 0.000000 0.004447 0.000000
# 2 -0.001547 0.011143 -0.001888 0.000000 -0.000513 0.000000
# 3 -0.002244 -0.001888 0.013655 0.000000 0.007213 0.000000
# 4 0.000000 0.000000 0.000000 0.070164 0.000000 0.015470
# 5 0.004447 -0.000513 0.007213 0.000000 0.039387 0.000000
# 6 0.000000 0.000000 0.000000 0.015470 0.000000 0.040881
#
#
# Mechanical properties :
#
#
# Convention : Reuss Voigt Hill
#
# Bulk Modulus (GPa) = 43.05490 51.03224 47.04357
# Shear Modulus (GPa) = 24.49563 30.41686 27.45625
#
# Velocity S-wave (km/s) = 3.55454 3.96092 3.76322
# Velocity P-wave (km/s) = 6.24931 6.87319 6.56866
#
# Compressibility (1/GPa) = 0.02322616
#
# Stress axis : x y z
#
# Youngs Moduli (GPa) = 102.18016 89.73855 73.23323
#
# Poissons Ratio (x) = 0.13884 0.16437
# Poissons Ratio (y) = 0.15809 0.13826
# Poissons Ratio (z) = 0.22934 0.16942
#
# Static dielectric constant tensor:
#      x y z
#    x 3.564260 0.000000 0.055040 
#    y 0.000000 3.253870 0.000000 
#    z 0.055040 0.000000 3.873100 
# 
# 
# High freq. dielectric constant tensor:
#      x y z
#    x 1.770800 0.000000 -0.004440 
#    y 0.000000 1.732750 0.000000 
#    z -0.004440 0.000000 1.762060 
# 
# From -- ./inp_files/96090.got.cif
#   From: 2010.06.25/outbox.cif.g09.slc.cpg/sg15_49_cif.got.tgz:96090.got - 2010.06.28 07:06:18.
