data_PCOD8129939
_publ_section_title
;
Structure prediction by ZEFSAII (Michael W. Deem and Ramdas Pophale) SiO2 
 PCOD8129939
Probable space group: C 2/C
;
_chemical_formula_sum "Si O2"
_cell_formula_units_Z 60
_cell_length_a 14.506267
_cell_length_b 17.828372
_cell_length_c 23.183141
_cell_angle_alpha 90.000000
_cell_angle_beta 146.421238
_cell_angle_gamma 90.000000
_cell_volume 3316.116349
_symmetry_space_group_name_H-M "C 2/C"
_symmetry_group_IT_number 15
_symmetry_cell_setting 'monoclinic'
loop_
_space_group_symop_operation_xyz
x,y,z
-x,y,1/2-z
-x,-y,-z
x,-y,1/2+z
1/2+x,1/2+y,z
1/2-x,1/2+y,1/2-z
1/2-x,1/2-y,-z
1/2+x,1/2-y,1/2+z
loop_
_atom_site_type_symbol
_atom_site_label
_atom_site_fract_x
_atom_site_fract_y
_atom_site_fract_z
Si Si1 0.529917 0.510795 0.702214
Si Si2 0.702438 0.468637 0.009285
Si Si3 0.500000 0.366713 0.750000
Si Si4 0.027329 0.876850 0.011657
Si Si5 0.273791 0.753414 0.922808
Si Si6 0.255576 0.055370 0.723536
Si Si7 0.433200 0.844659 0.102766
Si Si8 0.674733 0.932210 0.827025
O O1 0.500000 0.549303 0.750000
O O2 0.382845 0.527380 0.579545
O O3 0.524995 0.419896 0.707018
O O4 0.700594 0.538989 0.761260
O O5 0.824053 0.418227 0.033628
O O6 0.810976 0.508468 0.114015
O O7 0.567609 0.415840 0.971403
O O8 0.669667 0.318806 0.838290
O O9 0.826066 0.872761 0.908623
O O10 0.110239 0.794433 0.060123
O O11 0.093693 0.926398 0.099668
O O12 0.134065 0.697666 0.875785
O O13 0.408975 0.787006 0.037786
O O14 0.377303 0.127769 0.788513
O O15 0.335714 0.979843 0.738184
O O16 0.500000 0.889761 0.750000
#
# Coordination Sequence:
#
# PCOD8129939 Si02
#       8
#     8   8   4   8   8   8   8   8
#     4  10  20  33  54  77 112 150 179 226 277 323
#     4  10  16  33  49  77 114 139 176 227 278 323
#     4  10  20  34  52  78 110 150 178 220 272 330
#     4  10  20  31  53  78 111 147 177 224 278 324
#     4  10  20  33  51  81 115 147 179 216 271 338
#     4  11  19  33  53  84 111 141 184 227 280 328
#     4  10  19  30  54  80 110 144 176 224 272 330
#     4  11  19  30  56  82 112 138 179 233 284 324
#
# _framework density 18.093454999999999
#
# number of rings (size 3 to 8) (size 9 to 14) (size 15 to 20)
#    0.400    1.333    5.333    1.600    0.000    0.000 
#    0.000    2.667    0.000    0.800    0.000    2.800 
#    0.000    0.000    0.000    0.000    0.000    0.000 
#
# Total GULP energy -371689.240466 kJ/mol
# GULP energy per Si atom -12389.641349 kJ/mol
# Density = 1.805227 g / cm^3
# Si number density = 18.093455 Si / 1000 Ang^3
#
#
#
# Elastic Constant Matrix: (Units=GPa)
#
#
# Indices 1 2 3 4 5 6 
#
# 1 103.9188 27.3015 42.1967 -0.0002 6.6160 0.0000
# 2 27.3015 50.5448 14.2394 0.0000 11.1871 0.0001
# 3 42.1967 14.2394 77.4182 0.0018 18.0581 0.0006
# 4 -0.0002 0.0000 0.0018 25.7577 0.0002 4.1349
# 5 6.6160 11.1871 18.0581 0.0002 32.9250 0.0001
# 6 0.0000 0.0001 0.0006 4.1349 0.0001 21.4690
#
#
#
# Elastic Compliance Matrix: (Units=1/GPa)
#
#
# Indices 1 2 3 4 5 6 
#
# 1 0.013997 -0.006246 -0.007246 0.000001 0.003284 0.000000
# 2 -0.006246 0.024635 0.000611 0.000000 -0.007450 0.000000
# 3 -0.007246 0.000611 0.018878 -0.000001 -0.009105 0.000000
# 4 0.000001 0.000000 -0.000001 0.040062 0.000000 -0.007716
# 5 0.003284 -0.007450 -0.009105 0.000000 0.037238 0.000000
# 6 0.000000 0.000000 0.000000 -0.007716 0.000000 0.048065
#
#
# Mechanical properties :
#
#
# Convention : Reuss Voigt Hill
#
# Bulk Modulus (GPa) = 31.49826 44.37301 37.93563
# Shear Modulus (GPa) = 22.80818 25.90660 24.35739
#
# Velocity S-wave (km/s) = 3.55431 3.78805 3.67304
# Velocity P-wave (km/s) = 5.85582 6.61135 6.24502
#
# Compressibility (1/GPa) = 0.03174779
#
# Stress axis : x y z
#
# Youngs Moduli (GPa) = 71.44303 40.59273 52.97190
#
# Poissons Ratio (x) = 0.25354 0.38385
# Poissons Ratio (y) = 0.44623 -0.03237
# Poissons Ratio (z) = 0.51770 -0.02481
#
# Static dielectric constant tensor:
#      x y z
#    x 3.251210 0.000000 0.043790 
#    y 0.000000 3.093530 0.000000 
#    z 0.043790 0.000000 3.277700 
# 
# 
# High freq. dielectric constant tensor:
#      x y z
#    x 1.679400 0.000000 -0.000460 
#    y 0.000000 1.661280 0.000000 
#    z -0.000460 0.000000 1.703910 
# 
# From -- ./inp_files/155822.got.cif
#   From: 2010.06.25/outbox.cif.g09.slc.cpg/sg15_78_cif.got.tgz:155822.got - 2010.06.28 07:06:18.
