data_PCOD8129705
_publ_section_title
;
Structure prediction by ZEFSAII (Michael W. Deem and Ramdas Pophale) SiO2 
 PCOD8129705
Probable space group: C 2/C
;
_chemical_formula_sum "Si O2"
_cell_formula_units_Z 56
_cell_length_a 13.705040
_cell_length_b 23.705867
_cell_length_c 10.869013
_cell_angle_alpha 90.000000
_cell_angle_beta 78.856023
_cell_angle_gamma 90.000000
_cell_volume 3464.649291
_symmetry_space_group_name_H-M "C 2/C"
_symmetry_group_IT_number 15
_symmetry_cell_setting 'monoclinic'
loop_
_space_group_symop_operation_xyz
x,y,z
-x,y,1/2-z
-x,-y,-z
x,-y,1/2+z
1/2+x,1/2+y,z
1/2-x,1/2+y,1/2-z
1/2-x,1/2-y,-z
1/2+x,1/2-y,1/2+z
loop_
_atom_site_type_symbol
_atom_site_label
_atom_site_fract_x
_atom_site_fract_y
_atom_site_fract_z
Si Si1 0.686513 0.238649 0.328905
Si Si2 0.000000 0.282257 0.250000
Si Si3 0.183877 0.323222 0.080318
Si Si4 0.870600 0.180457 0.209880
Si Si5 0.939496 0.992757 0.388912
Si Si6 0.453885 0.373704 0.455514
Si Si7 0.500000 0.715567 0.750000
Si Si8 0.148254 0.105560 0.049232
O O1 0.744164 0.297785 0.331869
O O2 0.667984 0.218133 0.470805
O O3 0.753843 0.195670 0.233643
O O4 0.582218 0.243941 0.287139
O O5 0.928244 0.326468 0.339125
O O6 0.934213 0.238527 0.184303
O O7 0.238510 0.380841 0.022593
O O8 0.890401 0.147477 0.333420
O O9 0.892035 0.138802 0.093020
O O10 0.902750 0.927877 0.400825
O O11 0.000000 0.004524 0.250000
O O12 0.851787 0.039789 0.409537
O O13 0.000000 0.000000 0.500000
O O14 0.445574 0.321841 0.365427
O O15 0.569910 0.385275 0.457507
#
# Coordination Sequence:
#
# PCOD8129705 Si02
#       8
#     8   4   8   8   8   8   4   8
#     4   9  19  30  46  67  96 132 168 193 241 293
#     4  10  16  26  49  72  95 120 168 204 234 272
#     4   9  17  31  47  69  91 128 172 205 231 283
#     4  10  18  31  50  70  94 133 170 197 229 296
#     4  10  20  31  46  71  98 129 165 198 244 297
#     4  11  19  30  45  69 102 130 156 193 254 288
#     4  12  20  30  45  66 109 132 148 200 256 290
#     4  10  17  31  50  67  93 129 169 201 235 283
#
# _framework density 16.163252
#
# number of rings (size 3 to 8) (size 9 to 14) (size 15 to 20)
#    0.000    2.000    3.571    3.429    0.000    0.571 
#    0.000    0.000    0.000    0.000    0.000    1.000 
#    0.000   22.857    0.000    0.143    0.000    0.000 
#
# Total GULP energy -346885.855541 kJ/mol
# GULP energy per Si atom -12388.780555 kJ/mol
# Density = 1.612646 g / cm^3
# Si number density = 16.163252 Si / 1000 Ang^3
#
#
#
# Elastic Constant Matrix: (Units=GPa)
#
#
# Indices 1 2 3 4 5 6 
#
# 1 85.4919 41.9494 38.5336 0.0000 -8.9968 0.0000
# 2 41.9494 81.1629 31.0509 0.0000 -12.7411 0.0000
# 3 38.5336 31.0509 79.6329 0.0000 -17.0069 0.0000
# 4 0.0000 0.0000 0.0000 23.4789 0.0000 -4.6571
# 5 -8.9968 -12.7411 -17.0069 0.0000 31.1682 0.0000
# 6 0.0000 0.0000 0.0000 -4.6571 0.0000 18.7468
#
#
#
# Elastic Compliance Matrix: (Units=1/GPa)
#
#
# Indices 1 2 3 4 5 6 
#
# 1 0.017777 -0.007025 -0.006090 0.000000 -0.001063 0.000000
# 2 -0.007025 0.017547 -0.002653 0.000000 0.003698 0.000000
# 3 -0.006090 -0.002653 0.018033 0.000000 0.006998 0.000000
# 4 0.000000 0.000000 0.000000 0.044799 0.000000 0.011129
# 5 -0.001063 0.003698 0.006998 0.000000 0.037107 0.000000
# 6 0.000000 0.000000 0.000000 0.011129 0.000000 0.056107
#
#
# Mechanical properties :
#
#
# Convention : Reuss Voigt Hill
#
# Bulk Modulus (GPa) = 45.82647 52.15063 48.98855
# Shear Modulus (GPa) = 21.72200 23.66236 22.69218
#
# Velocity S-wave (km/s) = 3.66992 3.83032 3.75098
# Velocity P-wave (km/s) = 6.80967 7.20395 7.00958
#
# Compressibility (1/GPa) = 0.02182145
#
# Stress axis : x y z
#
# Youngs Moduli (GPa) = 56.25165 56.98850 55.45258
#
# Poissons Ratio (x) = 0.40036 0.33771
# Poissons Ratio (y) = 0.39519 0.14712
# Poissons Ratio (z) = 0.34257 0.15119
#
# Static dielectric constant tensor:
#      x y z
#    x 2.659740 0.000000 -0.065700 
#    y 0.000000 3.221980 0.000000 
#    z -0.065700 0.000000 3.113690 
# 
# 
# High freq. dielectric constant tensor:
#      x y z
#    x 1.586330 0.000000 -0.005050 
#    y 0.000000 1.601570 0.000000 
#    z -0.005050 0.000000 1.629090 
# 
# From -- ./inp_files/100266.got.cif
#   From: 2010.06.25/outbox.cif.g09.slc.cpg/sg15_51_cif.got.tgz:100266.got - 2010.06.28 07:06:18.
