data_PCOD8129392
_publ_section_title
;
Structure prediction by ZEFSAII (Michael W. Deem and Ramdas Pophale) SiO2 
 PCOD8129392
Probable space group: P 21/C
;
_chemical_formula_sum "Si O2"
_cell_formula_units_Z 32
_cell_length_a 18.226191
_cell_length_b 14.413520
_cell_length_c 12.016855
_cell_angle_alpha 90.000000
_cell_angle_beta 27.052846
_cell_angle_gamma 90.000000
_cell_volume 1435.783034
_symmetry_space_group_name_H-M "P 21/C"
_symmetry_group_IT_number 14
_symmetry_cell_setting 'monoclinic'
loop_
_space_group_symop_operation_xyz
x,y,z
-x,1/2+y,1/2-z
-x,-y,-z
x,1/2-y,1/2+z
loop_
_atom_site_type_symbol
_atom_site_label
_atom_site_fract_x
_atom_site_fract_y
_atom_site_fract_z
Si Si1 0.351029 0.519420 0.784089
Si Si2 0.933786 0.604608 0.076199
Si Si3 0.452615 0.856581 0.763435
Si Si4 0.777292 0.154465 0.129237
Si Si5 0.750342 0.346960 0.254807
Si Si6 0.411698 0.551232 0.947209
Si Si7 0.859296 0.847230 0.426783
Si Si8 0.339283 0.195308 0.919870
O O1 0.500000 0.500000 0.500000
O O2 0.230133 0.582746 0.874967
O O3 0.391783 0.574571 0.842328
O O4 0.259363 0.428759 0.954074
O O5 0.773134 0.623127 0.362199
O O6 0.888383 0.635345 0.015456
O O7 0.000000 0.500000 0.000000
O O8 0.076701 0.670460 0.923435
O O9 0.297850 0.848282 0.892479
O O10 0.564393 0.764752 0.625170
O O11 0.551642 0.943478 0.582638
O O12 0.383824 0.884599 0.977901
O O13 0.695958 0.246355 0.289431
O O14 0.737031 0.070675 0.268745
O O15 0.970456 0.154260 0.865611
O O16 0.547058 0.625553 0.803182
O O17 0.766357 0.751726 0.527223
#
# Coordination Sequence:
#
# PCOD8129392 Si02
#       8
#     4   4   4   4   4   4   4   4
#     4  12  24  45  79 106 139 196 257 311 362 447
#     4  12  25  46  75 109 143 196 256 313 367 452
#     4  12  25  50  74 107 152 195 253 308 380 452
#     4  12  28  46  70 110 153 189 238 312 389 448
#     4  12  23  46  73 102 146 189 247 306 375 441
#     4  12  26  46  75 108 149 199 243 312 381 450
#     4  12  26  47  73 110 150 193 250 313 380 448
#     4  12  26  46  75 111 145 196 259 311 366 451
#
# _framework density 22.287489999999998
#
# number of rings (size 3 to 8) (size 9 to 14) (size 15 to 20)
#    0.000    0.000    7.500    2.625    1.750    0.500 
#    0.000    0.000    0.000    0.000    0.000    0.000 
#    0.000    0.000    0.000    0.000    0.000    0.000 
#
# Total GULP energy -396709.747734 kJ/mol
# GULP energy per Si atom -12397.179617 kJ/mol
# Density = 2.223676 g / cm^3
# Si number density = 22.287490 Si / 1000 Ang^3
#
#
#
# Elastic Constant Matrix: (Units=GPa)
#
#
# Indices 1 2 3 4 5 6 
#
# 1 101.9598 21.3325 25.3748 0.0000 -3.0226 0.0000
# 2 21.3325 114.6011 27.8383 0.0000 -2.8917 0.0000
# 3 25.3748 27.8383 75.4113 0.0000 -5.2915 0.0000
# 4 0.0000 0.0000 0.0000 42.7202 0.0000 -5.1208
# 5 -3.0226 -2.8917 -5.2915 0.0000 33.3195 0.0000
# 6 0.0000 0.0000 0.0000 -5.1208 0.0000 26.1046
#
#
#
# Elastic Compliance Matrix: (Units=1/GPa)
#
#
# Indices 1 2 3 4 5 6 
#
# 1 0.010868 -0.001243 -0.003172 0.000000 0.000374 0.000000
# 2 -0.001243 0.009730 -0.003157 0.000000 0.000230 0.000000
# 3 -0.003172 -0.003157 0.015628 0.000000 0.001920 0.000000
# 4 0.000000 0.000000 0.000000 0.023972 0.000000 0.004702
# 5 0.000374 0.000230 0.001920 0.000000 0.030371 0.000000
# 6 0.000000 0.000000 0.000000 0.004702 0.000000 0.039230
#
#
# Mechanical properties :
#
#
# Convention : Reuss Voigt Hill
#
# Bulk Modulus (GPa) = 47.43435 49.00705 48.22070
# Shear Modulus (GPa) = 32.90082 34.92396 33.91239
#
# Velocity S-wave (km/s) = 3.84630 3.96280 3.90499
# Velocity P-wave (km/s) = 6.40738 6.55551 6.48187
#
# Compressibility (1/GPa) = 0.02108177
#
# Stress axis : x y z
#
# Youngs Moduli (GPa) = 92.01019 102.77350 63.98688
#
# Poissons Ratio (x) = 0.12776 0.20296
# Poissons Ratio (y) = 0.11438 0.20204
# Poissons Ratio (z) = 0.29184 0.32450
#
# Static dielectric constant tensor:
#      x y z
#    x 4.513850 0.000000 -0.363730 
#    y 0.000000 4.196260 0.000000 
#    z -0.363730 0.000000 4.164170 
# 
# 
# High freq. dielectric constant tensor:
#      x y z
#    x 1.887540 0.000000 -0.006880 
#    y 0.000000 1.884490 0.000000 
#    z -0.006880 0.000000 1.878080 
# 
# From -- ./inp_files/34207.got.cif
#   From: 2010.03.12/outbox.cif.g09.slc.cpg/sg14_18_cif.got.tgz:34207.got - 2010.03.31 13:35:05.
