data_PCOD8129657
_publ_section_title
;
Structure prediction by ZEFSAII (Michael W. Deem and Ramdas Pophale) SiO2 
 PCOD8129657
Probable space group: C 2/C
;
_chemical_formula_sum "Si O2"
_cell_formula_units_Z 56
_cell_length_a 16.330374
_cell_length_b 11.294354
_cell_length_c 18.872173
_cell_angle_alpha 90.000000
_cell_angle_beta 44.297853
_cell_angle_gamma 90.000000
_cell_volume 2430.952620
_symmetry_space_group_name_H-M "C 2/C"
_symmetry_group_IT_number 15
_symmetry_cell_setting 'monoclinic'
loop_
_space_group_symop_operation_xyz
x,y,z
-x,y,1/2-z
-x,-y,-z
x,-y,1/2+z
1/2+x,1/2+y,z
1/2-x,1/2+y,1/2-z
1/2-x,1/2-y,-z
1/2+x,1/2-y,1/2+z
loop_
_atom_site_type_symbol
_atom_site_label
_atom_site_fract_x
_atom_site_fract_y
_atom_site_fract_z
Si Si1 0.890143 0.780063 0.863139
Si Si2 0.663288 0.656072 0.479330
Si Si3 0.443910 0.587576 0.459448
Si Si4 0.580388 0.852682 0.631390
Si Si5 0.977212 0.416175 0.409473
Si Si6 0.172345 0.287446 0.896324
Si Si7 0.663330 0.268697 0.827265
O O1 0.867339 0.879507 0.937227
O O2 0.911419 0.653964 0.887500
O O3 0.781462 0.768462 0.879708
O O4 0.000000 0.821813 0.750000
O O5 0.578564 0.548420 0.507427
O O6 0.592080 0.728864 0.582544
O O7 0.787635 0.606575 0.430535
O O8 0.690311 0.736988 0.394158
O O9 0.408405 0.670947 0.547722
O O10 0.578935 0.620750 0.359401
O O11 0.500000 0.834026 0.750000
O O12 0.518347 0.947531 0.617243
O O13 0.904587 0.400428 0.528851
O O14 0.106552 0.357428 0.338454
O O15 0.214931 0.296399 0.788963
#
# Coordination Sequence:
#
# PCOD8129657 Si02
#       7
#     8   8   8   8   8   8   8
#     4  10  15  29  57  90 124 154 208 265 314 366
#     4  11  25  46  61  95 132 172 223 257 324 411
#     4  10  21  36  63  91 130 166 208 270 321 394
#     4  11  26  46  69  88 128 183 220 268 318 393
#     4  10  21  37  65  97 127 164 223 268 322 391
#     4  10  18  35  59  99 126 166 207 275 333 373
#     4  10  22  40  65  99 132 164 212 275 340 381
#
# _framework density 23.036238000000001
#
# number of rings (size 3 to 8) (size 9 to 14) (size 15 to 20)
#    0.000    2.000    2.857    4.286    2.000    3.429 
#    7.714    0.000    0.000    0.000    0.000    0.000 
#    0.000    0.000    0.000    0.000    0.000    0.000 
#
# Total GULP energy -347108.892030 kJ/mol
# GULP energy per Si atom -12396.746144 kJ/mol
# Density = 2.298381 g / cm^3
# Si number density = 23.036238 Si / 1000 Ang^3
#
#
#
# Elastic Constant Matrix: (Units=GPa)
#
#
# Indices 1 2 3 4 5 6 
#
# 1 21.5816 12.1373 8.8226 0.0000 7.3576 0.0000
# 2 12.1373 104.2630 58.8592 0.0000 0.7815 0.0000
# 3 8.8226 58.8592 199.5014 0.0000 10.5953 0.0000
# 4 0.0000 0.0000 0.0000 18.6447 0.0000 -0.1434
# 5 7.3576 0.7815 10.5953 0.0000 27.9283 0.0000
# 6 0.0000 0.0000 0.0000 -0.1434 0.0000 25.4937
#
#
#
# Elastic Compliance Matrix: (Units=1/GPa)
#
#
# Indices 1 2 3 4 5 6 
#
# 1 0.054720 -0.006390 0.000226 0.000000 -0.014323 0.000000
# 2 -0.006390 0.012281 -0.003482 0.000000 0.002661 0.000000
# 3 0.000226 -0.003482 0.006152 0.000000 -0.002296 0.000000
# 4 0.000000 0.000000 0.000000 0.053637 0.000000 0.000302
# 5 -0.014323 0.002661 -0.002296 0.000000 0.040376 0.000000
# 6 0.000000 0.000000 0.000000 0.000302 0.000000 0.039227
#
#
# Mechanical properties :
#
#
# Convention : Reuss Voigt Hill
#
# Bulk Modulus (GPa) = 18.56654 53.88714 36.22684
# Shear Modulus (GPa) = 20.52225 30.78179 25.65202
#
# Velocity S-wave (km/s) = 2.98798 3.65942 3.34061
# Velocity P-wave (km/s) = 4.47004 6.42637 5.53532
#
# Compressibility (1/GPa) = 0.05386034
#
# Stress axis : x y z
#
# Youngs Moduli (GPa) = 18.27480 81.42852 162.55660
#
# Poissons Ratio (x) = 0.52035 -0.03675
# Poissons Ratio (y) = 0.11678 0.56601
# Poissons Ratio (z) = -0.00413 0.28353
#
# Static dielectric constant tensor:
#      x y z
#    x 4.170810 0.000000 -0.074030 
#    y 0.000000 3.771600 0.000000 
#    z -0.074030 0.000000 4.691580 
# 
# 
# High freq. dielectric constant tensor:
#      x y z
#    x 1.913720 0.000000 0.003290 
#    y 0.000000 1.876490 0.000000 
#    z 0.003290 0.000000 1.919770 
# 
# From -- ./inp_files/252352.got.cif
#   From: 2010.06.25/outbox.cif.g09.slc.cpg/sg15_127_cif.got.tgz:252352.got - 2010.06.28 07:06:18.
