data_PCOD8129786
_publ_section_title
;
Structure prediction by ZEFSAII (Michael W. Deem and Ramdas Pophale) SiO2 
 PCOD8129786
Probable space group: C 2/C
;
_chemical_formula_sum "Si O2"
_cell_formula_units_Z 56
_cell_length_a 18.437870
_cell_length_b 19.718174
_cell_length_c 10.221413
_cell_angle_alpha 90.000000
_cell_angle_beta 124.778669
_cell_angle_gamma 90.000000
_cell_volume 3052.268880
_symmetry_space_group_name_H-M "C 2/C"
_symmetry_group_IT_number 15
_symmetry_cell_setting 'monoclinic'
loop_
_space_group_symop_operation_xyz
x,y,z
-x,y,1/2-z
-x,-y,-z
x,-y,1/2+z
1/2+x,1/2+y,z
1/2-x,1/2+y,1/2-z
1/2-x,1/2-y,-z
1/2+x,1/2-y,1/2+z
loop_
_atom_site_type_symbol
_atom_site_label
_atom_site_fract_x
_atom_site_fract_y
_atom_site_fract_z
Si Si1 0.000000 0.436298 0.750000
Si Si2 0.176200 0.567179 0.060560
Si Si3 0.406573 0.151175 0.972985
Si Si4 0.079505 0.701783 0.040892
Si Si5 0.114415 0.525425 0.718844
Si Si6 0.320504 0.341590 0.616192
Si Si7 0.500000 0.699599 0.250000
Si Si8 0.254478 0.720908 0.799330
O O1 0.024358 0.481243 0.647070
O O2 0.916608 0.389852 0.619420
O O3 0.107097 0.628054 0.015099
O O4 0.177409 0.514042 0.181746
O O5 0.274936 0.596365 0.145217
O O6 0.153723 0.526729 0.905411
O O7 0.405429 0.101356 0.846636
O O8 0.315075 0.192845 0.880269
O O9 0.495909 0.196572 0.052108
O O10 0.165319 0.739722 0.193264
O O11 0.054536 0.750888 0.898182
O O12 0.426650 0.349847 0.738611
O O13 0.288785 0.339535 0.430690
O O14 0.298875 0.271004 0.662732
#
# Coordination Sequence:
#
# PCOD8129786 Si02
#       8
#     4   8   8   8   8   8   4   8
#     4  12  24  35  48  80 104 157 184 204 262 352
#     4  11  21  35  53  79 115 142 176 221 267 326
#     4  12  20  36  53  76 115 140 177 223 268 320
#     4  10  19  31  53  81 109 136 172 225 274 313
#     4  12  22  35  52  79 111 149 177 214 269 322
#     4   9  17  31  51  81 107 132 179 223 275 311
#     4  10  16  29  56  84 102 133 176 228 280 304
#     4   9  18  31  50  79 107 137 173 221 275 312
#
# _framework density 18.347009
#
# number of rings (size 3 to 8) (size 9 to 14) (size 15 to 20)
#    0.000    1.429    5.714    3.000    0.000    0.000 
#    0.000    0.714    0.000    0.857    0.000    0.000 
#    0.000    0.000    0.000    0.000    0.000    0.000 
#
# Total GULP energy -346984.912235 kJ/mol
# GULP energy per Si atom -12392.318294 kJ/mol
# Density = 1.830525 g / cm^3
# Si number density = 18.347009 Si / 1000 Ang^3
#
#
#
# Elastic Constant Matrix: (Units=GPa)
#
#
# Indices 1 2 3 4 5 6 
#
# 1 84.5962 33.7582 21.8616 0.0000 23.9329 0.0000
# 2 33.7582 57.2468 29.5715 0.0000 9.0885 0.0000
# 3 21.8616 29.5715 66.9140 0.0000 11.0375 0.0000
# 4 0.0000 0.0000 0.0000 22.3102 0.0000 -1.2840
# 5 23.9329 9.0885 11.0375 0.0000 34.8593 0.0000
# 6 0.0000 0.0000 0.0000 -1.2840 0.0000 25.3792
#
#
#
# Elastic Compliance Matrix: (Units=1/GPa)
#
#
# Indices 1 2 3 4 5 6 
#
# 1 0.018399 -0.009067 -0.000328 0.000000 -0.010165 0.000000
# 2 -0.009067 0.027382 -0.009483 0.000000 0.002089 0.000000
# 3 -0.000328 -0.009483 0.019834 0.000000 -0.003583 0.000000
# 4 0.000000 0.000000 0.000000 0.044954 0.000000 0.002274
# 5 -0.010165 0.002089 -0.003583 0.000000 0.036255 0.000000
# 6 0.000000 0.000000 0.000000 0.002274 0.000000 0.039517
#
#
# Mechanical properties :
#
#
# Convention : Reuss Voigt Hill
#
# Bulk Modulus (GPa) = 35.89497 42.12664 39.01081
# Shear Modulus (GPa) = 21.42397 24.74743 23.08570
#
# Velocity S-wave (km/s) = 3.42088 3.67666 3.55107
# Velocity P-wave (km/s) = 5.93382 6.40583 6.17434
#
# Compressibility (1/GPa) = 0.02785905
#
# Stress axis : x y z
#
# Youngs Moduli (GPa) = 54.34962 36.52009 50.41971
#
# Poissons Ratio (x) = 0.33113 0.01652
# Poissons Ratio (y) = 0.49280 0.47815
# Poissons Ratio (z) = 0.01780 0.34633
#
# Static dielectric constant tensor:
#      x y z
#    x 3.460100 0.000000 0.278900 
#    y 0.000000 3.368520 0.000000 
#    z 0.278900 0.000000 3.300900 
# 
# 
# High freq. dielectric constant tensor:
#      x y z
#    x 1.697240 0.000000 0.010370 
#    y 0.000000 1.691920 0.000000 
#    z 0.010370 0.000000 1.692570 
# 
# From -- ./inp_files/113520.got.cif
#   From: 2010.06.25/outbox.cif.g09.slc.cpg/sg15_57_cif.got.tgz:113520.got - 2010.06.28 07:06:18.
