data_PCOD8129484
_publ_section_title
;
Structure prediction by ZEFSAII (Michael W. Deem and Ramdas Pophale) SiO2 
 PCOD8129484
Probable space group: P 21/C
;
_chemical_formula_sum "Si O2"
_cell_formula_units_Z 20
_cell_length_a 19.580862
_cell_length_b 5.776520
_cell_length_c 12.775038
_cell_angle_alpha 90.000000
_cell_angle_beta 146.123941
_cell_angle_gamma 90.000000
_cell_volume 805.426439
_symmetry_space_group_name_H-M "P 21/C"
_symmetry_group_IT_number 14
_symmetry_cell_setting 'monoclinic'
loop_
_space_group_symop_operation_xyz
x,y,z
-x,1/2+y,1/2-z
-x,-y,-z
x,1/2-y,1/2+z
loop_
_atom_site_type_symbol
_atom_site_label
_atom_site_fract_x
_atom_site_fract_y
_atom_site_fract_z
Si Si1 0.860981 0.004672 0.285814
Si Si2 0.336965 0.338351 0.003824
Si Si3 0.553211 0.098171 0.174452
Si Si4 0.934020 0.396487 0.666211
Si Si5 0.272451 0.839250 0.241978
O O1 0.801921 0.757495 0.179807
O O2 0.858427 0.158339 0.176603
O O3 0.771894 0.099874 0.262444
O O4 0.000000 0.000000 0.500000
O O5 0.346901 0.528938 0.925884
O O6 0.444585 0.156598 0.116185
O O7 0.358248 0.424751 0.149120
O O8 0.638746 0.308373 0.245019
O O9 0.500000 0.000000 0.000000
O O10 0.848613 0.463086 0.458502
O O11 0.004029 0.643046 0.777454
#
# Coordination Sequence:
#
# PCOD8129484 Si02
#       5
#     4   4   4   4   4
#     4  12  27  49  77 116 159 213 273 335 411 496
#     4  12  29  49  79 113 160 206 277 339 410 500
#     4  12  27  50  78 112 156 211 270 336 421 484
#     4  12  29  48  80 116 164 217 275 336 413 488
#     4  12  27  48  78 111 160 211 267 343 407 490
#
# _framework density 24.831568999999998
#
# number of rings (size 3 to 8) (size 9 to 14) (size 15 to 20)
#    0.000    0.000    4.000    4.200   11.200    1.600 
#    0.000    0.000    0.000    0.000    0.000    0.000 
#    0.000    0.000    0.000    0.000    0.000    0.000 
#
# Total GULP energy -247772.686169 kJ/mol
# GULP energy per Si atom -12388.634308 kJ/mol
# Density = 2.477505 g / cm^3
# Si number density = 24.831569 Si / 1000 Ang^3
#
#
#
# Elastic Constant Matrix: (Units=GPa)
#
#
# Indices 1 2 3 4 5 6 
#
# 1 106.7214 18.3558 45.2140 0.0000 -14.5589 0.0000
# 2 18.3558 90.9237 55.0410 0.0000 0.3236 0.0000
# 3 45.2140 55.0410 176.2408 0.0000 -25.4023 0.0000
# 4 0.0000 0.0000 0.0000 42.9295 0.0000 -5.3420
# 5 -14.5589 0.3236 -25.4023 0.0000 52.6312 0.0000
# 6 0.0000 0.0000 0.0000 -5.3420 0.0000 41.8557
#
#
#
# Elastic Compliance Matrix: (Units=1/GPa)
#
#
# Indices 1 2 3 4 5 6 
#
# 1 0.010710 -0.000828 -0.002216 0.000000 0.001898 0.000000
# 2 -0.000828 0.013887 -0.004482 0.000000 -0.002477 0.000000
# 3 -0.002216 -0.004482 0.008123 0.000000 0.003335 0.000000
# 4 0.000000 0.000000 0.000000 0.023670 0.000000 0.003021
# 5 0.001898 -0.002477 0.003335 0.000000 0.021150 0.000000
# 6 0.000000 0.000000 0.000000 0.003021 0.000000 0.024277
#
#
# Mechanical properties :
#
#
# Convention : Reuss Voigt Hill
#
# Bulk Modulus (GPa) = 56.59278 67.90083 62.24680
# Shear Modulus (GPa) = 40.73065 44.50163 42.61614
#
# Velocity S-wave (km/s) = 4.05443 4.23796 4.14721
# Velocity P-wave (km/s) = 6.69014 7.16596 6.93213
#
# Compressibility (1/GPa) = 0.01767010
#
# Stress axis : x y z
#
# Youngs Moduli (GPa) = 93.36910 72.00869 123.10978
#
# Poissons Ratio (x) = 0.05961 0.27275
# Poissons Ratio (y) = 0.07729 0.55175
# Poissons Ratio (z) = 0.20686 0.32273
#
# Static dielectric constant tensor:
#      x y z
#    x 5.048770 0.000000 0.013680 
#    y 0.000000 4.245680 0.000000 
#    z 0.013680 0.000000 4.873380 
# 
# 
# High freq. dielectric constant tensor:
#      x y z
#    x 2.005970 0.000000 -0.013360 
#    y 0.000000 1.965160 0.000000 
#    z -0.013360 0.000000 2.013340 
# 
# From -- ./inp_files/49778.got.cif
#   From: 2010.03.12/outbox.cif.g09.slc.cpg/sg14_25_cif.got.tgz:49778.got - 2010.03.31 13:35:05.
