data_PCOD8129634
_publ_section_title
;
Structure prediction by ZEFSAII (Michael W. Deem and Ramdas Pophale) SiO2 
 PCOD8129634
Probable space group: C 2/C
;
_chemical_formula_sum "Si O2"
_cell_formula_units_Z 60
_cell_length_a 15.768254
_cell_length_b 18.931293
_cell_length_c 14.884802
_cell_angle_alpha 90.000000
_cell_angle_beta 127.493171
_cell_angle_gamma 90.000000
_cell_volume 3525.439896
_symmetry_space_group_name_H-M "C 2/C"
_symmetry_group_IT_number 15
_symmetry_cell_setting 'monoclinic'
loop_
_space_group_symop_operation_xyz
x,y,z
-x,y,1/2-z
-x,-y,-z
x,-y,1/2+z
1/2+x,1/2+y,z
1/2-x,1/2+y,1/2-z
1/2-x,1/2-y,-z
1/2+x,1/2-y,1/2+z
loop_
_atom_site_type_symbol
_atom_site_label
_atom_site_fract_x
_atom_site_fract_y
_atom_site_fract_z
Si Si1 0.887191 0.765174 0.327867
Si Si2 0.500000 0.943617 0.750000
Si Si3 0.161153 0.322900 0.535120
Si Si4 0.161669 0.677752 0.372281
Si Si5 0.497929 0.921654 0.348921
Si Si6 0.118425 0.767553 0.512997
Si Si7 0.383146 0.725550 0.153064
Si Si8 0.830834 0.681459 0.784386
O O1 0.862886 0.698511 0.377517
O O2 0.887735 0.735343 0.227275
O O3 0.796521 0.825678 0.280486
O O4 0.001759 0.801187 0.420765
O O5 0.392264 0.897834 0.678817
O O6 0.502633 0.993048 0.661794
O O7 0.288973 0.333347 0.600833
O O8 0.115119 0.258517 0.445343
O O9 0.101321 0.395864 0.471875
O O10 0.138298 0.702374 0.458194
O O11 0.290067 0.672689 0.439967
O O12 0.500000 0.887557 0.250000
O O13 0.389947 0.894345 0.329163
O O14 0.119005 0.736397 0.613022
O O15 0.500000 0.692465 0.250000
O O16 0.352027 0.788536 0.199663
#
# Coordination Sequence:
#
# PCOD8129634 Si02
#       8
#     8   4   8   8   8   8   8   8
#     4  10  18  28  50  71 102 117 154 217 241 292
#     4  10  20  34  54  66 106 134 160 206 228 298
#     4  10  17  25  44  70  96 133 163 185 254 289
#     4  10  20  34  47  73  93 125 167 197 259 275
#     4  10  18  31  48  67 103 135 160 193 226 305
#     4  10  18  31  53  68  98 121 155 220 244 293
#     4  10  15  25  41  66 105 128 156 207 235 293
#     4  10  17  28  44  75  97 127 161 190 254 286
#
# _framework density 17.019152999999999
#
# number of rings (size 3 to 8) (size 9 to 14) (size 15 to 20)
#    0.400    1.600    5.333    0.000    0.000    0.000 
#    0.000    2.667    0.000    0.800    0.000    5.600 
#    0.000    0.000    0.000    0.000    0.000    0.000 
#
# Total GULP energy -371772.958702 kJ/mol
# GULP energy per Si atom -12392.431957 kJ/mol
# Density = 1.698042 g / cm^3
# Si number density = 17.019153 Si / 1000 Ang^3
#
#
#
# Elastic Constant Matrix: (Units=GPa)
#
#
# Indices 1 2 3 4 5 6 
#
# 1 93.2464 41.3814 37.2522 0.0000 38.0161 0.0000
# 2 41.3814 73.4696 17.9351 0.0000 21.3093 0.0000
# 3 37.2522 17.9351 73.9333 0.0000 27.0712 0.0000
# 4 0.0000 0.0000 0.0000 18.2604 0.0000 2.6256
# 5 38.0161 21.3093 27.0712 0.0000 53.0012 0.0000
# 6 0.0000 0.0000 0.0000 2.6256 0.0000 19.9535
#
#
#
# Elastic Compliance Matrix: (Units=1/GPa)
#
#
# Indices 1 2 3 4 5 6 
#
# 1 0.019345 -0.007247 -0.004890 0.000000 -0.008464 0.000000
# 2 -0.007247 0.018322 0.000001 0.000000 -0.002169 0.000000
# 3 -0.004890 0.000001 0.018088 0.000000 -0.005732 0.000000
# 4 0.000000 0.000000 0.000000 0.055820 0.000000 -0.007345
# 5 -0.008464 -0.002169 -0.005732 0.000000 0.028738 0.000000
# 6 0.000000 0.000000 0.000000 -0.007345 0.000000 0.051083
#
#
# Mechanical properties :
#
#
# Convention : Reuss Voigt Hill
#
# Bulk Modulus (GPa) = 31.76359 48.19851 39.98105
# Shear Modulus (GPa) = 22.10810 27.84838 24.97824
#
# Velocity S-wave (km/s) = 3.60809 4.04950 3.83515
# Velocity P-wave (km/s) = 6.00514 7.08846 6.56917
#
# Compressibility (1/GPa) = 0.03148259
#
# Stress axis : x y z
#
# Youngs Moduli (GPa) = 51.69361 54.57983 55.28532
#
# Poissons Ratio (x) = 0.39555 0.27034
# Poissons Ratio (y) = 0.37463 -0.00006
# Poissons Ratio (z) = 0.25277 -0.00006
#
# Static dielectric constant tensor:
#      x y z
#    x 3.484450 0.000000 0.195670 
#    y 0.000000 2.582850 0.000000 
#    z 0.195670 0.000000 3.465950 
# 
# 
# High freq. dielectric constant tensor:
#      x y z
#    x 1.672130 0.000000 0.003120 
#    y 0.000000 1.574790 0.000000 
#    z 0.003120 0.000000 1.677380 
# 
# From -- ./inp_files/155829.got.cif
#   From: 2010.06.25/outbox.cif.g09.slc.cpg/sg15_78_cif.got.tgz:155829.got - 2010.06.28 07:06:18.
