data_PCOD8129422
_publ_section_title
;
Structure prediction by ZEFSAII (Michael W. Deem and Ramdas Pophale) SiO2 
 PCOD8129422
Probable space group: P 21/C
;
_chemical_formula_sum "Si O2"
_cell_formula_units_Z 32
_cell_length_a 7.650550
_cell_length_b 22.417836
_cell_length_c 10.135551
_cell_angle_alpha 90.000000
_cell_angle_beta 122.572357
_cell_angle_gamma 90.000000
_cell_volume 1464.916964
_symmetry_space_group_name_H-M "P 21/C"
_symmetry_group_IT_number 14
_symmetry_cell_setting 'monoclinic'
loop_
_space_group_symop_operation_xyz
x,y,z
-x,1/2+y,1/2-z
-x,-y,-z
x,1/2-y,1/2+z
loop_
_atom_site_type_symbol
_atom_site_label
_atom_site_fract_x
_atom_site_fract_y
_atom_site_fract_z
Si Si1 0.639520 0.054224 0.789947
Si Si2 0.682992 0.576820 0.372572
Si Si3 0.523814 0.301136 0.724346
Si Si4 0.313690 0.234017 0.874123
Si Si5 0.969280 0.190862 0.342783
Si Si6 0.970651 0.953831 0.226586
Si Si7 0.926774 0.084384 0.141736
Si Si8 0.762304 0.874418 0.335893
O O1 0.806640 0.065658 0.741895
O O2 0.432718 0.091555 0.678183
O O3 0.582409 0.984098 0.775689
O O4 0.733874 0.074894 0.966929
O O5 0.509125 0.627757 0.305685
O O6 0.780683 0.564870 0.555205
O O7 0.866242 0.599522 0.353669
O O8 0.421316 0.279589 0.817872
O O9 0.433313 0.266323 0.561644
O O10 0.767289 0.284616 0.836433
O O11 0.308893 0.168075 0.812108
O O12 0.078175 0.256207 0.804997
O O13 0.875185 0.140369 0.210265
O O14 0.138603 0.164574 0.509782
O O15 0.931460 0.921665 0.350066
O O16 0.964168 0.025042 0.243993
#
# Coordination Sequence:
#
# PCOD8129422 Si02
#       8
#     4   4   4   4   4   4   4   4
#     4   9  21  40  70  99 132 172 218 274 337 399
#     4   9  18  41  70 100 128 173 223 273 330 406
#     4  12  26  46  73  94 134 182 224 281 338 396
#     4  12  27  48  66  98 132 179 230 280 331 401
#     4  12  28  43  67  97 134 175 229 278 338 400
#     4   9  20  38  67  99 135 169 218 268 328 400
#     4   9  19  41  66  99 134 172 217 271 327 402
#     4  12  25  42  65  99 132 175 223 276 335 408
#
# _framework density 21.844239999999999
#
# number of rings (size 3 to 8) (size 9 to 14) (size 15 to 20)
#    0.000    1.500    3.750    2.250    3.500    3.500 
#    0.000    1.250    0.000    0.000    0.000    0.000 
#    0.000    0.000    0.000    0.000    0.000    0.000 
#
# Total GULP energy -396869.271363 kJ/mol
# GULP energy per Si atom -12402.164730 kJ/mol
# Density = 2.179452 g / cm^3
# Si number density = 21.844240 Si / 1000 Ang^3
#
#
#
# Elastic Constant Matrix: (Units=GPa)
#
#
# Indices 1 2 3 4 5 6 
#
# 1 110.7267 31.3038 20.7790 0.0000 29.0673 0.0000
# 2 31.3038 73.6696 11.0723 0.0000 16.4853 0.0000
# 3 20.7790 11.0723 52.8762 0.0000 10.4303 0.0000
# 4 0.0000 0.0000 0.0000 33.1006 0.0000 -0.4102
# 5 29.0673 16.4853 10.4303 0.0000 26.2920 0.0000
# 6 0.0000 0.0000 0.0000 -0.4102 0.0000 26.5375
#
#
#
# Elastic Compliance Matrix: (Units=1/GPa)
#
#
# Indices 1 2 3 4 5 6 
#
# 1 0.013429 -0.002608 -0.002306 0.000000 -0.012297 0.000000
# 2 -0.002608 0.016402 -0.001030 0.000000 -0.006992 0.000000
# 3 -0.002306 -0.001030 0.021051 0.000000 -0.005156 0.000000
# 4 0.000000 0.000000 0.000000 0.030217 0.000000 0.000467
# 5 -0.012297 -0.006992 -0.005156 0.000000 0.058059 0.000000
# 6 0.000000 0.000000 0.000000 0.000467 0.000000 0.037690
#
#
# Mechanical properties :
#
#
# Convention : Reuss Voigt Hill
#
# Bulk Modulus (GPa) = 25.64504 40.39809 33.02156
# Shear Modulus (GPa) = 24.78513 28.79385 26.78949
#
# Velocity S-wave (km/s) = 3.37208 3.63456 3.50578
# Velocity P-wave (km/s) = 5.18909 6.01226 5.61578
#
# Compressibility (1/GPa) = 0.03899389
#
# Stress axis : x y z
#
# Youngs Moduli (GPa) = 74.46348 60.96877 47.50370
#
# Poissons Ratio (x) = 0.15902 0.10952
# Poissons Ratio (y) = 0.19421 0.04895
# Poissons Ratio (z) = 0.17168 0.06282
#
# Static dielectric constant tensor:
#      x y z
#    x 3.986770 0.000000 -0.077320 
#    y 0.000000 3.983190 0.000000 
#    z -0.077320 0.000000 3.589500 
# 
# 
# High freq. dielectric constant tensor:
#      x y z
#    x 1.870030 0.000000 -0.002790 
#    y 0.000000 1.864960 0.000000 
#    z -0.002790 0.000000 1.832030 
# 
# From -- ./inp_files/26797.got.cif
#   From: 2010.03.12/outbox.cif.g09.slc.cpg/sg14_14_cif.got.tgz:26797.got - 2010.03.31 13:35:05.
