data_PCOD8129883
_publ_section_title
;
Structure prediction by ZEFSAII (Michael W. Deem and Ramdas Pophale) SiO2 
 PCOD8129883
Probable space group: C 2/C
;
_chemical_formula_sum "Si O2"
_cell_formula_units_Z 52
_cell_length_a 12.787174
_cell_length_b 22.957523
_cell_length_c 10.348367
_cell_angle_alpha 90.000000
_cell_angle_beta 76.090507
_cell_angle_gamma 90.000000
_cell_volume 2948.804735
_symmetry_space_group_name_H-M "C 2/C"
_symmetry_group_IT_number 15
_symmetry_cell_setting 'monoclinic'
loop_
_space_group_symop_operation_xyz
x,y,z
-x,y,1/2-z
-x,-y,-z
x,-y,1/2+z
1/2+x,1/2+y,z
1/2-x,1/2+y,1/2-z
1/2-x,1/2-y,-z
1/2+x,1/2-y,1/2+z
loop_
_atom_site_type_symbol
_atom_site_label
_atom_site_fract_x
_atom_site_fract_y
_atom_site_fract_z
Si Si1 0.791082 0.323195 0.935029
Si Si2 0.428486 0.064115 0.897969
Si Si3 0.070272 0.432040 0.601994
Si Si4 0.808239 0.674343 0.924055
Si Si5 0.346292 0.244856 0.157208
Si Si6 0.500000 0.758012 0.250000
Si Si7 0.578236 0.731870 0.485588
O O1 0.825837 0.390280 0.914395
O O2 0.824461 0.282385 0.803108
O O3 0.662443 0.319260 0.002981
O O4 0.857286 0.293478 0.032218
O O5 0.500000 0.069964 0.750000
O O6 0.321448 0.104212 0.920948
O O7 0.387159 0.997912 0.926206
O O8 0.498358 0.084881 0.000105
O O9 0.000000 0.423298 0.750000
O O10 0.713772 0.693603 0.854040
O O11 0.920826 0.699794 0.846823
O O12 0.792641 0.698562 0.073856
O O13 0.472574 0.261031 0.105709
O O14 0.552177 0.717015 0.343828
#
# Coordination Sequence:
#
# PCOD8129883 Si02
#       7
#     8   8   8   8   8   4   8
#     4  11  20  34  50  73 103 138 165 214 254 310
#     4  10  20  32  52  76 101 136 171 212 252 311
#     4  10  20  34  50  74 105 135 170 209 262 305
#     4  10  18  30  51  73 101 131 165 207 255 296
#     4  10  20  32  49  75 103 135 166 208 256 307
#     4  10  16  32  46  70  98 128 158 204 242 308
#     4  10  21  30  49  72 100 131 170 202 258 300
#
# _framework density 17.634264999999999
#
# number of rings (size 3 to 8) (size 9 to 14) (size 15 to 20)
#    0.000    1.846    2.308    4.154    0.000    0.000 
#    0.000    0.000    0.000    0.923    0.000    0.000 
#    4.615    0.000    0.000    0.000    0.000    0.000 
#
# Total GULP energy -322193.780482 kJ/mol
# GULP energy per Si atom -12392.068480 kJ/mol
# Density = 1.759413 g / cm^3
# Si number density = 17.634265 Si / 1000 Ang^3
#
#
#
# Elastic Constant Matrix: (Units=GPa)
#
#
# Indices 1 2 3 4 5 6 
#
# 1 98.3621 49.8722 19.5083 0.0000 1.6688 0.0000
# 2 49.8722 107.6019 8.9914 0.0000 -4.0821 0.0000
# 3 19.5083 8.9914 64.5272 0.0000 11.5076 0.0000
# 4 0.0000 0.0000 0.0000 37.4431 0.0000 -6.8025
# 5 1.6688 -4.0821 11.5076 0.0000 20.7222 0.0000
# 6 0.0000 0.0000 0.0000 -6.8025 0.0000 35.0748
#
#
#
# Elastic Compliance Matrix: (Units=1/GPa)
#
#
# Indices 1 2 3 4 5 6 
#
# 1 0.013980 -0.006228 -0.003262 0.000000 -0.000541 0.000000
# 2 -0.006228 0.012333 -0.000398 0.000000 0.003152 0.000000
# 3 -0.003262 -0.000398 0.018321 0.000000 -0.009990 0.000000
# 4 0.000000 0.000000 0.000000 0.027683 0.000000 0.005369
# 5 -0.000541 0.003152 -0.009990 0.000000 0.054469 0.000000
# 6 0.000000 0.000000 0.000000 0.005369 0.000000 0.029552
#
#
# Mechanical properties :
#
#
# Convention : Reuss Voigt Hill
#
# Bulk Modulus (GPa) = 40.22840 47.47057 43.84949
# Shear Modulus (GPa) = 27.11513 31.45598 29.28556
#
# Velocity S-wave (km/s) = 3.92553 4.22809 4.07961
# Velocity P-wave (km/s) = 6.58851 7.12836 6.86375
#
# Compressibility (1/GPa) = 0.02485806
#
# Stress axis : x y z
#
# Youngs Moduli (GPa) = 71.52924 81.08491 54.58339
#
# Poissons Ratio (x) = 0.50497 0.17807
# Poissons Ratio (y) = 0.44546 0.02171
# Poissons Ratio (z) = 0.23336 0.03225
#
# Static dielectric constant tensor:
#      x y z
#    x 3.377800 0.000000 0.216380 
#    y 0.000000 3.246680 0.000000 
#    z 0.216380 0.000000 3.564870 
# 
# 
# High freq. dielectric constant tensor:
#      x y z
#    x 1.672090 0.000000 0.016950 
#    y 0.000000 1.649110 0.000000 
#    z 0.016950 0.000000 1.697080 
# 
# From -- ./inp_files/90302.got.cif
#   From: 2010.06.25/outbox.cif.g09.slc.cpg/sg15_46_cif.got.tgz:90302.got - 2010.06.28 07:06:18.
