data_PCOD8129622
_publ_section_title
;
Structure prediction by ZEFSAII (Michael W. Deem and Ramdas Pophale) SiO2 
 PCOD8129622
Probable space group: C 2/C
;
_chemical_formula_sum "Si O2"
_cell_formula_units_Z 52
_cell_length_a 16.444759
_cell_length_b 10.639370
_cell_length_c 25.462779
_cell_angle_alpha 90.000000
_cell_angle_beta 145.041611
_cell_angle_gamma 90.000000
_cell_volume 2552.640956
_symmetry_space_group_name_H-M "C 2/C"
_symmetry_group_IT_number 15
_symmetry_cell_setting 'monoclinic'
loop_
_space_group_symop_operation_xyz
x,y,z
-x,y,1/2-z
-x,-y,-z
x,-y,1/2+z
1/2+x,1/2+y,z
1/2-x,1/2+y,1/2-z
1/2-x,1/2-y,-z
1/2+x,1/2-y,1/2+z
loop_
_atom_site_type_symbol
_atom_site_label
_atom_site_fract_x
_atom_site_fract_y
_atom_site_fract_z
Si Si1 0.000000 0.386416 0.250000
Si Si2 0.254185 0.721168 0.167663
Si Si3 0.068473 0.393203 0.394951
Si Si4 0.185196 0.294816 0.184126
Si Si5 0.027480 0.865970 0.988946
Si Si6 0.372590 0.608856 0.069508
Si Si7 0.902970 0.969969 0.246993
O O1 0.134085 0.307303 0.302516
O O2 0.041834 0.466433 0.325048
O O3 0.259386 0.730051 0.233489
O O4 0.291531 0.578240 0.170949
O O5 0.097900 0.765496 0.066288
O O6 0.212682 0.435722 0.501108
O O7 0.087895 0.246238 0.387168
O O8 0.934874 0.400514 0.364126
O O9 0.120125 0.189753 0.111198
O O10 0.316495 0.352740 0.222904
O O11 0.133474 0.886472 0.996629
O O12 0.000000 0.000000 0.000000
O O13 0.490733 0.512638 0.150902
O O14 0.000000 0.926489 0.250000
#
# Coordination Sequence:
#
# PCOD8129622 Si02
#       7
#     4   8   8   8   8   8   8
#     4  10  14  30  54  92 112 150 196 270 292 358
#     4  11  20  35  66  94 122 161 219 264 323 368
#     4   9  17  31  56  86 123 143 209 258 306 350
#     4  10  24  39  60  96 132 161 213 269 324 388
#     4  11  22  39  65  88 128 169 216 262 322 383
#     4  10  18  33  59  90 115 160 204 265 307 371
#     4  12  23  39  64  90 132 172 209 267 330 378
#
# _framework density 20.371058999999999
#
# number of rings (size 3 to 8) (size 9 to 14) (size 15 to 20)
#    0.000    1.538    6.923    0.923    4.308    0.615 
#    0.000    0.000    5.077    1.846    0.000    0.000 
#    0.000    0.000    0.000    0.000    0.000    0.000 
#
# Total GULP energy -322181.940113 kJ/mol
# GULP energy per Si atom -12391.613081 kJ/mol
# Density = 2.032469 g / cm^3
# Si number density = 20.371059 Si / 1000 Ang^3
#
#
#
# Elastic Constant Matrix: (Units=GPa)
#
#
# Indices 1 2 3 4 5 6 
#
# 1 112.0427 41.6422 51.3310 0.0000 6.8764 0.0000
# 2 41.6422 43.2591 36.0473 0.0000 0.6384 0.0000
# 3 51.3310 36.0473 126.9678 0.0001 -10.8772 0.0000
# 4 0.0000 0.0000 0.0001 24.3318 0.0000 6.4710
# 5 6.8764 0.6384 -10.8772 0.0000 25.1479 0.0000
# 6 0.0000 0.0000 0.0000 6.4710 0.0000 22.0887
#
#
#
# Elastic Compliance Matrix: (Units=1/GPa)
#
#
# Indices 1 2 3 4 5 6 
#
# 1 0.015091 -0.011781 -0.003203 0.000000 -0.005213 0.000000
# 2 -0.011781 0.040013 -0.006655 0.000000 -0.000673 0.000000
# 3 -0.003203 -0.006655 0.011579 0.000000 0.006053 0.000000
# 4 0.000000 0.000000 0.000000 0.044571 0.000000 -0.013057
# 5 -0.005213 -0.000673 0.006053 0.000000 0.043825 0.000000
# 6 0.000000 0.000000 0.000000 -0.013057 0.000000 0.049097
#
#
# Mechanical properties :
#
#
# Convention : Reuss Voigt Hill
#
# Bulk Modulus (GPa) = 42.72590 60.03452 51.38021
# Shear Modulus (GPa) = 19.58827 24.53028 22.05927
#
# Velocity S-wave (km/s) = 3.10429 3.47388 3.29427
# Velocity P-wave (km/s) = 5.81964 6.75463 6.30449
#
# Compressibility (1/GPa) = 0.02340501
#
# Stress axis : x y z
#
# Youngs Moduli (GPa) = 66.26431 24.99219 86.36532
#
# Poissons Ratio (x) = 0.29444 0.27662
# Poissons Ratio (y) = 0.78067 0.57473
# Poissons Ratio (z) = 0.21224 0.16631
#
# Static dielectric constant tensor:
#      x y z
#    x 3.858150 0.000000 -0.026960 
#    y 0.000000 3.064940 0.000000 
#    z -0.026960 0.000000 4.116980 
# 
# 
# High freq. dielectric constant tensor:
#      x y z
#    x 1.796990 0.000000 -0.005920 
#    y 0.000000 1.719250 0.000000 
#    z -0.005920 0.000000 1.820120 
# 
# From -- ./inp_files/273898.got.cif
#   From: 2010.06.25/outbox.cif.g09.slc.cpg/sg15_137_cif.got.tgz:273898.got - 2010.06.28 07:06:18.
