data_PCOD8129124
_publ_section_title
;
Structure prediction by ZEFSAII (Michael W. Deem and Ramdas Pophale) SiO2 
 PCOD8129124
Probable space group: P 21/C
;
_chemical_formula_sum "Si O2"
_cell_formula_units_Z 20
_cell_length_a 5.079105
_cell_length_b 15.526834
_cell_length_c 10.617129
_cell_angle_alpha 90.000000
_cell_angle_beta 85.672141
_cell_angle_gamma 90.000000
_cell_volume 834.904998
_symmetry_space_group_name_H-M "P 21/C"
_symmetry_group_IT_number 14
_symmetry_cell_setting 'monoclinic'
loop_
_space_group_symop_operation_xyz
x,y,z
-x,1/2+y,1/2-z
-x,-y,-z
x,1/2-y,1/2+z
loop_
_atom_site_type_symbol
_atom_site_label
_atom_site_fract_x
_atom_site_fract_y
_atom_site_fract_z
Si Si1 0.743573 0.124098 0.762398
Si Si2 0.035788 0.800597 0.484502
Si Si3 0.406007 0.054789 0.154886
Si Si4 0.502071 0.703394 0.150760
Si Si5 0.081241 0.888275 0.978951
O O1 0.913267 0.131236 0.628518
O O2 0.529725 0.201086 0.788551
O O3 0.589181 0.032962 0.764347
O O4 0.955366 0.124723 0.869588
O O5 0.227345 0.823571 0.594313
O O6 0.101790 0.707549 0.419715
O O7 0.731677 0.798850 0.537628
O O8 0.421417 0.135854 0.245975
O O9 0.647332 0.059624 0.049213
O O10 0.142742 0.056561 0.079945
#
# Coordination Sequence:
#
# PCOD8129124 Si02
#       5
#     4   4   4   4   4
#     4  11  26  46  74 103 141 190 226 289 353 406
#     4  11  25  45  72  99 141 186 225 282 351 409
#     4  12  25  45  73 104 142 177 235 286 347 412
#     4  11  26  45  69 103 140 180 234 286 337 418
#     4  11  24  45  68 106 137 179 233 290 339 412
#
# _framework density 23.954819000000001
#
# number of rings (size 3 to 8) (size 9 to 14) (size 15 to 20)
#    0.000    0.800    2.000    4.800    2.800    8.000 
#    0.000    0.000    0.000    0.000    0.000    0.000 
#    0.000    0.000    0.000    0.000    0.000    0.000 
#
# Total GULP energy -248085.048267 kJ/mol
# GULP energy per Si atom -12404.252413 kJ/mol
# Density = 2.390030 g / cm^3
# Si number density = 23.954819 Si / 1000 Ang^3
#
#
#
# Elastic Constant Matrix: (Units=GPa)
#
#
# Indices 1 2 3 4 5 6 
#
# 1 123.6665 30.1281 39.6354 0.0000 -3.1720 0.0000
# 2 30.1281 129.1970 32.4410 0.0000 11.1013 0.0000
# 3 39.6354 32.4410 83.8500 0.0000 -2.0936 0.0000
# 4 0.0000 0.0000 0.0000 32.4672 0.0000 -4.9784
# 5 -3.1720 11.1013 -2.0936 0.0000 25.8732 0.0000
# 6 0.0000 0.0000 0.0000 -4.9784 0.0000 28.5507
#
#
#
# Elastic Compliance Matrix: (Units=1/GPa)
#
#
# Indices 1 2 3 4 5 6 
#
# 1 0.009756 -0.001387 -0.004039 0.000000 0.001464 0.000000
# 2 -0.001387 0.009194 -0.003010 0.000000 -0.004358 0.000000
# 3 -0.004039 -0.003010 0.015050 0.000000 0.002014 0.000000
# 4 0.000000 0.000000 0.000000 0.031646 0.000000 0.005518
# 5 0.001464 -0.004358 0.002014 0.000000 0.040863 0.000000
# 6 0.000000 0.000000 0.000000 0.005518 0.000000 0.035988
#
#
# Mechanical properties :
#
#
# Convention : Reuss Voigt Hill
#
# Bulk Modulus (GPa) = 58.38185 60.12473 59.25329
# Shear Modulus (GPa) = 30.28880 33.01215 31.65048
#
# Velocity S-wave (km/s) = 3.55972 3.71631 3.63885
# Velocity P-wave (km/s) = 6.42806 6.60063 6.51492
#
# Compressibility (1/GPa) = 0.01712861
#
# Stress axis : x y z
#
# Youngs Moduli (GPa) = 102.50058 108.76775 66.44516
#
# Poissons Ratio (x) = 0.15084 0.26834
# Poissons Ratio (y) = 0.14215 0.20002
# Poissons Ratio (z) = 0.41395 0.32743
#
# Static dielectric constant tensor:
#      x y z
#    x 4.213090 0.000000 -0.085970 
#    y 0.000000 4.565620 0.000000 
#    z -0.085970 0.000000 4.179990 
# 
# 
# High freq. dielectric constant tensor:
#      x y z
#    x 1.947350 0.000000 -0.001620 
#    y 0.000000 1.965560 0.000000 
#    z -0.001620 0.000000 1.949550 
# 
# From -- ./inp_files/20665.got.cif
#   From: 2010.03.12/outbox.cif.g09.slc.cpg/sg14_11_cif.got.tgz:20665.got - 2010.03.31 13:35:05.
