data_PCOD8129496
_publ_section_title
;
Structure prediction by ZEFSAII (Michael W. Deem and Ramdas Pophale) SiO2 
 PCOD8129496
Probable space group: P 21/C
;
_chemical_formula_sum "Si O2"
_cell_formula_units_Z 16
_cell_length_a 5.000020
_cell_length_b 8.942525
_cell_length_c 14.914005
_cell_angle_alpha 90.000000
_cell_angle_beta 114.822533
_cell_angle_gamma 90.000000
_cell_volume 605.238620
_symmetry_space_group_name_H-M "P 21/C"
_symmetry_group_IT_number 14
_symmetry_cell_setting 'monoclinic'
loop_
_space_group_symop_operation_xyz
x,y,z
-x,1/2+y,1/2-z
-x,-y,-z
x,1/2-y,1/2+z
loop_
_atom_site_type_symbol
_atom_site_label
_atom_site_fract_x
_atom_site_fract_y
_atom_site_fract_z
Si Si1 0.937069 0.838941 0.451928
Si Si2 0.529657 0.407061 0.594526
Si Si3 0.937048 0.743858 0.264228
Si Si4 0.301243 0.817179 0.144092
O O1 0.620271 0.758865 0.428345
O O2 0.975438 0.863529 0.350857
O O3 0.179801 0.729167 0.529091
O O4 0.000000 0.000000 0.500000
O O5 0.500000 0.500000 0.500000
O O6 0.378933 0.507305 0.650874
O O7 0.872867 0.396902 0.672652
O O8 0.588073 0.713391 0.204348
O O9 0.057562 0.799896 0.186279
#
# Coordination Sequence:
#
# PCOD8129496 Si02
#       4
#     4   4   4   4
#     4  12  30  53  80 121 168 210 274 345 408 490
#     4  12  27  56  85 114 168 221 277 337 419 492
#     4  12  29  50  83 120 160 210 278 328 411 481
#     4  12  29  50  85 118 161 214 275 332 413 494
#
# _framework density 26.435853999999999
#
# number of rings (size 3 to 8) (size 9 to 14) (size 15 to 20)
#    0.000    0.000    5.000    2.250    7.000    3.000 
#    4.500    0.000    0.000    0.000    0.000    0.000 
#    0.000    0.000    0.000    0.000    0.000    0.000 
#
# Total GULP energy -198270.057004 kJ/mol
# GULP energy per Si atom -12391.878563 kJ/mol
# Density = 2.637568 g / cm^3
# Si number density = 26.435854 Si / 1000 Ang^3
#
#
#
# Elastic Constant Matrix: (Units=GPa)
#
#
# Indices 1 2 3 4 5 6 
#
# 1 115.2691 12.8023 30.8585 0.0000 1.5500 0.0000
# 2 12.8023 82.4797 -14.4551 0.0000 2.7353 0.0000
# 3 30.8585 -14.4551 128.8346 0.0000 11.2096 0.0000
# 4 0.0000 0.0000 0.0000 37.5383 0.0000 6.5779
# 5 1.5500 2.7353 11.2096 0.0000 52.5846 0.0000
# 6 0.0000 0.0000 0.0000 6.5779 0.0000 40.9986
#
#
#
# Elastic Compliance Matrix: (Units=1/GPa)
#
#
# Indices 1 2 3 4 5 6 
#
# 1 0.009566 -0.001942 -0.002541 0.000000 0.000361 0.000000
# 2 -0.001942 0.012809 0.001992 0.000000 -0.001034 0.000000
# 3 -0.002541 0.001992 0.008759 0.000000 -0.001896 0.000000
# 4 0.000000 0.000000 0.000000 0.027410 0.000000 -0.004398
# 5 0.000361 -0.001034 -0.001896 0.000000 0.019464 0.000000
# 6 0.000000 0.000000 0.000000 -0.004398 0.000000 0.025097
#
#
# Mechanical properties :
#
#
# Convention : Reuss Voigt Hill
#
# Bulk Modulus (GPa) = 38.23578 42.77717 40.50648
# Shear Modulus (GPa) = 42.80676 46.04949 44.42812
#
# Velocity S-wave (km/s) = 4.02838 4.17818 4.10396
# Velocity P-wave (km/s) = 6.01100 6.28433 6.14919
#
# Compressibility (1/GPa) = 0.02615351
#
# Stress axis : x y z
#
# Youngs Moduli (GPa) = 104.53320 78.06961 114.16951
#
# Poissons Ratio (x) = 0.15162 0.29006
# Poissons Ratio (y) = 0.20301 -0.22746
# Poissons Ratio (z) = 0.26558 -0.15554
#
# Static dielectric constant tensor:
#      x y z
#    x 5.010640 0.000000 0.055440 
#    y 0.000000 4.636410 0.000000 
#    z 0.055440 0.000000 5.288930 
# 
# 
# High freq. dielectric constant tensor:
#      x y z
#    x 2.071250 0.000000 -0.001850 
#    y 0.000000 2.038420 0.000000 
#    z -0.001850 0.000000 2.091150 
# 
# From -- ./inp_files/52588.got.cif
#   From: 2010.03.12/outbox.cif.g09.slc.cpg/sg14_27_cif.got.tgz:52588.got - 2010.03.31 13:35:05.
