data_PCOD8129194
_publ_section_title
;
Structure prediction by ZEFSAII (Michael W. Deem and Ramdas Pophale) SiO2 
 PCOD8129194
Probable space group: P 21/C
;
_chemical_formula_sum "Si O2"
_cell_formula_units_Z 20
_cell_length_a 25.410154
_cell_length_b 4.955676
_cell_length_c 9.154039
_cell_angle_alpha 90.000000
_cell_angle_beta 138.411555
_cell_angle_gamma 90.000000
_cell_volume 765.145636
_symmetry_space_group_name_H-M "P 21/C"
_symmetry_group_IT_number 14
_symmetry_cell_setting 'monoclinic'
loop_
_space_group_symop_operation_xyz
x,y,z
-x,1/2+y,1/2-z
-x,-y,-z
x,1/2-y,1/2+z
loop_
_atom_site_type_symbol
_atom_site_label
_atom_site_fract_x
_atom_site_fract_y
_atom_site_fract_z
Si Si1 0.732213 0.973962 0.622390
Si Si2 0.594965 0.587287 0.351898
Si Si3 0.438480 0.806399 0.948307
Si Si4 0.029294 0.968196 0.225583
Si Si5 0.789437 0.467105 0.913552
O O1 0.640110 0.870388 0.415051
O O2 0.779429 0.751967 0.812707
O O3 0.733615 0.252093 0.714499
O O4 0.770431 0.009861 0.544311
O O5 0.498485 0.600485 0.156797
O O6 0.619069 0.471156 0.561504
O O7 0.619062 0.367390 0.277064
O O8 0.500000 0.000000 0.000000
O O9 0.977153 0.748933 0.201950
O O10 0.120144 0.871936 0.414181
O O11 0.000000 0.000000 0.000000
#
# Coordination Sequence:
#
# PCOD8129194 Si02
#       5
#     4   4   4   4   4
#     4  12  30  51  79 109 165 207 264 312 407 469
#     4  11  27  46  77 110 148 207 253 335 386 464
#     4  11  24  48  75 107 149 191 272 317 386 453
#     4  12  25  46  82 118 157 204 264 323 385 454
#     4  12  27  52  77 117 158 212 256 323 385 485
#
# _framework density 26.138818000000001
#
# number of rings (size 3 to 8) (size 9 to 14) (size 15 to 20)
#    0.000    0.400    2.000    5.400    5.600    1.600 
#    0.000    0.000    0.000    0.000    0.000    0.000 
#    0.000    0.000    0.000    0.000    0.000    0.000 
#
# Total GULP energy -248133.114247 kJ/mol
# GULP energy per Si atom -12406.655712 kJ/mol
# Density = 2.607932 g / cm^3
# Si number density = 26.138818 Si / 1000 Ang^3
#
#
#
# Elastic Constant Matrix: (Units=GPa)
#
#
# Indices 1 2 3 4 5 6 
#
# 1 157.0048 63.3108 60.9281 0.0000 -27.8864 0.0000
# 2 63.3108 91.9843 29.9283 0.0000 -33.2630 0.0000
# 3 60.9281 29.9283 109.5204 0.0000 -18.6185 0.0000
# 4 0.0000 0.0000 0.0000 29.3686 0.0000 -25.0529
# 5 -27.8864 -33.2630 -18.6185 0.0000 61.3811 0.0000
# 6 0.0000 0.0000 0.0000 -25.0529 0.0000 22.5457
#
#
#
# Elastic Compliance Matrix: (Units=1/GPa)
#
#
# Indices 1 2 3 4 5 6 
#
# 1 0.010303 -0.005606 -0.004134 0.000000 0.000389 0.000000
# 2 -0.005606 0.017301 -0.000473 0.000000 0.006685 0.000000
# 3 -0.004134 -0.000473 0.011806 0.000000 0.001447 0.000000
# 4 0.000000 0.000000 0.000000 0.653759 0.000000 0.726461
# 5 0.000389 0.006685 0.001447 0.000000 0.020530 0.000000
# 6 0.000000 0.000000 0.000000 0.726461 0.000000 0.851602
#
#
# Mechanical properties :
#
#
# Convention : Reuss Voigt Hill
#
# Bulk Modulus (GPa) = 52.67235 74.09377 63.38306
# Shear Modulus (GPa) = 3.14060 36.28190 19.71125
#
# Velocity S-wave (km/s) = 1.09732 3.72969 2.74906
# Velocity P-wave (km/s) = 4.66907 6.85239 5.86325
#
# Compressibility (1/GPa) = 0.01898529
#
# Stress axis : x y z
#
# Youngs Moduli (GPa) = 97.06007 57.80016 84.70626
#
# Poissons Ratio (x) = 0.32400 0.35015
# Poissons Ratio (y) = 0.54408 0.04005
# Poissons Ratio (z) = 0.40122 0.02733
#
# Static dielectric constant tensor:
#      x y z
#    x 5.049070 0.000000 0.507280 
#    y 0.000000 5.224980 0.000000 
#    z 0.507280 0.000000 6.086640 
# 
# 
# High freq. dielectric constant tensor:
#      x y z
#    x 2.053770 0.000000 -0.010140 
#    y 0.000000 2.064480 0.000000 
#    z -0.010140 0.000000 2.068250 
# 
# From -- ./inp_files/19291.got.cif
#   From: 2010.03.12/outbox.cif.g09.slc.cpg/sg14_10_cif.got.tgz:19291.got - 2010.03.31 13:35:05.
