data_PCOD8129200
_publ_section_title
;
Structure prediction by ZEFSAII (Michael W. Deem and Ramdas Pophale) SiO2 
 PCOD8129200
Probable space group: P 21/C
;
_chemical_formula_sum "Si O2"
_cell_formula_units_Z 20
_cell_length_a 15.809991
_cell_length_b 6.581107
_cell_length_c 9.528775
_cell_angle_alpha 90.000000
_cell_angle_beta 68.938899
_cell_angle_gamma 90.000000
_cell_volume 925.212133
_symmetry_space_group_name_H-M "P 21/C"
_symmetry_group_IT_number 14
_symmetry_cell_setting 'monoclinic'
loop_
_space_group_symop_operation_xyz
x,y,z
-x,1/2+y,1/2-z
-x,-y,-z
x,1/2-y,1/2+z
loop_
_atom_site_type_symbol
_atom_site_label
_atom_site_fract_x
_atom_site_fract_y
_atom_site_fract_z
Si Si1 0.516860 0.696094 0.581928
Si Si2 0.182574 0.506320 0.342611
Si Si3 0.118364 0.795295 0.151602
Si Si4 0.942211 0.858818 0.637943
Si Si5 0.390185 0.453591 0.195674
O O1 0.500000 0.500000 0.500000
O O2 0.590569 0.836532 0.460556
O O3 0.552846 0.646689 0.713953
O O4 0.421133 0.812931 0.657325
O O5 0.167652 0.608412 0.199487
O O6 0.162861 0.675255 0.472758
O O7 0.116087 0.314001 0.406466
O O8 0.285199 0.435223 0.294688
O O9 0.011365 0.750728 0.202727
O O10 0.128514 0.002912 0.233864
O O11 0.000000 0.000000 0.500000
#
# Coordination Sequence:
#
# PCOD8129200 Si02
#       5
#     4   4   4   4   4
#     4  11  24  49  72 101 141 184 223 289 360 415
#     4  12  29  42  71 109 135 185 238 289 338 424
#     4  12  25  46  68  98 144 183 229 288 347 406
#     4  12  24  45  70  99 142 187 231 283 354 406
#     4  11  27  45  75 104 139 182 235 288 352 419
#
# _framework density 21.616665000000001
#
# number of rings (size 3 to 8) (size 9 to 14) (size 15 to 20)
#    0.000    0.400    6.000    1.800    5.600    0.000 
#    0.000    0.000    0.000    0.000    0.000    0.000 
#    0.000    0.000    0.000    0.000    0.000    0.000 
#
# Total GULP energy -248118.507144 kJ/mol
# GULP energy per Si atom -12405.925357 kJ/mol
# Density = 2.156746 g / cm^3
# Si number density = 21.616665 Si / 1000 Ang^3
#
#
#
# Elastic Constant Matrix: (Units=GPa)
#
#
# Indices 1 2 3 4 5 6 
#
# 1 92.4385 42.5635 21.7404 0.0000 -13.0853 0.0000
# 2 42.5635 121.0552 41.5765 0.0000 0.7638 0.0000
# 3 21.7404 41.5765 90.8650 0.0000 3.6561 0.0000
# 4 0.0000 0.0000 0.0000 51.7622 0.0000 4.2849
# 5 -13.0853 0.7638 3.6561 0.0000 25.9925 0.0000
# 6 0.0000 0.0000 0.0000 4.2849 0.0000 28.1754
#
#
#
# Elastic Compliance Matrix: (Units=1/GPa)
#
#
# Indices 1 2 3 4 5 6 
#
# 1 0.014372 -0.004527 -0.001673 0.000000 0.007604 0.000000
# 2 -0.004527 0.011230 -0.003973 0.000000 -0.002050 0.000000
# 3 -0.001673 -0.003973 0.013328 0.000000 -0.002600 0.000000
# 4 0.000000 0.000000 0.000000 0.019565 0.000000 -0.002975
# 5 0.007604 -0.002050 -0.002600 0.000000 0.042727 0.000000
# 6 0.000000 0.000000 0.000000 -0.002975 0.000000 0.035944
#
#
# Mechanical properties :
#
#
# Convention : Reuss Voigt Hill
#
# Bulk Modulus (GPa) = 53.80845 57.34662 55.57754
# Shear Modulus (GPa) = 30.54239 34.41791 32.48015
#
# Velocity S-wave (km/s) = 3.76295 3.99456 3.88048
# Velocity P-wave (km/s) = 6.62011 6.91822 6.77081
#
# Compressibility (1/GPa) = 0.01858444
#
# Stress axis : x y z
#
# Youngs Moduli (GPa) = 69.57872 89.05014 75.02914
#
# Poissons Ratio (x) = 0.40309 0.12556
# Poissons Ratio (y) = 0.31495 0.29807
# Poissons Ratio (z) = 0.11644 0.35378
#
# Static dielectric constant tensor:
#      x y z
#    x 3.703190 0.000000 0.139680 
#    y 0.000000 4.131690 0.000000 
#    z 0.139680 0.000000 4.014850 
# 
# 
# High freq. dielectric constant tensor:
#      x y z
#    x 1.829710 0.000000 0.007160 
#    y 0.000000 1.864700 0.000000 
#    z 0.007160 0.000000 1.862150 
# 
# From -- ./inp_files/17239.got.cif
#   From: 2010.03.12/outbox.cif.g09.slc.cpg/sg14_9_cif.got.tgz:17239.got - 2010.03.31 13:35:05.
