data_PCOD8129721
_publ_section_title
;
Structure prediction by ZEFSAII (Michael W. Deem and Ramdas Pophale) SiO2 
 PCOD8129721
Probable space group: C 2/C
;
_chemical_formula_sum "Si O2"
_cell_formula_units_Z 64
_cell_length_a 17.532594
_cell_length_b 22.503894
_cell_length_c 10.598883
_cell_angle_alpha 90.000000
_cell_angle_beta 69.003135
_cell_angle_gamma 90.000000
_cell_volume 3904.134817
_symmetry_space_group_name_H-M "C 2/C"
_symmetry_group_IT_number 15
_symmetry_cell_setting 'monoclinic'
loop_
_space_group_symop_operation_xyz
x,y,z
-x,y,1/2-z
-x,-y,-z
x,-y,1/2+z
1/2+x,1/2+y,z
1/2-x,1/2+y,1/2-z
1/2-x,1/2-y,-z
1/2+x,1/2-y,1/2+z
loop_
_atom_site_type_symbol
_atom_site_label
_atom_site_fract_x
_atom_site_fract_y
_atom_site_fract_z
Si Si1 0.284575 0.335036 0.378933
Si Si2 0.953704 0.485570 0.398630
Si Si3 0.198450 0.784090 0.870035
Si Si4 0.476147 0.730713 0.128193
Si Si5 0.859839 0.406589 0.989837
Si Si6 0.370942 0.172630 0.237815
Si Si7 0.940418 0.200144 0.677982
Si Si8 0.014281 0.363643 0.045265
O O1 0.218522 0.283276 0.395404
O O2 0.324765 0.322471 0.492226
O O3 0.232442 0.396084 0.404817
O O4 0.356418 0.338376 0.231850
O O5 0.868705 0.522920 0.454095
O O6 0.945969 0.413956 0.385853
O O7 0.000000 0.512141 0.250000
O O8 0.000000 0.500000 0.500000
O O9 0.276680 0.813849 0.753891
O O10 0.120261 0.780993 0.825962
O O11 0.500000 0.703114 0.250000
O O12 0.523062 0.698284 0.984818
O O13 0.502374 0.799940 0.116851
O O14 0.874412 0.365989 0.860271
O O15 0.926559 0.386565 0.052161
O O16 0.417990 0.233772 0.237391
O O17 0.417570 0.137437 0.102954
O O18 0.000000 0.173751 0.750000
#
# Coordination Sequence:
#
# PCOD8129721 Si02
#       8
#     8   8   8   8   8   8   8   8
#     4   9  16  27  46  69  89 116 160 213 239 263
#     4  10  20  31  46  66  91 125 164 197 226 272
#     4   9  16  28  44  68  92 119 162 204 233 281
#     4  11  20  30  45  65  98 133 157 187 238 294
#     4  10  16  27  47  67  91 120 163 205 237 273
#     4   9  17  26  47  69  90 123 166 199 236 272
#     4  10  17  28  46  69  91 121 161 198 234 286
#     4  10  18  30  43  64  95 133 160 188 235 279
#
# _framework density 16.392876000000001
#
# number of rings (size 3 to 8) (size 9 to 14) (size 15 to 20)
#    0.000    2.250    2.500    4.500    0.000    0.000 
#    0.000    5.625    0.000    0.000    0.000    0.000 
#    0.000    2.000    0.000    0.125    0.000    0.125 
#
# Total GULP energy -396479.797555 kJ/mol
# GULP energy per Si atom -12389.993674 kJ/mol
# Density = 1.635557 g / cm^3
# Si number density = 16.392876 Si / 1000 Ang^3
#
#
#
# Elastic Constant Matrix: (Units=GPa)
#
#
# Indices 1 2 3 4 5 6 
#
# 1 85.7032 23.6579 42.7758 0.0000 -3.7908 0.0000
# 2 23.6579 45.1864 15.0442 0.0000 -6.7554 0.0000
# 3 42.7758 15.0442 85.0220 0.0000 -1.3108 0.0000
# 4 0.0000 0.0000 0.0000 13.4769 0.0000 -5.2051
# 5 -3.7908 -6.7554 -1.3108 0.0000 25.1250 0.0000
# 6 0.0000 0.0000 0.0000 -5.2051 0.0000 22.3712
#
#
#
# Elastic Compliance Matrix: (Units=1/GPa)
#
#
# Indices 1 2 3 4 5 6 
#
# 1 0.017219 -0.006442 -0.007516 0.000000 0.000474 0.000000
# 2 -0.006442 0.026902 -0.001424 0.000000 0.006187 0.000000
# 3 -0.007516 -0.001424 0.015784 0.000000 -0.000693 0.000000
# 4 0.000000 0.000000 0.000000 0.081527 0.000000 0.018969
# 5 0.000474 0.006187 -0.000693 0.000000 0.041500 0.000000
# 6 0.000000 0.000000 0.000000 0.018969 0.000000 0.049114
#
#
# Mechanical properties :
#
#
# Convention : Reuss Voigt Hill
#
# Bulk Modulus (GPa) = 34.31460 42.09638 38.20549
# Shear Modulus (GPa) = 18.34706 21.15685 19.75196
#
# Velocity S-wave (km/s) = 3.34909 3.59641 3.47495
# Velocity P-wave (km/s) = 5.99444 6.55599 6.28149
#
# Compressibility (1/GPa) = 0.02914211
#
# Stress axis : x y z
#
# Youngs Moduli (GPa) = 58.07662 37.17157 63.35442
#
# Poissons Ratio (x) = 0.23946 0.47616
# Poissons Ratio (y) = 0.37412 0.09021
# Poissons Ratio (z) = 0.43649 0.05293
#
# Static dielectric constant tensor:
#      x y z
#    x 3.248810 0.000000 -0.194250 
#    y 0.000000 3.114630 0.000000 
#    z -0.194250 0.000000 3.175460 
# 
# 
# High freq. dielectric constant tensor:
#      x y z
#    x 1.614080 0.000000 -0.011180 
#    y 0.000000 1.589640 0.000000 
#    z -0.011180 0.000000 1.631270 
# 
# From -- ./inp_files/100477.got.cif
#   From: 2010.06.25/outbox.cif.g09.slc.cpg/sg15_51_cif.got.tgz:100477.got - 2010.06.28 07:06:18.
