data_PCOD8129177
_publ_section_title
;
Structure prediction by ZEFSAII (Michael W. Deem and Ramdas Pophale) SiO2 
 PCOD8129177
Probable space group: P 21/C
;
_chemical_formula_sum "Si O2"
_cell_formula_units_Z 20
_cell_length_a 23.425072
_cell_length_b 4.977806
_cell_length_c 10.732235
_cell_angle_alpha 90.000000
_cell_angle_beta 38.261618
_cell_angle_gamma 90.000000
_cell_volume 774.956488
_symmetry_space_group_name_H-M "P 21/C"
_symmetry_group_IT_number 14
_symmetry_cell_setting 'monoclinic'
loop_
_space_group_symop_operation_xyz
x,y,z
-x,1/2+y,1/2-z
-x,-y,-z
x,1/2-y,1/2+z
loop_
_atom_site_type_symbol
_atom_site_label
_atom_site_fract_x
_atom_site_fract_y
_atom_site_fract_z
Si Si1 0.852802 0.153305 0.244145
Si Si2 0.382109 0.633603 0.581287
Si Si3 0.016342 0.445723 0.294552
Si Si4 0.736618 0.842342 0.887664
Si Si5 0.411490 0.519462 0.796581
O O1 0.883392 0.036182 0.326039
O O2 0.797495 0.432104 0.353921
O O3 0.791767 0.934282 0.277306
O O4 0.949026 0.203573 0.007656
O O5 0.295043 0.445867 0.694635
O O6 0.374689 0.703093 0.742043
O O7 0.478919 0.480106 0.396601
O O8 0.380015 0.876795 0.486551
O O9 0.036211 0.216171 0.159159
O O10 0.640468 0.770526 0.127201
#
# Coordination Sequence:
#
# PCOD8129177 Si02
#       5
#     4   4   4   4   4
#     4  11  26  45  71 109 145 186 245 306 373 450
#     4  11  25  46  73 107 152 207 258 310 377 441
#     4  11  24  47  74 101 143 194 236 297 378 457
#     4  12  24  46  70 110 148 193 251 317 370 434
#     4  11  25  46  74 107 152 207 257 312 375 443
#
# _framework density 25.8079
#
# number of rings (size 3 to 8) (size 9 to 14) (size 15 to 20)
#    0.000    0.800    4.000    2.400    0.000   10.400 
#    3.600    0.000    0.000    0.000    0.000    0.000 
#    0.000    0.000    0.000    0.000    0.000    0.000 
#
# Total GULP energy -247785.242323 kJ/mol
# GULP energy per Si atom -12389.262116 kJ/mol
# Density = 2.574916 g / cm^3
# Si number density = 25.807900 Si / 1000 Ang^3
#
#
#
# Elastic Constant Matrix: (Units=GPa)
#
#
# Indices 1 2 3 4 5 6 
#
# 1 140.2391 44.0187 31.0634 0.0000 -5.0408 0.0000
# 2 44.0187 124.5253 20.1162 0.0000 3.8630 0.0000
# 3 31.0634 20.1162 49.2455 0.0000 -14.1033 0.0000
# 4 0.0000 0.0000 0.0000 44.5730 0.0000 -9.4059
# 5 -5.0408 3.8630 -14.1033 0.0000 28.7885 0.0000
# 6 0.0000 0.0000 0.0000 -9.4059 0.0000 38.2688
#
#
#
# Elastic Compliance Matrix: (Units=1/GPa)
#
#
# Indices 1 2 3 4 5 6 
#
# 1 0.008918 -0.002363 -0.004794 0.000000 -0.000470 0.000000
# 2 -0.002363 0.009510 -0.003348 0.000000 -0.003330 0.000000
# 3 -0.004794 -0.003348 0.028599 0.000000 0.013620 0.000000
# 4 0.000000 0.000000 0.000000 0.023662 0.000000 0.005816
# 5 -0.000470 -0.003330 0.013620 0.000000 0.041773 0.000000
# 6 0.000000 0.000000 0.000000 0.005816 0.000000 0.027560
#
#
# Mechanical properties :
#
#
# Convention : Reuss Voigt Hill
#
# Bulk Modulus (GPa) = 38.43821 56.04516 47.24169
# Shear Modulus (GPa) = 29.46297 36.91350 33.18823
#
# Velocity S-wave (km/s) = 3.38246 3.78606 3.58994
# Velocity P-wave (km/s) = 5.49373 6.39341 5.96057
#
# Compressibility (1/GPa) = 0.02601578
#
# Stress axis : x y z
#
# Youngs Moduli (GPa) = 112.13891 105.15290 34.96650
#
# Poissons Ratio (x) = 0.24850 0.16764
# Poissons Ratio (y) = 0.26501 0.11706
# Poissons Ratio (z) = 0.53764 0.35202
#
# Static dielectric constant tensor:
#      x y z
#    x 5.074860 0.000000 -0.238260 
#    y 0.000000 4.500950 0.000000 
#    z -0.238260 0.000000 4.526360 
# 
# 
# High freq. dielectric constant tensor:
#      x y z
#    x 2.047230 0.000000 -0.026970 
#    y 0.000000 2.021100 0.000000 
#    z -0.026970 0.000000 2.019330 
# 
# From -- ./inp_files/34526.got.cif
#   From: 2010.03.12/outbox.cif.g09.slc.cpg/sg14_18_cif.got.tgz:34526.got - 2010.03.31 13:35:05.
