data_PCOD8129930
_publ_section_title
;
Structure prediction by ZEFSAII (Michael W. Deem and Ramdas Pophale) SiO2 
 PCOD8129930
Probable space group: C 2/C
;
_chemical_formula_sum "Si O2"
_cell_formula_units_Z 44
_cell_length_a 5.023191
_cell_length_b 13.521675
_cell_length_c 28.287917
_cell_angle_alpha 90.000000
_cell_angle_beta 87.993829
_cell_angle_gamma 90.000000
_cell_volume 1920.192978
_symmetry_space_group_name_H-M "C 2/C"
_symmetry_group_IT_number 15
_symmetry_cell_setting 'monoclinic'
loop_
_space_group_symop_operation_xyz
x,y,z
-x,y,1/2-z
-x,-y,-z
x,-y,1/2+z
1/2+x,1/2+y,z
1/2-x,1/2+y,1/2-z
1/2-x,1/2-y,-z
1/2+x,1/2-y,1/2+z
loop_
_atom_site_type_symbol
_atom_site_label
_atom_site_fract_x
_atom_site_fract_y
_atom_site_fract_z
Si Si1 0.170864 0.547350 0.890517
Si Si2 0.330109 0.459389 0.167513
Si Si3 0.216720 0.180233 0.102520
Si Si4 0.000000 0.490150 0.250000
Si Si5 0.112058 0.862476 0.701663
Si Si6 0.227706 0.768719 0.055129
O O1 0.383540 0.585680 0.849111
O O2 0.228472 0.435592 0.905035
O O3 0.203831 0.616347 0.936079
O O4 0.870966 0.559182 0.874241
O O5 0.200650 0.420123 0.217922
O O6 0.370506 0.577024 0.178166
O O7 0.219162 0.209869 0.159223
O O8 0.430024 0.245889 0.074057
O O9 0.928050 0.199442 0.082658
O O10 0.161569 0.557820 0.286253
O O11 0.000000 0.808281 0.750000
O O12 0.250000 0.750000 0.000000
#
# Coordination Sequence:
#
# PCOD8129930 Si02
#       6
#     8   8   8   4   8   8
#     4  11  23  42  68  97 131 172 223 267 335 400
#     4  10  18  34  61  98 130 174 210 261 319 392
#     4  11  23  44  72  95 136 182 213 271 351 393
#     4  10  16  32  62 106 128 168 232 254 322 400
#     4   9  19  33  66 103 132 174 224 262 325 405
#     4  12  28  46  69 100 133 172 230 293 336 391
#
# _framework density 22.914362000000001
#
# number of rings (size 3 to 8) (size 9 to 14) (size 15 to 20)
#    0.000    1.455    3.636    3.818    2.545    1.455 
#    0.000    0.000   12.000    0.000    0.000    0.000 
#    0.000    0.000    0.000    0.000    0.000    0.000 
#
# Total GULP energy -272610.399752 kJ/mol
# GULP energy per Si atom -12391.381807 kJ/mol
# Density = 2.286221 g / cm^3
# Si number density = 22.914362 Si / 1000 Ang^3
#
#
#
# Elastic Constant Matrix: (Units=GPa)
#
#
# Indices 1 2 3 4 5 6 
#
# 1 104.3490 6.2421 28.1864 0.0000 -0.5951 0.0000
# 2 6.2421 46.5927 23.2118 0.0000 1.7204 0.0000
# 3 28.1864 23.2118 148.8778 0.0000 -13.5516 0.0000
# 4 0.0000 0.0000 0.0000 39.0908 0.0000 4.7648
# 5 -0.5951 1.7204 -13.5516 0.0000 37.0023 0.0000
# 6 0.0000 0.0000 0.0000 4.7648 0.0000 18.5817
#
#
#
# Elastic Compliance Matrix: (Units=1/GPa)
#
#
# Indices 1 2 3 4 5 6 
#
# 1 0.010117 -0.000389 -0.001902 0.000000 -0.000516 0.000000
# 2 -0.000389 0.023510 -0.003819 0.000000 -0.002498 0.000000
# 3 -0.001902 -0.003819 0.007951 0.000000 0.003059 0.000000
# 4 0.000000 0.000000 0.000000 0.026407 0.000000 -0.006771
# 5 -0.000516 -0.002498 0.003059 0.000000 0.028253 0.000000
# 6 0.000000 0.000000 0.000000 -0.006771 0.000000 0.055553
#
#
# Mechanical properties :
#
#
# Convention : Reuss Voigt Hill
#
# Bulk Modulus (GPa) = 34.06230 46.12221 40.09226
# Shear Modulus (GPa) = 28.76930 35.08025 31.92478
#
# Velocity S-wave (km/s) = 3.54717 3.91695 3.73664
# Velocity P-wave (km/s) = 5.62795 6.37405 6.01258
#
# Compressibility (1/GPa) = 0.02935797
#
# Stress axis : x y z
#
# Youngs Moduli (GPa) = 98.84108 42.53581 125.77266
#
# Poissons Ratio (x) = 0.01654 0.23919
# Poissons Ratio (y) = 0.03844 0.48035
# Poissons Ratio (z) = 0.18797 0.16245
#
# Static dielectric constant tensor:
#      x y z
#    x 4.558090 0.000000 -0.217490 
#    y 0.000000 3.666180 0.000000 
#    z -0.217490 0.000000 4.259420 
# 
# 
# High freq. dielectric constant tensor:
#      x y z
#    x 1.931200 0.000000 -0.006350 
#    y 0.000000 1.858170 0.000000 
#    z -0.006350 0.000000 1.900230 
# 
# From -- ./inp_files/260407.got.cif
#   From: 2010.06.25/outbox.cif.g09.slc.cpg/sg15_131_cif.got.tgz:260407.got - 2010.06.28 07:06:18.
