data_PCOD8129453
_publ_section_title
;
Structure prediction by ZEFSAII (Michael W. Deem and Ramdas Pophale) SiO2 
 PCOD8129453
Probable space group: P 21/C
;
_chemical_formula_sum "Si O2"
_cell_formula_units_Z 20
_cell_length_a 18.361071
_cell_length_b 9.444379
_cell_length_c 13.542839
_cell_angle_alpha 90.000000
_cell_angle_beta 158.922577
_cell_angle_gamma 90.000000
_cell_volume 844.570731
_symmetry_space_group_name_H-M "P 21/C"
_symmetry_group_IT_number 14
_symmetry_cell_setting 'monoclinic'
loop_
_space_group_symop_operation_xyz
x,y,z
-x,1/2+y,1/2-z
-x,-y,-z
x,1/2-y,1/2+z
loop_
_atom_site_type_symbol
_atom_site_label
_atom_site_fract_x
_atom_site_fract_y
_atom_site_fract_z
Si Si1 0.807998 0.403217 0.427490
Si Si2 0.198979 0.911460 0.860174
Si Si3 0.183867 0.222618 0.848685
Si Si4 0.180014 0.218012 0.131599
Si Si5 0.486919 0.765649 0.085031
O O1 0.712971 0.391734 0.416981
O O2 0.847772 0.567538 0.456404
O O3 0.018828 0.316640 0.697376
O O4 0.659835 0.345062 0.155443
O O5 0.036349 0.790293 0.637505
O O6 0.096421 0.065538 0.715006
O O7 0.368356 0.893466 0.988341
O O8 0.249123 0.303810 0.831797
O O9 0.385291 0.190756 0.166609
O O10 0.346625 0.315673 0.285512
#
# Coordination Sequence:
#
# PCOD8129453 Si02
#       5
#     4   4   4   4   4
#     4  12  25  51  76 105 151 198 241 303 370 442
#     4  12  26  49  74 109 152 188 249 306 363 436
#     4  12  27  48  75 110 149 190 252 304 367 435
#     4  12  26  50  77 105 148 196 246 301 374 433
#     4  12  27  44  78 107 143 196 242 302 361 442
#
# _framework density 23.680668000000001
#
# number of rings (size 3 to 8) (size 9 to 14) (size 15 to 20)
#    0.000    0.000    6.000    3.000    2.800    0.800 
#    3.600    0.000    0.000    0.000    0.000    0.000 
#    0.000    0.000    0.000    0.000    0.000    0.000 
#
# Total GULP energy -247922.240871 kJ/mol
# GULP energy per Si atom -12396.112044 kJ/mol
# Density = 2.362677 g / cm^3
# Si number density = 23.680668 Si / 1000 Ang^3
#
#
#
# Elastic Constant Matrix: (Units=GPa)
#
#
# Indices 1 2 3 4 5 6 
#
# 1 131.4189 30.1593 21.2102 0.0000 6.5291 0.0000
# 2 30.1593 88.3637 30.9024 0.0000 8.3859 0.0000
# 3 21.2102 30.9024 108.4913 0.0000 -0.4892 0.0000
# 4 0.0000 0.0000 0.0000 22.6233 0.0000 -3.1198
# 5 6.5291 8.3859 -0.4892 0.0000 37.7457 0.0000
# 6 0.0000 0.0000 0.0000 -3.1198 0.0000 38.6963
#
#
#
# Elastic Compliance Matrix: (Units=1/GPa)
#
#
# Indices 1 2 3 4 5 6 
#
# 1 0.008367 -0.002438 -0.000945 0.000000 -0.000918 0.000000
# 2 -0.002438 0.013591 -0.003407 0.000000 -0.002642 0.000000
# 3 -0.000945 -0.003407 0.010377 0.000000 0.001055 0.000000
# 4 0.000000 0.000000 0.000000 0.044699 0.000000 0.003604
# 5 -0.000918 -0.002642 0.001055 0.000000 0.027252 0.000000
# 6 0.000000 0.000000 0.000000 0.003604 0.000000 0.026133
#
#
# Mechanical properties :
#
#
# Convention : Reuss Voigt Hill
#
# Bulk Modulus (GPa) = 53.31825 54.75751 54.03788
# Shear Modulus (GPa) = 33.27761 36.21321 34.74541
#
# Velocity S-wave (km/s) = 3.75275 3.91478 3.83462
# Velocity P-wave (km/s) = 6.42977 6.60360 6.51726
#
# Compressibility (1/GPa) = 0.01875530
#
# Stress axis : x y z
#
# Youngs Moduli (GPa) = 119.51803 73.57802 96.36481
#
# Poissons Ratio (x) = 0.17938 0.09111
# Poissons Ratio (y) = 0.29138 0.32827
# Poissons Ratio (z) = 0.11300 0.25064
#
# Static dielectric constant tensor:
#      x y z
#    x 4.988030 0.000000 -0.167770 
#    y 0.000000 3.980840 0.000000 
#    z -0.167770 0.000000 4.255600 
# 
# 
# High freq. dielectric constant tensor:
#      x y z
#    x 1.966820 0.000000 -0.017190 
#    y 0.000000 1.919560 0.000000 
#    z -0.017190 0.000000 1.940310 
# 
# From -- ./inp_files/50179.got.cif
#   From: 2010.03.12/outbox.cif.g09.slc.cpg/sg14_26_cif.got.tgz:50179.got - 2010.03.31 13:35:05.
