data_PCOD8129049
_publ_section_title
;
Structure prediction by ZEFSAII (Michael W. Deem and Ramdas Pophale) SiO2 
 PCOD8129049
Probable space group: P 21/C
;
_chemical_formula_sum "Si O2"
_cell_formula_units_Z 16
_cell_length_a 23.862641
_cell_length_b 5.123371
_cell_length_c 13.502557
_cell_angle_alpha 90.000000
_cell_angle_beta 26.132854
_cell_angle_gamma 90.000000
_cell_volume 727.094612
_symmetry_space_group_name_H-M "P 21/C"
_symmetry_group_IT_number 14
_symmetry_cell_setting 'monoclinic'
loop_
_space_group_symop_operation_xyz
x,y,z
-x,1/2+y,1/2-z
-x,-y,-z
x,1/2-y,1/2+z
loop_
_atom_site_type_symbol
_atom_site_label
_atom_site_fract_x
_atom_site_fract_y
_atom_site_fract_z
Si Si1 0.694931 0.148819 0.631046
Si Si2 0.685049 0.154192 0.873345
Si Si3 0.912498 0.245721 0.143162
Si Si4 0.582017 0.633248 0.714535
O O1 0.703839 0.065043 0.730919
O O2 0.833554 0.230952 0.370826
O O3 0.604676 0.399311 0.756972
O O4 0.634448 0.905779 0.670666
O O5 0.816827 0.277223 0.701905
O O6 0.569043 0.359266 0.065236
O O7 0.653302 0.913656 0.996936
O O8 0.000000 0.500000 0.000000
O O9 0.000000 0.000000 0.000000
#
# Coordination Sequence:
#
# PCOD8129049 Si02
#       4
#     4   4   4   4
#     4  11  25  43  69  99 131 171 218 268 333 397
#     4  11  24  44  70  95 136 176 208 275 336 379
#     4  11  25  43  62  93 130 170 224 264 304 382
#     4  11  24  42  67 105 131 161 218 271 331 404
#
# _framework density 22.005390999999999
#
# number of rings (size 3 to 8) (size 9 to 14) (size 15 to 20)
#    0.000    1.000    0.000    7.500    0.000   12.000 
#    0.000    0.000    0.000    0.000    0.000    0.000 
#    0.000    0.000    0.000    0.000    0.000    0.000 
#
# Total GULP energy -198392.843399 kJ/mol
# GULP energy per Si atom -12399.552712 kJ/mol
# Density = 2.195531 g / cm^3
# Si number density = 22.005391 Si / 1000 Ang^3
#
#
#
# Elastic Constant Matrix: (Units=GPa)
#
#
# Indices 1 2 3 4 5 6 
#
# 1 166.4476 44.4234 85.6749 0.0000 12.1556 0.0000
# 2 44.4234 150.9550 73.0550 0.0000 -18.8445 0.0000
# 3 85.6749 73.0550 141.2728 0.0000 -31.8749 0.0000
# 4 0.0000 0.0000 0.0000 39.5851 0.0000 -4.3906
# 5 12.1556 -18.8445 -31.8749 0.0000 43.1090 0.0000
# 6 0.0000 0.0000 0.0000 -4.3906 0.0000 24.2721
#
#
#
# Elastic Compliance Matrix: (Units=1/GPa)
#
#
# Indices 1 2 3 4 5 6 
#
# 1 0.011515 -0.000223 -0.009149 0.000000 -0.010109 0.000000
# 2 -0.000223 0.008852 -0.004267 0.000000 0.000777 0.000000
# 3 -0.009149 -0.004267 0.017997 0.000000 0.014021 0.000000
# 4 0.000000 0.000000 0.000000 0.025779 0.000000 0.004663
# 5 -0.010109 0.000777 0.014021 0.000000 0.036755 0.000000
# 6 0.000000 0.000000 0.000000 0.004663 0.000000 0.042043
#
#
# Mechanical properties :
#
#
# Convention : Reuss Voigt Hill
#
# Bulk Modulus (GPa) = 90.19973 96.10912 93.15443
# Shear Modulus (GPa) = 28.75002 38.42807 33.58904
#
# Velocity S-wave (km/s) = 3.61847 4.18341 3.91116
# Velocity P-wave (km/s) = 7.65092 8.19174 7.92595
#
# Compressibility (1/GPa) = 0.01108651
#
# Stress axis : x y z
#
# Youngs Moduli (GPa) = 86.84601 112.96634 55.56570
#
# Poissons Ratio (x) = 0.02520 0.50834
# Poissons Ratio (y) = 0.01937 0.23710
# Poissons Ratio (z) = 0.79451 0.48202
#
# Static dielectric constant tensor:
#      x y z
#    x 4.150100 0.000000 -0.025940 
#    y 0.000000 3.880490 0.000000 
#    z -0.025940 0.000000 4.304920 
# 
# 
# High freq. dielectric constant tensor:
#      x y z
#    x 1.871770 0.000000 -0.002560 
#    y 0.000000 1.871660 0.000000 
#    z -0.002560 0.000000 1.874430 
# 
# From -- ./inp_files/49421.got.cif
#   From: 2010.03.12/outbox.cif.g09.slc.cpg/sg14_25_cif.got.tgz:49421.got - 2010.03.31 13:35:05.
