data_PCOD8129046
_publ_section_title
;
Structure prediction by ZEFSAII (Michael W. Deem and Ramdas Pophale) SiO2 
 PCOD8129046
Probable space group: P 21/C
;
_chemical_formula_sum "Si O2"
_cell_formula_units_Z 24
_cell_length_a 20.020636
_cell_length_b 8.968534
_cell_length_c 8.614950
_cell_angle_alpha 90.000000
_cell_angle_beta 139.817561
_cell_angle_gamma 90.000000
_cell_volume 998.072993
_symmetry_space_group_name_H-M "P 21/C"
_symmetry_group_IT_number 14
_symmetry_cell_setting 'monoclinic'
loop_
_space_group_symop_operation_xyz
x,y,z
-x,1/2+y,1/2-z
-x,-y,-z
x,1/2-y,1/2+z
loop_
_atom_site_type_symbol
_atom_site_label
_atom_site_fract_x
_atom_site_fract_y
_atom_site_fract_z
Si Si1 0.126314 0.117958 0.813559
Si Si2 0.223498 0.618544 0.962999
Si Si3 0.554426 0.626973 0.400665
Si Si4 0.749584 0.672689 0.169839
Si Si5 0.428657 0.691958 0.466012
Si Si6 0.103579 0.845428 0.558446
O O1 0.158936 0.225224 0.732363
O O2 0.017904 0.178766 0.690217
O O3 0.115500 0.952314 0.727630
O O4 0.213882 0.110641 0.100104
O O5 0.269277 0.460988 0.985896
O O6 0.158404 0.691617 0.707434
O O7 0.153070 0.589909 0.989253
O O8 0.321669 0.720699 0.184850
O O9 0.646181 0.732451 0.506310
O O10 0.525838 0.665534 0.526110
O O11 0.584096 0.452478 0.442302
O O12 0.454352 0.662289 0.114540
#
# Coordination Sequence:
#
# PCOD8129046 Si02
#       6
#     4   4   4   4   4   4
#     4  11  24  42  66  99 137 177 223 278 334 397
#     4  12  25  44  69  98 134 177 226 278 336 404
#     4  11  24  43  67  98 132 172 222 275 332 397
#     4  12  24  42  69  97 134 177 221 279 339 398
#     4  11  24  43  67  97 134 173 222 275 331 403
#     4  11  25  43  66  99 135 176 228 276 332 400
#
# _framework density 24.046339
#
# number of rings (size 3 to 8) (size 9 to 14) (size 15 to 20)
#    0.000    0.667    0.000    9.000    0.000    7.333 
#    0.000    0.000    0.000    0.000    0.000    0.000 
#    0.000    0.000    0.000    0.000    0.000    0.000 
#
# Total GULP energy -297761.930371 kJ/mol
# GULP energy per Si atom -12406.747099 kJ/mol
# Density = 2.399161 g / cm^3
# Si number density = 24.046339 Si / 1000 Ang^3
#
#
#
# Elastic Constant Matrix: (Units=GPa)
#
#
# Indices 1 2 3 4 5 6 
#
# 1 125.5145 26.3782 20.2934 0.0000 5.5392 0.0000
# 2 26.3782 53.3984 7.9022 0.0000 5.2643 0.0000
# 3 20.2934 7.9022 93.6372 0.0000 5.1881 0.0000
# 4 0.0000 0.0000 0.0000 37.7478 0.0000 -3.7880
# 5 5.5392 5.2643 5.1881 0.0000 33.5640 0.0000
# 6 0.0000 0.0000 0.0000 -3.7880 0.0000 38.4098
#
#
#
# Elastic Compliance Matrix: (Units=1/GPa)
#
#
# Indices 1 2 3 4 5 6 
#
# 1 0.009138 -0.004219 -0.001591 0.000000 -0.000600 0.000000
# 2 -0.004219 0.021167 -0.000733 0.000000 -0.002510 0.000000
# 3 -0.001591 -0.000733 0.011161 0.000000 -0.001348 0.000000
# 4 0.000000 0.000000 0.000000 0.026756 0.000000 0.002639
# 5 -0.000600 -0.002510 -0.001348 0.000000 0.030495 0.000000
# 6 0.000000 0.000000 0.000000 0.002639 0.000000 0.026295
#
#
# Mechanical properties :
#
#
# Convention : Reuss Voigt Hill
#
# Bulk Modulus (GPa) = 35.23657 42.41087 38.82372
# Shear Modulus (GPa) = 33.88483 36.47607 35.18045
#
# Velocity S-wave (km/s) = 3.75793 3.89897 3.82910
# Velocity P-wave (km/s) = 5.78920 6.15993 5.97744
#
# Compressibility (1/GPa) = 0.02837961
#
# Stress axis : x y z
#
# Youngs Moduli (GPa) = 109.43722 47.24254 89.59899
#
# Poissons Ratio (x) = 0.19933 0.14255
# Poissons Ratio (y) = 0.46174 0.06566
# Poissons Ratio (z) = 0.17412 0.03462
#
# Static dielectric constant tensor:
#      x y z
#    x 4.418490 0.000000 0.071050 
#    y 0.000000 4.163170 0.000000 
#    z 0.071050 0.000000 4.217220 
# 
# 
# High freq. dielectric constant tensor:
#      x y z
#    x 1.967330 0.000000 0.002740 
#    y 0.000000 1.941600 0.000000 
#    z 0.002740 0.000000 1.962330 
# 
# From -- ./inp_files/18677.got.cif
#   From: 2010.03.12/outbox.cif.g09.slc.cpg/sg14_10_cif.got.tgz:18677.got - 2010.03.31 13:35:05.
