data_PCOD8129905
_publ_section_title
;
Structure prediction by ZEFSAII (Michael W. Deem and Ramdas Pophale) SiO2 
 PCOD8129905
Probable space group: C 2/C
;
_chemical_formula_sum "Si O2"
_cell_formula_units_Z 60
_cell_length_a 17.394870
_cell_length_b 11.888203
_cell_length_c 29.566484
_cell_angle_alpha 90.000000
_cell_angle_beta 152.222549
_cell_angle_gamma 90.000000
_cell_volume 2849.435646
_symmetry_space_group_name_H-M "C 2/C"
_symmetry_group_IT_number 15
_symmetry_cell_setting 'monoclinic'
loop_
_space_group_symop_operation_xyz
x,y,z
-x,y,1/2-z
-x,-y,-z
x,-y,1/2+z
1/2+x,1/2+y,z
1/2-x,1/2+y,1/2-z
1/2-x,1/2-y,-z
1/2+x,1/2-y,1/2+z
loop_
_atom_site_type_symbol
_atom_site_label
_atom_site_fract_x
_atom_site_fract_y
_atom_site_fract_z
Si Si1 0.725538 0.519737 0.648888
Si Si2 0.991932 0.753998 0.654042
Si Si3 0.859971 0.161106 0.532830
Si Si4 0.500000 0.852187 0.250000
Si Si5 0.239396 0.125574 0.748690
Si Si6 0.241256 0.570894 0.006289
Si Si7 0.987271 0.586941 0.952901
Si Si8 0.431376 0.680911 0.471493
O O1 0.847920 0.561362 0.673220
O O2 0.785186 0.538543 0.731776
O O3 0.565222 0.593579 0.558558
O O4 0.692728 0.386481 0.626173
O O5 0.029169 0.736809 0.725549
O O6 0.855036 0.658555 0.574520
O O7 0.923598 0.879059 0.610618
O O8 0.154319 0.738467 0.707380
O O9 0.750000 0.250000 0.500000
O O10 0.845885 0.209780 0.474555
O O11 0.045867 0.154907 0.650476
O O12 0.769212 0.041921 0.492422
O O13 0.313434 0.076484 0.834594
O O14 0.141456 0.557269 0.001127
O O15 0.003391 0.711987 0.982502
O O16 0.000000 0.500000 0.000000
#
# Coordination Sequence:
#
# PCOD8129905 Si02
#       8
#     8   8   8   4   8   8   8   8
#     4   9  19  37  62  94 123 160 213 270 327 386
#     4   9  19  37  62  94 123 160 213 270 327 386
#     4  11  23  44  63  94 132 178 217 270 337 409
#     4  10  16  32  56 100 128 152 210 272 322 378
#     4   9  22  41  61  94 127 170 218 268 335 400
#     4  10  21  40  65  89 125 170 212 268 330 398
#     4  11  23  44  63  94 132 178 217 270 337 409
#     4  10  21  40  65  89 125 170 212 268 330 398
#
# _framework density 21.056801
#
# number of rings (size 3 to 8) (size 9 to 14) (size 15 to 20)
#    0.000    2.133    0.000    2.400    0.000    8.533 
#   28.800    1.333    0.000    0.000    0.000    0.000 
#    0.000    0.000    0.000    0.000    0.000    0.000 
#
# Total GULP energy -371700.839799 kJ/mol
# GULP energy per Si atom -12390.027993 kJ/mol
# Density = 2.100887 g / cm^3
# Si number density = 21.056801 Si / 1000 Ang^3
#
#
#
# Elastic Constant Matrix: (Units=GPa)
#
#
# Indices 1 2 3 4 5 6 
#
# 1 93.1755 9.1012 28.1991 0.0000 -2.6468 0.0000
# 2 9.1012 65.3842 18.4478 0.0001 -2.8001 0.0000
# 3 28.1991 18.4478 77.8109 -0.0001 -10.7123 0.0004
# 4 0.0000 0.0001 -0.0001 22.8291 0.0000 12.3737
# 5 -2.6468 -2.8001 -10.7123 0.0000 39.2470 0.0001
# 6 0.0000 0.0000 0.0004 12.3737 0.0001 1.7867
#
#
#
# Elastic Compliance Matrix: (Units=1/GPa)
#
#
# Indices 1 2 3 4 5 6 
#
# 1 0.012074 -0.000480 -0.004317 0.000000 -0.000398 0.000000
# 2 -0.000480 0.016410 -0.003699 0.000000 0.000129 -0.000001
# 3 -0.004317 -0.003699 0.015811 -0.000001 0.003760 0.000002
# 4 0.000000 0.000000 -0.000001 -0.015907 0.000000 0.110165
# 5 -0.000398 0.000129 0.003760 0.000000 0.026488 0.000001
# 6 0.000000 -0.000001 0.000002 0.110165 0.000001 -0.203251
#
#
# Mechanical properties :
#
#
# Convention : Reuss Voigt Hill
#
# Bulk Modulus (GPa) = 36.62458 38.65188 37.63823
# Shear Modulus (GPa) = -40.88909 24.81406 -8.03751
#
# Velocity S-wave (km/s) = -4.41142 3.43656 -1.95585
# Velocity P-wave (km/s) = 2.91831 5.84315 3.57952
#
# Compressibility (1/GPa) = 0.02730407
#
# Stress axis : x y z
#
# Youngs Moduli (GPa) = 82.81931 60.93780 63.24779
#
# Poissons Ratio (x) = 0.02924 0.27304
# Poissons Ratio (y) = 0.03973 0.23395
# Poissons Ratio (z) = 0.35753 0.22541
#
# Static dielectric constant tensor:
#      x y z
#    x -1.895390 0.000050 2.198820 
#    y 0.000050 4.515170 -0.000030 
#    z 2.198820 -0.000030 3.202700 
# 
# 
# High freq. dielectric constant tensor:
#      x y z
#    x 1.837760 0.000000 -0.002940 
#    y 0.000000 1.807770 0.000000 
#    z -0.002940 0.000000 1.820710 
# 
# From -- ./inp_files/316076.got.cif
#   From: 2010.06.25/outbox.cif.g09.slc.cpg/sg15_159_cif.got.tgz:316076.got - 2010.06.28 07:06:18.
