data_PCOD8129040
_publ_section_title
;
Structure prediction by ZEFSAII (Michael W. Deem and Ramdas Pophale) SiO2 
 PCOD8129040
Probable space group: P 21/C
;
_chemical_formula_sum "Si O2"
_cell_formula_units_Z 28
_cell_length_a 8.474871
_cell_length_b 8.793409
_cell_length_c 17.326669
_cell_angle_alpha 90.000000
_cell_angle_beta 85.764924
_cell_angle_gamma 90.000000
_cell_volume 1287.709697
_symmetry_space_group_name_H-M "P 21/C"
_symmetry_group_IT_number 14
_symmetry_cell_setting 'monoclinic'
loop_
_space_group_symop_operation_xyz
x,y,z
-x,1/2+y,1/2-z
-x,-y,-z
x,1/2-y,1/2+z
loop_
_atom_site_type_symbol
_atom_site_label
_atom_site_fract_x
_atom_site_fract_y
_atom_site_fract_z
Si Si1 0.456144 0.906881 0.282258
Si Si2 0.974643 0.832296 0.104550
Si Si3 0.003183 0.651484 0.327039
Si Si4 0.725361 0.788067 0.729179
Si Si5 0.597004 0.949501 0.422918
Si Si6 0.065051 0.349027 0.039152
Si Si7 0.758602 0.196971 0.311705
O O1 0.631125 0.872376 0.240785
O O2 0.475576 0.853881 0.372406
O O3 0.327317 0.812331 0.241772
O O4 0.407835 0.083550 0.279406
O O5 0.842293 0.732838 0.153276
O O6 0.149369 0.784226 0.124467
O O7 0.952495 0.795420 0.015749
O O8 0.965255 0.011273 0.117572
O O9 0.823880 0.666616 0.302087
O O10 0.030651 0.804994 0.378454
O O11 0.114335 0.620304 0.249826
O O12 0.750823 0.862633 0.446540
O O13 0.500000 0.000000 0.500000
O O14 0.644164 0.083134 0.360808
O O15 0.000000 0.500000 0.000000
#
# Coordination Sequence:
#
# PCOD8129040 Si02
#       7
#     4   4   4   4   4   4   4
#     4  12  23  43  68 101 141 186 239 291 368 440
#     4  11  24  44  68 101 139 182 241 295 362 417
#     4  11  25  44  70 103 139 182 245 299 352 425
#     4  11  24  41  71 102 139 186 236 300 351 435
#     4  12  26  45  66 106 148 187 236 299 373 445
#     4  12  26  43  70 100 142 188 235 298 368 433
#     4  11  25  41  73 101 133 186 244 298 353 428
#
# _framework density 21.744029999999999
#
# number of rings (size 3 to 8) (size 9 to 14) (size 15 to 20)
#    0.000    0.571    5.714    2.143    6.000    0.000 
#    0.000    0.000    0.000    3.429    0.000    0.000 
#    0.000    0.000    0.000    0.000    0.000    0.000 
#
# Total GULP energy -346901.777692 kJ/mol
# GULP energy per Si atom -12389.349203 kJ/mol
# Density = 2.169454 g / cm^3
# Si number density = 21.744030 Si / 1000 Ang^3
#
#
#
# Elastic Constant Matrix: (Units=GPa)
#
#
# Indices 1 2 3 4 5 6 
#
# 1 103.8773 39.6843 56.9409 0.0000 8.9197 0.0000
# 2 39.6843 77.6959 35.2003 0.0000 7.0678 0.0000
# 3 56.9409 35.2003 141.2662 0.0000 12.6927 0.0000
# 4 0.0000 0.0000 0.0000 45.6422 0.0000 8.7051
# 5 8.9197 7.0678 12.6927 0.0000 37.9542 0.0000
# 6 0.0000 0.0000 0.0000 8.7051 0.0000 38.7134
#
#
#
# Elastic Compliance Matrix: (Units=1/GPa)
#
#
# Indices 1 2 3 4 5 6 
#
# 1 0.014017 -0.005134 -0.004289 0.000000 -0.000904 0.000000
# 2 -0.005134 0.016477 -0.001927 0.000000 -0.001217 0.000000
# 3 -0.004289 -0.001927 0.009449 0.000000 -0.001793 0.000000
# 4 0.000000 0.000000 0.000000 0.022891 0.000000 -0.005147
# 5 -0.000904 -0.001217 -0.001793 0.000000 0.027386 0.000000
# 6 0.000000 0.000000 0.000000 -0.005147 0.000000 0.026988
#
#
# Mechanical properties :
#
#
# Convention : Reuss Voigt Hill
#
# Bulk Modulus (GPa) = 57.99711 65.16559 61.58135
# Shear Modulus (GPa) = 34.32748 37.19624 35.76186
#
# Velocity S-wave (km/s) = 3.97761 4.14048 4.05986
# Velocity P-wave (km/s) = 6.91561 7.27273 7.09642
#
# Compressibility (1/GPa) = 0.01724224
#
# Stress axis : x y z
#
# Youngs Moduli (GPa) = 71.34254 60.69224 105.83078
#
# Poissons Ratio (x) = 0.31158 0.45395
# Poissons Ratio (y) = 0.36626 0.20393
# Poissons Ratio (z) = 0.30602 0.11695
#
# Static dielectric constant tensor:
#      x y z
#    x 4.121850 0.000000 0.276160 
#    y 0.000000 3.816020 0.000000 
#    z 0.276160 0.000000 4.201410 
# 
# 
# High freq. dielectric constant tensor:
#      x y z
#    x 1.866230 0.000000 0.022940 
#    y 0.000000 1.842840 0.000000 
#    z 0.022940 0.000000 1.865570 
# 
# From -- ./inp_files/54868.got.cif
#   From: 2010.03.12/outbox.cif.g09.slc.cpg/sg14_28_cif.got.tgz:54868.got - 2010.03.31 13:35:05.
