data_PCOD8129868
_publ_section_title
;
Structure prediction by ZEFSAII (Michael W. Deem and Ramdas Pophale) SiO2 
 PCOD8129868
Probable space group: C 2/C
;
_chemical_formula_sum "Si O2"
_cell_formula_units_Z 40
_cell_length_a 25.367081
_cell_length_b 13.057606
_cell_length_c 10.502063
_cell_angle_alpha 90.000000
_cell_angle_beta 147.406718
_cell_angle_gamma 90.000000
_cell_volume 1873.842474
_symmetry_space_group_name_H-M "C 2/C"
_symmetry_group_IT_number 15
_symmetry_cell_setting 'monoclinic'
loop_
_space_group_symop_operation_xyz
x,y,z
-x,y,1/2-z
-x,-y,-z
x,-y,1/2+z
1/2+x,1/2+y,z
1/2-x,1/2+y,1/2-z
1/2-x,1/2-y,-z
1/2+x,1/2-y,1/2+z
loop_
_atom_site_type_symbol
_atom_site_label
_atom_site_fract_x
_atom_site_fract_y
_atom_site_fract_z
Si Si1 0.614206 0.796459 0.505964
Si Si2 0.597194 0.107427 0.735761
Si Si3 0.068080 0.613479 0.273691
Si Si4 0.716315 0.401760 0.282030
Si Si5 0.767820 0.479997 0.647079
O O1 0.653532 0.809616 0.438778
O O2 0.632306 0.682299 0.592996
O O3 0.668224 0.877743 0.705971
O O4 0.500000 0.819905 0.250000
O O5 0.490164 0.149030 0.472693
O O6 0.583371 0.009133 0.800973
O O7 0.659041 0.074534 0.737178
O O8 0.178278 0.658233 0.505485
O O9 0.000000 0.650169 0.250000
O O10 0.699560 0.459025 0.383723
O O11 0.707866 0.485726 0.150228
#
# Coordination Sequence:
#
# PCOD8129868 Si02
#       5
#     8   8   8   8   8
#     4  12  23  39  63  91 122 162 205 247 297 364
#     4  10  18  31  61  88 119 149 195 248 304 349
#     4  10  16  31  54  88 118 150 184 249 306 345
#     4  11  24  37  62  94 124 157 205 249 302 357
#     4  11  21  41  62  92 125 156 195 257 308 354
#
# _framework density 21.346512000000001
#
# number of rings (size 3 to 8) (size 9 to 14) (size 15 to 20)
#    0.000    1.200    6.000    4.800    0.000    0.800 
#    0.000    1.000    0.000    1.200    0.000    0.000 
#    0.000    0.000    0.000    0.000    0.000    0.000 
#
# Total GULP energy -247767.135348 kJ/mol
# GULP energy per Si atom -12388.356767 kJ/mol
# Density = 2.129793 g / cm^3
# Si number density = 21.346512 Si / 1000 Ang^3
#
#
#
# Elastic Constant Matrix: (Units=GPa)
#
#
# Indices 1 2 3 4 5 6 
#
# 1 57.3706 16.5611 25.6885 0.0000 -31.3011 0.0000
# 2 16.5611 64.0305 37.9052 0.0000 -16.8914 0.0000
# 3 25.6885 37.9052 72.0017 0.0000 -28.2857 0.0000
# 4 0.0000 0.0000 0.0000 36.2944 0.0000 -2.3381
# 5 -31.3011 -16.8914 -28.2857 0.0000 33.9047 0.0000
# 6 0.0000 0.0000 0.0000 -2.3381 0.0000 18.7156
#
#
#
# Elastic Compliance Matrix: (Units=1/GPa)
#
#
# Indices 1 2 3 4 5 6 
#
# 1 0.035164 -0.000942 0.000772 0.000000 0.032639 0.000000
# 2 -0.000942 0.022804 -0.011227 0.000000 0.001125 0.000000
# 3 0.000772 -0.011227 0.026190 0.000000 0.016969 0.000000
# 4 0.000000 0.000000 0.000000 0.027776 0.000000 0.003470
# 5 0.032639 0.001125 0.016969 0.000000 0.074344 0.000000
# 6 0.000000 0.000000 0.000000 0.003470 0.000000 0.053865
#
#
# Mechanical properties :
#
#
# Convention : Reuss Voigt Hill
#
# Bulk Modulus (GPa) = 16.29612 39.30140 27.79876
# Shear Modulus (GPa) = 17.64339 25.33282 21.48810
#
# Velocity S-wave (km/s) = 2.87805 3.44865 3.17619
# Velocity P-wave (km/s) = 4.32376 5.85736 5.14799
#
# Compressibility (1/GPa) = 0.06136429
#
# Stress axis : x y z
#
# Youngs Moduli (GPa) = 28.43789 43.85115 38.18278
#
# Poissons Ratio (x) = 0.04131 -0.02948
# Poissons Ratio (y) = 0.02679 0.42869
# Poissons Ratio (z) = -0.02196 0.49233
#
# Static dielectric constant tensor:
#      x y z
#    x 3.857030 0.000000 -0.517040 
#    y 0.000000 3.239150 0.000000 
#    z -0.517040 0.000000 4.095160 
# 
# 
# High freq. dielectric constant tensor:
#      x y z
#    x 1.836140 0.000000 -0.050220 
#    y 0.000000 1.771540 0.000000 
#    z -0.050220 0.000000 1.837590 
# 
# From -- ./inp_files/126655.got.cif
#   From: 2010.06.25/outbox.cif.g09.slc.cpg/sg15_64_cif.got.tgz:126655.got - 2010.06.28 07:06:18.
