data_PCOD8129791
_publ_section_title
;
Structure prediction by ZEFSAII (Michael W. Deem and Ramdas Pophale) SiO2 
 PCOD8129791
Probable space group: C 2/C
;
_chemical_formula_sum "Si O2"
_cell_formula_units_Z 56
_cell_length_a 18.010024
_cell_length_b 28.534083
_cell_length_c 9.510897
_cell_angle_alpha 90.000000
_cell_angle_beta 43.342655
_cell_angle_gamma 90.000000
_cell_volume 3354.684140
_symmetry_space_group_name_H-M "C 2/C"
_symmetry_group_IT_number 15
_symmetry_cell_setting 'monoclinic'
loop_
_space_group_symop_operation_xyz
x,y,z
-x,y,1/2-z
-x,-y,-z
x,-y,1/2+z
1/2+x,1/2+y,z
1/2-x,1/2+y,1/2-z
1/2-x,1/2-y,-z
1/2+x,1/2-y,1/2+z
loop_
_atom_site_type_symbol
_atom_site_label
_atom_site_fract_x
_atom_site_fract_y
_atom_site_fract_z
Si Si1 0.665734 0.196108 0.227851
Si Si2 0.787422 0.833498 0.285732
Si Si3 0.478645 0.717480 0.622326
Si Si4 0.078077 0.516144 0.513173
Si Si5 0.344384 0.080043 0.556490
Si Si6 0.936798 0.398133 0.625459
Si Si7 0.708131 0.749825 0.216371
O O1 0.599708 0.238141 0.248387
O O2 0.585836 0.154977 0.387291
O O3 0.726024 0.211901 0.285047
O O4 0.747908 0.177353 0.997945
O O5 0.916248 0.822132 0.114089
O O6 0.763911 0.888053 0.275653
O O7 0.724187 0.801299 0.260667
O O8 0.500000 0.697998 0.750000
O O9 0.583402 0.733796 0.391764
O O10 0.173004 0.476665 0.405408
O O11 0.122399 0.567289 0.406471
O O12 0.000000 0.521656 0.750000
O O13 0.000000 0.500000 0.500000
O O14 0.433229 0.095545 0.550092
O O15 0.390039 0.090329 0.341117
O O16 0.750000 0.750000 0.000000
#
# Coordination Sequence:
#
# PCOD8129791 Si02
#       7
#     8   8   8   8   8   8   8
#     4  10  19  32  51  73  96 134 177 203 247 307
#     4  10  19  32  53  73  94 136 178 205 246 307
#     4  11  18  33  55  70  97 136 174 213 247 300
#     4  10  16  30  45  68 100 134 162 201 259 313
#     4   9  16  29  48  70  96 128 168 204 244 309
#     4   9  17  28  46  69  99 131 165 207 249 304
#     4  11  22  35  47  74 107 129 169 217 260 298
#
# _framework density 16.693076000000001
#
# number of rings (size 3 to 8) (size 9 to 14) (size 15 to 20)
#    0.000    2.000    5.714    1.714    2.000    2.286 
#    7.714    0.000    0.000    0.000    0.000    1.000 
#    0.000    0.286    0.000    0.429    0.000    0.000 
#
# Total GULP energy -346903.285804 kJ/mol
# GULP energy per Si atom -12389.403064 kJ/mol
# Density = 1.665508 g / cm^3
# Si number density = 16.693076 Si / 1000 Ang^3
#
#
#
# Elastic Constant Matrix: (Units=GPa)
#
#
# Indices 1 2 3 4 5 6 
#
# 1 73.8019 36.4571 27.4913 0.0000 -2.5081 0.0000
# 2 36.4571 102.6243 2.5741 0.0000 -2.1930 0.0000
# 3 27.4913 2.5741 53.7635 0.0000 3.3422 0.0000
# 4 0.0000 0.0000 0.0000 15.9257 0.0000 -4.3515
# 5 -2.5081 -2.1930 3.3422 0.0000 28.2061 0.0000
# 6 0.0000 0.0000 0.0000 -4.3515 0.0000 29.0678
#
#
#
# Elastic Compliance Matrix: (Units=1/GPa)
#
#
# Indices 1 2 3 4 5 6 
#
# 1 0.021150 -0.007192 -0.010631 0.000000 0.002581 0.000000
# 2 -0.007192 0.012220 0.003096 0.000000 -0.000056 0.000000
# 3 -0.010631 0.003096 0.024109 0.000000 -0.003561 0.000000
# 4 0.000000 0.000000 0.000000 0.065470 0.000000 0.009801
# 5 0.002581 -0.000056 -0.003561 0.000000 0.036100 0.000000
# 6 0.000000 0.000000 0.000000 0.009801 0.000000 0.035869
#
#
# Mechanical properties :
#
#
# Convention : Reuss Voigt Hill
#
# Bulk Modulus (GPa) = 35.68145 40.35942 38.02043
# Shear Modulus (GPa) = 21.39357 25.55107 23.47232
#
# Velocity S-wave (km/s) = 3.58381 3.91658 3.75388
# Velocity P-wave (km/s) = 6.20857 6.68451 6.45093
#
# Compressibility (1/GPa) = 0.02802577
#
# Stress axis : x y z
#
# Youngs Moduli (GPa) = 47.28093 81.83119 41.47795
#
# Poissons Ratio (x) = 0.58851 0.44095
# Poissons Ratio (y) = 0.34003 -0.12841
# Poissons Ratio (z) = 0.50264 -0.25333
#
# Static dielectric constant tensor:
#      x y z
#    x 3.307300 0.000000 -0.028500 
#    y 0.000000 3.445320 0.000000 
#    z -0.028500 0.000000 2.954910 
# 
# 
# High freq. dielectric constant tensor:
#      x y z
#    x 1.633880 0.000000 0.015670 
#    y 0.000000 1.640360 0.000000 
#    z 0.015670 0.000000 1.606870 
# 
# From -- ./inp_files/44318.got.cif
#   From: 2010.06.25/outbox.cif.g09.slc.cpg/sg15_23_cif.got.tgz:44318.got - 2010.06.28 07:06:18.
