data_PCOD8129367
_publ_section_title
;
Structure prediction by ZEFSAII (Michael W. Deem and Ramdas Pophale) SiO2 
 PCOD8129367
Probable space group: P 21/C
;
_chemical_formula_sum "Si O2"
_cell_formula_units_Z 28
_cell_length_a 9.049690
_cell_length_b 20.274822
_cell_length_c 8.940292
_cell_angle_alpha 90.000000
_cell_angle_beta 131.756305
_cell_angle_gamma 90.000000
_cell_volume 1223.691728
_symmetry_space_group_name_H-M "P 21/C"
_symmetry_group_IT_number 14
_symmetry_cell_setting 'monoclinic'
loop_
_space_group_symop_operation_xyz
x,y,z
-x,1/2+y,1/2-z
-x,-y,-z
x,1/2-y,1/2+z
loop_
_atom_site_type_symbol
_atom_site_label
_atom_site_fract_x
_atom_site_fract_y
_atom_site_fract_z
Si Si1 0.187113 0.967986 0.056370
Si Si2 0.921545 0.357392 0.738658
Si Si3 0.644229 0.816437 0.514524
Si Si4 0.957754 0.432284 0.052101
Si Si5 0.372243 0.058699 0.981195
Si Si6 0.489575 0.687887 0.569446
Si Si7 0.401059 0.930550 0.466172
O O1 0.127547 0.928914 0.866587
O O2 0.342409 0.029845 0.129715
O O3 0.273689 0.915518 0.230576
O O4 0.000000 0.000000 0.000000
O O5 0.748801 0.304253 0.584184
O O6 0.121169 0.324879 0.812024
O O7 0.948664 0.370797 0.932936
O O8 0.589918 0.746784 0.548588
O O9 0.554389 0.870358 0.568417
O O10 0.577848 0.822748 0.295432
O O11 0.744502 0.433156 0.990107
O O12 0.147014 0.424279 0.284048
O O13 0.000000 0.500000 0.000000
O O14 0.491005 0.124853 0.028680
O O15 0.500000 0.000000 0.000000
O O16 0.500000 0.000000 0.500000
#
# Coordination Sequence:
#
# PCOD8129367 Si02
#       7
#     4   4   4   4   4   4   4
#     4  12  23  43  72 111 146 188 239 306 369 427
#     4  12  26  49  75 103 152 195 247 307 369 446
#     4  12  29  52  74 110 146 199 250 306 373 451
#     4  12  23  42  71 111 149 194 238 304 373 430
#     4  12  23  43  75 106 146 191 242 300 367 440
#     4  12  29  50  76 106 150 192 252 304 374 442
#     4  12  27  44  74 111 151 187 252 308 363 444
#
# _framework density 22.881581000000001
#
# number of rings (size 3 to 8) (size 9 to 14) (size 15 to 20)
#    0.000    0.000    7.143    1.714    6.000    3.429 
#    0.000    0.000    0.000    0.000    0.000    0.000 
#    0.000    0.000    0.000    0.000    0.000    0.000 
#
# Total GULP energy -346913.618204 kJ/mol
# GULP energy per Si atom -12389.772079 kJ/mol
# Density = 2.282950 g / cm^3
# Si number density = 22.881581 Si / 1000 Ang^3
#
#
#
# Elastic Constant Matrix: (Units=GPa)
#
#
# Indices 1 2 3 4 5 6 
#
# 1 191.9360 72.0103 30.4504 0.0000 19.5696 0.0000
# 2 72.0103 136.2269 14.5403 0.0000 4.5974 0.0000
# 3 30.4504 14.5403 36.7081 0.0000 12.8519 0.0000
# 4 0.0000 0.0000 0.0000 24.8974 0.0000 -0.1861
# 5 19.5696 4.5974 12.8519 0.0000 48.8565 0.0000
# 6 0.0000 0.0000 0.0000 -0.1861 0.0000 52.9040
#
#
#
# Elastic Compliance Matrix: (Units=1/GPa)
#
#
# Indices 1 2 3 4 5 6 
#
# 1 0.007286 -0.003354 -0.004190 0.000000 -0.001501 0.000000
# 2 -0.003354 0.009209 -0.001137 0.000000 0.000776 0.000000
# 3 -0.004190 -0.001137 0.033642 0.000000 -0.007064 0.000000
# 4 0.000000 0.000000 0.000000 0.040166 0.000000 0.000141
# 5 -0.001501 0.000776 -0.007064 0.000000 0.022854 0.000000
# 6 0.000000 0.000000 0.000000 0.000141 0.000000 0.018903
#
#
# Mechanical properties :
#
#
# Convention : Reuss Voigt Hill
#
# Bulk Modulus (GPa) = 30.51207 66.54144 48.52675
# Shear Modulus (GPa) = 31.18257 41.85627 36.51942
#
# Velocity S-wave (km/s) = 3.69559 4.28162 3.99935
# Velocity P-wave (km/s) = 5.61904 7.32031 6.52536
#
# Compressibility (1/GPa) = 0.03277392
#
# Stress axis : x y z
#
# Youngs Moduli (GPa) = 137.24917 108.59410 29.72512
#
# Poissons Ratio (x) = 0.36417 0.12455
# Poissons Ratio (y) = 0.46027 0.03381
# Poissons Ratio (z) = 0.57510 0.12351
#
# Static dielectric constant tensor:
#      x y z
#    x 4.076760 0.000000 0.139540 
#    y 0.000000 3.892050 0.000000 
#    z 0.139540 0.000000 4.519240 
# 
# 
# High freq. dielectric constant tensor:
#      x y z
#    x 1.930360 0.000000 0.010030 
#    y 0.000000 1.881830 0.000000 
#    z 0.010030 0.000000 1.918350 
# 
# From -- ./inp_files/10437.got.cif
#   From: 2010.03.12/outbox.cif.g09.slc.cpg/sg14_6_cif.got.tgz:10437.got - 2010.03.31 13:35:05.
