data_PCOD8129206
_publ_section_title
;
Structure prediction by ZEFSAII (Michael W. Deem and Ramdas Pophale) SiO2 
 PCOD8129206
Probable space group: P 21/C
;
_chemical_formula_sum "Si O2"
_cell_formula_units_Z 20
_cell_length_a 16.344295
_cell_length_b 5.195526
_cell_length_c 10.127900
_cell_angle_alpha 90.000000
_cell_angle_beta 75.799608
_cell_angle_gamma 90.000000
_cell_volume 833.753556
_symmetry_space_group_name_H-M "P 21/C"
_symmetry_group_IT_number 14
_symmetry_cell_setting 'monoclinic'
loop_
_space_group_symop_operation_xyz
x,y,z
-x,1/2+y,1/2-z
-x,-y,-z
x,1/2-y,1/2+z
loop_
_atom_site_type_symbol
_atom_site_label
_atom_site_fract_x
_atom_site_fract_y
_atom_site_fract_z
Si Si1 0.181420 0.595982 0.020454
Si Si2 0.947145 0.813409 0.286006
Si Si3 0.337628 0.215217 0.561821
Si Si4 0.806577 0.484913 0.268917
Si Si5 0.554946 0.840643 0.233032
O O1 0.103072 0.394485 0.059904
O O2 0.270552 0.491961 0.038152
O O3 0.154828 0.833774 0.122214
O O4 0.193908 0.683567 0.864462
O O5 0.870619 0.725179 0.218723
O O6 0.007997 0.569601 0.290695
O O7 0.288965 0.437294 0.661401
O O8 0.382981 0.339464 0.417190
O O9 0.400313 0.090419 0.644970
O O10 0.513361 0.561096 0.264758
#
# Coordination Sequence:
#
# PCOD8129206 Si02
#       5
#     4   4   4   4   4
#     4  11  26  46  77 109 149 204 248 302 372 437
#     4  11  24  50  72 115 150 192 246 315 368 434
#     4  11  26  46  72 109 150 198 246 305 362 456
#     4  11  26  46  77 109 149 204 248 302 372 437
#     4  12  28  48  76 110 148 192 244 306 376 436
#
# _framework density 23.987902999999999
#
# number of rings (size 3 to 8) (size 9 to 14) (size 15 to 20)
#    0.000    0.800    4.000    1.200    8.400    3.200 
#    0.000    0.000    0.000    0.000    0.000    0.000 
#    0.000    0.000    0.000    0.000    0.000    0.000 
#
# Total GULP energy -247844.587471 kJ/mol
# GULP energy per Si atom -12392.229374 kJ/mol
# Density = 2.393331 g / cm^3
# Si number density = 23.987903 Si / 1000 Ang^3
#
#
#
# Elastic Constant Matrix: (Units=GPa)
#
#
# Indices 1 2 3 4 5 6 
#
# 1 99.5625 20.1425 14.0399 0.0000 -27.1345 0.0000
# 2 20.1425 93.2586 5.5105 0.0000 -16.0267 0.0000
# 3 14.0399 5.5105 90.0503 0.0000 -14.5128 0.0000
# 4 0.0000 0.0000 0.0000 28.2679 0.0000 2.6235
# 5 -27.1345 -16.0267 -14.5128 0.0000 16.9164 0.0000
# 6 0.0000 0.0000 0.0000 2.6235 0.0000 16.4092
#
#
#
# Elastic Compliance Matrix: (Units=1/GPa)
#
#
# Indices 1 2 3 4 5 6 
#
# 1 0.018388 0.001559 0.002355 0.000000 0.032993 0.000000
# 2 0.001559 0.013086 0.001575 0.000000 0.016250 0.000000
# 3 0.002355 0.001575 0.013334 0.000000 0.016709 0.000000
# 4 0.000000 0.000000 0.000000 0.035909 0.000000 -0.005741
# 5 0.032993 0.016250 0.016709 0.000000 0.141766 0.000000
# 6 0.000000 0.000000 0.000000 -0.005741 0.000000 0.061859
#
#
# Mechanical properties :
#
#
# Convention : Reuss Voigt Hill
#
# Bulk Modulus (GPa) = 17.92560 40.25079 29.08819
# Shear Modulus (GPa) = 17.12569 28.53060 22.82814
#
# Velocity S-wave (km/s) = 2.67485 3.45247 3.08823
# Velocity P-wave (km/s) = 4.12659 5.71916 4.98686
#
# Compressibility (1/GPa) = 0.05578615
#
# Stress axis : x y z
#
# Youngs Moduli (GPa) = 54.38278 76.41995 74.99464
#
# Poissons Ratio (x) = -0.11915 -0.17660
# Poissons Ratio (y) = -0.08479 -0.11812
# Poissons Ratio (z) = -0.12806 -0.12036
#
# Static dielectric constant tensor:
#      x y z
#    x 4.497410 0.000000 -0.293380 
#    y 0.000000 4.286120 0.000000 
#    z -0.293380 0.000000 4.287690 
# 
# 
# High freq. dielectric constant tensor:
#      x y z
#    x 1.967060 0.000000 -0.019810 
#    y 0.000000 1.942760 0.000000 
#    z -0.019810 0.000000 1.951330 
# 
# From -- ./inp_files/17237.got.cif
#   From: 2010.03.12/outbox.cif.g09.slc.cpg/sg14_9_cif.got.tgz:17237.got - 2010.03.31 13:35:05.
