data_PCOD8129780
_publ_section_title
;
Structure prediction by ZEFSAII (Michael W. Deem and Ramdas Pophale) SiO2 
 PCOD8129780
Probable space group: C 2/C
;
_chemical_formula_sum "Si O2"
_cell_formula_units_Z 64
_cell_length_a 11.808983
_cell_length_b 16.439841
_cell_length_c 25.653661
_cell_angle_alpha 90.000000
_cell_angle_beta 42.659478
_cell_angle_gamma 90.000000
_cell_volume 3374.879938
_symmetry_space_group_name_H-M "C 2/C"
_symmetry_group_IT_number 15
_symmetry_cell_setting 'monoclinic'
loop_
_space_group_symop_operation_xyz
x,y,z
-x,y,1/2-z
-x,-y,-z
x,-y,1/2+z
1/2+x,1/2+y,z
1/2-x,1/2+y,1/2-z
1/2-x,1/2-y,-z
1/2+x,1/2-y,1/2+z
loop_
_atom_site_type_symbol
_atom_site_label
_atom_site_fract_x
_atom_site_fract_y
_atom_site_fract_z
Si Si1 0.237632 0.459136 0.323770
Si Si2 0.765464 0.639484 0.163729
Si Si3 0.960125 0.355253 0.185346
Si Si4 0.475263 0.325060 0.842632
Si Si5 0.442915 0.426613 0.350142
Si Si6 0.122132 0.808098 0.355462
Si Si7 0.523604 0.547363 0.072604
Si Si8 0.204602 0.068509 0.905831
O O1 0.157232 0.549474 0.356222
O O2 0.102656 0.398827 0.345705
O O3 0.288793 0.421262 0.362444
O O4 0.399274 0.467691 0.232132
O O5 0.690510 0.643936 0.130821
O O6 0.629723 0.655416 0.253662
O O7 0.901259 0.711710 0.126410
O O8 0.046091 0.270806 0.139480
O O9 0.810593 0.335047 0.275589
O O10 0.097199 0.414206 0.165766
O O11 0.504883 0.367668 0.888207
O O12 0.491663 0.336474 0.354851
O O13 0.395051 0.483778 0.414497
O O14 0.095087 0.857314 0.418367
O O15 0.347529 0.512991 0.108852
O O16 0.657668 0.559962 0.981925
#
# Coordination Sequence:
#
# PCOD8129780 Si02
#       8
#     8   8   8   8   8   8   8   8
#     4  10  17  30  53  76  97 129 163 203 251 295
#     4  10  16  29  51  77  97 125 167 204 248 289
#     4  10  20  32  50  76 106 124 159 214 260 282
#     4  10  17  31  50  76 100 128 166 213 242 284
#     4   9  16  31  50  72  95 132 166 196 244 297
#     4   9  18  31  51  72 100 128 163 208 246 290
#     4  10  19  32  52  70 101 134 171 201 238 307
#     4  10  20  33  48  75 100 135 167 201 251 296
#
# _framework density 18.963636999999999
#
# number of rings (size 3 to 8) (size 9 to 14) (size 15 to 20)
#    0.000    2.250    3.750    1.125    0.000    0.500 
#    0.000    1.875    0.000    1.500    0.000    5.250 
#    0.000    0.000    0.000    0.000    0.000    0.000 
#
# Total GULP energy -396600.700346 kJ/mol
# GULP energy per Si atom -12393.771886 kJ/mol
# Density = 1.892048 g / cm^3
# Si number density = 18.963637 Si / 1000 Ang^3
#
#
#
# Elastic Constant Matrix: (Units=GPa)
#
#
# Indices 1 2 3 4 5 6 
#
# 1 93.5523 41.1614 28.1930 -0.0006 24.3420 0.0008
# 2 41.1614 92.1314 19.3981 -0.0014 14.4252 0.0018
# 3 28.1930 19.3981 35.1799 -0.0010 20.8203 0.0013
# 4 -0.0006 -0.0014 -0.0010 11.9402 0.0001 4.4505
# 5 24.3420 14.4252 20.8203 0.0001 27.0905 -0.0003
# 6 0.0008 0.0018 0.0013 4.4505 -0.0003 34.0234
#
#
#
# Elastic Compliance Matrix: (Units=1/GPa)
#
#
# Indices 1 2 3 4 5 6 
#
# 1 0.016719 -0.004982 -0.006110 0.000000 -0.007675 0.000000
# 2 -0.004982 0.013853 -0.003540 0.000001 -0.000180 -0.000001
# 3 -0.006110 -0.003540 0.056698 0.000006 -0.036200 -0.000003
# 4 0.000000 0.000001 0.000006 0.088044 -0.000005 -0.011517
# 5 -0.007675 -0.000180 -0.036200 -0.000005 0.071726 0.000003
# 6 0.000000 -0.000001 -0.000003 -0.011517 0.000003 0.030898
#
#
# Mechanical properties :
#
#
# Convention : Reuss Voigt Hill
#
# Bulk Modulus (GPa) = 17.23926 44.26316 30.75121
# Shear Modulus (GPa) = 15.31222 23.41820 19.36521
#
# Velocity S-wave (km/s) = 2.84465 3.51793 3.19905
# Velocity P-wave (km/s) = 4.46092 6.31608 5.46775
#
# Compressibility (1/GPa) = 0.05800712
#
# Stress axis : x y z
#
# Youngs Moduli (GPa) = 59.81144 72.18568 17.63743
#
# Poissons Ratio (x) = 0.35960 0.10776
# Poissons Ratio (y) = 0.29796 0.06244
# Poissons Ratio (z) = 0.36544 0.25554
#
# Static dielectric constant tensor:
#      x y z
#    x 3.525770 0.000000 0.292660 
#    y 0.000000 3.663840 0.000000 
#    z 0.292660 0.000000 3.078500 
# 
# 
# High freq. dielectric constant tensor:
#      x y z
#    x 1.731600 0.000000 0.033220 
#    y 0.000000 1.738420 0.000000 
#    z 0.033220 0.000000 1.692100 
# 
# From -- ./inp_files/293241.got.cif
#   From: 2010.06.25/outbox.cif.g09.slc.cpg/sg15_147_cif.got.tgz:293241.got - 2010.06.28 07:06:18.
