data_PCOD8129618
_publ_section_title
;
Structure prediction by ZEFSAII (Michael W. Deem and Ramdas Pophale) SiO2 
 PCOD8129618
Probable space group: C 2/C
;
_chemical_formula_sum "Si O2"
_cell_formula_units_Z 60
_cell_length_a 17.274526
_cell_length_b 11.665884
_cell_length_c 25.672434
_cell_angle_alpha 90.000000
_cell_angle_beta 47.710072
_cell_angle_gamma 90.000000
_cell_volume 3827.149754
_symmetry_space_group_name_H-M "C 2/C"
_symmetry_group_IT_number 15
_symmetry_cell_setting 'monoclinic'
loop_
_space_group_symop_operation_xyz
x,y,z
-x,y,1/2-z
-x,-y,-z
x,-y,1/2+z
1/2+x,1/2+y,z
1/2-x,1/2+y,1/2-z
1/2-x,1/2-y,-z
1/2+x,1/2-y,1/2+z
loop_
_atom_site_type_symbol
_atom_site_label
_atom_site_fract_x
_atom_site_fract_y
_atom_site_fract_z
Si Si1 0.304555 0.740204 0.169562
Si Si2 0.002864 0.436409 0.579271
Si Si3 0.202604 0.000000 0.797396
Si Si4 0.500000 0.250000 0.750000
Si Si5 0.570269 0.108720 0.813366
Si Si6 0.303000 0.391280 0.813366
Si Si7 0.643679 0.259796 0.330438
Si Si8 0.661405 0.063591 0.920729
O O1 0.322339 0.604552 0.151718
O O2 0.399010 0.787369 0.162328
O O3 0.193567 0.750000 0.250000
O O4 0.304812 0.810830 0.115584
O O5 0.113291 0.421677 0.500000
O O6 0.013385 0.519644 0.624162
O O7 0.964020 0.310830 0.615584
O O8 0.918828 0.500000 0.581172
O O9 0.179203 0.960165 0.748730
O O10 0.323337 0.039835 0.748730
O O11 0.125775 0.104552 0.848282
O O12 0.507065 0.164529 0.795166
O O13 0.402602 0.335471 0.795166
O O14 0.223665 0.287369 0.837672
O O15 0.261708 0.480356 0.875838
#
# Coordination Sequence:
#
# PCOD8129618 Si02
#       8
#     8   8   8   4   8   8   8   8
#     4   9  14  26  47  71  93 123 165 207 240 276
#     4   9  16  28  47  71  99 131 169 204 241 295
#     4  10  14  28  48  70  98 126 166 208 246 280
#     4  12  20  28  46  82 108 118 156 222 262 284
#     4  10  17  28  46  74 101 126 161 209 248 288
#     4  10  17  28  46  74 101 126 161 209 248 288
#     4   9  14  26  47  71  93 123 165 207 240 276
#     4   9  16  28  47  71  99 131 169 204 241 295
#
# _framework density 15.677462999999999
#
# number of rings (size 3 to 8) (size 9 to 14) (size 15 to 20)
#    0.000    2.400   10.667    0.000    0.000    0.000 
#    0.000    1.333    0.000    3.200    0.000    1.867 
#    0.000    0.000    0.000    0.000    0.000    0.000 
#
# Total GULP energy -371651.619295 kJ/mol
# GULP energy per Si atom -12388.387310 kJ/mol
# Density = 1.564178 g / cm^3
# Si number density = 15.677463 Si / 1000 Ang^3
#
#
#
# Elastic Constant Matrix: (Units=GPa)
#
#
# Indices 1 2 3 4 5 6 
#
# 1 59.3930 33.3553 28.0259 0.0000 1.3870 0.0000
# 2 33.3553 163.2198 65.1496 0.0000 -2.5756 0.0000
# 3 28.0259 65.1496 101.2407 0.0000 -4.7770 0.0000
# 4 0.0000 0.0000 0.0000 26.0286 0.0000 -0.1627
# 5 1.3870 -2.5756 -4.7770 0.0000 7.6217 0.0000
# 6 0.0000 0.0000 0.0000 -0.1627 0.0000 24.0197
#
#
#
# Elastic Compliance Matrix: (Units=1/GPa)
#
#
# Indices 1 2 3 4 5 6 
#
# 1 0.020512 -0.002561 -0.004377 0.000000 -0.007341 0.000000
# 2 -0.002561 0.008566 -0.004787 0.000000 0.000361 0.000000
# 3 -0.004377 -0.004787 0.014561 0.000000 0.008305 0.000000
# 4 0.000000 0.000000 0.000000 0.038421 0.000000 0.000260
# 5 -0.007341 0.000361 0.008305 0.000000 0.137869 0.000000
# 6 0.000000 0.000000 0.000000 0.000260 0.000000 0.041634
#
#
# Mechanical properties :
#
#
# Convention : Reuss Voigt Hill
#
# Bulk Modulus (GPa) = 49.52653 64.10166 56.81410
# Shear Modulus (GPa) = 17.13846 24.68884 20.91365
#
# Velocity S-wave (km/s) = 3.30993 3.97268 3.65635
# Velocity P-wave (km/s) = 6.80199 7.87524 7.35821
#
# Compressibility (1/GPa) = 0.02019120
#
# Stress axis : x y z
#
# Youngs Moduli (GPa) = 48.75250 116.73684 68.67560
#
# Poissons Ratio (x) = 0.29891 0.30058
# Poissons Ratio (y) = 0.12483 0.32873
# Poissons Ratio (z) = 0.21338 0.55878
#
# Static dielectric constant tensor:
#      x y z
#    x 2.495810 0.000000 -0.039110 
#    y 0.000000 3.435250 0.000000 
#    z -0.039110 0.000000 2.978560 
# 
# 
# High freq. dielectric constant tensor:
#      x y z
#    x 1.542330 0.000000 -0.002610 
#    y 0.000000 1.623600 0.000000 
#    z -0.002610 0.000000 1.574570 
# 
# From -- ./inp_files/273615.got.cif
#   From: 2010.06.25/outbox.cif.g09.slc.cpg/sg15_137_cif.got.tgz:273615.got - 2010.06.28 07:06:18.
