data_PCOD8129098
_publ_section_title
;
Structure prediction by ZEFSAII (Michael W. Deem and Ramdas Pophale) SiO2 
 PCOD8129098
Probable space group: P 21/C
;
_chemical_formula_sum "Si O2"
_cell_formula_units_Z 28
_cell_length_a 20.446130
_cell_length_b 8.778024
_cell_length_c 9.524766
_cell_angle_alpha 90.000000
_cell_angle_beta 132.561419
_cell_angle_gamma 90.000000
_cell_volume 1259.116820
_symmetry_space_group_name_H-M "P 21/C"
_symmetry_group_IT_number 14
_symmetry_cell_setting 'monoclinic'
loop_
_space_group_symop_operation_xyz
x,y,z
-x,1/2+y,1/2-z
-x,-y,-z
x,1/2-y,1/2+z
loop_
_atom_site_type_symbol
_atom_site_label
_atom_site_fract_x
_atom_site_fract_y
_atom_site_fract_z
Si Si1 0.627934 0.663320 0.011829
Si Si2 0.055681 0.587532 0.198657
Si Si3 0.523663 0.664764 0.583076
Si Si4 0.656973 0.327528 0.152287
Si Si5 0.093856 0.192358 0.945999
Si Si6 0.193383 0.127039 0.366390
Si Si7 0.772346 0.231225 0.571321
O O1 0.549092 0.661104 0.783490
O O2 0.604137 0.780440 0.100817
O O3 0.643590 0.505043 0.111495
O O4 0.717285 0.708202 0.059665
O O5 0.085190 0.469617 0.359631
O O6 0.141838 0.670516 0.257499
O O7 0.998390 0.717060 0.192075
O O8 0.000000 0.500000 0.000000
O O9 0.500000 0.500000 0.500000
O O10 0.437058 0.766046 0.433153
O O11 0.736711 0.298831 0.375209
O O12 0.691143 0.245768 0.061025
O O13 0.168549 0.293569 0.976952
O O14 0.117756 0.161531 0.142290
O O15 0.204033 0.947188 0.407460
#
# Coordination Sequence:
#
# PCOD8129098 Si02
#       7
#     4   4   4   4   4   4   4
#     4  11  24  44  68 100 142 178 234 280 348 412
#     4  12  27  44  70 104 135 187 230 301 354 424
#     4  12  24  42  70 103 138 181 231 289 344 413
#     4  11  25  46  69  99 137 188 228 285 352 420
#     4  12  26  45  70  99 143 175 240 279 368 413
#     4  11  25  45  69 102 137 187 227 296 347 429
#     4  11  26  45  71  97 139 181 242 283 360 420
#
# _framework density 22.237807
#
# number of rings (size 3 to 8) (size 9 to 14) (size 15 to 20)
#    0.000    0.571    1.429    7.286    6.000    3.429 
#    0.000    0.000    0.000    0.000    0.000    0.000 
#    0.000    0.000    0.000    0.000    0.000    0.000 
#
# Total GULP energy -347327.251724 kJ/mol
# GULP energy per Si atom -12404.544704 kJ/mol
# Density = 2.218719 g / cm^3
# Si number density = 22.237807 Si / 1000 Ang^3
#
#
#
# Elastic Constant Matrix: (Units=GPa)
#
#
# Indices 1 2 3 4 5 6 
#
# 1 100.9223 53.0907 7.7340 0.0000 9.9700 0.0000
# 2 53.0907 97.2385 43.0206 0.0000 1.9788 0.0000
# 3 7.7340 43.0206 101.5914 0.0000 -4.3944 0.0000
# 4 0.0000 0.0000 0.0000 40.5258 0.0000 2.6263
# 5 9.9700 1.9788 -4.3944 0.0000 39.4108 0.0000
# 6 0.0000 0.0000 0.0000 2.6263 0.0000 44.1208
#
#
#
# Elastic Compliance Matrix: (Units=1/GPa)
#
#
# Indices 1 2 3 4 5 6 
#
# 1 0.014851 -0.009216 0.002643 0.000000 -0.002999 0.000000
# 2 -0.009216 0.018435 -0.007078 0.000000 0.000617 0.000000
# 3 0.002643 -0.007078 0.012687 0.000000 0.001102 0.000000
# 4 0.000000 0.000000 0.000000 0.024771 0.000000 -0.001474
# 5 -0.002999 0.000617 0.001102 0.000000 0.026224 0.000000
# 6 0.000000 0.000000 0.000000 -0.001474 0.000000 0.022753
#
#
# Mechanical properties :
#
#
# Convention : Reuss Voigt Hill
#
# Bulk Modulus (GPa) = 53.56555 56.38254 54.97404
# Shear Modulus (GPa) = 32.62672 37.87194 35.24933
#
# Velocity S-wave (km/s) = 3.83453 4.13127 3.98566
# Velocity P-wave (km/s) = 6.61398 6.94017 6.77903
#
# Compressibility (1/GPa) = 0.01866872
#
# Stress axis : x y z
#
# Youngs Moduli (GPa) = 67.33684 54.24458 78.81916
#
# Poissons Ratio (x) = 0.49994 -0.20828
# Poissons Ratio (y) = 0.62060 0.55791
# Poissons Ratio (z) = -0.17794 0.38396
#
# Static dielectric constant tensor:
#      x y z
#    x 4.535710 0.000000 -0.039750 
#    y 0.000000 4.010770 0.000000 
#    z -0.039750 0.000000 4.010250 
# 
# 
# High freq. dielectric constant tensor:
#      x y z
#    x 1.889020 0.000000 0.002380 
#    y 0.000000 1.882460 0.000000 
#    z 0.002380 0.000000 1.885770 
# 
# From -- ./inp_files/18713.got.cif
#   From: 2010.03.12/outbox.cif.g09.slc.cpg/sg14_10_cif.got.tgz:18713.got - 2010.03.31 13:35:05.
