data_PCOD8129051
_publ_section_title
;
Structure prediction by ZEFSAII (Michael W. Deem and Ramdas Pophale) SiO2 
 PCOD8129051
Probable space group: P 21/C
;
_chemical_formula_sum "Si O2"
_cell_formula_units_Z 28
_cell_length_a 19.977841
_cell_length_b 7.316935
_cell_length_c 12.061246
_cell_angle_alpha 90.000000
_cell_angle_beta 42.837286
_cell_angle_gamma 90.000000
_cell_volume 1198.745184
_symmetry_space_group_name_H-M "P 21/C"
_symmetry_group_IT_number 14
_symmetry_cell_setting 'monoclinic'
loop_
_space_group_symop_operation_xyz
x,y,z
-x,1/2+y,1/2-z
-x,-y,-z
x,1/2-y,1/2+z
loop_
_atom_site_type_symbol
_atom_site_label
_atom_site_fract_x
_atom_site_fract_y
_atom_site_fract_z
Si Si1 0.982157 0.394554 0.375092
Si Si2 0.106814 0.034099 0.230262
Si Si3 0.128793 0.659766 0.281235
Si Si4 0.342450 0.953906 0.451570
Si Si5 0.530543 0.595100 0.848916
Si Si6 0.610487 0.549263 0.339244
Si Si7 0.675463 0.622008 0.498030
O O1 0.064274 0.554413 0.266531
O O2 0.919031 0.404288 0.341536
O O3 0.902799 0.439045 0.566869
O O4 0.031317 0.198045 0.339123
O O5 0.105213 0.876605 0.326304
O O6 0.215077 0.117370 0.086077
O O7 0.243271 0.634380 0.117595
O O8 0.345980 0.922544 0.313016
O O9 0.357008 0.165706 0.468711
O O10 0.431028 0.846048 0.405745
O O11 0.606444 0.751261 0.792111
O O12 0.600980 0.501879 0.667889
O O13 0.500000 0.500000 0.000000
O O14 0.500000 0.500000 0.500000
O O15 0.674756 0.540189 0.373446
#
# Coordination Sequence:
#
# PCOD8129051 Si02
#       7
#     4   4   4   4   4   4   4
#     4  11  25  49  71 104 144 183 244 308 365 435
#     4  12  25  47  75 105 141 187 249 293 377 435
#     4  11  26  45  73 104 143 190 233 305 370 437
#     4  11  24  45  68 105 144 192 246 287 370 425
#     4  11  24  42  69  99 149 191 230 293 353 420
#     4  11  24  43  67 101 147 187 238 296 340 432
#     4  11  25  43  69 109 141 196 241 297 357 435
#
# _framework density 23.357755999999998
#
# number of rings (size 3 to 8) (size 9 to 14) (size 15 to 20)
#    0.000    0.857    5.714    0.429    4.000    2.286 
#    2.571    0.000    0.000    0.000    0.000    0.000 
#    0.000    0.000    0.000    0.000    0.000    0.000 
#
# Total GULP energy -346909.295104 kJ/mol
# GULP energy per Si atom -12389.617682 kJ/mol
# Density = 2.330459 g / cm^3
# Si number density = 23.357756 Si / 1000 Ang^3
#
#
#
# Elastic Constant Matrix: (Units=GPa)
#
#
# Indices 1 2 3 4 5 6 
#
# 1 124.6430 11.7732 76.9155 0.0000 -4.2781 0.0000
# 2 11.7732 70.3118 13.7659 0.0000 3.0102 0.0000
# 3 76.9155 13.7659 149.6226 0.0000 0.1133 0.0000
# 4 0.0000 0.0000 0.0000 29.0792 0.0000 -6.2369
# 5 -4.2781 3.0102 0.1133 0.0000 37.8780 0.0000
# 6 0.0000 0.0000 0.0000 -6.2369 0.0000 29.3670
#
#
#
# Elastic Compliance Matrix: (Units=1/GPa)
#
#
# Indices 1 2 3 4 5 6 
#
# 1 0.011871 -0.000870 -0.006024 0.000000 0.001428 0.000000
# 2 -0.000870 0.014597 -0.000895 0.000000 -0.001256 0.000000
# 3 -0.006024 -0.000895 0.009863 0.000000 -0.000639 0.000000
# 4 0.000000 0.000000 0.000000 0.036030 0.000000 0.007652
# 5 0.001428 -0.001256 -0.000639 0.000000 0.026664 0.000000
# 6 0.000000 0.000000 0.000000 0.007652 0.000000 0.035677
#
#
# Mechanical properties :
#
#
# Convention : Reuss Voigt Hill
#
# Bulk Modulus (GPa) = 48.18216 61.05406 54.61811
# Shear Modulus (GPa) = 31.80743 35.40636 33.60690
#
# Velocity S-wave (km/s) = 3.69419 3.89759 3.79725
# Velocity P-wave (km/s) = 6.23448 6.81545 6.53143
#
# Compressibility (1/GPa) = 0.02075457
#
# Stress axis : x y z
#
# Youngs Moduli (GPa) = 84.23795 68.50746 101.39089
#
# Poissons Ratio (x) = 0.05957 0.61074
# Poissons Ratio (y) = 0.07325 0.09075
# Poissons Ratio (z) = 0.50742 0.06132
#
# Static dielectric constant tensor:
#      x y z
#    x 4.113400 0.000000 -0.024250 
#    y 0.000000 4.028310 0.000000 
#    z -0.024250 0.000000 4.212320 
# 
# 
# High freq. dielectric constant tensor:
#      x y z
#    x 1.926300 0.000000 0.005400 
#    y 0.000000 1.916110 0.000000 
#    z 0.005400 0.000000 1.931310 
# 
# From -- ./inp_files/34936.got.cif
#   From: 2010.03.12/outbox.cif.g09.slc.cpg/sg14_18_cif.got.tgz:34936.got - 2010.03.31 13:35:05.
