data_PCOD8129855
_publ_section_title
;
Structure prediction by ZEFSAII (Michael W. Deem and Ramdas Pophale) SiO2 
 PCOD8129855
Probable space group: C 2/C
;
_chemical_formula_sum "Si O2"
_cell_formula_units_Z 56
_cell_length_a 23.722931
_cell_length_b 13.202329
_cell_length_c 24.088883
_cell_angle_alpha 90.000000
_cell_angle_beta 154.070706
_cell_angle_gamma 90.000000
_cell_volume 3298.959261
_symmetry_space_group_name_H-M "C 2/C"
_symmetry_group_IT_number 15
_symmetry_cell_setting 'monoclinic'
loop_
_space_group_symop_operation_xyz
x,y,z
-x,y,1/2-z
-x,-y,-z
x,-y,1/2+z
1/2+x,1/2+y,z
1/2-x,1/2+y,1/2-z
1/2-x,1/2-y,-z
1/2+x,1/2-y,1/2+z
loop_
_atom_site_type_symbol
_atom_site_label
_atom_site_fract_x
_atom_site_fract_y
_atom_site_fract_z
Si Si1 0.702754 0.873158 0.020082
Si Si2 0.169887 0.346715 0.656167
Si Si3 0.101884 0.732874 0.589234
Si Si4 0.747066 0.546702 0.823597
Si Si5 0.230214 0.865666 0.541123
Si Si6 0.415104 0.139516 0.299817
Si Si7 0.003150 0.145599 0.600772
O O1 0.731612 0.915333 0.983924
O O2 0.556972 0.895138 0.909002
O O3 0.783054 0.934549 0.137511
O O4 0.739310 0.755712 0.050156
O O5 0.296397 0.273924 0.775066
O O6 0.205221 0.433441 0.643934
O O7 0.129933 0.399673 0.679344
O O8 0.047062 0.283665 0.522395
O O9 0.147799 0.625508 0.605973
O O10 0.095740 0.815795 0.534315
O O11 0.606262 0.563044 0.669908
O O12 0.326189 0.906882 0.673157
O O13 0.084738 0.899313 0.427561
O O14 0.408384 0.261796 0.298361
#
# Coordination Sequence:
#
# PCOD8129855 Si02
#       7
#     8   8   8   8   8   8   8
#     4  10  19  26  45  69  98 134 181 196 247 319
#     4  11  22  33  58  70 108 142 180 223 269 307
#     4  11  19  38  48  75 104 143 174 222 258 314
#     4  12  20  33  50  78 102 145 179 216 263 319
#     4  10  17  29  44  65 100 144 161 208 253 305
#     4  10  16  31  43  67  97 141 168 208 244 308
#     4  10  17  30  49  67 108 129 176 210 252 308
#
# _framework density 16.97505
#
# number of rings (size 3 to 8) (size 9 to 14) (size 15 to 20)
#    0.000    1.429   10.000    0.857    0.000    1.143 
#    0.000    0.000    0.000    0.000    0.000    0.000 
#    0.000   10.286    0.000    0.000    0.000    0.000 
#
# Total GULP energy -346930.838986 kJ/mol
# GULP energy per Si atom -12390.387107 kJ/mol
# Density = 1.693641 g / cm^3
# Si number density = 16.975050 Si / 1000 Ang^3
#
#
#
# Elastic Constant Matrix: (Units=GPa)
#
#
# Indices 1 2 3 4 5 6 
#
# 1 66.9287 29.4776 26.3685 -0.0011 5.4209 -0.0004
# 2 29.4776 39.5097 25.6554 0.0008 4.2494 0.0006
# 3 26.3685 25.6554 79.1578 -0.0021 7.9669 -0.0010
# 4 -0.0011 0.0008 -0.0021 13.7298 -0.0022 0.8979
# 5 5.4209 4.2494 7.9669 -0.0022 19.4532 -0.0011
# 6 -0.0004 0.0006 -0.0010 0.8979 -0.0011 19.2328
#
#
#
# Elastic Compliance Matrix: (Units=1/GPa)
#
#
# Indices 1 2 3 4 5 6 
#
# 1 0.022751 -0.015158 -0.002463 0.000002 -0.002020 0.000001
# 2 -0.015158 0.042310 -0.008509 -0.000005 -0.001533 -0.000002
# 3 -0.002463 -0.008509 0.016641 0.000002 -0.004270 0.000001
# 4 0.000002 -0.000005 0.000002 0.073057 0.000008 -0.003411
# 5 -0.002020 -0.001533 -0.004270 0.000008 0.054052 0.000002
# 6 0.000001 -0.000002 0.000001 -0.003411 0.000002 0.052154
#
#
# Mechanical properties :
#
#
# Convention : Reuss Voigt Hill
#
# Bulk Modulus (GPa) = 33.96463 38.73326 36.34894
# Shear Modulus (GPa) = 15.47803 17.42280 16.45042
#
# Velocity S-wave (km/s) = 3.02290 3.20719 3.11640
# Velocity P-wave (km/s) = 5.67766 6.04831 5.86591
#
# Compressibility (1/GPa) = 0.02944239
#
# Stress axis : x y z
#
# Youngs Moduli (GPa) = 43.95369 23.63531 60.09278
#
# Poissons Ratio (x) = 0.35826 0.14799
# Poissons Ratio (y) = 0.66625 0.51133
# Poissons Ratio (z) = 0.10824 0.20111
#
# Static dielectric constant tensor:
#      x y z
#    x 3.213190 0.000000 0.126670 
#    y 0.000000 2.574430 0.000000 
#    z 0.126670 0.000000 3.375270 
# 
# 
# High freq. dielectric constant tensor:
#      x y z
#    x 1.639190 0.000000 0.022340 
#    y 0.000000 1.575280 0.000000 
#    z 0.022340 0.000000 1.674530 
# 
# From -- ./inp_files/211239.got.cif
#   From: 2010.06.25/outbox.cif.g09.slc.cpg/sg15_106_cif.got.tgz:211239.got - 2010.06.28 07:06:18.
