data_PCOD8129842
_publ_section_title
;
Structure prediction by ZEFSAII (Michael W. Deem and Ramdas Pophale) SiO2 
 PCOD8129842
Probable space group: C 2/C
;
_chemical_formula_sum "Si O2"
_cell_formula_units_Z 56
_cell_length_a 20.594813
_cell_length_b 9.296852
_cell_length_c 20.796550
_cell_angle_alpha 90.000000
_cell_angle_beta 126.990193
_cell_angle_gamma 90.000000
_cell_volume 3180.458165
_symmetry_space_group_name_H-M "C 2/C"
_symmetry_group_IT_number 15
_symmetry_cell_setting 'monoclinic'
loop_
_space_group_symop_operation_xyz
x,y,z
-x,y,1/2-z
-x,-y,-z
x,-y,1/2+z
1/2+x,1/2+y,z
1/2-x,1/2+y,1/2-z
1/2-x,1/2-y,-z
1/2+x,1/2-y,1/2+z
loop_
_atom_site_type_symbol
_atom_site_label
_atom_site_fract_x
_atom_site_fract_y
_atom_site_fract_z
Si Si1 0.221770 0.580634 0.979448
Si Si2 0.217174 0.740151 0.806955
Si Si3 0.451114 0.698984 0.052059
Si Si4 0.322831 0.505128 0.430960
Si Si5 0.914778 0.710342 0.668549
Si Si6 0.655227 0.945491 0.570040
Si Si7 0.629507 0.765466 0.122827
O O1 0.211725 0.510480 0.043221
O O2 0.250000 0.750000 0.000000
O O3 0.287218 0.482900 0.981895
O O4 0.135344 0.574660 0.889697
O O5 0.260924 0.594327 0.854653
O O6 0.142528 0.782778 0.810599
O O7 0.187481 0.713105 0.717676
O O8 0.284566 0.865650 0.844574
O O9 0.432669 0.685779 0.117810
O O10 0.546604 0.695233 0.097583
O O11 0.412141 0.564898 0.990902
O O12 0.415632 0.844668 0.999985
O O13 0.327745 0.660411 0.402339
O O14 0.000000 0.658665 0.750000
O O15 0.614759 0.081975 0.579855
#
# Coordination Sequence:
#
# PCOD8129842 Si02
#       7
#     8   8   8   8   8   8   8
#     4  10  16  35  58  69  94 137 174 214 240 300
#     4  10  19  35  53  75 103 137 173 209 246 303
#     4  10  19  35  53  75 103 137 173 209 246 303
#     4  10  20  35  53  76 102 138 174 205 256 299
#     4  10  16  30  56  78  88 124 188 214 230 288
#     4  10  20  35  53  76 102 138 174 205 256 299
#     4  12  22  30  50  82 112 132 160 218 260 302
#
# _framework density 17.607527000000001
#
# number of rings (size 3 to 8) (size 9 to 14) (size 15 to 20)
#    0.000    1.714    7.143    1.714    0.000    0.571 
#    0.000    0.000    0.000    0.000    0.000    2.000 
#    0.000    0.000    0.000    0.000    0.000    0.000 
#
# Total GULP energy -346972.965338 kJ/mol
# GULP energy per Si atom -12391.891619 kJ/mol
# Density = 1.756745 g / cm^3
# Si number density = 17.607527 Si / 1000 Ang^3
#
#
#
# Elastic Constant Matrix: (Units=GPa)
#
#
# Indices 1 2 3 4 5 6 
#
# 1 48.1863 8.0075 5.1109 0.0000 -2.5498 0.0000
# 2 8.0075 41.9659 16.1459 0.0000 -4.8687 0.0000
# 3 5.1109 16.1459 90.2888 0.0000 1.3415 0.0000
# 4 0.0000 0.0000 0.0000 11.5556 0.0000 -4.6001
# 5 -2.5498 -4.8687 1.3415 0.0000 35.8774 0.0000
# 6 0.0000 0.0000 0.0000 -4.6001 0.0000 23.2637
#
#
#
# Elastic Compliance Matrix: (Units=1/GPa)
#
#
# Indices 1 2 3 4 5 6 
#
# 1 0.021493 -0.003766 -0.000559 0.000000 0.001037 0.000000
# 2 -0.003766 0.026735 -0.004620 0.000000 0.003533 0.000000
# 3 -0.000559 -0.004620 0.011950 0.000000 -0.001113 0.000000
# 4 0.000000 0.000000 0.000000 0.093932 0.000000 0.018574
# 5 0.001037 0.003533 -0.001113 0.000000 0.028468 0.000000
# 6 0.000000 0.000000 0.000000 0.018574 0.000000 0.046658
#
#
# Mechanical properties :
#
#
# Convention : Reuss Voigt Hill
#
# Bulk Modulus (GPa) = 23.64713 26.55216 25.09965
# Shear Modulus (GPa) = 19.14096 24.21781 21.67939
#
# Velocity S-wave (km/s) = 3.30068 3.71269 3.51273
# Velocity P-wave (km/s) = 5.29011 5.78719 5.54422
#
# Compressibility (1/GPa) = 0.04228842
#
# Stress axis : x y z
#
# Youngs Moduli (GPa) = 46.52739 37.40435 83.68243
#
# Poissons Ratio (x) = 0.14086 0.04675
# Poissons Ratio (y) = 0.17521 0.38663
# Poissons Ratio (z) = 0.02599 0.17282
#
# Static dielectric constant tensor:
#      x y z
#    x 3.464460 0.000000 -0.007410 
#    y 0.000000 2.800720 0.000000 
#    z -0.007410 0.000000 3.455890 
# 
# 
# High freq. dielectric constant tensor:
#      x y z
#    x 1.691950 0.000000 0.000150 
#    y 0.000000 1.626470 0.000000 
#    z 0.000150 0.000000 1.695300 
# 
# From -- ./inp_files/251949.got.cif
#   From: 2010.06.25/outbox.cif.g09.slc.cpg/sg15_126_cif.got.tgz:251949.got - 2010.06.28 07:06:18.
