data_PCOD8129635
_publ_section_title
;
Structure prediction by ZEFSAII (Michael W. Deem and Ramdas Pophale) SiO2 
 PCOD8129635
Probable space group: C 2/C
;
_chemical_formula_sum "Si O2"
_cell_formula_units_Z 44
_cell_length_a 9.193090
_cell_length_b 23.151511
_cell_length_c 9.402652
_cell_angle_alpha 90.000000
_cell_angle_beta 105.965170
_cell_angle_gamma 90.000000
_cell_volume 1924.015066
_symmetry_space_group_name_H-M "C 2/C"
_symmetry_group_IT_number 15
_symmetry_cell_setting 'monoclinic'
loop_
_space_group_symop_operation_xyz
x,y,z
-x,y,1/2-z
-x,-y,-z
x,-y,1/2+z
1/2+x,1/2+y,z
1/2-x,1/2+y,1/2-z
1/2-x,1/2-y,-z
1/2+x,1/2-y,1/2+z
loop_
_atom_site_type_symbol
_atom_site_label
_atom_site_fract_x
_atom_site_fract_y
_atom_site_fract_z
Si Si1 0.096034 0.229534 0.029186
Si Si2 0.775928 0.570173 0.819988
Si Si3 0.991881 0.648323 0.012955
Si Si4 0.500000 0.657415 0.750000
Si Si5 0.673271 0.515414 0.068856
Si Si6 0.741241 0.866158 0.790832
O O1 0.133833 0.185346 0.168488
O O2 0.250000 0.250000 0.000000
O O3 0.009010 0.287415 0.056590
O O4 0.989769 0.197464 0.885971
O O5 0.648329 0.618757 0.800472
O O6 0.763900 0.536776 0.668312
O O7 0.939033 0.601729 0.879815
O O8 0.754562 0.523919 0.940305
O O9 0.877345 0.643599 0.114320
O O10 0.160312 0.634764 0.115079
O O11 0.677794 0.572414 0.168156
O O12 0.500000 0.500000 0.000000
#
# Coordination Sequence:
#
# PCOD8129635 Si02
#       6
#     8   8   8   4   8   8
#     4  10  15  25  45  69 102 128 153 205 261 302
#     4  11  21  32  51  72 106 132 170 206 247 296
#     4   9  18  29  44  74 102 131 161 203 264 302
#     4  12  16  28  44  74 100 126 156 210 256 292
#     4  11  19  34  49  72 101 137 169 210 243 295
#     4   9  17  29  44  67 103 129 162 202 251 298
#
# _framework density 22.868842999999998
#
# number of rings (size 3 to 8) (size 9 to 14) (size 15 to 20)
#    0.000    1.818    7.273    2.182    0.000    0.727 
#    0.000    0.000    0.000    0.000    0.000    1.273 
#    5.455    0.000    0.000    0.000    0.000    0.000 
#
# Total GULP energy -272737.473492 kJ/mol
# GULP energy per Si atom -12397.157886 kJ/mol
# Density = 2.281679 g / cm^3
# Si number density = 22.868843 Si / 1000 Ang^3
#
#
#
# Elastic Constant Matrix: (Units=GPa)
#
#
# Indices 1 2 3 4 5 6 
#
# 1 15.2365 23.7488 32.0307 0.0000 16.8502 0.0000
# 2 23.7488 150.1926 79.7890 0.0000 28.8299 0.0000
# 3 32.0307 79.7890 154.7645 0.0000 49.4169 0.0000
# 4 0.0000 0.0000 0.0000 59.3171 0.0000 12.3434
# 5 16.8502 28.8299 49.4169 0.0000 36.1480 0.0000
# 6 0.0000 0.0000 0.0000 12.3434 0.0000 15.8202
#
#
#
# Elastic Compliance Matrix: (Units=1/GPa)
#
#
# Indices 1 2 3 4 5 6 
#
# 1 0.163773 -0.009275 -0.012599 0.000000 -0.051721 0.000000
# 2 -0.009275 0.009741 -0.003553 0.000000 0.001412 0.000000
# 3 -0.012599 -0.003553 0.014412 0.000000 -0.010995 0.000000
# 4 0.000000 0.000000 0.000000 0.020126 0.000000 -0.015703
# 5 -0.051721 0.001412 -0.010995 0.000000 0.065678 0.000000
# 6 0.000000 0.000000 0.000000 -0.015703 0.000000 0.075462
#
#
# Mechanical properties :
#
#
# Convention : Reuss Voigt Hill
#
# Bulk Modulus (GPa) = 7.29545 65.70341 36.49943
# Shear Modulus (GPa) = 11.21736 34.56539 22.89137
#
# Velocity S-wave (km/s) = 2.21715 3.89197 3.16727
# Velocity P-wave (km/s) = 3.12272 6.99925 5.41945
#
# Compressibility (1/GPa) = 0.13707171
#
# Stress axis : x y z
#
# Youngs Moduli (GPa) = 6.10601 102.65439 69.38875
#
# Poissons Ratio (x) = 0.95213 0.87420
# Poissons Ratio (y) = 0.05663 0.24657
# Poissons Ratio (z) = 0.07693 0.36478
#
# Static dielectric constant tensor:
#      x y z
#    x 3.370500 0.000000 0.553370 
#    y 0.000000 4.697380 0.000000 
#    z 0.553370 0.000000 4.538770 
# 
# 
# High freq. dielectric constant tensor:
#      x y z
#    x 1.833200 0.000000 0.043180 
#    y 0.000000 1.925610 0.000000 
#    z 0.043180 0.000000 1.910240 
# 
# From -- ./inp_files/90145.got.cif
#   From: 2010.06.25/outbox.cif.g09.slc.cpg/sg15_46_cif.got.tgz:90145.got - 2010.06.28 07:06:18.
