data_PCOD8129329
_publ_section_title
;
Structure prediction by ZEFSAII (Michael W. Deem and Ramdas Pophale) SiO2 
 PCOD8129329
Probable space group: P 21/C
;
_chemical_formula_sum "Si O2"
_cell_formula_units_Z 20
_cell_length_a 5.209507
_cell_length_b 8.450460
_cell_length_c 17.459437
_cell_angle_alpha 90.000000
_cell_angle_beta 76.748831
_cell_angle_gamma 90.000000
_cell_volume 748.147472
_symmetry_space_group_name_H-M "P 21/C"
_symmetry_group_IT_number 14
_symmetry_cell_setting 'monoclinic'
loop_
_space_group_symop_operation_xyz
x,y,z
-x,1/2+y,1/2-z
-x,-y,-z
x,1/2-y,1/2+z
loop_
_atom_site_type_symbol
_atom_site_label
_atom_site_fract_x
_atom_site_fract_y
_atom_site_fract_z
Si Si1 0.934139 0.261081 0.904182
Si Si2 0.208706 0.771668 0.753740
Si Si3 0.489727 0.229505 0.544007
Si Si4 0.629480 0.513483 0.152025
Si Si5 0.961792 0.091488 0.088633
O O1 0.953133 0.235881 0.811963
O O2 0.137915 0.399788 0.911942
O O3 0.004328 0.091605 0.939174
O O4 0.642596 0.311892 0.953954
O O5 0.252194 0.608573 0.795028
O O6 0.478607 0.854745 0.710627
O O7 0.041686 0.891159 0.818776
O O8 0.209211 0.304432 0.541838
O O9 0.680383 0.348516 0.577558
O O10 0.449120 0.076176 0.601186
#
# Coordination Sequence:
#
# PCOD8129329 Si02
#       5
#     4   4   4   4   4
#     4  12  26  45  77 106 146 198 246 310 372 445
#     4  11  27  44  75 103 148 192 255 299 374 439
#     4  11  28  49  74 110 150 192 248 307 375 445
#     4  11  27  46  73 108 149 196 249 313 371 447
#     4  11  27  48  74 106 151 193 248 304 376 443
#
# _framework density 26.732697999999999
#
# number of rings (size 3 to 8) (size 9 to 14) (size 15 to 20)
#    0.000    0.800    0.000    4.200   25.200    0.800 
#    0.000    0.000    0.000    0.000    0.000    0.000 
#    0.000    0.000    0.000    0.000    0.000    0.000 
#
# Total GULP energy -248052.205191 kJ/mol
# GULP energy per Si atom -12402.610260 kJ/mol
# Density = 2.667185 g / cm^3
# Si number density = 26.732698 Si / 1000 Ang^3
#
#
#
# Elastic Constant Matrix: (Units=GPa)
#
#
# Indices 1 2 3 4 5 6 
#
# 1 53.9431 23.1572 -3.4026 0.0000 -14.8553 0.0000
# 2 23.1572 120.9360 30.6535 0.0000 1.0125 0.0000
# 3 -3.4026 30.6535 125.2529 0.0000 -21.3928 0.0000
# 4 0.0000 0.0000 0.0000 58.2760 0.0000 -4.8100
# 5 -14.8553 1.0125 -21.3928 0.0000 45.8240 0.0000
# 6 0.0000 0.0000 0.0000 -4.8100 0.0000 37.9370
#
#
#
# Elastic Compliance Matrix: (Units=1/GPa)
#
#
# Indices 1 2 3 4 5 6 
#
# 1 0.023774 -0.005553 0.003632 0.000000 0.009525 0.000000
# 2 -0.005553 0.010185 -0.003248 0.000000 -0.003542 0.000000
# 3 0.003632 -0.003248 0.009878 0.000000 0.005861 0.000000
# 4 0.000000 0.000000 0.000000 0.017341 0.000000 0.002199
# 5 0.009525 -0.003542 0.005861 0.000000 0.027725 0.000000
# 6 0.000000 0.000000 0.000000 0.002199 0.000000 0.026638
#
#
# Mechanical properties :
#
#
# Convention : Reuss Voigt Hill
#
# Bulk Modulus (GPa) = 29.85183 44.54982 37.20082
# Shear Modulus (GPa) = 36.48396 45.05565 40.76980
#
# Velocity S-wave (km/s) = 3.69829 4.10983 3.90948
# Velocity P-wave (km/s) = 5.42471 6.26275 5.85873
#
# Compressibility (1/GPa) = 0.03349879
#
# Stress axis : x y z
#
# Youngs Moduli (GPa) = 42.06304 98.18313 101.23018
#
# Poissons Ratio (x) = 0.54516 -0.36762
# Poissons Ratio (y) = 0.23356 0.32883
# Poissons Ratio (z) = -0.15275 0.31893
#
# Static dielectric constant tensor:
#      x y z
#    x 4.357200 0.000000 0.137060 
#    y 0.000000 4.924790 0.000000 
#    z 0.137060 0.000000 5.375500 
# 
# 
# High freq. dielectric constant tensor:
#      x y z
#    x 2.062730 0.000000 0.013320 
#    y 0.000000 2.085820 0.000000 
#    z 0.013320 0.000000 2.104960 
# 
# From -- ./inp_files/52691.got.cif
#   From: 2010.03.12/outbox.cif.g09.slc.cpg/sg14_27_cif.got.tgz:52691.got - 2010.03.31 13:35:05.
