data_PCOD8129610
_publ_section_title
;
Structure prediction by ZEFSAII (Michael W. Deem and Ramdas Pophale) SiO2 
 PCOD8129610
Probable space group: C 2/C
;
_chemical_formula_sum "Si O2"
_cell_formula_units_Z 48
_cell_length_a 14.926690
_cell_length_b 18.824710
_cell_length_c 14.867380
_cell_angle_alpha 90.000000
_cell_angle_beta 135.060525
_cell_angle_gamma 90.000000
_cell_volume 2950.883034
_symmetry_space_group_name_H-M "C 2/C"
_symmetry_group_IT_number 15
_symmetry_cell_setting 'monoclinic'
loop_
_space_group_symop_operation_xyz
x,y,z
-x,y,1/2-z
-x,-y,-z
x,-y,1/2+z
1/2+x,1/2+y,z
1/2-x,1/2+y,1/2-z
1/2-x,1/2-y,-z
1/2+x,1/2-y,1/2+z
loop_
_atom_site_type_symbol
_atom_site_label
_atom_site_fract_x
_atom_site_fract_y
_atom_site_fract_z
Si Si1 0.795188 0.988195 0.348260
Si Si2 0.492325 0.338192 0.874857
Si Si3 0.000000 0.283064 0.250000
Si Si4 0.500000 0.421146 0.250000
Si Si5 0.775840 0.387375 0.055028
Si Si6 0.037456 0.104047 0.967970
Si Si7 0.312395 0.461753 0.675509
O O1 0.702723 0.940800 0.344922
O O2 0.919666 0.944022 0.412728
O O3 0.835034 0.057211 0.434247
O O4 0.733983 0.013352 0.209288
O O5 0.448639 0.266275 0.794845
O O6 0.421454 0.406337 0.783181
O O7 0.641622 0.348049 0.965674
O O8 0.458919 0.330913 0.957850
O O9 0.885578 0.329931 0.132783
O O10 0.477530 0.370961 0.146421
O O11 0.622216 0.470527 0.323600
O O12 0.783863 0.428461 0.965349
#
# Coordination Sequence:
#
# PCOD8129610 Si02
#       7
#     8   8   4   4   8   8   8
#     4   8  15  25  41  66  90 113 137 182 229 264
#     4  10  18  30  41  66  92 119 147 186 216 255
#     4  12  23  28  44  62  92 133 152 166 210 268
#     4  10  11  22  44  76  86 105 128 182 248 266
#     4  11  18  31  43  66  92 119 149 179 218 267
#     4   8  14  22  43  67  92 106 137 183 238 261
#     4  10  15  26  49  68  90 113 138 185 234 261
#
# _framework density 16.266317999999998
#
# number of rings (size 3 to 8) (size 9 to 14) (size 15 to 20)
#    0.000    2.333    5.000    2.500    0.000    0.000 
#    0.000    0.833    0.000    0.000    0.000   12.833 
#    0.000    0.000    0.000    0.000    0.000    0.000 
#
# Total GULP energy -297345.633541 kJ/mol
# GULP energy per Si atom -12389.401398 kJ/mol
# Density = 1.622929 g / cm^3
# Si number density = 16.266318 Si / 1000 Ang^3
#
#
#
# Elastic Constant Matrix: (Units=GPa)
#
#
# Indices 1 2 3 4 5 6 
#
# 1 56.5134 28.1773 44.9272 0.0000 -37.6906 0.0000
# 2 28.1773 49.9146 34.7463 0.0000 -15.9418 0.0000
# 3 44.9272 34.7463 79.7376 0.0000 -36.8155 0.0000
# 4 0.0000 0.0000 0.0000 24.9420 0.0000 -1.6504
# 5 -37.6906 -15.9418 -36.8155 0.0000 38.4632 0.0000
# 6 0.0000 0.0000 0.0000 -1.6504 0.0000 7.7227
#
#
#
# Elastic Compliance Matrix: (Units=1/GPa)
#
#
# Indices 1 2 3 4 5 6 
#
# 1 0.063886 -0.015946 -0.005724 0.000000 0.050515 0.000000
# 2 -0.015946 0.032738 -0.011165 0.000000 -0.012744 0.000000
# 3 -0.005724 -0.011165 0.028500 0.000000 0.017043 0.000000
# 4 0.000000 0.000000 0.000000 0.040668 0.000000 0.008691
# 5 0.050515 -0.012744 0.017043 0.000000 0.086530 0.000000
# 6 0.000000 0.000000 0.000000 0.008691 0.000000 0.131345
#
#
# Mechanical properties :
#
#
# Convention : Reuss Voigt Hill
#
# Bulk Modulus (GPa) = 16.81974 44.65190 30.73582
# Shear Modulus (GPa) = 10.65741 19.44657 15.05199
#
# Velocity S-wave (km/s) = 2.56243 3.46137 3.04525
# Velocity P-wave (km/s) = 4.37235 6.59431 5.59474
#
# Compressibility (1/GPa) = 0.05945394
#
# Stress axis : x y z
#
# Youngs Moduli (GPa) = 15.65280 30.54546 35.08717
#
# Poissons Ratio (x) = 0.48709 0.20084
# Poissons Ratio (y) = 0.24960 0.39175
# Poissons Ratio (z) = 0.08960 0.34104
#
# Static dielectric constant tensor:
#      x y z
#    x 3.116070 0.000000 -0.635490 
#    y 0.000000 2.868230 0.000000 
#    z -0.635490 0.000000 3.179890 
# 
# 
# High freq. dielectric constant tensor:
#      x y z
#    x 1.599940 0.000000 -0.044620 
#    y 0.000000 1.585060 0.000000 
#    z -0.044620 0.000000 1.616910 
# 
# From -- ./inp_files/70786.got.cif
#   From: 2010.06.25/outbox.cif.g09.slc.cpg/sg15_36_cif.got.tgz:70786.got - 2010.06.28 07:06:18.
