data_PCOD8129966
_publ_section_title
;
Structure prediction by ZEFSAII (Michael W. Deem and Ramdas Pophale) SiO2 
 PCOD8129966
Probable space group: C 2/C
;
_chemical_formula_sum "Si O2"
_cell_formula_units_Z 36
_cell_length_a 13.926453
_cell_length_b 18.400465
_cell_length_c 8.105507
_cell_angle_alpha 90.000000
_cell_angle_beta 54.498869
_cell_angle_gamma 90.000000
_cell_volume 1690.944757
_symmetry_space_group_name_H-M "C 2/C"
_symmetry_group_IT_number 15
_symmetry_cell_setting 'monoclinic'
loop_
_space_group_symop_operation_xyz
x,y,z
-x,y,1/2-z
-x,-y,-z
x,-y,1/2+z
1/2+x,1/2+y,z
1/2-x,1/2+y,1/2-z
1/2-x,1/2-y,-z
1/2+x,1/2-y,1/2+z
loop_
_atom_site_type_symbol
_atom_site_label
_atom_site_fract_x
_atom_site_fract_y
_atom_site_fract_z
Si Si1 0.864292 0.651261 0.924245
Si Si2 0.193289 0.953857 0.750790
Si Si3 0.186865 0.790634 0.354916
Si Si4 0.000000 0.124676 0.250000
Si Si5 0.862188 0.097052 0.846841
O O1 0.812310 0.688401 0.810368
O O2 0.000000 0.636059 0.750000
O O3 0.802182 0.574739 0.030531
O O4 0.835744 0.703946 0.110544
O O5 0.068977 0.925242 0.808415
O O6 0.179946 0.041322 0.755743
O O7 0.211190 0.926737 0.919341
O O8 0.083736 0.823845 0.565606
O O9 0.176061 0.822405 0.179033
O O10 0.000000 0.094641 0.750000
#
# Coordination Sequence:
#
# PCOD8129966 Si02
#       5
#     8   8   8   4   8
#     4  10  22  42  63  87 126 174 209 252 312 383
#     4  11  22  36  61  95 126 163 205 254 321 372
#     4  10  21  36  64  90 122 161 214 255 317 368
#     4  10  16  34  58  90 118 154 196 256 306 366
#     4  12  22  38  63 100 131 156 208 273 318 365
#
# _framework density 21.289871999999999
#
# number of rings (size 3 to 8) (size 9 to 14) (size 15 to 20)
#    0.000    1.333    4.444    3.333    0.000    0.889 
#    0.000    5.556    0.000    0.000    0.000    0.000 
#    0.000    0.000    0.000    0.000    0.000    0.000 
#
# Total GULP energy -223153.934957 kJ/mol
# GULP energy per Si atom -12397.440831 kJ/mol
# Density = 2.124142 g / cm^3
# Si number density = 21.289872 Si / 1000 Ang^3
#
#
#
# Elastic Constant Matrix: (Units=GPa)
#
#
# Indices 1 2 3 4 5 6 
#
# 1 93.4415 33.6459 45.6068 0.0000 -8.0271 0.0000
# 2 33.6459 80.8775 5.1232 0.0000 -1.4591 0.0000
# 3 45.6068 5.1232 56.3233 0.0000 0.1921 0.0000
# 4 0.0000 0.0000 0.0000 37.9750 0.0000 11.3022
# 5 -8.0271 -1.4591 0.1921 0.0000 44.8692 0.0000
# 6 0.0000 0.0000 0.0000 11.3022 0.0000 36.1804
#
#
#
# Elastic Compliance Matrix: (Units=1/GPa)
#
#
# Indices 1 2 3 4 5 6 
#
# 1 0.022528 -0.008193 -0.017509 0.000000 0.003839 0.000000
# 2 -0.008193 0.015424 0.005235 0.000000 -0.000987 0.000000
# 3 -0.017509 0.005235 0.031467 0.000000 -0.003097 0.000000
# 4 0.000000 0.000000 0.000000 0.029032 0.000000 -0.009069
# 5 0.003839 -0.000987 -0.003097 0.000000 0.022955 0.000000
# 6 0.000000 0.000000 0.000000 -0.009069 0.000000 0.030472
#
#
# Mechanical properties :
#
#
# Convention : Reuss Voigt Hill
#
# Bulk Modulus (GPa) = 35.10922 44.37712 39.74317
# Shear Modulus (GPa) = 24.71483 33.55600 29.13541
#
# Velocity S-wave (km/s) = 3.41085 3.97438 3.70335
# Velocity P-wave (km/s) = 5.66028 6.47691 6.08232
#
# Compressibility (1/GPa) = 0.02848254
#
# Stress axis : x y z
#
# Youngs Moduli (GPa) = 44.38958 64.83609 31.77946
#
# Poissons Ratio (x) = 0.53123 0.55644
# Poissons Ratio (y) = 0.36370 -0.16636
# Poissons Ratio (z) = 0.77723 -0.33941
#
# Static dielectric constant tensor:
#      x y z
#    x 4.136710 0.000000 0.065830 
#    y 0.000000 4.113780 0.000000 
#    z 0.065830 0.000000 3.635370 
# 
# 
# High freq. dielectric constant tensor:
#      x y z
#    x 1.821980 0.000000 0.002460 
#    y 0.000000 1.833620 0.000000 
#    z 0.002460 0.000000 1.820040 
# 
# From -- ./inp_files/30112.got.cif
#   From: 2010.06.25/outbox.cif.g09.slc.cpg/sg15_16_cif.got.tgz:30112.got - 2010.06.28 07:06:18.
