data_PCOD8129944
_publ_section_title
;
Structure prediction by ZEFSAII (Michael W. Deem and Ramdas Pophale) SiO2 
 PCOD8129944
Probable space group: C 2/C
;
_chemical_formula_sum "Si O2"
_cell_formula_units_Z 44
_cell_length_a 6.362401
_cell_length_b 22.698395
_cell_length_c 17.644295
_cell_angle_alpha 90.000000
_cell_angle_beta 119.259400
_cell_angle_gamma 90.000000
_cell_volume 2223.023406
_symmetry_space_group_name_H-M "C 2/C"
_symmetry_group_IT_number 15
_symmetry_cell_setting 'monoclinic'
loop_
_space_group_symop_operation_xyz
x,y,z
-x,y,1/2-z
-x,-y,-z
x,-y,1/2+z
1/2+x,1/2+y,z
1/2-x,1/2+y,1/2-z
1/2-x,1/2-y,-z
1/2+x,1/2-y,1/2+z
loop_
_atom_site_type_symbol
_atom_site_label
_atom_site_fract_x
_atom_site_fract_y
_atom_site_fract_z
Si Si1 0.561151 0.699366 0.401792
Si Si2 0.452818 0.819238 0.440497
Si Si3 0.874122 0.873196 0.006790
Si Si4 0.586701 0.053225 0.104637
Si Si5 0.675340 0.062833 0.947624
Si Si6 0.000000 0.880197 0.750000
O O1 0.450413 0.765409 0.379885
O O2 0.475230 0.671462 0.464386
O O3 0.459059 0.662453 0.314026
O O4 0.853439 0.697305 0.458140
O O5 0.188756 0.833702 0.429808
O O6 0.526288 0.877635 0.407730
O O7 0.625669 0.900307 0.936052
O O8 0.067912 0.927115 0.050458
O O9 0.773397 0.076578 0.199785
O O10 0.479918 0.990718 0.114130
O O11 0.715934 0.049672 0.044832
#
# Coordination Sequence:
#
# PCOD8129944 Si02
#       6
#     8   8   8   8   8   4
#     4  10  20  33  54  83 117 147 192 239 295 351
#     4   9  18  35  56  82 110 150 195 238 279 355
#     4  10  16  33  56  84 108 147 200 237 290 342
#     4  10  20  33  54  83 117 147 192 239 295 351
#     4   9  18  35  56  82 110 150 195 238 279 355
#     4  12  20  38  52  84 122 158 184 262 308 336
#
# _framework density 19.792864000000002
#
# number of rings (size 3 to 8) (size 9 to 14) (size 15 to 20)
#    0.000    2.182    5.455    1.091    0.000    0.727 
#    0.000    0.000    0.000    4.364    4.727    0.000 
#    0.000    0.000    0.000    0.000    0.000    1.455 
#
# Total GULP energy -272606.573077 kJ/mol
# GULP energy per Si atom -12391.207867 kJ/mol
# Density = 1.974781 g / cm^3
# Si number density = 19.792864 Si / 1000 Ang^3
#
#
#
# Elastic Constant Matrix: (Units=GPa)
#
#
# Indices 1 2 3 4 5 6 
#
# 1 120.7246 39.5775 26.1004 0.0000 14.1063 0.0000
# 2 39.5775 146.8312 43.5459 0.0000 13.6923 0.0000
# 3 26.1004 43.5459 65.5670 0.0000 12.0638 0.0000
# 4 0.0000 0.0000 0.0000 33.8233 0.0000 -0.7286
# 5 14.1063 13.6923 12.0638 0.0000 10.7722 0.0000
# 6 0.0000 0.0000 0.0000 -0.7286 0.0000 37.1378
#
#
#
# Elastic Compliance Matrix: (Units=1/GPa)
#
#
# Indices 1 2 3 4 5 6 
#
# 1 0.010209 -0.001437 -0.001242 0.000000 -0.010152 0.000000
# 2 -0.001437 0.008964 -0.004573 0.000000 -0.004390 0.000000
# 3 -0.001242 -0.004573 0.021934 0.000000 -0.017125 0.000000
# 4 0.000000 0.000000 0.000000 0.029578 0.000000 0.000580
# 5 -0.010152 -0.004390 -0.017125 0.000000 0.130883 0.000000
# 6 0.000000 0.000000 0.000000 0.000580 0.000000 0.026938
#
#
# Mechanical properties :
#
#
# Convention : Reuss Voigt Hill
#
# Bulk Modulus (GPa) = 37.59026 61.28560 49.43793
# Shear Modulus (GPa) = 19.85093 31.27328 25.56210
#
# Velocity S-wave (km/s) = 3.17035 3.97927 3.59762
# Velocity P-wave (km/s) = 5.69513 7.22104 6.50300
#
# Compressibility (1/GPa) = 0.02660264
#
# Stress axis : x y z
#
# Youngs Moduli (GPa) = 97.95248 111.56300 45.59110
#
# Poissons Ratio (x) = 0.16030 0.05662
# Poissons Ratio (y) = 0.14074 0.20851
# Poissons Ratio (z) = 0.12164 0.51022
#
# Static dielectric constant tensor:
#      x y z
#    x 4.091020 0.000000 0.109370 
#    y 0.000000 4.017870 0.000000 
#    z 0.109370 0.000000 3.030690 
# 
# 
# High freq. dielectric constant tensor:
#      x y z
#    x 1.779800 0.000000 0.009310 
#    y 0.000000 1.797990 0.000000 
#    z 0.009310 0.000000 1.695750 
# 
# From -- ./inp_files/184949.got.cif
#   From: 2010.06.25/outbox.cif.g09.slc.cpg/sg15_93_cif.got.tgz:184949.got - 2010.06.28 07:06:18.
