data_PCOD8129985
_publ_section_title
;
Structure prediction by ZEFSAII (Michael W. Deem and Ramdas Pophale) SiO2 
 PCOD8129985
Probable space group: C 2/C
;
_chemical_formula_sum "Si O2"
_cell_formula_units_Z 60
_cell_length_a 11.629892
_cell_length_b 13.923393
_cell_length_c 23.482276
_cell_angle_alpha 90.000000
_cell_angle_beta 47.654202
_cell_angle_gamma 90.000000
_cell_volume 2810.347238
_symmetry_space_group_name_H-M "C 2/C"
_symmetry_group_IT_number 15
_symmetry_cell_setting 'monoclinic'
loop_
_space_group_symop_operation_xyz
x,y,z
-x,y,1/2-z
-x,-y,-z
x,-y,1/2+z
1/2+x,1/2+y,z
1/2-x,1/2+y,1/2-z
1/2-x,1/2-y,-z
1/2+x,1/2-y,1/2+z
loop_
_atom_site_type_symbol
_atom_site_label
_atom_site_fract_x
_atom_site_fract_y
_atom_site_fract_z
Si Si1 0.268107 0.586437 0.737440
Si Si2 0.182884 0.617788 0.289676
Si Si3 0.357261 0.977457 0.898493
Si Si4 0.364735 0.810375 0.422116
Si Si5 0.789891 0.259150 0.163521
Si Si6 0.830884 0.798461 0.526130
Si Si7 0.000000 0.441445 0.250000
Si Si8 0.829390 0.781613 0.121575
O O1 0.295023 0.474922 0.743090
O O2 0.287937 0.640808 0.790639
O O3 0.090857 0.610640 0.771917
O O4 0.372889 0.633505 0.652697
O O5 0.196961 0.674873 0.226205
O O6 0.228343 0.685050 0.327525
O O7 0.009264 0.584694 0.362636
O O8 0.204498 0.913085 0.962351
O O9 0.355263 0.074487 0.938236
O O10 0.365407 0.997207 0.827298
O O11 0.250000 0.750000 0.500000
O O12 0.529796 0.760948 0.378452
O O13 0.314080 0.805103 0.372181
O O14 0.760538 0.248540 0.106510
O O15 0.750000 0.750000 0.500000
O O16 0.013209 0.773329 0.467042
#
# Coordination Sequence:
#
# PCOD8129985 Si02
#       8
#     8   8   8   8   8   8   4   8
#     4  10  19  39  63  95 126 169 213 271 319 387
#     4  10  22  41  68  98 126 175 222 266 330 390
#     4  11  22  41  67  94 130 181 219 262 332 392
#     4  12  24  43  67 103 132 174 217 277 330 399
#     4  11  23  40  70  97 132 168 228 271 325 392
#     4  12  25  43  63  98 136 175 217 273 330 396
#     4  10  16  34  68  92 116 166 224 252 320 384
#     4  11  23  41  69  98 136 166 223 277 327 386
#
# _framework density 21.349675000000001
#
# number of rings (size 3 to 8) (size 9 to 14) (size 15 to 20)
#    0.000    1.067    6.667    1.600    0.000    3.200 
#    2.400    2.000    2.933    0.000    0.000    0.000 
#    0.000    0.000    0.000    0.000    0.000    0.000 
#
# Total GULP energy -371673.136585 kJ/mol
# GULP energy per Si atom -12389.104553 kJ/mol
# Density = 2.130108 g / cm^3
# Si number density = 21.349675 Si / 1000 Ang^3
#
#
#
# Elastic Constant Matrix: (Units=GPa)
#
#
# Indices 1 2 3 4 5 6 
#
# 1 69.3564 24.7062 16.9256 0.0000 12.0260 0.0000
# 2 24.7062 147.9232 46.1685 0.0000 17.2659 0.0000
# 3 16.9256 46.1685 87.1204 0.0001 20.2122 -0.0001
# 4 0.0000 0.0000 0.0001 33.0492 -0.0001 -1.7546
# 5 12.0260 17.2659 20.2122 -0.0001 29.5177 0.0000
# 6 0.0000 0.0000 -0.0001 -1.7546 0.0000 29.9101
#
#
#
# Elastic Compliance Matrix: (Units=1/GPa)
#
#
# Indices 1 2 3 4 5 6 
#
# 1 0.016153 -0.001805 -0.001070 0.000000 -0.004793 0.000000
# 2 -0.001805 0.008417 -0.003731 0.000000 -0.001633 0.000000
# 3 -0.001070 -0.003731 0.015522 0.000000 -0.008010 0.000000
# 4 0.000000 0.000000 0.000000 0.030352 0.000000 0.001781
# 5 -0.004793 -0.001633 -0.008010 0.000000 0.042271 0.000000
# 6 0.000000 0.000000 0.000000 0.001781 0.000000 0.033538
#
#
# Mechanical properties :
#
#
# Convention : Reuss Voigt Hill
#
# Bulk Modulus (GPa) = 37.20087 53.33339 45.26713
# Shear Modulus (GPa) = 29.68691 32.93537 31.31114
#
# Velocity S-wave (km/s) = 3.73300 3.93194 3.83376
# Velocity P-wave (km/s) = 6.00356 6.75638 6.39106
#
# Compressibility (1/GPa) = 0.02688109
#
# Stress axis : x y z
#
# Youngs Moduli (GPa) = 61.90696 118.81078 64.42567
#
# Poissons Ratio (x) = 0.21440 0.06893
# Poissons Ratio (y) = 0.11171 0.24036
# Poissons Ratio (z) = 0.06624 0.44326
#
# Static dielectric constant tensor:
#      x y z
#    x 3.561120 0.000000 0.051780 
#    y 0.000000 4.095150 0.000000 
#    z 0.051780 0.000000 4.136360 
# 
# 
# High freq. dielectric constant tensor:
#      x y z
#    x 1.810330 0.000000 0.006750 
#    y 0.000000 1.842940 0.000000 
#    z 0.006750 0.000000 1.847550 
# 
# From -- ./inp_files/269951.got.cif
#   From: 2010.06.25/outbox.cif.g09.slc.cpg/sg15_135_cif.got.tgz:269951.got - 2010.06.28 07:06:18.
