data_PCOD8129920
_publ_section_title
;
Structure prediction by ZEFSAII (Michael W. Deem and Ramdas Pophale) SiO2 
 PCOD8129920
Probable space group: C 2/C
;
_chemical_formula_sum "Si O2"
_cell_formula_units_Z 36
_cell_length_a 23.621265
_cell_length_b 11.343311
_cell_length_c 9.615359
_cell_angle_alpha 90.000000
_cell_angle_beta 46.996177
_cell_angle_gamma 90.000000
_cell_volume 1884.121627
_symmetry_space_group_name_H-M "C 2/C"
_symmetry_group_IT_number 15
_symmetry_cell_setting 'monoclinic'
loop_
_space_group_symop_operation_xyz
x,y,z
-x,y,1/2-z
-x,-y,-z
x,-y,1/2+z
1/2+x,1/2+y,z
1/2-x,1/2+y,1/2-z
1/2-x,1/2-y,-z
1/2+x,1/2-y,1/2+z
loop_
_atom_site_type_symbol
_atom_site_label
_atom_site_fract_x
_atom_site_fract_y
_atom_site_fract_z
Si Si1 0.500000 0.161289 0.750000
Si Si2 0.733988 0.599270 0.167892
Si Si3 0.231282 0.617512 0.072008
Si Si4 0.085176 0.485706 0.912768
Si Si5 0.870189 0.716936 0.777725
O O1 0.572327 0.077263 0.582295
O O2 0.455647 0.237714 0.706223
O O3 0.736358 0.584061 0.329782
O O4 0.653953 0.663342 0.258477
O O5 0.731803 0.469752 0.103548
O O6 0.805702 0.680007 0.998838
O O7 0.138217 0.599619 0.228712
O O8 0.250000 0.750000 0.000000
O O9 0.124591 0.614865 0.850251
O O10 0.000000 0.500000 0.000000
#
# Coordination Sequence:
#
# PCOD8129920 Si02
#       5
#     4   8   8   8   8
#     4  10  16  32  58  90 122 156 198 252 312 354
#     4  10  22  37  57  87 118 160 205 251 302 366
#     4  11  24  38  62  88 125 160 206 254 311 367
#     4   9  19  33  55  89 117 157 198 255 305 360
#     4   9  19  33  57  82 122 154 202 250 306 358
#
# _framework density 19.107047999999999
#
# number of rings (size 3 to 8) (size 9 to 14) (size 15 to 20)
#    0.000    2.222    2.222    0.000    9.333    0.000 
#    0.000    0.000    0.000   12.000    0.000    1.556 
#    0.000    0.000    0.000    0.000    0.000    0.000 
#
# Total GULP energy -222985.514093 kJ/mol
# GULP energy per Si atom -12388.084116 kJ/mol
# Density = 1.906356 g / cm^3
# Si number density = 19.107048 Si / 1000 Ang^3
#
#
#
# Elastic Constant Matrix: (Units=GPa)
#
#
# Indices 1 2 3 4 5 6 
#
# 1 125.9977 58.9175 37.7361 0.0000 3.4221 0.0000
# 2 58.9175 137.9068 60.1106 0.0000 -2.5385 0.0000
# 3 37.7361 60.1106 84.4921 0.0000 4.3606 0.0000
# 4 0.0000 0.0000 0.0000 27.2321 0.0000 -2.9907
# 5 3.4221 -2.5385 4.3606 0.0000 33.9535 0.0000
# 6 0.0000 0.0000 0.0000 -2.9907 0.0000 30.9353
#
#
#
# Elastic Compliance Matrix: (Units=1/GPa)
#
#
# Indices 1 2 3 4 5 6 
#
# 1 0.010205 -0.003501 -0.002014 0.000000 -0.001032 0.000000
# 2 -0.003501 0.011817 -0.006953 0.000000 0.002129 0.000000
# 3 -0.002014 -0.006953 0.017816 0.000000 -0.002605 0.000000
# 4 0.000000 0.000000 0.000000 0.037115 0.000000 0.003588
# 5 -0.001032 0.002129 -0.002605 0.000000 0.030050 0.000000
# 6 0.000000 0.000000 0.000000 0.003588 0.000000 0.032672
#
#
# Mechanical properties :
#
#
# Convention : Reuss Voigt Hill
#
# Bulk Modulus (GPa) = 67.10583 73.54724 70.32653
# Shear Modulus (GPa) = 29.48480 31.19967 30.34224
#
# Velocity S-wave (km/s) = 3.93254 4.04528 3.98931
# Velocity P-wave (km/s) = 7.47108 7.77141 7.62273
#
# Compressibility (1/GPa) = 0.01490184
#
# Stress axis : x y z
#
# Youngs Moduli (GPa) = 97.99208 84.62392 56.12926
#
# Poissons Ratio (x) = 0.29627 0.11303
# Poissons Ratio (y) = 0.34308 0.39028
# Poissons Ratio (z) = 0.19733 0.58841
#
# Static dielectric constant tensor:
#      x y z
#    x 3.795880 0.000000 0.438720 
#    y 0.000000 3.576880 0.000000 
#    z 0.438720 0.000000 4.763050 
# 
# 
# High freq. dielectric constant tensor:
#      x y z
#    x 1.749130 0.000000 0.002430 
#    y 0.000000 1.719240 0.000000 
#    z 0.002430 0.000000 1.732670 
# 
# From -- ./inp_files/45860.got.cif
#   From: 2010.06.25/outbox.cif.g09.slc.cpg/sg15_23_cif.got.tgz:45860.got - 2010.06.28 07:06:18.
