data_PCOD8130170
_publ_section_title
;
Structure prediction by ZEFSAII (Michael W. Deem and Ramdas Pophale) SiO2 
 PCOD8130170
Probable space group: C 2/C
;
_chemical_formula_sum "Si O2"
_cell_formula_units_Z 64
_cell_length_a 14.319800
_cell_length_b 18.530048
_cell_length_c 28.513741
_cell_angle_alpha 90.000000
_cell_angle_beta 151.792371
_cell_angle_gamma 90.000000
_cell_volume 3576.218100
_symmetry_space_group_name_H-M "C 2/C"
_symmetry_group_IT_number 15
_symmetry_cell_setting 'monoclinic'
loop_
_space_group_symop_operation_xyz
x,y,z
-x,y,1/2-z
-x,-y,-z
x,-y,1/2+z
1/2+x,1/2+y,z
1/2-x,1/2+y,1/2-z
1/2-x,1/2-y,-z
1/2+x,1/2-y,1/2+z
loop_
_atom_site_type_symbol
_atom_site_label
_atom_site_fract_x
_atom_site_fract_y
_atom_site_fract_z
Si Si1 0.683402 0.627914 0.270914
Si Si2 0.367817 0.012178 0.811906
Si Si3 0.579041 0.157407 0.620036
Si Si4 0.748518 0.334652 0.901318
Si Si5 0.200802 0.960748 0.643770
Si Si6 0.654007 0.691279 0.161074
Si Si7 0.747785 0.972152 0.428684
Si Si8 0.776473 0.684701 0.564882
O O1 0.779314 0.550354 0.304414
O O2 0.446438 0.619166 0.171960
O O3 0.789077 0.658977 0.363838
O O4 0.727795 0.680830 0.247048
O O5 0.285909 0.010040 0.722908
O O6 0.306458 0.086046 0.812074
O O7 0.606501 0.006974 0.910413
O O8 0.438205 0.136433 0.513919
O O9 0.718202 0.228207 0.670261
O O10 0.457226 0.189054 0.609606
O O11 0.712620 0.250275 0.894258
O O12 0.240820 0.875033 0.668728
O O13 0.972197 0.983734 0.543321
O O14 0.303223 0.980216 0.639680
O O15 0.416773 0.685794 0.053363
O O16 0.714685 0.888267 0.400686
#
# Coordination Sequence:
#
# PCOD8130170 Si02
#       8
#     8   8   8   8   8   8   8   8
#     4  10  19  30  44  75  99 134 161 197 249 306
#     4  10  21  30  48  75 102 129 172 201 248 300
#     4  10  17  30  49  74  98 126 161 213 252 292
#     4  10  18  30  50  71 103 130 163 204 257 300
#     4   9  18  32  50  76 104 135 159 201 264 303
#     4   9  15  29  49  69  98 126 159 191 253 308
#     4   9  18  32  51  77 108 126 158 210 255 304
#     4   9  15  28  49  76  97 122 152 206 270 299
#
# _framework density 17.895999
#
# number of rings (size 3 to 8) (size 9 to 14) (size 15 to 20)
#    0.000    2.500    2.500    1.125    1.750    1.500 
#    2.250    0.000    0.000    0.000   13.000   26.250 
#    0.000    0.000    0.000    0.000    0.000    0.000 
#
# Total GULP energy -396537.877607 kJ/mol
# GULP energy per Si atom -12391.808675 kJ/mol
# Density = 1.785527 g / cm^3
# Si number density = 17.895999 Si / 1000 Ang^3
#
#
#
# Elastic Constant Matrix: (Units=GPa)
#
#
# Indices 1 2 3 4 5 6 
#
# 1 64.5171 47.9419 25.6075 0.0010 -20.4552 -0.0004
# 2 47.9419 135.1898 49.4958 0.0014 -14.7249 -0.0005
# 3 25.6075 49.4958 50.9537 0.0120 -20.3898 -0.0027
# 4 0.0010 0.0014 0.0120 27.0821 -0.0010 -0.1413
# 5 -20.4552 -14.7249 -20.3898 -0.0010 28.3208 -0.0006
# 6 -0.0004 -0.0005 -0.0027 -0.1413 -0.0006 26.1410
#
#
#
# Elastic Compliance Matrix: (Units=1/GPa)
#
#
# Indices 1 2 3 4 5 6 
#
# 1 0.025760 -0.007695 0.000524 0.000000 0.014982 0.000001
# 2 -0.007695 0.013950 -0.012649 0.000005 -0.007412 -0.000001
# 3 0.000524 -0.012649 0.040974 -0.000017 0.023302 0.000004
# 4 0.000000 0.000005 -0.000017 0.036926 -0.000008 0.000200
# 5 0.014982 -0.007412 0.023302 -0.000008 0.059053 0.000004
# 6 0.000001 -0.000001 0.000004 0.000200 0.000004 0.038255
#
#
# Mechanical properties :
#
#
# Convention : Reuss Voigt Hill
#
# Bulk Modulus (GPa) = 24.36454 55.19455 39.77954
# Shear Modulus (GPa) = 18.64002 24.81647 21.72824
#
# Velocity S-wave (km/s) = 3.23084 3.72789 3.48823
# Velocity P-wave (km/s) = 5.24994 7.03124 6.20485
#
# Compressibility (1/GPa) = 0.04104326
#
# Stress axis : x y z
#
# Youngs Moduli (GPa) = 38.81984 71.68534 24.40564
#
# Poissons Ratio (x) = 0.55164 -0.01280
# Poissons Ratio (y) = 0.29873 0.30872
# Poissons Ratio (z) = -0.02036 0.90678
#
# Static dielectric constant tensor:
#      x y z
#    x 3.137230 0.000000 -0.143140 
#    y 0.000000 3.679710 0.000000 
#    z -0.143140 0.000000 3.245050 
# 
# 
# High freq. dielectric constant tensor:
#      x y z
#    x 1.665160 0.000000 -0.021960 
#    y 0.000000 1.696680 0.000000 
#    z -0.021960 0.000000 1.676630 
# 
# From -- ./inp_files/314297.got.cif
#   From: 2010.06.25/outbox.cif.g09.slc.cpg/sg15_158_cif.got.tgz:314297.got - 2010.06.28 07:06:18.
