data_PCOD8130851
_publ_section_title
;
Structure prediction by ZEFSAII (Michael W. Deem and Ramdas Pophale) SiO2 
 PCOD8130851
Probable space group: C 2/C
;
_chemical_formula_sum "Si O2"
_cell_formula_units_Z 64
_cell_length_a 29.401814
_cell_length_b 17.528420
_cell_length_c 25.332271
_cell_angle_alpha 90.000000
_cell_angle_beta 163.139838
_cell_angle_gamma 90.000000
_cell_volume 3786.554369
_symmetry_space_group_name_H-M "C 2/C"
_symmetry_group_IT_number 15
_symmetry_cell_setting 'monoclinic'
loop_
_space_group_symop_operation_xyz
x,y,z
-x,y,1/2-z
-x,-y,-z
x,-y,1/2+z
1/2+x,1/2+y,z
1/2-x,1/2+y,1/2-z
1/2-x,1/2-y,-z
1/2+x,1/2-y,1/2+z
loop_
_atom_site_type_symbol
_atom_site_label
_atom_site_fract_x
_atom_site_fract_y
_atom_site_fract_z
Si Si1 0.255587 0.986854 0.656170
Si Si2 0.191595 0.122598 0.316601
Si Si3 0.577344 0.433646 0.052037
Si Si4 0.264125 0.206064 0.648590
Si Si5 0.966801 0.917622 0.651883
Si Si6 0.034446 0.407491 0.449217
Si Si7 0.211989 0.303879 0.201568
Si Si8 0.640388 0.155603 0.174946
O O1 0.269312 0.896745 0.681754
O O2 0.192447 0.031936 0.636489
O O3 0.135854 0.006548 0.475442
O O4 0.430068 0.016976 0.837867
O O5 0.232726 0.210578 0.373418
O O6 0.345200 0.079451 0.465235
O O7 0.132885 0.081586 0.305054
O O8 0.057334 0.117792 0.123271
O O9 0.685604 0.375791 0.206479
O O10 0.500000 0.500000 0.000000
O O11 0.123967 0.158722 0.466523
O O12 0.429374 0.166281 0.819491
O O13 0.238289 0.211136 0.682663
O O14 0.000000 0.916590 0.750000
O O15 0.128146 0.393235 0.607610
O O16 0.252508 0.229700 0.212709
O O17 0.029242 0.320888 0.991812
#
# Coordination Sequence:
#
# PCOD8130851 Si02
#       8
#     8   8   8   8   8   8   8   8
#     4  10  21  37  49  75 107 142 177 219 266 308
#     4  11  19  31  52  73 102 140 181 220 256 313
#     4  11  21  31  49  77 110 143 185 211 254 321
#     4  10  18  34  48  74 108 142 177 218 262 312
#     4  10  22  39  55  73 102 140 186 230 269 306
#     4  10  18  29  52  73 106 142 171 209 260 315
#     4  11  21  33  49  80 111 147 171 211 259 325
#     4  11  21  32  52  76 112 145 172 206 265 321
#
# _framework density 16.901909
#
# number of rings (size 3 to 8) (size 9 to 14) (size 15 to 20)
#    0.000    1.500    6.250    3.375    3.500    0.500 
#    0.000    2.500    0.000    0.000    0.000    0.875 
#    0.000    0.000    0.000    0.000    0.000    0.000 
#
# Total GULP energy -396783.348125 kJ/mol
# GULP energy per Si atom -12399.479629 kJ/mol
# Density = 1.686344 g / cm^3
# Si number density = 16.901909 Si / 1000 Ang^3
#
#
#
# Elastic Constant Matrix: (Units=GPa)
#
#
# Indices 1 2 3 4 5 6 
#
# 1 77.7942 45.0156 51.2528 0.0028 15.2963 -0.0210
# 2 45.0156 105.6703 47.2601 -0.0049 0.6080 -0.0201
# 3 51.2528 47.2601 74.4182 0.0008 17.5541 -0.0190
# 4 0.0028 -0.0049 0.0008 21.8852 0.0044 6.0588
# 5 15.2963 0.6080 17.5541 0.0044 29.5799 -0.0119
# 6 -0.0210 -0.0201 -0.0190 6.0588 -0.0119 15.4175
#
#
#
# Elastic Compliance Matrix: (Units=1/GPa)
#
#
# Indices 1 2 3 4 5 6 
#
# 1 0.025367 -0.004909 -0.013119 -0.000006 -0.005231 0.000010
# 2 -0.004909 0.014977 -0.007740 0.000001 0.006824 0.000008
# 3 -0.013119 -0.007740 0.029942 0.000001 -0.010826 0.000000
# 4 -0.000006 0.000001 0.000001 0.051271 -0.000013 -0.020149
# 5 -0.005231 0.006824 -0.010826 -0.000013 0.042796 0.000027
# 6 0.000010 0.000008 0.000000 -0.020149 0.000027 0.072779
#
#
# Mechanical properties :
#
#
# Convention : Reuss Voigt Hill
#
# Bulk Modulus (GPa) = 53.33451 60.54885 56.94168
# Shear Modulus (GPa) = 16.95386 21.00013 18.97699
#
# Velocity S-wave (km/s) = 3.17057 3.52869 3.35441
# Velocity P-wave (km/s) = 6.71023 7.24594 6.98322
#
# Compressibility (1/GPa) = 0.01874959
#
# Stress axis : x y z
#
# Youngs Moduli (GPa) = 39.42191 66.76888 33.39790
#
# Poissons Ratio (x) = 0.32775 0.43815
# Poissons Ratio (y) = 0.19351 0.25851
# Poissons Ratio (z) = 0.51718 0.51681
#
# Static dielectric constant tensor:
#      x y z
#    x 3.011170 -0.000230 0.331680 
#    y -0.000230 3.263270 -0.000040 
#    z 0.331680 -0.000040 3.259320 
# 
# 
# High freq. dielectric constant tensor:
#      x y z
#    x 1.612790 0.000000 0.043740 
#    y 0.000000 1.644040 -0.000010 
#    z 0.043740 -0.000010 1.648160 
# 
# From -- ./inp_files/61922.got.cif
#   From: 2010.06.25/outbox.cif.g09.slc.cpg/sg15_31_cif.got.tgz:61922.got - 2010.06.28 07:06:18.
