data_PCOD8130852
_publ_section_title
;
Structure prediction by ZEFSAII (Michael W. Deem and Ramdas Pophale) SiO2 
 PCOD8130852
Probable space group: C 2/C
;
_chemical_formula_sum "Si O2"
_cell_formula_units_Z 56
_cell_length_a 14.914099
_cell_length_b 27.408104
_cell_length_c 12.525750
_cell_angle_alpha 90.000000
_cell_angle_beta 144.639845
_cell_angle_gamma 90.000000
_cell_volume 2963.083374
_symmetry_space_group_name_H-M "C 2/C"
_symmetry_group_IT_number 15
_symmetry_cell_setting 'monoclinic'
loop_
_space_group_symop_operation_xyz
x,y,z
-x,y,1/2-z
-x,-y,-z
x,-y,1/2+z
1/2+x,1/2+y,z
1/2-x,1/2+y,1/2-z
1/2-x,1/2-y,-z
1/2+x,1/2-y,1/2+z
loop_
_atom_site_type_symbol
_atom_site_label
_atom_site_fract_x
_atom_site_fract_y
_atom_site_fract_z
Si Si1 0.174726 0.058423 0.880813
Si Si2 0.834704 0.203772 0.359861
Si Si3 0.318824 0.843365 0.588844
Si Si4 0.607973 0.368610 0.753724
Si Si5 0.193102 0.195099 0.754318
Si Si6 0.333741 0.594579 0.859529
Si Si7 0.186238 0.046960 0.447224
O O1 0.172839 0.061742 0.751676
O O2 0.000000 0.063190 0.750000
O O3 0.253292 0.006239 0.985821
O O4 0.276137 0.099724 0.036143
O O5 0.726511 0.176009 0.339101
O O6 0.812021 0.178535 0.221449
O O7 0.783386 0.259330 0.293436
O O8 0.010497 0.202951 0.569370
O O9 0.500000 0.836225 0.750000
O O10 0.229092 0.811197 0.414296
O O11 0.500000 0.352697 0.750000
O O12 0.509823 0.393709 0.563313
O O13 0.737145 0.408618 0.917418
O O14 0.249241 0.146802 0.743891
O O15 0.257014 0.562551 0.879388
O O16 0.000000 0.045390 0.250000
#
# Coordination Sequence:
#
# PCOD8130852 Si02
#       7
#     8   8   8   8   8   8   8
#     4  10  18  29  52  79 101 132 172 214 263 305
#     4  11  20  34  55  77 105 137 174 215 258 306
#     4  11  22  35  51  76 109 138 172 211 256 315
#     4   8  16  31  50  77 107 134 171 216 255 298
#     4  10  20  34  53  76 104 137 171 211 263 308
#     4   8  16  30  45  70 106 132 162 212 255 299
#     4   8  16  29  49  76 103 133 172 215 254 297
#
# _framework density 18.899232000000001
#
# number of rings (size 3 to 8) (size 9 to 14) (size 15 to 20)
#    0.000    2.857    0.000    4.286    0.000    6.286 
#    0.000    6.429    0.000    9.429    0.000   13.000 
#    0.000    0.000    0.000    0.000    0.000    0.000 
#
# Total GULP energy -346977.420252 kJ/mol
# GULP energy per Si atom -12392.050723 kJ/mol
# Density = 1.885622 g / cm^3
# Si number density = 18.899232 Si / 1000 Ang^3
#
#
#
# Elastic Constant Matrix: (Units=GPa)
#
#
# Indices 1 2 3 4 5 6 
#
# 1 83.4277 77.3206 43.2140 0.0000 -17.1756 0.0000
# 2 77.3206 165.7750 40.3482 0.0000 -25.2434 0.0000
# 3 43.2140 40.3482 58.0205 0.0000 -9.6780 0.0000
# 4 0.0000 0.0000 0.0000 67.1576 0.0000 -2.3435
# 5 -17.1756 -25.2434 -9.6780 0.0000 34.5813 0.0000
# 6 0.0000 0.0000 0.0000 -2.3435 0.0000 34.8465
#
#
#
# Elastic Compliance Matrix: (Units=1/GPa)
#
#
# Indices 1 2 3 4 5 6 
#
# 1 0.028911 -0.009463 -0.014381 0.000000 0.003427 0.000000
# 2 -0.009463 0.010951 -0.000019 0.000000 0.003289 0.000000
# 3 -0.014381 -0.000019 0.028077 0.000000 0.000701 0.000000
# 4 0.000000 0.000000 0.000000 0.014925 0.000000 0.001004
# 5 0.003427 0.003289 0.000701 0.000000 0.033217 0.000000
# 6 0.000000 0.000000 0.000000 0.001004 0.000000 0.028765
#
#
# Mechanical properties :
#
#
# Convention : Reuss Voigt Hill
#
# Bulk Modulus (GPa) = 49.47260 69.88765 59.68013
# Shear Modulus (GPa) = 25.08668 37.07310 31.07989
#
# Velocity S-wave (km/s) = 3.64729 4.43382 4.05965
# Velocity P-wave (km/s) = 6.63105 7.95431 7.32263
#
# Compressibility (1/GPa) = 0.02021321
#
# Stress axis : x y z
#
# Youngs Moduli (GPa) = 34.58904 91.31338 35.61678
#
# Poissons Ratio (x) = 0.86405 0.51220
# Poissons Ratio (y) = 0.32730 0.00069
# Poissons Ratio (z) = 0.49742 0.00177
#
# Static dielectric constant tensor:
#      x y z
#    x 3.309810 0.000000 -0.338890 
#    y 0.000000 4.005530 0.000000 
#    z -0.338890 0.000000 3.331810 
# 
# 
# High freq. dielectric constant tensor:
#      x y z
#    x 1.704520 0.000000 -0.031380 
#    y 0.000000 1.752130 0.000000 
#    z -0.031380 0.000000 1.712680 
# 
# From -- ./inp_files/101134.got.cif
#   From: 2010.06.25/outbox.cif.g09.slc.cpg/sg15_51_cif.got.tgz:101134.got - 2010.06.28 07:06:18.
