data_PCOD8130744
_publ_section_title
;
Structure prediction by ZEFSAII (Michael W. Deem and Ramdas Pophale) SiO2 
 PCOD8130744
Probable space group: C 2/C
;
_chemical_formula_sum "Si O2"
_cell_formula_units_Z 40
_cell_length_a 20.726244
_cell_length_b 25.876631
_cell_length_c 5.195767
_cell_angle_alpha 90.000000
_cell_angle_beta 104.977420
_cell_angle_gamma 90.000000
_cell_volume 2691.953843
_symmetry_space_group_name_H-M "C 2/C"
_symmetry_group_IT_number 15
_symmetry_cell_setting 'monoclinic'
loop_
_space_group_symop_operation_xyz
x,y,z
-x,y,1/2-z
-x,-y,-z
x,-y,1/2+z
1/2+x,1/2+y,z
1/2-x,1/2+y,1/2-z
1/2-x,1/2-y,-z
1/2+x,1/2-y,1/2+z
loop_
_atom_site_type_symbol
_atom_site_label
_atom_site_fract_x
_atom_site_fract_y
_atom_site_fract_z
Si Si1 0.270008 0.667001 0.516385
Si Si2 0.923009 0.967466 0.656478
Si Si3 0.855940 0.729773 0.104884
Si Si4 0.336077 0.366082 0.584026
Si Si5 0.422032 0.737099 0.172168
O O1 0.191002 0.679098 0.446419
O O2 0.310115 0.720040 0.561223
O O3 0.286083 0.635883 0.273839
O O4 0.290986 0.632584 0.781922
O O5 0.878783 0.917386 0.649886
O O6 0.000000 0.950286 0.750000
O O7 0.906254 0.991926 0.363302
O O8 0.902069 0.728929 0.404624
O O9 0.902494 0.729683 0.901944
O O10 0.385927 0.317898 0.634113
O O11 0.500000 0.725770 0.250000
#
# Coordination Sequence:
#
# PCOD8130744 Si02
#       5
#     8   8   8   8   8
#     4   9  17  28  43  59  77 104 137 176 207 237
#     4  10  20  32  44  59  82 110 140 177 218 250
#     4   9  17  28  40  58  82 105 135 171 206 240
#     4  10  18  29  44  60  78 105 146 180 205 238
#     4  10  18  27  41  60  83 110 140 172 202 236
#
# _framework density 14.859097
#
# number of rings (size 3 to 8) (size 9 to 14) (size 15 to 20)
#    0.000    2.400    0.000    3.600    0.000    4.800 
#    0.000    6.000    0.000    0.000    0.000    0.000 
#    0.000    0.000    0.000    0.000    0.000  252.000 
#
# Total GULP energy -248012.201128 kJ/mol
# GULP energy per Si atom -12400.610056 kJ/mol
# Density = 1.482528 g / cm^3
# Si number density = 14.859097 Si / 1000 Ang^3
#
#
#
# Elastic Constant Matrix: (Units=GPa)
#
#
# Indices 1 2 3 4 5 6 
#
# 1 62.7864 27.5001 29.4936 0.0000 -8.3949 0.0000
# 2 27.5001 46.2584 13.7870 0.0000 -1.6183 0.0000
# 3 29.4936 13.7870 101.8466 0.0000 -13.8227 0.0000
# 4 0.0000 0.0000 0.0000 11.1220 0.0000 0.5089
# 5 -8.3949 -1.6183 -13.8227 0.0000 25.4603 0.0000
# 6 0.0000 0.0000 0.0000 0.5089 0.0000 23.5860
#
#
#
# Elastic Compliance Matrix: (Units=1/GPa)
#
#
# Indices 1 2 3 4 5 6 
#
# 1 0.024433 -0.012965 -0.004684 0.000000 0.004689 0.000000
# 2 -0.012965 0.029408 -0.000597 0.000000 -0.002730 0.000000
# 3 -0.004684 -0.000597 0.011919 0.000000 0.004889 0.000000
# 4 0.000000 0.000000 0.000000 0.090001 0.000000 -0.001942
# 5 0.004689 -0.002730 0.004889 0.000000 0.043304 0.000000
# 6 0.000000 0.000000 0.000000 -0.001942 0.000000 0.042440
#
#
# Mechanical properties :
#
#
# Convention : Reuss Voigt Hill
#
# Bulk Modulus (GPa) = 34.16678 39.16141 36.66409
# Shear Modulus (GPa) = 17.37608 21.37438 19.37523
#
# Velocity S-wave (km/s) = 3.42334 3.79683 3.61492
# Velocity P-wave (km/s) = 6.21848 6.75527 6.49242
#
# Compressibility (1/GPa) = 0.02926820
#
# Stress axis : x y z
#
# Youngs Moduli (GPa) = 40.92862 34.00481 83.89663
#
# Poissons Ratio (x) = 0.44087 0.39297
# Poissons Ratio (y) = 0.53064 0.05008
# Poissons Ratio (z) = 0.19171 0.02030
#
# Static dielectric constant tensor:
#      x y z
#    x 2.846350 0.000000 -0.100430 
#    y 0.000000 2.514140 0.000000 
#    z -0.100430 0.000000 3.211230 
# 
# 
# High freq. dielectric constant tensor:
#      x y z
#    x 1.558100 0.000000 -0.010680 
#    y 0.000000 1.521760 0.000000 
#    z -0.010680 0.000000 1.592530 
# 
# From -- ./inp_files/7271.got.cif
#   From: 2010.06.25/outbox.cif.g09.slc.cpg/sg15_4_cif.got.tgz:7271.got - 2010.06.28 07:06:18.
