data_PCOD8130772
_publ_section_title
;
Structure prediction by ZEFSAII (Michael W. Deem and Ramdas Pophale) SiO2 
 PCOD8130772
Probable space group: C 2/C
;
_chemical_formula_sum "Si O2"
_cell_formula_units_Z 44
_cell_length_a 9.235934
_cell_length_b 21.708345
_cell_length_c 10.514077
_cell_angle_alpha 90.000000
_cell_angle_beta 122.919279
_cell_angle_gamma 90.000000
_cell_volume 1769.566231
_symmetry_space_group_name_H-M "C 2/C"
_symmetry_group_IT_number 15
_symmetry_cell_setting 'monoclinic'
loop_
_space_group_symop_operation_xyz
x,y,z
-x,y,1/2-z
-x,-y,-z
x,-y,1/2+z
1/2+x,1/2+y,z
1/2-x,1/2+y,1/2-z
1/2-x,1/2-y,-z
1/2+x,1/2-y,1/2+z
loop_
_atom_site_type_symbol
_atom_site_label
_atom_site_fract_x
_atom_site_fract_y
_atom_site_fract_z
Si Si1 0.734421 0.247101 0.226407
Si Si2 0.560918 0.672457 0.996219
Si Si3 0.000000 0.338858 0.250000
Si Si4 0.172481 0.043655 0.968506
Si Si5 0.718006 0.638368 0.434004
Si Si6 0.313002 0.477789 0.752699
O O1 0.552064 0.282519 0.146206
O O2 0.885433 0.296989 0.288021
O O3 0.734396 0.204328 0.101898
O O4 0.769303 0.208386 0.371958
O O5 0.620787 0.614987 0.939024
O O6 0.457421 0.646435 0.069243
O O7 0.126301 0.381114 0.396630
O O8 0.278657 0.027238 0.888421
O O9 0.274176 0.026470 0.148017
O O10 0.011314 0.996698 0.875873
O O11 0.695594 0.589787 0.311412
#
# Coordination Sequence:
#
# PCOD8130772 Si02
#       6
#     8   8   4   8   8   8
#     4  11  18  29  48  77 113 144 171 226 280 328
#     4  11  19  30  50  78 111 140 178 223 280 321
#     4  10  18  28  44  78 110 148 164 222 294 330
#     4  10  20  33  55  84 109 140 182 233 269 316
#     4  11  18  29  51  76 116 136 177 230 284 317
#     4  10  20  33  55  82 108 138 186 229 271 309
#
# _framework density 24.864850000000001
#
# number of rings (size 3 to 8) (size 9 to 14) (size 15 to 20)
#    0.000    1.455    5.455    4.364    0.000    0.000 
#    0.000    0.000    0.000   16.364    0.000    0.000 
#    0.000    0.000    0.000    0.000    0.000    0.000 
#
# Total GULP energy -272591.706114 kJ/mol
# GULP energy per Si atom -12390.532096 kJ/mol
# Density = 2.480826 g / cm^3
# Si number density = 24.864850 Si / 1000 Ang^3
#
#
#
# Elastic Constant Matrix: (Units=GPa)
#
#
# Indices 1 2 3 4 5 6 
#
# 1 22.3768 25.3510 44.8580 0.0000 -12.1698 0.0000
# 2 25.3510 138.8197 80.7602 0.0000 -6.1554 0.0000
# 3 44.8580 80.7602 191.6971 0.0000 -16.0694 0.0000
# 4 0.0000 0.0000 0.0000 61.8191 0.0000 -12.5680
# 5 -12.1698 -6.1554 -16.0694 0.0000 31.8477 0.0000
# 6 0.0000 0.0000 0.0000 -12.5680 0.0000 6.2557
#
#
#
# Elastic Compliance Matrix: (Units=1/GPa)
#
#
# Indices 1 2 3 4 5 6 
#
# 1 0.109377 -0.006912 -0.020143 0.000000 0.030296 0.000000
# 2 -0.006912 0.009980 -0.002764 0.000000 -0.002107 0.000000
# 3 -0.020143 -0.002764 0.010864 0.000000 -0.002750 0.000000
# 4 0.000000 0.000000 0.000000 0.027345 0.000000 0.054938
# 5 0.030296 -0.002107 -0.002750 0.000000 0.041182 0.000000
# 6 0.000000 0.000000 0.000000 0.054938 0.000000 0.270229
#
#
# Mechanical properties :
#
#
# Convention : Reuss Voigt Hill
#
# Bulk Modulus (GPa) = 14.16771 72.75910 43.46340
# Shear Modulus (GPa) = 9.05563 33.44613 21.25088
#
# Velocity S-wave (km/s) = 1.91046 3.67156 2.92662
# Velocity P-wave (km/s) = 3.25219 6.87744 5.37940
#
# Compressibility (1/GPa) = 0.07058304
#
# Stress axis : x y z
#
# Youngs Moduli (GPa) = 9.14271 100.19723 92.04787
#
# Poissons Ratio (x) = 0.69260 1.85411
# Poissons Ratio (y) = 0.06320 0.25439
# Poissons Ratio (z) = 0.18416 0.27691
#
# Static dielectric constant tensor:
#      x y z
#    x 4.000400 0.000000 -0.483560 
#    y 0.000000 4.443190 0.000000 
#    z -0.483560 0.000000 5.262640 
# 
# 
# High freq. dielectric constant tensor:
#      x y z
#    x 1.913650 0.000000 -0.022660 
#    y 0.000000 1.994470 0.000000 
#    z -0.022660 0.000000 2.018300 
# 
# From -- ./inp_files/89223.got.cif
#   From: 2010.06.25/outbox.cif.g09.slc.cpg/sg15_45_cif.got.tgz:89223.got - 2010.06.28 07:06:18.
