data_PCOD8130360
_publ_section_title
;
Structure prediction by ZEFSAII (Michael W. Deem and Ramdas Pophale) SiO2 
 PCOD8130360
Probable space group: C 2/C
;
_chemical_formula_sum "Si O2"
_cell_formula_units_Z 56
_cell_length_a 16.674694
_cell_length_b 14.236938
_cell_length_c 31.561368
_cell_angle_alpha 90.000000
_cell_angle_beta 154.932194
_cell_angle_gamma 90.000000
_cell_volume 3174.527088
_symmetry_space_group_name_H-M "C 2/C"
_symmetry_group_IT_number 15
_symmetry_cell_setting 'monoclinic'
loop_
_space_group_symop_operation_xyz
x,y,z
-x,y,1/2-z
-x,-y,-z
x,-y,1/2+z
1/2+x,1/2+y,z
1/2-x,1/2+y,1/2-z
1/2-x,1/2-y,-z
1/2+x,1/2-y,1/2+z
loop_
_atom_site_type_symbol
_atom_site_label
_atom_site_fract_x
_atom_site_fract_y
_atom_site_fract_z
Si Si1 0.129116 0.216287 0.166378
Si Si2 0.505529 0.209073 0.204656
Si Si3 0.871256 0.086100 0.989322
Si Si4 0.917561 0.897129 0.412563
Si Si5 0.067630 0.590648 0.157437
Si Si6 0.548503 0.896377 0.181363
Si Si7 0.659843 0.223173 0.500746
O O1 0.291455 0.254224 0.211087
O O2 0.224900 0.139527 0.243762
O O3 0.046696 0.299934 0.154792
O O4 0.960410 0.169352 0.059722
O O5 0.500000 0.171260 0.250000
O O6 0.466368 0.121311 0.153973
O O7 0.333059 0.284604 0.117241
O O8 0.914000 0.105958 0.961166
O O9 0.648846 0.087135 0.890012
O O10 0.962737 0.986586 0.046630
O O11 0.707328 0.901981 0.293338
O O12 0.008787 0.801163 0.440875
O O13 0.083321 0.478722 0.163554
O O14 0.949788 0.624717 0.059547
O O15 0.750000 0.250000 0.500000
#
# Coordination Sequence:
#
# PCOD8130360 Si02
#       7
#     8   8   8   8   8   8   8
#     4  10  21  36  50  83 111 141 179 219 266 327
#     4   9  17  32  57  81 107 135 174 235 275 303
#     4  11  23  34  54  83 115 143 171 223 279 327
#     4  11  21  35  55  83 112 139 178 224 272 324
#     4   9  20  33  53  80 106 137 180 225 258 317
#     4  12  21  37  56  78 111 147 180 213 276 324
#     4  10  17  32  53  80 107 140 178 218 270 308
#
# _framework density 17.640422000000001
#
# number of rings (size 3 to 8) (size 9 to 14) (size 15 to 20)
#    0.857    0.857    2.857    3.429    0.000    2.286 
#    0.000    0.000    0.000    3.429    0.000    0.000 
#    0.000    0.000    0.000    0.000    0.000    0.000 
#
# Total GULP energy -346966.606187 kJ/mol
# GULP energy per Si atom -12391.664507 kJ/mol
# Density = 1.760027 g / cm^3
# Si number density = 17.640422 Si / 1000 Ang^3
#
#
#
# Elastic Constant Matrix: (Units=GPa)
#
#
# Indices 1 2 3 4 5 6 
#
# 1 43.2668 10.2179 9.5363 0.0006 11.1427 -0.0001
# 2 10.2179 44.8005 -1.8199 -0.0001 4.7256 0.0006
# 3 9.5363 -1.8199 84.5498 -0.0015 15.3608 0.0011
# 4 0.0006 -0.0001 -0.0015 23.0057 0.0000 -0.0380
# 5 11.1427 4.7256 15.3608 0.0000 23.1615 -0.0005
# 6 -0.0001 0.0006 0.0011 -0.0380 -0.0005 18.4869
#
#
#
# Elastic Compliance Matrix: (Units=1/GPa)
#
#
# Indices 1 2 3 4 5 6 
#
# 1 0.027517 -0.005115 -0.001135 -0.000001 -0.011442 0.000000
# 2 -0.005115 0.023936 0.001742 0.000000 -0.003578 -0.000001
# 3 -0.001135 0.001742 0.013596 0.000001 -0.008827 -0.000001
# 4 -0.000001 0.000000 0.000001 0.043468 0.000000 0.000089
# 5 -0.011442 -0.003578 -0.008827 0.000000 0.055264 0.000002
# 6 0.000000 -0.000001 -0.000001 0.000089 0.000002 0.054092
#
#
# Mechanical properties :
#
#
# Convention : Reuss Voigt Hill
#
# Bulk Modulus (GPa) = 17.84638 23.16508 20.50573
# Shear Modulus (GPa) = 20.36100 23.24301 21.80201
#
# Velocity S-wave (km/s) = 3.40107 3.63381 3.51937
# Velocity P-wave (km/s) = 5.05587 5.54675 5.30699
#
# Compressibility (1/GPa) = 0.05603377
#
# Stress axis : x y z
#
# Youngs Moduli (GPa) = 36.34079 41.77803 73.54850
#
# Poissons Ratio (x) = 0.21370 0.08348
# Poissons Ratio (y) = 0.18589 -0.12814
# Poissons Ratio (z) = 0.04125 -0.07279
#
# Static dielectric constant tensor:
#      x y z
#    x 2.995390 0.000000 -0.071500 
#    y 0.000000 3.206060 0.000000 
#    z -0.071500 0.000000 3.645880 
# 
# 
# High freq. dielectric constant tensor:
#      x y z
#    x 1.654750 0.000000 0.005650 
#    y 0.000000 1.659380 0.000000 
#    z 0.005650 0.000000 1.703940 
# 
# From -- ./inp_files/313912.got.cif
#   From: 2010.06.25/outbox.cif.g09.slc.cpg/sg15_157_cif.got.tgz:313912.got - 2010.06.28 07:06:18.
