data_PCOD8130400
_publ_section_title
;
Structure prediction by ZEFSAII (Michael W. Deem and Ramdas Pophale) SiO2 
 PCOD8130400
Probable space group: C 2/C
;
_chemical_formula_sum "Si O2"
_cell_formula_units_Z 64
_cell_length_a 19.044188
_cell_length_b 14.664714
_cell_length_c 19.854031
_cell_angle_alpha 90.000000
_cell_angle_beta 36.839609
_cell_angle_gamma 90.000000
_cell_volume 3324.525918
_symmetry_space_group_name_H-M "C 2/C"
_symmetry_group_IT_number 15
_symmetry_cell_setting 'monoclinic'
loop_
_space_group_symop_operation_xyz
x,y,z
-x,y,1/2-z
-x,-y,-z
x,-y,1/2+z
1/2+x,1/2+y,z
1/2-x,1/2+y,1/2-z
1/2-x,1/2-y,-z
1/2+x,1/2-y,1/2+z
loop_
_atom_site_type_symbol
_atom_site_label
_atom_site_fract_x
_atom_site_fract_y
_atom_site_fract_z
Si Si1 0.582483 0.165043 0.822036
Si Si2 0.648319 0.875131 0.422940
Si Si3 0.185933 0.559306 0.131362
Si Si4 0.688712 0.590170 0.896359
Si Si5 0.554781 0.637245 0.378296
Si Si6 0.117798 0.826735 0.979013
Si Si7 0.460264 0.008562 0.382950
Si Si8 0.109592 0.938196 0.310220
O O1 0.601048 0.131306 0.883762
O O2 0.696022 0.150324 0.689607
O O3 0.572124 0.273011 0.820284
O O4 0.477265 0.101770 0.873228
O O5 0.612082 0.782441 0.488879
O O6 0.788955 0.896444 0.315948
O O7 0.578886 0.955525 0.514135
O O8 0.294093 0.493215 0.066176
O O9 0.256742 0.654215 0.080635
O O10 0.139805 0.535827 0.092937
O O11 0.083007 0.554446 0.266056
O O12 0.662280 0.551249 0.843413
O O13 0.581403 0.650250 0.001902
O O14 0.625436 0.641492 0.394802
O O15 0.580079 0.544803 0.316024
O O16 0.005301 0.872870 0.102856
#
# Coordination Sequence:
#
# PCOD8130400 Si02
#       8
#     8   8   8   8   8   8   8   8
#     4   9  20  34  52  82 112 143 180 227 280 325
#     4  10  22  34  54  85 114 138 174 237 291 312
#     4  10  19  36  59  71 104 153 189 219 253 333
#     4   9  16  33  54  78 105 141 183 221 265 326
#     4  10  17  32  57  86 106 138 184 229 277 323
#     4  10  19  34  57  83 107 143 184 224 273 334
#     4  10  22  37  52  77 110 148 188 218 270 326
#     4  10  18  33  57  85 108 137 176 228 286 323
#
# _framework density 19.250865999999998
#
# number of rings (size 3 to 8) (size 9 to 14) (size 15 to 20)
#    0.000    2.250    2.500    1.125    1.750    1.500 
#    2.250    1.250    0.000    3.000    0.000    0.000 
#    0.000    0.000    0.000    0.000    0.000    0.000 
#
# Total GULP energy -396441.178750 kJ/mol
# GULP energy per Si atom -12388.786836 kJ/mol
# Density = 1.920705 g / cm^3
# Si number density = 19.250866 Si / 1000 Ang^3
#
#
#
# Elastic Constant Matrix: (Units=GPa)
#
#
# Indices 1 2 3 4 5 6 
#
# 1 65.5554 16.8572 14.5843 -0.0001 -19.6558 0.0000
# 2 16.8572 121.0404 41.3183 -0.0001 -17.2199 0.0000
# 3 14.5843 41.3183 68.7884 -0.0002 -10.3510 0.0001
# 4 -0.0001 -0.0001 -0.0002 20.5298 0.0001 -3.7208
# 5 -19.6558 -17.2199 -10.3510 0.0001 19.1655 0.0000
# 6 0.0000 0.0000 0.0001 -3.7208 0.0000 22.2387
#
#
#
# Elastic Compliance Matrix: (Units=1/GPa)
#
#
# Indices 1 2 3 4 5 6 
#
# 1 0.022193 0.000699 -0.001748 0.000000 0.022445 0.000000
# 2 0.000699 0.011214 -0.005725 0.000000 0.007701 0.000000
# 3 -0.001748 -0.005725 0.018834 0.000000 0.003235 0.000000
# 4 0.000000 0.000000 0.000000 0.050233 0.000000 0.008405
# 5 0.022445 0.007701 0.003235 0.000000 0.083862 0.000000
# 6 0.000000 0.000000 0.000000 0.008405 0.000000 0.046373
#
#
# Mechanical properties :
#
#
# Convention : Reuss Voigt Hill
#
# Bulk Modulus (GPa) = 25.84463 44.54487 35.19475
# Shear Modulus (GPa) = 19.29343 24.56174 21.92759
#
# Velocity S-wave (km/s) = 3.16921 3.57582 3.37863
# Velocity P-wave (km/s) = 5.18133 6.34334 5.79155
#
# Compressibility (1/GPa) = 0.03869276
#
# Stress axis : x y z
#
# Youngs Moduli (GPa) = 45.05894 89.17174 53.09630
#
# Poissons Ratio (x) = -0.06233 0.09280
# Poissons Ratio (y) = -0.03149 0.30400
# Poissons Ratio (z) = 0.07875 0.51055
#
# Static dielectric constant tensor:
#      x y z
#    x 3.330840 0.000000 -0.256660 
#    y 0.000000 3.675330 0.000000 
#    z -0.256660 0.000000 3.563530 
# 
# 
# High freq. dielectric constant tensor:
#      x y z
#    x 1.721550 0.000000 -0.025840 
#    y 0.000000 1.751460 0.000000 
#    z -0.025840 0.000000 1.737370 
# 
# From -- ./inp_files/211367.got.cif
#   From: 2010.06.25/outbox.cif.g09.slc.cpg/sg15_106_cif.got.tgz:211367.got - 2010.06.28 07:06:18.
