data_PCOD8130843
_publ_section_title
;
Structure prediction by ZEFSAII (Michael W. Deem and Ramdas Pophale) SiO2 
 PCOD8130843
Probable space group: C 2/C
;
_chemical_formula_sum "Si O2"
_cell_formula_units_Z 64
_cell_length_a 23.591249
_cell_length_b 22.806932
_cell_length_c 11.050476
_cell_angle_alpha 90.000000
_cell_angle_beta 34.075063
_cell_angle_gamma 90.000000
_cell_volume 3331.215880
_symmetry_space_group_name_H-M "C 2/C"
_symmetry_group_IT_number 15
_symmetry_cell_setting 'monoclinic'
loop_
_space_group_symop_operation_xyz
x,y,z
-x,y,1/2-z
-x,-y,-z
x,-y,1/2+z
1/2+x,1/2+y,z
1/2-x,1/2+y,1/2-z
1/2-x,1/2-y,-z
1/2+x,1/2-y,1/2+z
loop_
_atom_site_type_symbol
_atom_site_label
_atom_site_fract_x
_atom_site_fract_y
_atom_site_fract_z
Si Si1 0.250878 0.063094 0.641362
Si Si2 0.606960 0.269778 0.742866
Si Si3 0.064378 0.303988 0.017123
Si Si4 0.095581 0.583928 0.320354
Si Si5 0.114560 0.116727 0.074292
Si Si6 0.758972 0.059563 0.444643
Si Si7 0.236646 0.317502 0.879207
Si Si8 0.601080 0.031568 0.917778
O O1 0.296692 0.091949 0.438656
O O2 0.344084 0.059111 0.566831
O O3 0.205644 0.998478 0.691191
O O4 0.169645 0.105964 0.847845
O O5 0.628030 0.316576 0.597737
O O6 0.648183 0.293136 0.800510
O O7 0.668007 0.209692 0.608305
O O8 0.486221 0.254385 0.954737
O O9 0.055157 0.353834 0.934098
O O10 0.183437 0.297950 0.846376
O O11 0.000000 0.320601 0.250000
O O12 0.107003 0.539574 0.414208
O O13 0.013328 0.554756 0.376241
O O14 0.155816 0.073393 0.105272
O O15 0.000000 0.100657 0.250000
O O16 0.742503 0.112355 0.378628
O O17 0.652323 0.049208 0.699135
#
# Coordination Sequence:
#
# PCOD8130843 Si02
#       8
#     8   8   8   8   8   8   8   8
#     4  10  20  33  49  75 108 136 170 212 256 309
#     4   9  18  31  50  77  97 127 178 216 254 306
#     4  10  18  29  50  75 101 131 172 212 251 303
#     4  10  19  29  47  77 107 140 170 200 252 313
#     4  10  20  35  54  73  98 134 177 224 263 298
#     4   9  18  31  49  76 102 134 173 207 253 313
#     4   9  16  29  50  73 101 130 165 217 256 289
#     4   9  17  29  45  69 110 143 163 195 248 312
#
# _framework density 19.212204
#
# number of rings (size 3 to 8) (size 9 to 14) (size 15 to 20)
#    0.000    2.500    0.000    3.750    0.000    3.500 
#    0.000    0.000    0.000    6.750    0.000   15.750 
#    0.000    0.000    0.000    0.000    0.000    0.000 
#
# Total GULP energy -396437.948335 kJ/mol
# GULP energy per Si atom -12388.685885 kJ/mol
# Density = 1.916848 g / cm^3
# Si number density = 19.212204 Si / 1000 Ang^3
#
#
#
# Elastic Constant Matrix: (Units=GPa)
#
#
# Indices 1 2 3 4 5 6 
#
# 1 85.7012 33.1283 34.0498 0.0000 -23.4614 0.0000
# 2 33.1283 104.5622 38.8560 0.0000 -3.4706 0.0000
# 3 34.0498 38.8560 71.3675 0.0000 -10.7733 0.0000
# 4 0.0000 0.0000 0.0000 25.1882 0.0000 -0.5341
# 5 -23.4614 -3.4706 -10.7733 0.0000 22.6583 0.0000
# 6 0.0000 0.0000 0.0000 -0.5341 0.0000 24.0674
#
#
#
# Elastic Compliance Matrix: (Units=1/GPa)
#
#
# Indices 1 2 3 4 5 6 
#
# 1 0.019940 -0.004000 -0.004645 0.000000 0.017825 0.000000
# 2 -0.004000 0.012831 -0.005824 0.000000 -0.004945 0.000000
# 3 -0.004645 -0.005824 0.019972 0.000000 0.003794 0.000000
# 4 0.000000 0.000000 0.000000 0.039720 0.000000 0.000881
# 5 0.017825 -0.004945 0.003794 0.000000 0.063638 0.000000
# 6 0.000000 0.000000 0.000000 0.000881 0.000000 0.041570
#
#
# Mechanical properties :
#
#
# Convention : Reuss Voigt Hill
#
# Bulk Modulus (GPa) = 42.00761 52.63322 47.32042
# Shear Modulus (GPa) = 21.31810 24.75590 23.03700
#
# Velocity S-wave (km/s) = 3.33470 3.59353 3.46653
# Velocity P-wave (km/s) = 6.06131 6.68380 6.38015
#
# Compressibility (1/GPa) = 0.02380521
#
# Stress axis : x y z
#
# Youngs Moduli (GPa) = 50.15063 77.93599 50.07064
#
# Poissons Ratio (x) = 0.31173 0.23257
# Poissons Ratio (y) = 0.20059 0.29161
# Poissons Ratio (z) = 0.23295 0.45390
#
# Static dielectric constant tensor:
#      x y z
#    x 3.815870 0.000000 -0.259110 
#    y 0.000000 3.528880 0.000000 
#    z -0.259110 0.000000 3.243200 
# 
# 
# High freq. dielectric constant tensor:
#      x y z
#    x 1.755600 0.000000 -0.021130 
#    y 0.000000 1.743770 0.000000 
#    z -0.021130 0.000000 1.693030 
# 
# From -- ./inp_files/124256.got.cif
#   From: 2010.06.25/outbox.cif.g09.slc.cpg/sg15_63_cif.got.tgz:124256.got - 2010.06.28 07:06:18.
