data_PCOD8130201
_publ_section_title
;
Structure prediction by ZEFSAII (Michael W. Deem and Ramdas Pophale) SiO2 
 PCOD8130201
Probable space group: C 2/C
;
_chemical_formula_sum "Si O2"
_cell_formula_units_Z 64
_cell_length_a 9.765962
_cell_length_b 24.114236
_cell_length_c 16.243982
_cell_angle_alpha 90.000000
_cell_angle_beta 117.123962
_cell_angle_gamma 90.000000
_cell_volume 3404.723758
_symmetry_space_group_name_H-M "C 2/C"
_symmetry_group_IT_number 15
_symmetry_cell_setting 'monoclinic'
loop_
_space_group_symop_operation_xyz
x,y,z
-x,y,1/2-z
-x,-y,-z
x,-y,1/2+z
1/2+x,1/2+y,z
1/2-x,1/2+y,1/2-z
1/2-x,1/2-y,-z
1/2+x,1/2-y,1/2+z
loop_
_atom_site_type_symbol
_atom_site_label
_atom_site_fract_x
_atom_site_fract_y
_atom_site_fract_z
Si Si1 0.978781 0.701008 0.542697
Si Si2 0.939190 0.513984 0.147775
Si Si3 0.830412 0.807110 0.445106
Si Si4 0.547963 0.591866 0.007350
Si Si5 0.153996 0.396696 0.998875
Si Si6 0.378822 0.498359 0.366469
Si Si7 0.650460 0.169285 0.743869
Si Si8 0.784404 0.442088 0.314476
O O1 0.961491 0.760463 0.494345
O O2 0.805077 0.688388 0.524729
O O3 0.046318 0.654172 0.499559
O O4 0.097785 0.706625 0.651600
O O5 0.769140 0.489433 0.114487
O O6 0.000000 0.540399 0.250000
O O7 0.040543 0.461720 0.148471
O O8 0.952017 0.561110 0.081537
O O9 0.760570 0.795949 0.334884
O O10 0.910114 0.865877 0.474612
O O11 0.705276 0.622741 0.021396
O O12 0.510376 0.543862 0.930755
O O13 0.568856 0.562247 0.103064
O O14 0.237659 0.430374 0.095578
O O15 0.334202 0.487020 0.257929
O O16 0.500000 0.148264 0.750000
O O17 0.743487 0.115243 0.741390
#
# Coordination Sequence:
#
# PCOD8130201 Si02
#       8
#     8   8   8   8   8   8   8   8
#     4   9  21  36  57  83 102 133 193 228 264 310
#     4   9  18  32  54  77 107 147 182 210 263 323
#     4  10  19  37  59  77 103 149 177 226 270 322
#     4  10  20  33  53  76 113 145 171 209 274 329
#     4  10  21  34  50  82 112 137 175 235 259 315
#     4   9  18  32  49  79 106 145 174 204 260 337
#     4   9  16  30  54  79 101 133 179 225 264 310
#     4  10  17  30  53  79 107 138 180 224 258 306
#
# _framework density 18.797412999999999
#
# number of rings (size 3 to 8) (size 9 to 14) (size 15 to 20)
#    0.000    2.500    1.250    1.500    3.500    1.000 
#    2.250    3.750    0.000    0.000    0.000    0.000 
#    0.000    0.000    0.000    0.000    0.000    0.000 
#
# Total GULP energy -396519.073908 kJ/mol
# GULP energy per Si atom -12391.221060 kJ/mol
# Density = 1.875463 g / cm^3
# Si number density = 18.797413 Si / 1000 Ang^3
#
#
#
# Elastic Constant Matrix: (Units=GPa)
#
#
# Indices 1 2 3 4 5 6 
#
# 1 48.7116 31.8149 17.4830 0.0000 5.6218 0.0000
# 2 31.8149 81.6197 51.7483 0.0000 -0.3651 0.0000
# 3 17.4830 51.7483 105.2669 0.0000 -0.3404 0.0000
# 4 0.0000 0.0000 0.0000 31.1317 0.0000 6.4322
# 5 5.6218 -0.3651 -0.3404 0.0000 23.2288 0.0000
# 6 0.0000 0.0000 0.0000 6.4322 0.0000 29.5826
#
#
#
# Elastic Compliance Matrix: (Units=1/GPa)
#
#
# Indices 1 2 3 4 5 6 
#
# 1 0.028750 -0.011908 0.001056 0.000000 -0.007130 0.000000
# 2 -0.011908 0.022732 -0.009187 0.000000 0.003105 0.000000
# 3 0.001056 -0.009187 0.013840 0.000000 -0.000197 0.000000
# 4 0.000000 0.000000 0.000000 0.033632 0.000000 -0.007313
# 5 -0.007130 0.003105 -0.000197 0.000000 0.044822 0.000000
# 6 0.000000 0.000000 0.000000 -0.007313 0.000000 0.035394
#
#
# Mechanical properties :
#
#
# Convention : Reuss Voigt Hill
#
# Bulk Modulus (GPa) = 39.61352 48.63230 44.12291
# Shear Modulus (GPa) = 21.96219 25.75876 23.86047
#
# Velocity S-wave (km/s) = 3.42184 3.70582 3.56666
# Velocity P-wave (km/s) = 6.06066 6.65122 6.36280
#
# Compressibility (1/GPa) = 0.02524391
#
# Stress axis : x y z
#
# Youngs Moduli (GPa) = 34.78216 43.99002 72.25412
#
# Poissons Ratio (x) = 0.52384 -0.07629
# Poissons Ratio (y) = 0.41419 0.66382
# Poissons Ratio (z) = -0.03673 0.40415
#
# Static dielectric constant tensor:
#      x y z
#    x 3.296960 0.000000 0.099480 
#    y 0.000000 3.253350 0.000000 
#    z 0.099480 0.000000 3.712870 
# 
# 
# High freq. dielectric constant tensor:
#      x y z
#    x 1.719180 0.000000 0.010840 
#    y 0.000000 1.700970 0.000000 
#    z 0.010840 0.000000 1.735750 
# 
# From -- ./inp_files/200195.got.cif
#   From: 2010.06.25/outbox.cif.g09.slc.cpg/sg15_101_cif.got.tgz:200195.got - 2010.06.28 07:06:18.
