data_PCOD8130874
_publ_section_title
;
Structure prediction by ZEFSAII (Michael W. Deem and Ramdas Pophale) SiO2 
 PCOD8130874
Probable space group: C 2/C
;
_chemical_formula_sum "Si O2"
_cell_formula_units_Z 64
_cell_length_a 27.428846
_cell_length_b 17.797808
_cell_length_c 7.937009
_cell_angle_alpha 90.000000
_cell_angle_beta 81.870882
_cell_angle_gamma 90.000000
_cell_volume 3835.703510
_symmetry_space_group_name_H-M "C 2/C"
_symmetry_group_IT_number 15
_symmetry_cell_setting 'monoclinic'
loop_
_space_group_symop_operation_xyz
x,y,z
-x,y,1/2-z
-x,-y,-z
x,-y,1/2+z
1/2+x,1/2+y,z
1/2-x,1/2+y,1/2-z
1/2-x,1/2-y,-z
1/2+x,1/2-y,1/2+z
loop_
_atom_site_type_symbol
_atom_site_label
_atom_site_fract_x
_atom_site_fract_y
_atom_site_fract_z
Si Si1 0.436640 0.072418 0.944410
Si Si2 0.836778 0.740747 0.773360
Si Si3 0.245718 0.650613 0.343988
Si Si4 0.205906 0.573531 0.057064
Si Si5 0.865784 0.699794 0.083881
Si Si6 0.953007 0.588219 0.546298
Si Si7 0.212442 0.584815 0.678955
Si Si8 0.879995 0.304931 0.932384
O O1 0.439298 0.092584 0.748041
O O2 0.488526 0.089949 0.011607
O O3 0.393867 0.120400 0.052665
O O4 0.426872 0.984207 0.975612
O O5 0.786565 0.786051 0.804569
O O6 0.828125 0.650480 0.789878
O O7 0.862913 0.755691 0.581558
O O8 0.872946 0.755466 0.917678
O O9 0.192932 0.689828 0.378629
O O10 0.254281 0.606575 0.518330
O O11 0.246622 0.598004 0.177171
O O12 0.232615 0.571926 0.859705
O O13 0.186583 0.490827 0.120372
O O14 0.159809 0.629061 0.076834
O O15 0.884812 0.737391 0.249218
O O16 0.931921 0.661176 0.463109
#
# Coordination Sequence:
#
# PCOD8130874 Si02
#       8
#     8   8   8   8   8   8   8   8
#     4  10  20  32  46  64  93 122 164 199 257 282
#     4  10  21  34  47  67  93 120 160 207 241 290
#     4  10  21  34  47  67  92 120 160 206 243 284
#     4  10  20  29  46  67  88 118 158 201 241 283
#     4  10  19  31  47  65  84 120 152 193 242 285
#     4  10  20  32  45  66  92 124 156 214 242 286
#     4  10  18  30  45  63  88 117 151 198 241 278
#     4  10  21  30  48  67  90 119 160 200 246 280
#
# _framework density 16.685337000000001
#
# number of rings (size 3 to 8) (size 9 to 14) (size 15 to 20)
#    0.000    2.000    2.500    2.250    3.500    8.000 
#    0.000    0.000    0.000    0.000    0.000    0.000 
#    0.000    0.000    0.000    0.000    0.000   11.250 
#
# Total GULP energy -396422.624271 kJ/mol
# GULP energy per Si atom -12388.207008 kJ/mol
# Density = 1.664736 g / cm^3
# Si number density = 16.685337 Si / 1000 Ang^3
#
#
#
# Elastic Constant Matrix: (Units=GPa)
#
#
# Indices 1 2 3 4 5 6 
#
# 1 44.8182 7.9307 14.1243 0.0000 5.4679 0.0000
# 2 7.9307 15.9879 6.0125 0.0000 3.9197 0.0000
# 3 14.1243 6.0125 129.2954 0.0000 24.9508 0.0000
# 4 0.0000 0.0000 0.0000 18.3625 0.0000 -2.6582
# 5 5.4679 3.9197 24.9508 0.0000 21.7209 0.0000
# 6 0.0000 0.0000 0.0000 -2.6582 0.0000 25.2021
#
#
#
# Elastic Compliance Matrix: (Units=1/GPa)
#
#
# Indices 1 2 3 4 5 6 
#
# 1 0.025141 -0.011248 -0.001791 0.000000 -0.002242 0.000000
# 2 -0.011248 0.070572 -0.000182 0.000000 -0.009695 0.000000
# 3 -0.001791 -0.000182 0.010079 0.000000 -0.011094 0.000000
# 4 0.000000 0.000000 0.000000 0.055303 0.000000 0.005833
# 5 -0.002242 -0.009695 -0.011094 0.000000 0.061097 0.000000
# 6 0.000000 0.000000 0.000000 0.005833 0.000000 0.040294
#
#
# Mechanical properties :
#
#
# Convention : Reuss Voigt Hill
#
# Bulk Modulus (GPa) = 12.60233 27.35964 19.98098
# Shear Modulus (GPa) = 15.85404 23.85938 19.85671
#
# Velocity S-wave (km/s) = 3.08584 3.78558 3.45348
# Velocity P-wave (km/s) = 4.50176 5.96159 5.28235
#
# Compressibility (1/GPa) = 0.07935041
#
# Stress axis : x y z
#
# Youngs Moduli (GPa) = 39.77643 14.16996 99.21376
#
# Poissons Ratio (x) = 0.15938 0.17766
# Poissons Ratio (y) = 0.44739 0.01808
# Poissons Ratio (z) = 0.07123 0.00258
#
# Static dielectric constant tensor:
#      x y z
#    x 2.882340 0.000000 0.360220 
#    y 0.000000 2.730740 0.000000 
#    z 0.360220 0.000000 4.264050 
# 
# 
# High freq. dielectric constant tensor:
#      x y z
#    x 1.600690 0.000000 0.019660 
#    y 0.000000 1.578080 0.000000 
#    z 0.019660 0.000000 1.685530 
# 
# From -- ./inp_files/62462.got.cif
#   From: 2010.06.25/outbox.cif.g09.slc.cpg/sg15_32_cif.got.tgz:62462.got - 2010.06.28 07:06:18.
