data_PCOD8130847
_publ_section_title
;
Structure prediction by ZEFSAII (Michael W. Deem and Ramdas Pophale) SiO2 
 PCOD8130847
Probable space group: C 2/C
;
_chemical_formula_sum "Si O2"
_cell_formula_units_Z 64
_cell_length_a 21.993538
_cell_length_b 9.647844
_cell_length_c 19.690903
_cell_angle_alpha 90.000000
_cell_angle_beta 53.766403
_cell_angle_gamma 90.000000
_cell_volume 3370.207811
_symmetry_space_group_name_H-M "C 2/C"
_symmetry_group_IT_number 15
_symmetry_cell_setting 'monoclinic'
loop_
_space_group_symop_operation_xyz
x,y,z
-x,y,1/2-z
-x,-y,-z
x,-y,1/2+z
1/2+x,1/2+y,z
1/2-x,1/2+y,1/2-z
1/2-x,1/2-y,-z
1/2+x,1/2-y,1/2+z
loop_
_atom_site_type_symbol
_atom_site_label
_atom_site_fract_x
_atom_site_fract_y
_atom_site_fract_z
Si Si1 0.159182 0.710378 0.250814
Si Si2 0.935160 0.628175 0.010020
Si Si3 0.548131 0.566782 0.785180
Si Si4 0.025697 0.867651 0.025630
Si Si5 0.924706 0.455405 0.143094
Si Si6 0.354554 0.329024 0.736094
Si Si7 0.796327 0.225378 0.624768
Si Si8 0.688460 0.586379 0.377473
O O1 0.119662 0.831049 0.234196
O O2 0.104449 0.574898 0.287091
O O3 0.174774 0.758430 0.317171
O O4 0.237595 0.680440 0.160240
O O5 0.911056 0.498814 0.073468
O O6 0.858722 0.702365 0.034697
O O7 0.985509 0.732795 0.022413
O O8 0.984609 0.575839 0.912601
O O9 0.500000 0.582666 0.750000
O O10 0.496126 0.609152 0.882322
O O11 0.578423 0.408188 0.769320
O O12 0.116185 0.849480 0.963157
O O13 0.000000 0.000000 0.000000
O O14 0.879828 0.316123 0.187705
O O15 0.284343 0.299080 0.832629
O O16 0.328118 0.427740 0.692062
O O17 0.792347 0.065498 0.606842
#
# Coordination Sequence:
#
# PCOD8130847 Si02
#       8
#     8   8   8   8   8   8   8   8
#     4  10  20  36  53  87 121 156 190 239 311 350
#     4  10  18  29  50  90 126 144 182 249 305 345
#     4  12  25  43  60  82 123 166 201 235 293 378
#     4  12  18  35  60  93 119 148 206 247 293 344
#     4  10  18  31  53  82 122 143 187 245 293 350
#     4  11  20  34  56  88 116 153 194 242 298 347
#     4  10  18  30  54  88 125 141 187 257 296 341
#     4  11  19  30  60  91 120 144 193 258 299 339
#
# _framework density 18.989926000000001
#
# number of rings (size 3 to 8) (size 9 to 14) (size 15 to 20)
#    0.000    1.250    8.750    0.000    0.000    0.000 
#    0.000    1.250    0.000    0.750    0.000    0.000 
#    0.000    0.000    0.000    0.000    0.000    0.000 
#
# Total GULP energy -396659.988985 kJ/mol
# GULP energy per Si atom -12395.624656 kJ/mol
# Density = 1.894670 g / cm^3
# Si number density = 18.989926 Si / 1000 Ang^3
#
#
#
# Elastic Constant Matrix: (Units=GPa)
#
#
# Indices 1 2 3 4 5 6 
#
# 1 66.7415 24.8129 42.0983 -0.0001 -13.5700 0.0003
# 2 24.8129 91.7290 30.6140 -0.0008 -12.3650 0.0009
# 3 42.0983 30.6140 110.5010 -0.0004 -42.2641 0.0002
# 4 -0.0001 -0.0008 -0.0004 28.0618 0.0002 -14.0422
# 5 -13.5700 -12.3650 -42.2641 0.0002 34.5337 -0.0001
# 6 0.0003 0.0009 0.0002 -14.0422 -0.0001 23.4687
#
#
#
# Elastic Compliance Matrix: (Units=1/GPa)
#
#
# Indices 1 2 3 4 5 6 
#
# 1 0.020726 -0.003297 -0.008120 0.000000 -0.002974 0.000000
# 2 -0.003297 0.012540 -0.001873 0.000000 0.000902 0.000000
# 3 -0.008120 -0.001873 0.021029 0.000000 0.021875 0.000000
# 4 0.000000 0.000000 0.000000 0.050865 0.000000 0.030435
# 5 -0.002974 0.000902 0.021875 0.000000 0.054883 0.000000
# 6 0.000000 0.000000 0.000000 0.030435 0.000000 0.060820
#
#
# Mechanical properties :
#
#
# Convention : Reuss Voigt Hill
#
# Bulk Modulus (GPa) = 36.08266 51.55797 43.82031
# Shear Modulus (GPa) = 19.47929 28.64259 24.06094
#
# Velocity S-wave (km/s) = 3.20624 3.88790 3.56341
# Velocity P-wave (km/s) = 5.72266 6.88211 6.32899
#
# Compressibility (1/GPa) = 0.02771415
#
# Stress axis : x y z
#
# Youngs Moduli (GPa) = 48.24776 79.74269 47.55379
#
# Poissons Ratio (x) = 0.26294 0.38615
# Poissons Ratio (y) = 0.15909 0.08907
# Poissons Ratio (z) = 0.39179 0.14936
#
# Static dielectric constant tensor:
#      x y z
#    x 3.028560 0.000000 -0.666050 
#    y 0.000000 3.710080 0.000000 
#    z -0.666050 0.000000 3.817560 
# 
# 
# High freq. dielectric constant tensor:
#      x y z
#    x 1.669210 0.000000 -0.059510 
#    y 0.000000 1.758960 0.000000 
#    z -0.059510 0.000000 1.734510 
# 
# From -- ./inp_files/281494.got.cif
#   From: 2010.06.25/outbox.cif.g09.slc.cpg/sg15_141_cif.got.tgz:281494.got - 2010.06.28 07:06:18.
