data_PCOD8130259
_publ_section_title
;
Structure prediction by ZEFSAII (Michael W. Deem and Ramdas Pophale) SiO2 
 PCOD8130259
Probable space group: C 2/C
;
_chemical_formula_sum "Si O2"
_cell_formula_units_Z 60
_cell_length_a 28.104935
_cell_length_b 22.613225
_cell_length_c 15.151391
_cell_angle_alpha 90.000000
_cell_angle_beta 160.942320
_cell_angle_gamma 90.000000
_cell_volume 3144.178410
_symmetry_space_group_name_H-M "C 2/C"
_symmetry_group_IT_number 15
_symmetry_cell_setting 'monoclinic'
loop_
_space_group_symop_operation_xyz
x,y,z
-x,y,1/2-z
-x,-y,-z
x,-y,1/2+z
1/2+x,1/2+y,z
1/2-x,1/2+y,1/2-z
1/2-x,1/2-y,-z
1/2+x,1/2-y,1/2+z
loop_
_atom_site_type_symbol
_atom_site_label
_atom_site_fract_x
_atom_site_fract_y
_atom_site_fract_z
Si Si1 0.388504 0.645880 0.436181
Si Si2 0.276172 0.129886 0.992733
Si Si3 0.987144 0.931648 0.956078
Si Si4 0.605592 0.741155 0.653065
Si Si5 0.000000 0.665328 0.250000
Si Si6 0.140926 0.273477 0.152722
Si Si7 0.918725 0.157126 0.199183
Si Si8 0.213810 0.152461 0.063423
O O1 0.393847 0.595632 0.372425
O O2 0.306692 0.704882 0.256964
O O3 0.304884 0.619041 0.375318
O O4 0.551938 0.667635 0.744339
O O5 0.221135 0.198113 0.904060
O O6 0.153115 0.088752 0.736249
O O7 0.416155 0.124059 0.174695
O O8 0.298468 0.113331 0.136511
O O9 0.907760 0.907944 0.727441
O O10 0.000000 0.000000 0.000000
O O11 0.507404 0.777846 0.550590
O O12 0.505937 0.702182 0.414121
O O13 0.697663 0.788101 0.758404
O O14 0.113818 0.705186 0.504275
O O15 0.259491 0.315808 0.405370
O O16 0.000000 0.148269 0.250000
#
# Coordination Sequence:
#
# PCOD8130259 Si02
#       8
#     8   8   8   8   4   8   8   8
#     4  10  19  31  56  82 114 147 191 239 287 346
#     4  10  19  34  53  85 114 146 203 236 283 338
#     4  10  22  42  61  79 108 155 202 256 286 337
#     4  11  19  32  51  83 127 152 176 231 284 362
#     4  12  22  32  62  88 120 164 182 238 292 352
#     4  12  20  32  56  86 121 157 184 229 303 361
#     4  11  23  38  54  85 122 152 194 235 296 364
#     4  10  17  31  50  85 118 142 185 236 285 349
#
# _framework density 19.082885999999998
#
# number of rings (size 3 to 8) (size 9 to 14) (size 15 to 20)
#    0.000    1.333    5.333    5.600    0.000    0.000 
#    4.800    0.000    0.000    2.400    0.000    0.000 
#    0.000    0.000    0.000    0.000    0.000    0.000 
#
# Total GULP energy -371708.397837 kJ/mol
# GULP energy per Si atom -12390.279928 kJ/mol
# Density = 1.903945 g / cm^3
# Si number density = 19.082886 Si / 1000 Ang^3
#
#
#
# Elastic Constant Matrix: (Units=GPa)
#
#
# Indices 1 2 3 4 5 6 
#
# 1 167.9938 35.9556 31.3334 0.0000 18.3496 0.0000
# 2 35.9556 84.6562 26.0031 0.0000 0.7564 0.0000
# 3 31.3334 26.0031 56.1319 0.0000 2.4442 0.0000
# 4 0.0000 0.0000 0.0000 12.5275 0.0000 -1.2880
# 5 18.3496 0.7564 2.4442 0.0000 30.7810 0.0000
# 6 0.0000 0.0000 0.0000 -1.2880 0.0000 16.7358
#
#
#
# Elastic Compliance Matrix: (Units=1/GPa)
#
#
# Indices 1 2 3 4 5 6 
#
# 1 0.007427 -0.002214 -0.002940 0.000000 -0.004140 0.000000
# 2 -0.002214 0.014433 -0.005511 0.000000 0.001403 0.000000
# 3 -0.002940 -0.005511 0.022003 0.000000 0.000141 0.000000
# 4 0.000000 0.000000 0.000000 0.080461 0.000000 0.006192
# 5 -0.004140 0.001403 0.000141 0.000000 0.034910 0.000000
# 6 0.000000 0.000000 0.000000 0.006192 0.000000 0.060229
#
#
# Mechanical properties :
#
#
# Convention : Reuss Voigt Hill
#
# Bulk Modulus (GPa) = 44.38004 55.04069 49.71037
# Shear Modulus (GPa) = 20.13659 26.37486 23.25573
#
# Velocity S-wave (km/s) = 3.25193 3.72172 3.49473
# Velocity P-wave (km/s) = 6.11613 6.88287 6.51080
#
# Compressibility (1/GPa) = 0.02253265
#
# Stress axis : x y z
#
# Youngs Moduli (GPa) = 134.64321 69.28420 45.44820
#
# Poissons Ratio (x) = 0.15343 0.13361
# Poissons Ratio (y) = 0.29817 0.25047
# Poissons Ratio (z) = 0.39581 0.38184
#
# Static dielectric constant tensor:
#      x y z
#    x 4.065070 0.000000 0.022030 
#    y 0.000000 3.064260 0.000000 
#    z 0.022030 0.000000 3.358430 
# 
# 
# High freq. dielectric constant tensor:
#      x y z
#    x 1.777470 0.000000 0.005690 
#    y 0.000000 1.680940 0.000000 
#    z 0.005690 0.000000 1.716210 
# 
# From -- ./inp_files/179286.got.cif
#   From: 2010.06.25/outbox.cif.g09.slc.cpg/sg15_90_cif.got.tgz:179286.got - 2010.06.28 07:06:18.
