data_PCOD8130148
_publ_section_title
;
Structure prediction by ZEFSAII (Michael W. Deem and Ramdas Pophale) SiO2 
 PCOD8130148
Probable space group: C 2/C
;
_chemical_formula_sum "Si O2"
_cell_formula_units_Z 48
_cell_length_a 19.921335
_cell_length_b 7.564545
_cell_length_c 28.627363
_cell_angle_alpha 90.000000
_cell_angle_beta 28.514450
_cell_angle_gamma 90.000000
_cell_volume 2059.430607
_symmetry_space_group_name_H-M "C 2/C"
_symmetry_group_IT_number 15
_symmetry_cell_setting 'monoclinic'
loop_
_space_group_symop_operation_xyz
x,y,z
-x,y,1/2-z
-x,-y,-z
x,-y,1/2+z
1/2+x,1/2+y,z
1/2-x,1/2+y,1/2-z
1/2-x,1/2-y,-z
1/2+x,1/2-y,1/2+z
loop_
_atom_site_type_symbol
_atom_site_label
_atom_site_fract_x
_atom_site_fract_y
_atom_site_fract_z
Si Si1 0.001301 0.339782 0.034896
Si Si2 0.711681 0.452048 0.238675
Si Si3 0.316750 0.084094 0.985338
Si Si4 0.818037 0.162271 0.644166
Si Si5 0.968056 0.401164 0.219075
Si Si6 0.526487 0.483878 0.183050
O O1 0.115446 0.364690 0.006230
O O2 0.844415 0.316161 0.152139
O O3 0.050488 0.173931 0.972455
O O4 0.000000 0.500000 0.000000
O O5 0.765992 0.644983 0.192348
O O6 0.646847 0.447712 0.330628
O O7 0.582554 0.389838 0.285177
O O8 0.436684 0.001435 0.878539
O O9 0.250000 0.250000 0.000000
O O10 0.189638 0.944991 0.070388
O O11 0.693656 0.061630 0.693394
O O12 0.000000 0.484575 0.250000
O O13 0.000580 0.193366 0.198767
O O14 0.500000 0.402096 0.250000
#
# Coordination Sequence:
#
# PCOD8130148 Si02
#       6
#     8   8   8   8   8   8
#     4  10  19  33  57  83 111 154 194 227 293 355
#     4  10  20  35  56  80 115 147 189 241 282 346
#     4  10  17  29  54  81 110 138 189 249 285 325
#     4  10  19  34  55  82 109 150 190 230 285 340
#     4   9  16  29  51  79 109 136 180 235 291 327
#     4   9  17  30  51  80 104 142 192 234 266 337
#
# _framework density 23.307413
#
# number of rings (size 3 to 8) (size 9 to 14) (size 15 to 20)
#    0.000    2.333    1.667    5.000    0.000    0.000 
#    0.000    0.833    0.000   10.000    0.000    0.000 
#    0.000    0.000    0.000    0.000    0.000    0.000 
#
# Total GULP energy -297410.577945 kJ/mol
# GULP energy per Si atom -12392.107414 kJ/mol
# Density = 2.325436 g / cm^3
# Si number density = 23.307413 Si / 1000 Ang^3
#
#
#
# Elastic Constant Matrix: (Units=GPa)
#
#
# Indices 1 2 3 4 5 6 
#
# 1 208.1965 13.2830 48.5759 -0.0063 -4.6144 0.0650
# 2 13.2830 15.0267 5.3795 0.0028 -4.5103 0.0814
# 3 48.5759 5.3795 113.8243 -0.0070 -6.6920 0.0123
# 4 -0.0063 0.0028 -0.0070 9.2691 -0.0050 1.9098
# 5 -4.6144 -4.5103 -6.6920 -0.0050 47.6199 0.0015
# 6 0.0650 0.0814 0.0123 1.9098 0.0015 19.2876
#
#
#
# Elastic Compliance Matrix: (Units=1/GPa)
#
#
# Indices 1 2 3 4 5 6 
#
# 1 0.005579 -0.004196 -0.002192 0.000003 -0.000165 0.000000
# 2 -0.004196 0.072602 -0.001271 0.000038 0.006291 -0.000296
# 3 -0.002192 -0.001271 0.009843 0.000006 0.001050 0.000006
# 4 0.000003 0.000038 0.000006 0.110132 0.000017 -0.010905
# 5 -0.000165 0.006291 0.001050 0.000017 0.021727 -0.000030
# 6 0.000000 -0.000296 0.000006 -0.010905 -0.000030 0.052928
#
#
# Mechanical properties :
#
#
# Convention : Reuss Voigt Hill
#
# Bulk Modulus (GPa) = 13.75403 52.39157 33.07280
# Shear Modulus (GPa) = 16.00700 33.22260 24.61480
#
# Velocity S-wave (km/s) = 2.62349 3.77956 3.25328
# Velocity P-wave (km/s) = 3.88470 6.44779 5.32282
#
# Compressibility (1/GPa) = 0.07270596
#
# Stress axis : x y z
#
# Youngs Moduli (GPa) = 179.25406 13.77370 101.59706
#
# Poissons Ratio (x) = 0.05779 0.22272
# Poissons Ratio (y) = 0.75216 0.12909
# Poissons Ratio (z) = 0.39295 0.01750
#
# Static dielectric constant tensor:
#      x y z
#    x 4.448490 -0.000100 0.084930 
#    y -0.000100 3.458050 0.000060 
#    z 0.084930 0.000060 5.262870 
# 
# 
# High freq. dielectric constant tensor:
#      x y z
#    x 1.938830 -0.000010 0.006220 
#    y -0.000010 1.855150 0.000000 
#    z 0.006220 0.000000 1.939650 
# 
# From -- ./inp_files/181422.got.cif
#   From: 2010.06.25/outbox.cif.g09.slc.cpg/sg15_91_cif.got.tgz:181422.got - 2010.06.28 07:06:18.
