data_PCOD8130601
_publ_section_title
;
Structure prediction by ZEFSAII (Michael W. Deem and Ramdas Pophale) SiO2 
 PCOD8130601
Probable space group: C 2/C
;
_chemical_formula_sum "Si O2"
_cell_formula_units_Z 56
_cell_length_a 9.172783
_cell_length_b 16.600294
_cell_length_c 20.180190
_cell_angle_alpha 90.000000
_cell_angle_beta 96.618879
_cell_angle_gamma 90.000000
_cell_volume 3052.374510
_symmetry_space_group_name_H-M "C 2/C"
_symmetry_group_IT_number 15
_symmetry_cell_setting 'monoclinic'
loop_
_space_group_symop_operation_xyz
x,y,z
-x,y,1/2-z
-x,-y,-z
x,-y,1/2+z
1/2+x,1/2+y,z
1/2-x,1/2+y,1/2-z
1/2-x,1/2-y,-z
1/2+x,1/2-y,1/2+z
loop_
_atom_site_type_symbol
_atom_site_label
_atom_site_fract_x
_atom_site_fract_y
_atom_site_fract_z
Si Si1 0.500000 0.986036 0.250000
Si Si2 0.951428 0.228109 0.148845
Si Si3 0.226117 0.977581 0.663068
Si Si4 0.500000 0.404506 0.750000
Si Si5 0.631184 0.690251 0.911796
Si Si6 0.310398 0.149518 0.799947
Si Si7 0.685736 0.661670 0.655157
Si Si8 0.334220 0.338360 0.939400
O O1 0.608646 0.038937 0.301111
O O2 0.600161 0.931822 0.207267
O O3 0.912914 0.150468 0.191857
O O4 0.812503 0.284622 0.127906
O O5 0.079051 0.275687 0.194205
O O6 0.016501 0.200988 0.081311
O O7 0.207387 0.068571 0.635837
O O8 0.114581 0.960927 0.717580
O O9 0.199741 0.921442 0.598947
O O10 0.723940 0.638531 0.863972
O O11 0.465429 0.697614 0.878549
O O12 0.694889 0.780042 0.921993
O O13 0.640302 0.643494 0.981981
O O14 0.195328 0.167905 0.735249
#
# Coordination Sequence:
#
# PCOD8130601 Si02
#       8
#     4   8   8   4   8   8   8   8
#     4  10  19  34  56  83 112 142 180 240 289 332
#     4  10  17  36  61  76 112 151 183 216 288 347
#     4  10  22  35  56  84 117 138 186 237 288 327
#     4  10  19  34  52  83 114 146 166 240 289 328
#     4  10  22  36  61  77 115 152 195 226 271 346
#     4  10  17  35  57  85 105 143 185 229 278 332
#     4  11  20  33  61  90 103 144 196 232 273 337
#     4   9  22  42  53  80 117 157 181 230 287 326
#
# _framework density 18.346371999999999
#
# number of rings (size 3 to 8) (size 9 to 14) (size 15 to 20)
#    0.000    2.000    4.286    0.429    4.000    2.286 
#    0.000    0.714    0.000    0.000    0.000    0.000 
#    0.000    0.000    0.000    0.000    0.000    0.000 
#
# Total GULP energy -347190.891575 kJ/mol
# GULP energy per Si atom -12399.674699 kJ/mol
# Density = 1.830462 g / cm^3
# Si number density = 18.346372 Si / 1000 Ang^3
#
#
#
# Elastic Constant Matrix: (Units=GPa)
#
#
# Indices 1 2 3 4 5 6 
#
# 1 132.9855 49.6653 68.6970 0.0000 5.9826 0.0000
# 2 49.6653 76.3473 36.9662 0.0000 -5.0767 0.0000
# 3 68.6970 36.9662 130.0376 0.0000 -6.9744 0.0000
# 4 0.0000 0.0000 0.0000 18.2421 0.0000 1.9199
# 5 5.9826 -5.0767 -6.9744 0.0000 21.0976 0.0000
# 6 0.0000 0.0000 0.0000 1.9199 0.0000 26.4731
#
#
#
# Elastic Compliance Matrix: (Units=1/GPa)
#
#
# Indices 1 2 3 4 5 6 
#
# 1 0.012999 -0.006279 -0.005458 0.000000 -0.007001 0.000000
# 2 -0.006279 0.018329 -0.001589 0.000000 0.005666 0.000000
# 3 -0.005458 -0.001589 0.011288 0.000000 0.004897 0.000000
# 4 0.000000 0.000000 0.000000 0.055240 0.000000 -0.004006
# 5 -0.007001 0.005666 0.004897 0.000000 0.052366 0.000000
# 6 0.000000 0.000000 0.000000 -0.004006 0.000000 0.038065
#
#
# Mechanical properties :
#
#
# Convention : Reuss Voigt Hill
#
# Bulk Modulus (GPa) = 62.64360 72.22529 67.43445
# Shear Modulus (GPa) = 22.70048 25.43201 24.06624
#
# Velocity S-wave (km/s) = 3.52138 3.72723 3.62577
# Velocity P-wave (km/s) = 7.12409 7.61420 7.37322
#
# Compressibility (1/GPa) = 0.01596332
#
# Stress axis : x y z
#
# Youngs Moduli (GPa) = 76.92986 54.55843 88.59169
#
# Poissons Ratio (x) = 0.34257 0.48350
# Poissons Ratio (y) = 0.48304 0.14081
# Poissons Ratio (z) = 0.41986 0.08672
#
# Static dielectric constant tensor:
#      x y z
#    x 3.443270 0.000000 -0.121680 
#    y 0.000000 3.279190 0.000000 
#    z -0.121680 0.000000 3.408010 
# 
# 
# High freq. dielectric constant tensor:
#      x y z
#    x 1.712210 0.000000 -0.007510 
#    y 0.000000 1.702180 0.000000 
#    z -0.007510 0.000000 1.703330 
# 
# From -- ./inp_files/231612.got.cif
#   From: 2010.06.25/outbox.cif.g09.slc.cpg/sg15_116_cif.got.tgz:231612.got - 2010.06.28 07:06:18.
