data_PCOD8130748
_publ_section_title
;
Structure prediction by ZEFSAII (Michael W. Deem and Ramdas Pophale) SiO2 
 PCOD8130748
Probable space group: C 2/C
;
_chemical_formula_sum "Si O2"
_cell_formula_units_Z 48
_cell_length_a 29.376448
_cell_length_b 13.842889
_cell_length_c 8.863891
_cell_angle_alpha 90.000000
_cell_angle_beta 56.895043
_cell_angle_gamma 90.000000
_cell_volume 3019.424319
_symmetry_space_group_name_H-M "C 2/C"
_symmetry_group_IT_number 15
_symmetry_cell_setting 'monoclinic'
loop_
_space_group_symop_operation_xyz
x,y,z
-x,y,1/2-z
-x,-y,-z
x,-y,1/2+z
1/2+x,1/2+y,z
1/2-x,1/2+y,1/2-z
1/2-x,1/2-y,-z
1/2+x,1/2-y,1/2+z
loop_
_atom_site_type_symbol
_atom_site_label
_atom_site_fract_x
_atom_site_fract_y
_atom_site_fract_z
Si Si1 0.052958 0.580146 0.239073
Si Si2 0.053577 0.623237 0.587588
Si Si3 0.730163 0.049686 0.419191
Si Si4 0.166826 0.287190 0.858958
Si Si5 0.233577 0.885617 0.333945
Si Si6 0.169372 0.363955 0.535577
O O1 0.044919 0.587143 0.432792
O O2 0.062381 0.469385 0.177640
O O3 0.106961 0.639330 0.091951
O O4 0.000000 0.623669 0.250000
O O5 0.103798 0.695887 0.511264
O O6 0.000000 0.677441 0.750000
O O7 0.703568 0.132807 0.369858
O O8 0.763118 0.099243 0.493993
O O9 0.772715 0.989193 0.238322
O O10 0.684039 0.974372 0.563331
O O11 0.182111 0.181044 0.890133
O O12 0.177105 0.291418 0.661124
O O13 0.289591 0.833581 0.173416
#
# Coordination Sequence:
#
# PCOD8130748 Si02
#       6
#     8   8   8   8   8   8
#     4  10  18  27  44  64  89 128 156 175 227 277
#     4  10  19  29  43  64  93 120 156 192 222 277
#     4  10  18  32  45  66  98 124 157 191 231 271
#     4  11  19  32  48  71  91 129 161 188 237 275
#     4  10  20  30  50  67  95 127 155 194 236 279
#     4   9  18  31  46  64  99 124 151 193 220 277
#
# _framework density 15.897069
#
# number of rings (size 3 to 8) (size 9 to 14) (size 15 to 20)
#    1.000    1.000    3.333    3.000    2.333    1.333 
#    0.000    0.000    0.000    0.000    0.000    1.167 
#    0.000    1.333    0.000    0.000    0.000    0.000 
#
# Total GULP energy -297425.412632 kJ/mol
# GULP energy per Si atom -12392.725526 kJ/mol
# Density = 1.586089 g / cm^3
# Si number density = 15.897069 Si / 1000 Ang^3
#
#
#
# Elastic Constant Matrix: (Units=GPa)
#
#
# Indices 1 2 3 4 5 6 
#
# 1 108.5505 44.0500 41.7280 0.0000 4.4752 0.0000
# 2 44.0500 48.9908 18.7107 0.0000 1.6429 0.0000
# 3 41.7280 18.7107 69.6050 0.0000 -3.8403 0.0000
# 4 0.0000 0.0000 0.0000 12.8592 0.0000 -2.3940
# 5 4.4752 1.6429 -3.8403 0.0000 18.1536 0.0000
# 6 0.0000 0.0000 0.0000 -2.3940 0.0000 23.5580
#
#
#
# Elastic Compliance Matrix: (Units=1/GPa)
#
#
# Indices 1 2 3 4 5 6 
#
# 1 0.017323 -0.012654 -0.007240 0.000000 -0.004657 0.000000
# 2 -0.012654 0.032200 -0.001071 0.000000 -0.000021 0.000000
# 3 -0.007240 -0.001071 0.019324 0.000000 0.005970 0.000000
# 4 0.000000 0.000000 0.000000 0.079265 0.000000 0.008055
# 5 -0.004657 -0.000021 0.005970 0.000000 0.057498 0.000000
# 6 0.000000 0.000000 0.000000 0.008055 0.000000 0.043267
#
#
# Mechanical properties :
#
#
# Convention : Reuss Voigt Hill
#
# Bulk Modulus (GPa) = 37.15185 48.45820 42.80503
# Shear Modulus (GPa) = 16.67893 19.09133 17.88513
#
# Velocity S-wave (km/s) = 3.24262 3.46921 3.35783
# Velocity P-wave (km/s) = 6.11886 6.82612 6.48214
#
# Compressibility (1/GPa) = 0.02691656
#
# Stress axis : x y z
#
# Youngs Moduli (GPa) = 57.72799 31.05623 51.74795
#
# Poissons Ratio (x) = 0.39299 0.37466
# Poissons Ratio (y) = 0.73050 0.05540
# Poissons Ratio (z) = 0.41796 0.03325
#
# Static dielectric constant tensor:
#      x y z
#    x 3.086150 0.000000 -0.031940 
#    y 0.000000 2.647790 0.000000 
#    z -0.031940 0.000000 3.034910 
# 
# 
# High freq. dielectric constant tensor:
#      x y z
#    x 1.607330 0.000000 0.011280 
#    y 0.000000 1.561930 0.000000 
#    z 0.011280 0.000000 1.615040 
# 
# From -- ./inp_files/65773.got.cif
#   From: 2010.06.25/outbox.cif.g09.slc.cpg/sg15_33_cif.got.tgz:65773.got - 2010.06.28 07:06:18.
