data_PCOD8130592
_publ_section_title
;
Structure prediction by ZEFSAII (Michael W. Deem and Ramdas Pophale) SiO2 
 PCOD8130592
Probable space group: C 2/C
;
_chemical_formula_sum "Si O2"
_cell_formula_units_Z 56
_cell_length_a 9.486010
_cell_length_b 27.962555
_cell_length_c 11.952138
_cell_angle_alpha 90.000000
_cell_angle_beta 107.221122
_cell_angle_gamma 90.000000
_cell_volume 3028.212703
_symmetry_space_group_name_H-M "C 2/C"
_symmetry_group_IT_number 15
_symmetry_cell_setting 'monoclinic'
loop_
_space_group_symop_operation_xyz
x,y,z
-x,y,1/2-z
-x,-y,-z
x,-y,1/2+z
1/2+x,1/2+y,z
1/2-x,1/2+y,1/2-z
1/2-x,1/2-y,-z
1/2+x,1/2-y,1/2+z
loop_
_atom_site_type_symbol
_atom_site_label
_atom_site_fract_x
_atom_site_fract_y
_atom_site_fract_z
Si Si1 0.050715 0.662201 0.887474
Si Si2 0.500000 0.172727 0.250000
Si Si3 0.099970 0.568189 0.016951
Si Si4 0.500000 0.654155 0.250000
Si Si5 0.615123 0.016133 0.373003
Si Si6 0.749541 0.596757 0.229514
Si Si7 0.421059 0.236338 0.023391
Si Si8 0.345161 0.297175 0.514551
O O1 0.230411 0.665769 0.933007
O O2 0.000000 0.659155 0.750000
O O3 0.018099 0.612798 0.941461
O O4 0.953792 0.704614 0.920796
O O5 0.361131 0.138024 0.219052
O O6 0.489505 0.207204 0.141741
O O7 0.224742 0.582526 0.135171
O O8 0.963069 0.544193 0.046355
O O9 0.175739 0.533077 0.941903
O O10 0.588565 0.620133 0.184577
O O11 0.608179 0.686734 0.349654
O O12 0.500000 0.002242 0.250000
O O13 0.741320 0.050345 0.349183
O O14 0.510848 0.286397 0.028623
O O15 0.250000 0.250000 0.000000
O O16 0.250000 0.250000 0.500000
#
# Coordination Sequence:
#
# PCOD8130592 Si02
#       8
#     8   4   8   4   8   8   8   8
#     4  11  22  37  58  84 122 153 193 241 303 355
#     4  12  20  40  60  80 118 148 204 248 280 352
#     4  10  17  35  55  89 111 148 195 244 289 346
#     4  12  22  38  64  82 124 156 200 240 296 364
#     4   9  18  31  59  86 118 140 197 250 290 339
#     4  11  19  36  58  88 112 154 196 242 293 353
#     4  11  24  36  58  86 114 156 195 247 297 343
#     4  10  23  38  57  87 114 156 199 245 288 350
#
# _framework density 18.492757000000001
#
# number of rings (size 3 to 8) (size 9 to 14) (size 15 to 20)
#    0.000    1.429    5.000    2.143    6.000    0.000 
#    0.000    0.714    0.000    0.000    0.000    0.000 
#    0.000    0.000    0.000    0.000    0.000    0.000 
#
# Total GULP energy -347024.474884 kJ/mol
# GULP energy per Si atom -12393.731246 kJ/mol
# Density = 1.845067 g / cm^3
# Si number density = 18.492757 Si / 1000 Ang^3
#
#
#
# Elastic Constant Matrix: (Units=GPa)
#
#
# Indices 1 2 3 4 5 6 
#
# 1 99.2133 27.8385 19.4892 0.0000 -2.2438 0.0000
# 2 27.8385 80.8033 39.6207 0.0000 -7.5924 0.0000
# 3 19.4892 39.6207 100.5350 0.0000 -5.5503 0.0000
# 4 0.0000 0.0000 0.0000 28.4189 0.0000 -13.9690
# 5 -2.2438 -7.5924 -5.5503 0.0000 24.1162 0.0000
# 6 0.0000 0.0000 0.0000 -13.9690 0.0000 25.8765
#
#
#
# Elastic Compliance Matrix: (Units=1/GPa)
#
#
# Indices 1 2 3 4 5 6 
#
# 1 0.011212 -0.003487 -0.000813 0.000000 -0.000242 0.000000
# 2 -0.003487 0.016719 -0.005713 0.000000 0.003624 0.000000
# 3 -0.000813 -0.005713 0.012410 0.000000 0.000982 0.000000
# 4 0.000000 0.000000 0.000000 0.047897 0.000000 0.025857
# 5 -0.000242 0.003624 0.000982 0.000000 0.042810 0.000000
# 6 0.000000 0.000000 0.000000 0.025857 0.000000 0.052603
#
#
# Mechanical properties :
#
#
# Convention : Reuss Voigt Hill
#
# Bulk Modulus (GPa) = 49.22269 50.49427 49.85848
# Shear Modulus (GPa) = 23.75877 28.58921 26.17399
#
# Velocity S-wave (km/s) = 3.58824 3.93615 3.76621
# Velocity P-wave (km/s) = 6.62136 6.92978 6.77732
#
# Compressibility (1/GPa) = 0.02031583
#
# Stress axis : x y z
#
# Youngs Moduli (GPa) = 89.19114 59.81288 80.58064
#
# Poissons Ratio (x) = 0.20857 0.06548
# Poissons Ratio (y) = 0.31101 0.46034
# Poissons Ratio (z) = 0.07248 0.34170
#
# Static dielectric constant tensor:
#      x y z
#    x 3.632680 0.000000 -0.049850 
#    y 0.000000 3.911690 0.000000 
#    z -0.049850 0.000000 3.476560 
# 
# 
# High freq. dielectric constant tensor:
#      x y z
#    x 1.698590 0.000000 -0.011870 
#    y 0.000000 1.726090 0.000000 
#    z -0.011870 0.000000 1.714360 
# 
# From -- ./inp_files/82167.got.cif
#   From: 2010.06.25/outbox.cif.g09.slc.cpg/sg15_42_cif.got.tgz:82167.got - 2010.06.28 07:06:18.
