data_PCOD8130378
_publ_section_title
;
Structure prediction by ZEFSAII (Michael W. Deem and Ramdas Pophale) SiO2 
 PCOD8130378
Probable space group: C 2/C
;
_chemical_formula_sum "Si O2"
_cell_formula_units_Z 52
_cell_length_a 26.877754
_cell_length_b 16.914315
_cell_length_c 8.907611
_cell_angle_alpha 90.000000
_cell_angle_beta 38.289886
_cell_angle_gamma 90.000000
_cell_volume 2509.275935
_symmetry_space_group_name_H-M "C 2/C"
_symmetry_group_IT_number 15
_symmetry_cell_setting 'monoclinic'
loop_
_space_group_symop_operation_xyz
x,y,z
-x,y,1/2-z
-x,-y,-z
x,-y,1/2+z
1/2+x,1/2+y,z
1/2-x,1/2+y,1/2-z
1/2-x,1/2-y,-z
1/2+x,1/2-y,1/2+z
loop_
_atom_site_type_symbol
_atom_site_label
_atom_site_fract_x
_atom_site_fract_y
_atom_site_fract_z
Si Si1 0.278856 0.511497 0.821192
Si Si2 0.855796 0.596605 0.776716
Si Si3 0.178981 0.890208 0.008218
Si Si4 0.248615 0.662391 0.715513
Si Si5 0.896543 0.268378 0.768794
Si Si6 0.343860 0.804732 0.578982
Si Si7 0.000000 0.360251 0.750000
O O1 0.323333 0.433875 0.647908
O O2 0.275020 0.574184 0.695928
O O3 0.187999 0.487130 0.088377
O O4 0.330301 0.545787 0.836717
O O5 0.791040 0.657279 0.855575
O O6 0.930174 0.584048 0.485158
O O7 0.886160 0.636861 0.859090
O O8 0.263543 0.846046 0.831666
O O9 0.107628 0.826082 0.189342
O O10 0.323461 0.722282 0.542111
O O11 0.185449 0.691191 0.987409
O O12 0.904883 0.286307 0.571062
O O13 0.970785 0.304106 0.684226
#
# Coordination Sequence:
#
# PCOD8130378 Si02
#       7
#     8   8   8   8   8   8   4
#     4  11  18  31  56  87 116 138 176 234 301 329
#     4  10  22  34  53  81 119 151 187 224 279 342
#     4  10  19  32  55  88 113 144 174 242 293 335
#     4  10  17  32  54  85 115 137 176 246 291 329
#     4  10  19  36  57  76 112 151 198 222 274 332
#     4  10  18  32  59  83 106 143 195 240 281 322
#     4  10  24  42  52  76 118 164 196 228 256 330
#
# _framework density 20.723109000000001
#
# number of rings (size 3 to 8) (size 9 to 14) (size 15 to 20)
#    0.000    1.846    4.615    1.385    0.000    1.846 
#    0.000    3.077    0.000    0.923    0.000    0.000 
#    0.000    0.000    0.000    0.000    0.000    0.000 
#
# Total GULP energy -322299.462102 kJ/mol
# GULP energy per Si atom -12396.133158 kJ/mol
# Density = 2.067594 g / cm^3
# Si number density = 20.723109 Si / 1000 Ang^3
#
#
#
# Elastic Constant Matrix: (Units=GPa)
#
#
# Indices 1 2 3 4 5 6 
#
# 1 60.5664 2.3231 1.7949 0.0000 18.1078 0.0000
# 2 2.3231 74.3506 0.8773 0.0000 9.5311 0.0000
# 3 1.7949 0.8773 25.4001 0.0000 13.0175 0.0000
# 4 0.0000 0.0000 0.0000 22.9188 0.0000 9.7245
# 5 18.1078 9.5311 13.0175 0.0000 23.1871 0.0000
# 6 0.0000 0.0000 0.0000 9.7245 0.0000 30.7545
#
#
#
# Elastic Compliance Matrix: (Units=1/GPa)
#
#
# Indices 1 2 3 4 5 6 
#
# 1 0.023920 0.002481 0.011681 0.000000 -0.026258 0.000000
# 2 0.002481 0.014682 0.004778 0.000000 -0.010655 0.000000
# 3 0.011681 0.004778 0.061860 0.000000 -0.045815 0.000000
# 4 0.000000 0.000000 0.000000 0.050393 0.000000 -0.015934
# 5 -0.026258 -0.010655 -0.045815 0.000000 0.093734 0.000000
# 6 0.000000 0.000000 0.000000 -0.015934 0.000000 0.037554
#
#
# Mechanical properties :
#
#
# Convention : Reuss Voigt Hill
#
# Bulk Modulus (GPa) = 7.22847 18.92307 13.07577
# Shear Modulus (GPa) = 17.21901 25.72684 21.47292
#
# Velocity S-wave (km/s) = 2.88568 3.52725 3.22247
# Velocity P-wave (km/s) = 3.82080 5.07345 4.49101
#
# Compressibility (1/GPa) = 0.13834190
#
# Stress axis : x y z
#
# Youngs Moduli (GPa) = 41.80622 68.11168 16.16556
#
# Poissons Ratio (x) = -0.16897 -0.18883
# Poissons Ratio (y) = -0.10371 -0.07724
# Poissons Ratio (z) = -0.48834 -0.32545
#
# Static dielectric constant tensor:
#      x y z
#    x 3.602490 0.000000 0.343380 
#    y 0.000000 3.899700 0.000000 
#    z 0.343380 0.000000 3.375940 
# 
# 
# High freq. dielectric constant tensor:
#      x y z
#    x 1.797890 0.000000 0.045340 
#    y 0.000000 1.813610 0.000000 
#    z 0.045340 0.000000 1.769700 
# 
# From -- ./inp_files/48608.got.cif
#   From: 2010.06.25/outbox.cif.g09.slc.cpg/sg15_25_cif.got.tgz:48608.got - 2010.06.28 07:06:18.
