data_PCOD8130720
_publ_section_title
;
Structure prediction by ZEFSAII (Michael W. Deem and Ramdas Pophale) SiO2 
 PCOD8130720
Probable space group: C 2/C
;
_chemical_formula_sum "Si O2"
_cell_formula_units_Z 56
_cell_length_a 17.060064
_cell_length_b 9.686697
_cell_length_c 18.637006
_cell_angle_alpha 90.000000
_cell_angle_beta 113.830586
_cell_angle_gamma 90.000000
_cell_volume 2817.293804
_symmetry_space_group_name_H-M "C 2/C"
_symmetry_group_IT_number 15
_symmetry_cell_setting 'monoclinic'
loop_
_space_group_symop_operation_xyz
x,y,z
-x,y,1/2-z
-x,-y,-z
x,-y,1/2+z
1/2+x,1/2+y,z
1/2-x,1/2+y,1/2-z
1/2-x,1/2-y,-z
1/2+x,1/2-y,1/2+z
loop_
_atom_site_type_symbol
_atom_site_label
_atom_site_fract_x
_atom_site_fract_y
_atom_site_fract_z
Si Si1 0.900473 0.211018 0.487101
Si Si2 0.819261 0.100676 0.159863
Si Si3 0.685582 0.980499 0.006541
Si Si4 0.039927 0.022825 0.386604
Si Si5 0.149843 0.052455 0.169744
Si Si6 0.760763 0.127150 0.901583
Si Si7 0.429451 0.778155 0.013049
O O1 0.836753 0.318364 0.502200
O O2 0.909756 0.073254 0.538126
O O3 0.863924 0.170057 0.395471
O O4 0.992544 0.286093 0.514448
O O5 0.811748 0.111386 0.242618
O O6 0.815002 0.259398 0.129973
O O7 0.908340 0.025985 0.169458
O O8 0.740426 0.013954 0.098030
O O9 0.740464 0.015862 0.955992
O O10 0.597242 0.068334 0.972517
O O11 0.039031 0.182322 0.410340
O O12 0.940776 0.975976 0.344926
O O13 0.222737 0.948343 0.167811
O O14 0.847553 0.206674 0.948853
#
# Coordination Sequence:
#
# PCOD8130720 Si02
#       7
#     8   8   8   8   8   8   8
#     4  11  22  36  63  95 117 150 209 255 286 349
#     4  11  23  37  62  86 123 160 201 238 308 361
#     4  11  22  37  63  92 119 156 200 252 298 349
#     4  11  19  41  63  86 114 162 205 241 283 364
#     4  11  23  37  61  88 123 158 197 249 303 352
#     4  11  20  41  62  84 121 160 197 247 296 359
#     4  10  17  39  61  84 114 158 199 237 291 353
#
# _framework density 19.877231999999999
#
# number of rings (size 3 to 8) (size 9 to 14) (size 15 to 20)
#    0.000    1.143    5.714    2.571    2.000    2.286 
#    0.000    0.000    0.000    0.000    0.000    0.000 
#    0.000    0.000    0.000    0.000    0.000    0.000 
#
# Total GULP energy -347040.235396 kJ/mol
# GULP energy per Si atom -12394.294121 kJ/mol
# Density = 1.983199 g / cm^3
# Si number density = 19.877232 Si / 1000 Ang^3
#
#
#
# Elastic Constant Matrix: (Units=GPa)
#
#
# Indices 1 2 3 4 5 6 
#
# 1 99.8396 40.8539 31.3704 0.0000 -10.3224 0.0000
# 2 40.8539 71.3322 15.8546 0.0000 -3.7304 0.0000
# 3 31.3704 15.8546 87.9531 0.0000 -16.5577 0.0000
# 4 0.0000 0.0000 0.0000 15.4188 0.0000 -8.2466
# 5 -10.3224 -3.7304 -16.5577 0.0000 22.0531 0.0000
# 6 0.0000 0.0000 0.0000 -8.2466 0.0000 35.7056
#
#
#
# Elastic Compliance Matrix: (Units=1/GPa)
#
#
# Indices 1 2 3 4 5 6 
#
# 1 0.014348 -0.007342 -0.003218 0.000000 0.003057 0.000000
# 2 -0.007342 0.018367 -0.000878 0.000000 -0.000989 0.000000
# 3 -0.003218 -0.000878 0.014400 0.000000 0.009156 0.000000
# 4 0.000000 0.000000 0.000000 0.073996 0.000000 0.017090
# 5 0.003057 -0.000989 0.009156 0.000000 0.053484 0.000000
# 6 0.000000 0.000000 0.000000 0.017090 0.000000 0.031954
#
#
# Mechanical properties :
#
#
# Convention : Reuss Voigt Hill
#
# Bulk Modulus (GPa) = 41.25914 48.36475 44.81194
# Shear Modulus (GPa) = 21.05211 26.03858 23.54535
#
# Velocity S-wave (km/s) = 3.25792 3.62328 3.44545
# Velocity P-wave (km/s) = 5.91220 6.47215 6.19850
#
# Compressibility (1/GPa) = 0.02423705
#
# Stress axis : x y z
#
# Youngs Moduli (GPa) = 69.69723 54.44405 69.44589
#
# Poissons Ratio (x) = 0.39974 0.22350
# Poissons Ratio (y) = 0.51173 0.06100
# Poissons Ratio (z) = 0.22431 0.04783
#
# Static dielectric constant tensor:
#      x y z
#    x 3.926140 0.000000 -0.029100 
#    y 0.000000 3.663900 0.000000 
#    z -0.029100 0.000000 3.307250 
# 
# 
# High freq. dielectric constant tensor:
#      x y z
#    x 1.792720 0.000000 -0.009460 
#    y 0.000000 1.760010 0.000000 
#    z -0.009460 0.000000 1.744570 
# 
# From -- ./inp_files/209625.got.cif
#   From: 2010.06.25/outbox.cif.g09.slc.cpg/sg15_105_cif.got.tgz:209625.got - 2010.06.28 07:06:18.
