data_PCOD8130788
_publ_section_title
;
Structure prediction by ZEFSAII (Michael W. Deem and Ramdas Pophale) SiO2 
 PCOD8130788
Probable space group: C 2/C
;
_chemical_formula_sum "Si O2"
_cell_formula_units_Z 60
_cell_length_a 15.819618
_cell_length_b 25.437764
_cell_length_c 10.930433
_cell_angle_alpha 90.000000
_cell_angle_beta 57.373192
_cell_angle_gamma 90.000000
_cell_volume 3704.483318
_symmetry_space_group_name_H-M "C 2/C"
_symmetry_group_IT_number 15
_symmetry_cell_setting 'monoclinic'
loop_
_space_group_symop_operation_xyz
x,y,z
-x,y,1/2-z
-x,-y,-z
x,-y,1/2+z
1/2+x,1/2+y,z
1/2-x,1/2+y,1/2-z
1/2-x,1/2-y,-z
1/2+x,1/2-y,1/2+z
loop_
_atom_site_type_symbol
_atom_site_label
_atom_site_fract_x
_atom_site_fract_y
_atom_site_fract_z
Si Si1 0.500000 0.320546 0.250000
Si Si2 0.800186 0.783985 0.066963
Si Si3 0.826219 0.287410 0.099494
Si Si4 0.887928 0.108406 0.010867
Si Si5 0.947288 0.729700 0.114036
Si Si6 0.561108 0.502531 0.077256
Si Si7 0.059943 0.881727 0.581094
Si Si8 0.776804 0.680118 0.385271
O O1 0.586287 0.358099 0.130141
O O2 0.449714 0.283872 0.187605
O O3 0.719460 0.800612 0.232934
O O4 0.883981 0.742909 0.044116
O O5 0.750000 0.750000 0.000000
O O6 0.852471 0.838772 0.989930
O O7 0.796381 0.228824 0.084911
O O8 0.788255 0.326946 0.023090
O O9 0.946346 0.292058 0.011603
O O10 0.866152 0.047714 0.991899
O O11 0.778516 0.130374 0.135851
O O12 0.977987 0.119111 0.036077
O O13 0.887802 0.686653 0.241424
O O14 0.500000 0.494231 0.250000
O O15 0.612694 0.560226 0.043329
O O16 0.500000 0.500000 0.000000
O O17 0.000000 0.870433 0.750000
#
# Coordination Sequence:
#
# PCOD8130788 Si02
#       8
#     4   8   8   8   8   8   8   8
#     4  12  16  28  52  68 100 130 152 206 248 296
#     4  11  24  31  48  70  96 141 175 191 239 305
#     4  10  19  32  45  70 100 127 162 204 245 290
#     4  11  19  30  53  76  98 130 165 198 254 305
#     4  11  20  33  47  71 105 131 159 210 253 288
#     4   9  19  33  50  73  99 133 164 202 256 306
#     4  10  22  36  48  68 107 134 162 209 245 290
#     4  10  18  28  50  74  96 124 165 199 253 301
#
# _framework density 16.196591000000002
#
# number of rings (size 3 to 8) (size 9 to 14) (size 15 to 20)
#    0.000    1.600    4.667    1.600    5.600    0.000 
#    0.000    0.000    0.000    0.000    0.000    0.933 
#    4.000    0.000    0.000    0.000    0.000    0.000 
#
# Total GULP energy -371646.613876 kJ/mol
# GULP energy per Si atom -12388.220463 kJ/mol
# Density = 1.615973 g / cm^3
# Si number density = 16.196591 Si / 1000 Ang^3
#
#
#
# Elastic Constant Matrix: (Units=GPa)
#
#
# Indices 1 2 3 4 5 6 
#
# 1 87.3191 44.9681 45.3877 0.0000 -4.9274 0.0000
# 2 44.9681 113.0809 54.2451 0.0000 -7.2039 0.0000
# 3 45.3877 54.2451 95.7089 0.0000 -6.5941 0.0000
# 4 0.0000 0.0000 0.0000 18.0176 0.0000 -0.8307
# 5 -4.9274 -7.2039 -6.5941 0.0000 31.4362 0.0000
# 6 0.0000 0.0000 0.0000 -0.8307 0.0000 20.6073
#
#
#
# Elastic Compliance Matrix: (Units=1/GPa)
#
#
# Indices 1 2 3 4 5 6 
#
# 1 0.016322 -0.003793 -0.005555 0.000000 0.000524 0.000000
# 2 -0.003793 0.013084 -0.005531 0.000000 0.001244 0.000000
# 3 -0.005555 -0.005531 0.016306 0.000000 0.001282 0.000000
# 4 0.000000 0.000000 0.000000 0.055604 0.000000 0.002242
# 5 0.000524 0.001244 0.001282 0.000000 0.032447 0.000000
# 6 0.000000 0.000000 0.000000 0.002242 0.000000 0.048617
#
#
# Mechanical properties :
#
#
# Convention : Reuss Voigt Hill
#
# Bulk Modulus (GPa) = 62.67801 65.03453 63.85627
# Shear Modulus (GPa) = 22.99313 24.11277 23.55295
#
# Velocity S-wave (km/s) = 3.77188 3.86263 3.81752
# Velocity P-wave (km/s) = 7.59946 7.75458 7.67741
#
# Compressibility (1/GPa) = 0.01595456
#
# Stress axis : x y z
#
# Youngs Moduli (GPa) = 61.26567 76.42859 61.32738
#
# Poissons Ratio (x) = 0.28988 0.34066
# Poissons Ratio (y) = 0.23237 0.33923
# Poissons Ratio (z) = 0.34032 0.42276
#
# Static dielectric constant tensor:
#      x y z
#    x 3.199440 0.000000 0.130870 
#    y 0.000000 3.210770 0.000000 
#    z 0.130870 0.000000 3.207350 
# 
# 
# High freq. dielectric constant tensor:
#      x y z
#    x 1.611830 0.000000 0.014940 
#    y 0.000000 1.600090 0.000000 
#    z 0.014940 0.000000 1.626180 
# 
# From -- ./inp_files/100470.got.cif
#   From: 2010.06.25/outbox.cif.g09.slc.cpg/sg15_51_cif.got.tgz:100470.got - 2010.06.28 07:06:18.
