data_PCOD8130609
_publ_section_title
;
Structure prediction by ZEFSAII (Michael W. Deem and Ramdas Pophale) SiO2 
 PCOD8130609
Probable space group: C 2/C
;
_chemical_formula_sum "Si O2"
_cell_formula_units_Z 64
_cell_length_a 12.029235
_cell_length_b 15.830726
_cell_length_c 18.822463
_cell_angle_alpha 90.000000
_cell_angle_beta 73.339535
_cell_angle_gamma 90.000000
_cell_volume 3433.919568
_symmetry_space_group_name_H-M "C 2/C"
_symmetry_group_IT_number 15
_symmetry_cell_setting 'monoclinic'
loop_
_space_group_symop_operation_xyz
x,y,z
-x,y,1/2-z
-x,-y,-z
x,-y,1/2+z
1/2+x,1/2+y,z
1/2-x,1/2+y,1/2-z
1/2-x,1/2-y,-z
1/2+x,1/2-y,1/2+z
loop_
_atom_site_type_symbol
_atom_site_label
_atom_site_fract_x
_atom_site_fract_y
_atom_site_fract_z
Si Si1 0.853096 0.199595 0.946954
Si Si2 0.528552 0.137022 0.066836
Si Si3 0.824941 0.485043 0.420763
Si Si4 0.086126 0.063775 0.446440
Si Si5 0.832026 0.617685 0.602783
Si Si6 0.453195 0.359592 0.837520
Si Si7 0.524185 0.833668 0.165730
Si Si8 0.208356 0.437469 0.911705
O O1 0.947863 0.269313 0.905056
O O2 0.798755 0.151777 0.888552
O O3 0.750000 0.250000 0.000000
O O4 0.900245 0.137370 0.998182
O O5 0.390202 0.131434 0.085984
O O6 0.582165 0.061307 0.104337
O O7 0.582968 0.127954 0.979447
O O8 0.706429 0.515957 0.404384
O O9 0.879949 0.399445 0.380170
O O10 0.788256 0.467117 0.507824
O O11 0.038441 0.102129 0.381591
O O12 0.000000 0.000000 0.500000
O O13 0.821270 0.520602 0.628479
O O14 0.896694 0.665574 0.653793
O O15 0.500000 0.377496 0.750000
O O16 0.429042 0.260659 0.854059
O O17 0.330028 0.402953 0.865357
O O18 0.500000 0.858151 0.250000
#
# Coordination Sequence:
#
# PCOD8130609 Si02
#       8
#     8   8   8   8   8   8   8   8
#     4  10  18  31  56  90 116 153 188 246 303 343
#     4  10  18  32  61  93 113 144 197 252 300 340
#     4  11  20  37  60  92 118 148 203 258 291 349
#     4  12  22  38  60  93 124 152 207 254 298 364
#     4  10  17  35  59  84 119 152 194 243 296 356
#     4  11  26  42  57  85 126 167 195 245 321 373
#     4  11  24  39  57  87 124 166 201 241 314 372
#     4  11  19  37  63  87 116 150 200 253 301 353
#
# _framework density 18.637592999999999
#
# number of rings (size 3 to 8) (size 9 to 14) (size 15 to 20)
#    0.000    1.250    7.500    2.250    0.000    2.500 
#    0.000    0.000    0.000    0.000    0.000    0.000 
#    0.000    0.000    0.000    0.000    0.000    0.000 
#
# Total GULP energy -396616.859615 kJ/mol
# GULP energy per Si atom -12394.276863 kJ/mol
# Density = 1.859517 g / cm^3
# Si number density = 18.637593 Si / 1000 Ang^3
#
#
#
# Elastic Constant Matrix: (Units=GPa)
#
#
# Indices 1 2 3 4 5 6 
#
# 1 134.5932 46.9626 38.5317 0.0000 -4.4313 0.0000
# 2 46.9626 106.0984 38.0756 0.0000 -6.9370 0.0000
# 3 38.5317 38.0756 59.6032 0.0000 4.4624 0.0000
# 4 0.0000 0.0000 0.0000 12.1700 0.0000 4.3243
# 5 -4.4313 -6.9370 4.4624 0.0000 20.9901 0.0000
# 6 0.0000 0.0000 0.0000 4.3243 0.0000 43.2472
#
#
#
# Elastic Compliance Matrix: (Units=1/GPa)
#
#
# Indices 1 2 3 4 5 6 
#
# 1 0.009759 -0.002389 -0.004957 0.000000 0.002325 0.000000
# 2 -0.002389 0.013549 -0.007528 0.000000 0.005574 0.000000
# 3 -0.004957 -0.007528 0.025461 0.000000 -0.008947 0.000000
# 4 0.000000 0.000000 0.000000 0.085197 0.000000 -0.008519
# 5 0.002325 0.005574 -0.008947 0.000000 0.051877 0.000000
# 6 0.000000 0.000000 0.000000 -0.008519 0.000000 0.023975
#
#
# Mechanical properties :
#
#
# Convention : Reuss Voigt Hill
#
# Bulk Modulus (GPa) = 52.57339 60.82607 56.69973
# Shear Modulus (GPa) = 20.33310 27.06310 23.69810
#
# Velocity S-wave (km/s) = 3.30657 3.81474 3.56971
# Velocity P-wave (km/s) = 6.54579 7.21873 6.89048
#
# Compressibility (1/GPa) = 0.01902103
#
# Stress axis : x y z
#
# Youngs Moduli (GPa) = 102.47075 73.80832 39.27554
#
# Poissons Ratio (x) = 0.17631 0.19469
# Poissons Ratio (y) = 0.24477 0.29567
# Poissons Ratio (z) = 0.50794 0.55564
#
# Static dielectric constant tensor:
#      x y z
#    x 4.767700 0.000000 0.160510 
#    y 0.000000 4.540150 0.000000 
#    z 0.160510 0.000000 3.027700 
# 
# 
# High freq. dielectric constant tensor:
#      x y z
#    x 1.739760 0.000000 0.010030 
#    y 0.000000 1.743220 0.000000 
#    z 0.010030 0.000000 1.673670 
# 
# From -- ./inp_files/238743.got.cif
#   From: 2010.06.25/outbox.cif.g09.slc.cpg/sg15_120_cif.got.tgz:238743.got - 2010.06.28 07:06:18.
