data_PCOD8130521
_publ_section_title
;
Structure prediction by ZEFSAII (Michael W. Deem and Ramdas Pophale) SiO2 
 PCOD8130521
Probable space group: C 2/C
;
_chemical_formula_sum "Si O2"
_cell_formula_units_Z 60
_cell_length_a 24.004673
_cell_length_b 15.148121
_cell_length_c 18.699476
_cell_angle_alpha 90.000000
_cell_angle_beta 157.233363
_cell_angle_gamma 90.000000
_cell_volume 2631.304365
_symmetry_space_group_name_H-M "C 2/C"
_symmetry_group_IT_number 15
_symmetry_cell_setting 'monoclinic'
loop_
_space_group_symop_operation_xyz
x,y,z
-x,y,1/2-z
-x,-y,-z
x,-y,1/2+z
1/2+x,1/2+y,z
1/2-x,1/2+y,1/2-z
1/2-x,1/2-y,-z
1/2+x,1/2-y,1/2+z
loop_
_atom_site_type_symbol
_atom_site_label
_atom_site_fract_x
_atom_site_fract_y
_atom_site_fract_z
Si Si1 0.263220 0.253830 0.643545
Si Si2 0.253951 0.894319 0.754900
Si Si3 0.866593 0.162815 0.534507
Si Si4 0.001804 0.853165 0.857586
Si Si5 0.460421 0.857370 0.469315
Si Si6 0.321765 0.418013 0.298950
Si Si7 0.500000 0.505182 0.750000
Si Si8 0.117737 0.786572 0.250059
O O1 0.219597 0.320821 0.654453
O O2 0.114561 0.205231 0.443261
O O3 0.346113 0.305861 0.678759
O O4 0.374854 0.179323 0.800131
O O5 0.162003 0.849883 0.583707
O O6 0.160404 0.975541 0.677069
O O7 0.410518 0.920739 0.906816
O O8 0.764096 0.237023 0.445966
O O9 0.036147 0.193967 0.729490
O O10 0.861109 0.068178 0.568815
O O11 0.968729 0.946254 0.781949
O O12 0.075780 0.868519 0.022640
O O13 0.348155 0.907712 0.386598
O O14 0.527537 0.777478 0.592979
O O15 0.352585 0.378143 0.257252
#
# Coordination Sequence:
#
# PCOD8130521 Si02
#       8
#     8   8   8   8   8   8   4   8
#     4  11  20  39  65  92 121 158 194 257 312 363
#     4  11  20  33  61 100 125 156 189 260 311 360
#     4  11  23  41  62  88 125 162 206 242 302 361
#     4  11  23  41  62  88 125 162 206 242 302 361
#     4  10  17  34  55  96 130 152 186 239 336 363
#     4  11  20  33  61 100 125 156 189 260 311 360
#     4  12  28  44  62  88 118 170 212 252 276 356
#     4  11  20  39  65  92 121 158 194 257 312 363
#
# _framework density 22.802378999999998
#
# number of rings (size 3 to 8) (size 9 to 14) (size 15 to 20)
#    0.000    1.067    6.667    2.000    1.867    2.133 
#    0.000    0.000    0.000    1.600    0.000    0.000 
#    0.000    0.000    0.000    0.000    0.000    0.000 
#
# Total GULP energy -371898.960031 kJ/mol
# GULP energy per Si atom -12396.632001 kJ/mol
# Density = 2.275048 g / cm^3
# Si number density = 22.802379 Si / 1000 Ang^3
#
#
#
# Elastic Constant Matrix: (Units=GPa)
#
#
# Indices 1 2 3 4 5 6 
#
# 1 87.8615 38.1809 39.5538 -0.0005 24.7857 -0.0013
# 2 38.1809 104.3390 26.7615 0.0004 10.3135 -0.0003
# 3 39.5538 26.7615 68.9059 0.0010 26.4362 -0.0001
# 4 -0.0005 0.0004 0.0010 34.2309 -0.0001 -3.1762
# 5 24.7857 10.3135 26.4362 -0.0001 26.0404 -0.0010
# 6 -0.0013 -0.0003 -0.0001 -3.1762 -0.0010 37.9453
#
#
#
# Elastic Compliance Matrix: (Units=1/GPa)
#
#
# Indices 1 2 3 4 5 6 
#
# 1 0.018581 -0.004508 -0.004611 0.000000 -0.011220 0.000000
# 2 -0.004508 0.011738 -0.003004 0.000000 0.002691 0.000000
# 3 -0.004611 -0.003004 0.026512 -0.000001 -0.021336 -0.000001
# 4 0.000000 0.000000 -0.000001 0.029442 0.000001 0.002464
# 5 -0.011220 0.002691 -0.021336 0.000001 0.069676 0.000002
# 6 0.000000 0.000000 -0.000001 0.002464 0.000002 0.026560
#
#
# Mechanical properties :
#
#
# Convention : Reuss Voigt Hill
#
# Bulk Modulus (GPa) = 30.68764 52.23318 41.46041
# Shear Modulus (GPa) = 22.97629 30.08400 26.53014
#
# Velocity S-wave (km/s) = 3.17776 3.63621 3.41468
# Velocity P-wave (km/s) = 5.19148 6.37071 5.81109
#
# Compressibility (1/GPa) = 0.03258641
#
# Stress axis : x y z
#
# Youngs Moduli (GPa) = 53.81764 85.19276 37.71924
#
# Poissons Ratio (x) = 0.38403 0.17392
# Poissons Ratio (y) = 0.24260 0.11329
# Poissons Ratio (z) = 0.24815 0.25588
#
# Static dielectric constant tensor:
#      x y z
#    x 4.057580 0.000000 0.336530 
#    y 0.000000 4.168090 0.000000 
#    z 0.336530 0.000000 4.319310 
# 
# 
# High freq. dielectric constant tensor:
#      x y z
#    x 1.896170 0.000000 0.016250 
#    y 0.000000 1.899820 0.000000 
#    z 0.016250 0.000000 1.898900 
# 
# From -- ./inp_files/257899.got.cif
#   From: 2010.06.25/outbox.cif.g09.slc.cpg/sg15_129_cif.got.tgz:257899.got - 2010.06.28 07:06:18.
