data_PCOD8130141
_publ_section_title
;
Structure prediction by ZEFSAII (Michael W. Deem and Ramdas Pophale) SiO2 
 PCOD8130141
Probable space group: C 2/C
;
_chemical_formula_sum "Si O2"
_cell_formula_units_Z 56
_cell_length_a 14.233306
_cell_length_b 17.328989
_cell_length_c 13.377610
_cell_angle_alpha 90.000000
_cell_angle_beta 103.087724
_cell_angle_gamma 90.000000
_cell_volume 3213.863497
_symmetry_space_group_name_H-M "C 2/C"
_symmetry_group_IT_number 15
_symmetry_cell_setting 'monoclinic'
loop_
_space_group_symop_operation_xyz
x,y,z
-x,y,1/2-z
-x,-y,-z
x,-y,1/2+z
1/2+x,1/2+y,z
1/2-x,1/2+y,1/2-z
1/2-x,1/2-y,-z
1/2+x,1/2-y,1/2+z
loop_
_atom_site_type_symbol
_atom_site_label
_atom_site_fract_x
_atom_site_fract_y
_atom_site_fract_z
Si Si1 0.892241 0.799495 0.264081
Si Si2 0.093711 0.918991 0.075107
Si Si3 0.105468 0.622219 0.229578
Si Si4 0.445236 0.527626 0.142703
Si Si5 0.277538 0.579167 0.617128
Si Si6 0.890907 0.518759 0.451469
Si Si7 0.766834 0.524858 0.093091
O O1 0.888306 0.834280 0.375115
O O2 0.862134 0.710769 0.259509
O O3 0.811972 0.841788 0.175916
O O4 0.000000 0.811098 0.250000
O O5 0.185943 0.971677 0.123486
O O6 0.075692 0.911045 0.951110
O O7 0.002950 0.955869 0.109545
O O8 0.109848 0.595551 0.115761
O O9 0.179902 0.571539 0.309083
O O10 0.000000 0.610328 0.250000
O O11 0.500000 0.567278 0.250000
O O12 0.347549 0.491887 0.164571
O O13 0.167376 0.552066 0.619118
O O14 0.281978 0.586330 0.496378
O O15 0.838297 0.531344 0.545949
O O16 0.000000 0.500000 0.500000
#
# Coordination Sequence:
#
# PCOD8130141 Si02
#       7
#     8   8   8   8   8   8   8
#     4  11  20  33  54  84 119 134 172 225 294 328
#     4  10  18  31  54  81 108 145 170 220 271 326
#     4  11  21  35  56  82 104 147 178 228 279 322
#     4  10  17  29  52  84 110 132 183 216 265 319
#     4   9  17  33  54  78 109 139 168 233 260 313
#     4  10  20  38  55  77 108 140 199 230 250 313
#     4   9  21  33  56  80 100 145 191 214 265 315
#
# _framework density 17.424512
#
# number of rings (size 3 to 8) (size 9 to 14) (size 15 to 20)
#    0.857    1.143    4.286    0.857    0.000    0.571 
#    0.000    0.714    0.000    0.000    3.714    0.000 
#    0.000    0.000    0.000    0.000    0.000    0.000 
#
# Total GULP energy -346884.931616 kJ/mol
# GULP energy per Si atom -12388.747558 kJ/mol
# Density = 1.738485 g / cm^3
# Si number density = 17.424512 Si / 1000 Ang^3
#
#
#
# Elastic Constant Matrix: (Units=GPa)
#
#
# Indices 1 2 3 4 5 6 
#
# 1 88.7442 39.6750 37.3166 0.0000 17.6462 0.0000
# 2 39.6750 88.1080 54.6571 0.0000 -0.1205 0.0000
# 3 37.3166 54.6571 111.4078 0.0000 8.6410 0.0000
# 4 0.0000 0.0000 0.0000 21.9876 0.0000 -1.9127
# 5 17.6462 -0.1205 8.6410 0.0000 28.0243 0.0000
# 6 0.0000 0.0000 0.0000 -1.9127 0.0000 20.1957
#
#
#
# Elastic Compliance Matrix: (Units=1/GPa)
#
#
# Indices 1 2 3 4 5 6 
#
# 1 0.016948 -0.006633 -0.001631 0.000000 -0.010197 0.000000
# 2 -0.006633 0.019099 -0.007661 0.000000 0.006621 0.000000
# 3 -0.001631 -0.007661 0.013528 0.000000 -0.003177 0.000000
# 4 0.000000 0.000000 0.000000 0.045858 0.000000 0.004343
# 5 -0.010197 0.006621 -0.003177 0.000000 0.043112 0.000000
# 6 0.000000 0.000000 0.000000 0.004343 0.000000 0.049927
#
#
# Mechanical properties :
#
#
# Convention : Reuss Voigt Hill
#
# Bulk Modulus (GPa) = 56.42981 61.28415 58.85698
# Shear Modulus (GPa) = 22.10139 24.48228 23.29183
#
# Velocity S-wave (km/s) = 3.56534 3.75246 3.66010
# Velocity P-wave (km/s) = 7.02883 7.34998 7.19120
#
# Compressibility (1/GPa) = 0.01772113
#
# Stress axis : x y z
#
# Youngs Moduli (GPa) = 59.00565 52.36008 73.92277
#
# Poissons Ratio (x) = 0.34732 0.12060
# Poissons Ratio (y) = 0.39141 0.56636
# Poissons Ratio (z) = 0.09626 0.40116
#
# Static dielectric constant tensor:
#      x y z
#    x 3.320230 0.000000 0.096780 
#    y 0.000000 2.888580 0.000000 
#    z 0.096780 0.000000 3.497780 
# 
# 
# High freq. dielectric constant tensor:
#      x y z
#    x 1.678050 0.000000 0.010540 
#    y 0.000000 1.619380 0.000000 
#    z 0.010540 0.000000 1.687580 
# 
# From -- ./inp_files/154603.got.cif
#   From: 2010.06.25/outbox.cif.g09.slc.cpg/sg15_78_cif.got.tgz:154603.got - 2010.06.28 07:06:18.
