data_PCOD8130984
_publ_section_title
;
Structure prediction by ZEFSAII (Michael W. Deem and Ramdas Pophale) SiO2 
 PCOD8130984
Probable space group: C 2/C
;
_chemical_formula_sum "Si O2"
_cell_formula_units_Z 60
_cell_length_a 18.975104
_cell_length_b 9.096021
_cell_length_c 20.528011
_cell_angle_alpha 90.000000
_cell_angle_beta 67.771041
_cell_angle_gamma 90.000000
_cell_volume 3279.768077
_symmetry_space_group_name_H-M "C 2/C"
_symmetry_group_IT_number 15
_symmetry_cell_setting 'monoclinic'
loop_
_space_group_symop_operation_xyz
x,y,z
-x,y,1/2-z
-x,-y,-z
x,-y,1/2+z
1/2+x,1/2+y,z
1/2-x,1/2+y,1/2-z
1/2-x,1/2-y,-z
1/2+x,1/2-y,1/2+z
loop_
_atom_site_type_symbol
_atom_site_label
_atom_site_fract_x
_atom_site_fract_y
_atom_site_fract_z
Si Si1 0.327382 0.369342 0.603922
Si Si2 0.299389 0.949642 0.151558
Si Si3 0.124777 0.264348 0.900867
Si Si4 0.233699 0.604223 0.692252
Si Si5 0.000000 0.034275 0.250000
Si Si6 0.873047 0.924762 0.979247
Si Si7 0.339653 0.362272 0.847876
Si Si8 0.033799 0.972346 0.379120
O O1 0.314633 0.195358 0.603596
O O2 0.249334 0.440728 0.659397
O O3 0.340907 0.429795 0.526214
O O4 0.396239 0.418286 0.628013
O O5 0.306840 0.903699 0.223990
O O6 0.368663 0.060319 0.108418
O O7 0.216641 0.022563 0.168508
O O8 0.186782 0.192357 0.830326
O O9 0.044992 0.191047 0.906298
O O10 0.140367 0.217287 0.970129
O O11 0.181381 0.694213 0.660078
O O12 0.073441 0.129511 0.205626
O O13 0.023142 0.941435 0.305715
O O14 0.828892 0.895106 0.927935
O O15 0.961846 0.949037 0.935853
#
# Coordination Sequence:
#
# PCOD8130984 Si02
#       8
#     8   8   8   8   4   8   8   8
#     4  10  19  32  53  75 102 134 169 215 258 301
#     4  11  20  31  51  79 104 131 169 215 259 300
#     4   9  18  32  53  74 101 136 171 208 250 302
#     4   9  18  32  50  72  99 131 168 207 248 299
#     4  10  18  30  56  78  96 130 174 218 256 300
#     4   9  19  35  53  74 101 139 173 207 249 308
#     4  10  20  34  54  76 101 131 171 210 254 309
#     4   9  17  34  54  74 100 135 178 210 249 308
#
# _framework density 18.293976000000001
#
# number of rings (size 3 to 8) (size 9 to 14) (size 15 to 20)
#    0.000    2.667    0.000    5.600    0.000    5.333 
#    0.000    2.667    0.000   13.600    0.000    0.000 
#    0.000    0.000    0.000    0.000    0.000    0.000 
#
# Total GULP energy -371743.058374 kJ/mol
# GULP energy per Si atom -12391.435279 kJ/mol
# Density = 1.825234 g / cm^3
# Si number density = 18.293976 Si / 1000 Ang^3
#
#
#
# Elastic Constant Matrix: (Units=GPa)
#
#
# Indices 1 2 3 4 5 6 
#
# 1 73.2947 33.9088 26.3748 -0.0001 8.5931 0.0000
# 2 33.9088 139.0006 45.2278 -0.0002 3.1171 -0.0001
# 3 26.3748 45.2278 113.6838 -0.0001 11.4451 -0.0001
# 4 -0.0001 -0.0002 -0.0001 18.9764 -0.0001 1.0253
# 5 8.5931 3.1171 11.4451 -0.0001 26.1302 -0.0001
# 6 0.0000 -0.0001 -0.0001 1.0253 -0.0001 18.2246
#
#
#
# Elastic Compliance Matrix: (Units=1/GPa)
#
#
# Indices 1 2 3 4 5 6 
#
# 1 0.016368 -0.003216 -0.002108 0.000000 -0.004076 0.000000
# 2 -0.003216 0.008901 -0.002924 0.000000 0.001276 0.000000
# 3 -0.002108 -0.002924 0.010821 0.000000 -0.003698 0.000000
# 4 0.000000 0.000000 0.000000 0.052858 0.000000 -0.002974
# 5 -0.004076 0.001276 -0.003698 0.000000 0.041078 0.000000
# 6 0.000000 0.000000 0.000000 -0.002974 0.000000 0.055038
#
#
# Mechanical properties :
#
#
# Convention : Reuss Voigt Hill
#
# Bulk Modulus (GPa) = 51.03201 59.66688 55.34944
# Shear Modulus (GPa) = 24.02819 27.36408 25.69614
#
# Velocity S-wave (km/s) = 3.62808 3.87175 3.75190
# Velocity P-wave (km/s) = 6.74587 7.25766 7.00644
#
# Compressibility (1/GPa) = 0.01959555
#
# Stress axis : x y z
#
# Youngs Moduli (GPa) = 61.09663 112.34231 92.41504
#
# Poissons Ratio (x) = 0.36125 0.19478
# Poissons Ratio (y) = 0.19646 0.27020
# Poissons Ratio (z) = 0.12877 0.32846
#
# Static dielectric constant tensor:
#      x y z
#    x 3.366480 0.000000 0.003390 
#    y 0.000000 3.301180 0.000000 
#    z 0.003390 0.000000 3.549490 
# 
# 
# High freq. dielectric constant tensor:
#      x y z
#    x 1.692960 0.000000 -0.000670 
#    y 0.000000 1.687550 0.000000 
#    z -0.000670 0.000000 1.721410 
# 
# From -- ./inp_files/251527.got.cif
#   From: 2010.06.25/outbox.cif.g09.slc.cpg/sg15_126_cif.got.tgz:251527.got - 2010.06.28 07:06:18.
