data_PCOD8130199
_publ_section_title
;
Structure prediction by ZEFSAII (Michael W. Deem and Ramdas Pophale) SiO2 
 PCOD8130199
Probable space group: C 2/C
;
_chemical_formula_sum "Si O2"
_cell_formula_units_Z 56
_cell_length_a 13.480597
_cell_length_b 20.337836
_cell_length_c 17.341496
_cell_angle_alpha 90.000000
_cell_angle_beta 149.042919
_cell_angle_gamma 90.000000
_cell_volume 2445.670128
_symmetry_space_group_name_H-M "C 2/C"
_symmetry_group_IT_number 15
_symmetry_cell_setting 'monoclinic'
loop_
_space_group_symop_operation_xyz
x,y,z
-x,y,1/2-z
-x,-y,-z
x,-y,1/2+z
1/2+x,1/2+y,z
1/2-x,1/2+y,1/2-z
1/2-x,1/2-y,-z
1/2+x,1/2-y,1/2+z
loop_
_atom_site_type_symbol
_atom_site_label
_atom_site_fract_x
_atom_site_fract_y
_atom_site_fract_z
Si Si1 0.797198 0.027966 0.209547
Si Si2 0.250171 0.630225 0.057720
Si Si3 0.000000 0.245654 0.250000
Si Si4 0.089642 0.310450 0.079610
Si Si5 0.500000 0.033184 0.250000
Si Si6 0.168771 0.942439 0.038231
Si Si7 0.169504 0.188942 0.624101
Si Si8 0.089454 0.425238 0.972710
O O1 0.859504 0.091792 0.200272
O O2 0.609006 0.041650 0.133715
O O3 0.975439 0.016697 0.387117
O O4 0.763157 0.967085 0.128005
O O5 0.360345 0.697423 0.107511
O O6 0.224237 0.586357 0.965643
O O7 0.038991 0.645392 0.948980
O O8 0.126998 0.290102 0.278831
O O9 0.295749 0.306580 0.260476
O O10 0.109265 0.349177 0.011967
O O11 0.005053 0.237718 0.011616
O O12 0.402964 0.075119 0.115751
O O13 0.329863 0.991494 0.178519
O O14 0.113321 0.884645 0.061072
#
# Coordination Sequence:
#
# PCOD8130199 Si02
#       8
#     8   8   4   8   4   8   8   8
#     4  10  21  39  62  86 126 174 206 259 314 376
#     4  10  17  32  56  85 127 167 202 243 309 374
#     4  10  17  30  52  88 128 169 194 240 302 382
#     4  10  23  40  58  86 128 169 217 256 313 376
#     4  12  25  40  64  96 130 169 208 272 316 380
#     4  12  22  35  61  98 132 166 211 254 319 388
#     4  11  23  35  59  93 128 170 208 255 311 387
#     4  10  24  43  62  86 129 172 217 265 315 371
#
# _framework density 22.897608999999999
#
# number of rings (size 3 to 8) (size 9 to 14) (size 15 to 20)
#    0.000    1.429    2.857    3.000    8.000    2.857 
#    0.000    0.000    0.000    0.857    0.000    0.000 
#    0.000    0.000    0.000    0.000    0.000    0.000 
#
# Total GULP energy -347150.179781 kJ/mol
# GULP energy per Si atom -12398.220706 kJ/mol
# Density = 2.284549 g / cm^3
# Si number density = 22.897609 Si / 1000 Ang^3
#
#
#
# Elastic Constant Matrix: (Units=GPa)
#
#
# Indices 1 2 3 4 5 6 
#
# 1 39.9417 33.7999 26.2164 0.0103 -14.6453 0.0072
# 2 33.7999 83.6403 46.0449 0.0070 -9.6099 0.0078
# 3 26.2164 46.0449 136.2145 0.0035 -16.8667 0.0097
# 4 0.0103 0.0070 0.0035 22.7432 0.0058 -7.0621
# 5 -14.6453 -9.6099 -16.8667 0.0058 31.2532 0.0070
# 6 0.0072 0.0078 0.0097 -7.0621 0.0070 28.5166
#
#
#
# Elastic Compliance Matrix: (Units=1/GPa)
#
#
# Indices 1 2 3 4 5 6 
#
# 1 0.044787 -0.015521 -0.001463 -0.000024 0.015425 -0.000016
# 2 -0.015521 0.020182 -0.004251 0.000003 -0.003362 0.000001
# 3 -0.001463 -0.004251 0.009444 -0.000001 0.003104 -0.000003
# 4 -0.000024 0.000003 -0.000001 0.047632 -0.000023 0.011796
# 5 0.015425 -0.003362 0.003104 -0.000023 0.039866 -0.000019
# 6 -0.000016 0.000001 -0.000003 0.011796 -0.000019 0.037989
#
#
# Mechanical properties :
#
#
# Convention : Reuss Voigt Hill
#
# Bulk Modulus (GPa) = 31.30612 52.43541 41.87076
# Shear Modulus (GPa) = 19.76124 26.75161 23.25642
#
# Velocity S-wave (km/s) = 2.94092 3.42177 3.19042
# Velocity P-wave (km/s) = 5.02334 6.20975 5.64778
#
# Compressibility (1/GPa) = 0.03194264
#
# Stress axis : x y z
#
# Youngs Moduli (GPa) = 22.32770 49.54817 105.88260
#
# Poissons Ratio (x) = 0.76905 0.15493
# Poissons Ratio (y) = 0.34655 0.45014
# Poissons Ratio (z) = 0.03267 0.21064
#
# Static dielectric constant tensor:
#      x y z
#    x 3.686560 0.000000 -0.173940 
#    y 0.000000 4.046390 -0.000020 
#    z -0.173940 -0.000020 4.199950 
# 
# 
# High freq. dielectric constant tensor:
#      x y z
#    x 1.858420 0.000000 -0.015010 
#    y 0.000000 1.886210 0.000000 
#    z -0.015010 0.000000 1.919270 
# 
# From -- ./inp_files/207020.got.cif
#   From: 2010.06.25/outbox.cif.g09.slc.cpg/sg15_104_cif.got.tgz:207020.got - 2010.06.28 07:06:18.
