data_PCOD8130061
_publ_section_title
;
Structure prediction by ZEFSAII (Michael W. Deem and Ramdas Pophale) SiO2 
 PCOD8130061
Probable space group: C 2/C
;
_chemical_formula_sum "Si O2"
_cell_formula_units_Z 56
_cell_length_a 5.343935
_cell_length_b 17.423483
_cell_length_c 28.984269
_cell_angle_alpha 90.000000
_cell_angle_beta 104.539266
_cell_angle_gamma 90.000000
_cell_volume 2612.299724
_symmetry_space_group_name_H-M "C 2/C"
_symmetry_group_IT_number 15
_symmetry_cell_setting 'monoclinic'
loop_
_space_group_symop_operation_xyz
x,y,z
-x,y,1/2-z
-x,-y,-z
x,-y,1/2+z
1/2+x,1/2+y,z
1/2-x,1/2+y,1/2-z
1/2-x,1/2-y,-z
1/2+x,1/2-y,1/2+z
loop_
_atom_site_type_symbol
_atom_site_label
_atom_site_fract_x
_atom_site_fract_y
_atom_site_fract_z
Si Si1 0.263265 0.880747 0.560899
Si Si2 0.391201 0.840420 0.666021
Si Si3 0.130061 0.985299 0.352356
Si Si4 0.303894 0.837831 0.992967
Si Si5 0.567418 0.353466 0.803591
Si Si6 0.066506 0.517327 0.805395
Si Si7 0.498750 0.969280 0.052288
O O1 0.308247 0.833946 0.609454
O O2 0.461438 0.845875 0.532565
O O3 0.963136 0.875731 0.535054
O O4 0.317576 0.971492 0.572471
O O5 0.672950 0.801158 0.685686
O O6 0.168116 0.801580 0.687281
O O7 0.426505 0.926103 0.687659
O O8 0.343727 0.947323 0.328118
O O9 0.222133 0.970361 0.409487
O O10 0.848182 0.947446 0.331625
O O11 0.112563 0.076764 0.341726
O O12 0.250000 0.750000 0.000000
O O13 0.388471 0.882416 0.044026
O O14 0.500000 0.386601 0.750000
O O15 0.000000 0.538894 0.750000
O O16 0.500000 0.000000 0.000000
#
# Coordination Sequence:
#
# PCOD8130061 Si02
#       7
#     8   8   8   8   8   8   8
#     4  11  21  38  60  82 109 152 193 245 287 341
#     4  10  17  27  47  72 106 140 183 215 276 339
#     4  10  18  29  45  72 110 144 184 219 273 339
#     4  11  25  41  57  79 116 153 200 244 297 346
#     4  10  17  27  44  71 117 150 165 218 294 343
#     4  10  18  28  46  73 118 151 167 219 296 343
#     4  10  22  36  59  86 112 154 197 243 287 341
#
# _framework density 21.437049999999999
#
# number of rings (size 3 to 8) (size 9 to 14) (size 15 to 20)
#    0.000    1.714    2.857    6.000    6.000    2.286 
#    0.000    0.000    0.000    0.000    0.000    0.000 
#    0.000   27.429    0.000    0.000    0.000    0.000 
#
# Total GULP energy -346886.663464 kJ/mol
# GULP energy per Si atom -12388.809409 kJ/mol
# Density = 2.138826 g / cm^3
# Si number density = 21.437050 Si / 1000 Ang^3
#
#
#
# Elastic Constant Matrix: (Units=GPa)
#
#
# Indices 1 2 3 4 5 6 
#
# 1 195.9976 -1.5244 50.7038 0.0000 13.6343 0.0000
# 2 -1.5244 52.0228 4.0263 0.0000 2.9781 0.0000
# 3 50.7038 4.0263 128.7840 0.0000 21.6421 0.0000
# 4 0.0000 0.0000 0.0000 5.1234 0.0000 1.5119
# 5 13.6343 2.9781 21.6421 0.0000 44.2869 0.0000
# 6 0.0000 0.0000 0.0000 1.5119 0.0000 10.1069
#
#
#
# Elastic Compliance Matrix: (Units=1/GPa)
#
#
# Indices 1 2 3 4 5 6 
#
# 1 0.005709 0.000375 -0.002135 0.000000 -0.000739 0.000000
# 2 0.000375 0.019342 -0.000560 0.000000 -0.001142 0.000000
# 3 -0.002135 -0.000560 0.009267 0.000000 -0.003834 0.000000
# 4 0.000000 0.000000 0.000000 0.204196 0.000000 -0.030546
# 5 -0.000739 -0.001142 -0.003834 0.000000 0.024758 0.000000
# 6 0.000000 0.000000 0.000000 -0.030546 0.000000 0.103512
#
#
# Mechanical properties :
#
#
# Convention : Reuss Voigt Hill
#
# Bulk Modulus (GPa) = 33.69605 53.69063 43.69334
# Shear Modulus (GPa) = 13.11241 33.47667 23.29454
#
# Velocity S-wave (km/s) = 2.47588 3.95603 3.30001
# Velocity P-wave (km/s) = 4.89142 6.77990 5.91156
#
# Compressibility (1/GPa) = 0.02967707
#
# Stress axis : x y z
#
# Youngs Moduli (GPa) = 175.16844 51.70070 107.90590
#
# Poissons Ratio (x) = -0.01938 0.23039
# Poissons Ratio (y) = -0.06566 0.06046
# Poissons Ratio (z) = 0.37400 0.02897
#
# Static dielectric constant tensor:
#      x y z
#    x 5.729190 0.000000 0.189810 
#    y 0.000000 3.244690 0.000000 
#    z 0.189810 0.000000 4.073380 
# 
# 
# High freq. dielectric constant tensor:
#      x y z
#    x 1.878370 0.000000 0.008240 
#    y 0.000000 1.737600 0.000000 
#    z 0.008240 0.000000 1.853950 
# 
# From -- ./inp_files/286027.got.cif
#   From: 2010.06.25/outbox.cif.g09.slc.cpg/sg15_144_cif.got.tgz:286027.got - 2010.06.28 07:06:18.
