data_PCOD8130292
_publ_section_title
;
Structure prediction by ZEFSAII (Michael W. Deem and Ramdas Pophale) SiO2 
 PCOD8130292
Probable space group: C 2/C
;
_chemical_formula_sum "Si O2"
_cell_formula_units_Z 64
_cell_length_a 13.823604
_cell_length_b 12.110623
_cell_length_c 19.740579
_cell_angle_alpha 90.000000
_cell_angle_beta 80.046364
_cell_angle_gamma 90.000000
_cell_volume 3255.074517
_symmetry_space_group_name_H-M "C 2/C"
_symmetry_group_IT_number 15
_symmetry_cell_setting 'monoclinic'
loop_
_space_group_symop_operation_xyz
x,y,z
-x,y,1/2-z
-x,-y,-z
x,-y,1/2+z
1/2+x,1/2+y,z
1/2-x,1/2+y,1/2-z
1/2-x,1/2-y,-z
1/2+x,1/2-y,1/2+z
loop_
_atom_site_type_symbol
_atom_site_label
_atom_site_fract_x
_atom_site_fract_y
_atom_site_fract_z
Si Si1 0.542601 0.372116 0.428310
Si Si2 0.662315 0.788969 0.841582
Si Si3 0.345684 0.552830 0.002352
Si Si4 0.232216 0.134043 0.354022
Si Si5 0.531404 0.545440 0.323128
Si Si6 0.389940 0.981227 0.744495
Si Si7 0.322628 0.549980 0.371346
Si Si8 0.761222 0.859063 0.285758
O O1 0.593088 0.253141 0.411235
O O2 0.608904 0.444134 0.469734
O O3 0.432520 0.361818 0.470945
O O4 0.542779 0.423604 0.352622
O O5 0.601483 0.880812 0.809017
O O6 0.758461 0.843636 0.862533
O O7 0.693356 0.687695 0.789193
O O8 0.275321 0.612723 0.064808
O O9 0.284495 0.513671 0.943632
O O10 0.129554 0.115046 0.326245
O O11 0.318310 0.055783 0.314697
O O12 0.257636 0.262322 0.341697
O O13 0.500000 0.544095 0.250000
O O14 0.433558 0.594025 0.372571
O O15 0.500000 0.012669 0.750000
O O16 0.346858 0.092092 0.715988
O O17 0.324110 0.462362 0.307878
#
# Coordination Sequence:
#
# PCOD8130292 Si02
#       8
#     8   8   8   8   8   8   8   8
#     4   9  18  32  54  79 111 140 178 230 264 316
#     4  10  20  36  57  83 108 142 185 226 277 321
#     4   9  19  36  53  79 110 144 183 222 271 321
#     4  10  21  37  57  78 110 147 181 223 272 332
#     4  10  17  31  55  82 105 136 181 228 275 315
#     4  10  22  38  55  80 112 141 178 228 278 324
#     4  10  21  34  54  82 113 142 181 229 268 328
#     4  10  20  36  55  81 111 139 179 230 275 322
#
# _framework density 19.661608999999999
#
# number of rings (size 3 to 8) (size 9 to 14) (size 15 to 20)
#    0.000    2.250    0.000    5.250    0.000    7.000 
#    0.000    1.250    0.000    3.000    0.000    0.000 
#    0.000    0.000    0.000    0.000    0.000    0.000 
#
# Total GULP energy -396563.351841 kJ/mol
# GULP energy per Si atom -12392.604745 kJ/mol
# Density = 1.961686 g / cm^3
# Si number density = 19.661609 Si / 1000 Ang^3
#
#
#
# Elastic Constant Matrix: (Units=GPa)
#
#
# Indices 1 2 3 4 5 6 
#
# 1 67.0963 6.6104 25.1992 0.0000 -2.1680 0.0000
# 2 6.6104 55.0430 39.1847 0.0000 -9.0462 0.0000
# 3 25.1992 39.1847 98.9564 0.0000 -7.3321 0.0000
# 4 0.0000 0.0000 0.0000 16.7620 0.0000 -8.2692
# 5 -2.1680 -9.0462 -7.3321 0.0000 28.0886 0.0000
# 6 0.0000 0.0000 0.0000 -8.2692 0.0000 16.4097
#
#
#
# Elastic Compliance Matrix: (Units=1/GPa)
#
#
# Indices 1 2 3 4 5 6 
#
# 1 0.016565 0.001491 -0.004771 0.000000 0.000514 0.000000
# 2 0.001491 0.026342 -0.010374 0.000000 0.005891 0.000000
# 3 -0.004771 -0.010374 0.015452 0.000000 0.000324 0.000000
# 4 0.000000 0.000000 0.000000 0.079397 0.000000 0.040010
# 5 0.000514 0.005891 0.000324 0.000000 0.037623 0.000000
# 6 0.000000 0.000000 0.000000 0.040010 0.000000 0.081101
#
#
# Mechanical properties :
#
#
# Convention : Reuss Voigt Hill
#
# Bulk Modulus (GPa) = 32.20378 40.34270 36.27324
# Shear Modulus (GPa) = 16.99878 22.25881 19.62880
#
# Velocity S-wave (km/s) = 2.94354 3.36831 3.16307
# Velocity P-wave (km/s) = 5.28840 5.97415 5.64170
#
# Compressibility (1/GPa) = 0.03105226
#
# Stress axis : x y z
#
# Youngs Moduli (GPa) = 60.36681 37.96231 64.71516
#
# Poissons Ratio (x) = -0.05661 0.30875
# Poissons Ratio (y) = -0.09002 0.67136
# Poissons Ratio (z) = 0.28800 0.39383
#
# Static dielectric constant tensor:
#      x y z
#    x 3.588020 0.000000 -0.039730 
#    y 0.000000 3.385580 0.000000 
#    z -0.039730 0.000000 3.777990 
# 
# 
# High freq. dielectric constant tensor:
#      x y z
#    x 1.759660 0.000000 -0.000790 
#    y 0.000000 1.745370 0.000000 
#    z -0.000790 0.000000 1.769860 
# 
# From -- ./inp_files/243725.got.cif
#   From: 2010.06.25/outbox.cif.g09.slc.cpg/sg15_122_cif.got.tgz:243725.got - 2010.06.28 07:06:18.
