data_PCOD8130305
_publ_section_title
;
Structure prediction by ZEFSAII (Michael W. Deem and Ramdas Pophale) SiO2 
 PCOD8130305
Probable space group: C 2/C
;
_chemical_formula_sum "Si O2"
_cell_formula_units_Z 56
_cell_length_a 11.431022
_cell_length_b 13.727052
_cell_length_c 20.622294
_cell_angle_alpha 90.000000
_cell_angle_beta 77.306570
_cell_angle_gamma 90.000000
_cell_volume 3156.844470
_symmetry_space_group_name_H-M "C 2/C"
_symmetry_group_IT_number 15
_symmetry_cell_setting 'monoclinic'
loop_
_space_group_symop_operation_xyz
x,y,z
-x,y,1/2-z
-x,-y,-z
x,-y,1/2+z
1/2+x,1/2+y,z
1/2-x,1/2+y,1/2-z
1/2-x,1/2-y,-z
1/2+x,1/2-y,1/2+z
loop_
_atom_site_type_symbol
_atom_site_label
_atom_site_fract_x
_atom_site_fract_y
_atom_site_fract_z
Si Si1 0.908418 0.560048 0.093718
Si Si2 0.816493 0.557360 0.424879
Si Si3 0.718966 0.651225 0.919611
Si Si4 0.682397 0.138564 0.937035
Si Si5 0.848509 0.268069 0.834732
Si Si6 0.870998 0.733799 0.186154
Si Si7 0.574837 0.210857 0.520163
O O1 0.832910 0.462672 0.098559
O O2 0.855084 0.625560 0.158216
O O3 0.045282 0.525303 0.085787
O O4 0.894496 0.618111 0.028350
O O5 0.729575 0.465377 0.424146
O O6 0.779814 0.619335 0.493075
O O7 0.805832 0.625968 0.363554
O O8 0.692668 0.683091 0.849091
O O9 0.844071 0.702136 0.925450
O O10 0.609779 0.689342 0.978469
O O11 0.789851 0.186970 0.886249
O O12 0.566000 0.209239 0.946459
O O13 0.810795 0.260805 0.764154
O O14 0.988064 0.247827 0.827399
#
# Coordination Sequence:
#
# PCOD8130305 Si02
#       7
#     8   8   8   8   8   8   8
#     4   9  16  32  57  79 102 130 174 214 252 302
#     4  10  18  32  55  83 101 132 175 215 250 304
#     4  10  17  31  57  78 107 132 168 211 255 315
#     4  11  18  33  55  83 105 132 165 219 264 299
#     4  10  22  37  51  69 107 140 177 213 247 308
#     4   9  21  38  52  71  98 146 177 207 258 301
#     4   9  17  30  53  86 109 127 159 214 271 302
#
# _framework density 17.739234
#
# number of rings (size 3 to 8) (size 9 to 14) (size 15 to 20)
#    0.000    2.286    2.857    2.143    0.000    1.143 
#    0.000    3.571    0.000    0.000    0.000    0.000 
#    0.000    0.000    0.000    0.000    0.000    0.000 
#
# Total GULP energy -347159.068158 kJ/mol
# GULP energy per Si atom -12398.538148 kJ/mol
# Density = 1.769886 g / cm^3
# Si number density = 17.739234 Si / 1000 Ang^3
#
#
#
# Elastic Constant Matrix: (Units=GPa)
#
#
# Indices 1 2 3 4 5 6 
#
# 1 51.5394 41.2555 40.7681 0.0000 10.5021 0.0000
# 2 41.2555 95.1987 47.6274 0.0000 -2.3078 0.0000
# 3 40.7681 47.6274 121.7179 0.0000 14.4911 0.0000
# 4 0.0000 0.0000 0.0000 18.7380 0.0000 3.2758
# 5 10.5021 -2.3078 14.4911 0.0000 26.9599 0.0000
# 6 0.0000 0.0000 0.0000 3.2758 0.0000 25.9404
#
#
#
# Elastic Compliance Matrix: (Units=1/GPa)
#
#
# Indices 1 2 3 4 5 6 
#
# 1 0.037440 -0.013698 -0.005667 0.000000 -0.012711 0.000000
# 2 -0.013698 0.018518 -0.003720 0.000000 0.008921 0.000000
# 3 -0.005667 -0.003720 0.012120 0.000000 -0.004626 0.000000
# 4 0.000000 0.000000 0.000000 0.054572 0.000000 -0.006891
# 5 -0.012711 0.008921 -0.004626 0.000000 0.045294 0.000000
# 6 0.000000 0.000000 0.000000 -0.006891 0.000000 0.039420
#
#
# Mechanical properties :
#
#
# Convention : Reuss Voigt Hill
#
# Bulk Modulus (GPa) = 45.64493 58.63979 52.14236
# Shear Modulus (GPa) = 19.16904 23.58133 21.37519
#
# Velocity S-wave (km/s) = 3.29082 3.64996 3.47503
# Velocity P-wave (km/s) = 6.34241 7.13381 6.74972
#
# Compressibility (1/GPa) = 0.02190824
#
# Stress axis : x y z
#
# Youngs Moduli (GPa) = 26.70917 54.00150 82.50797
#
# Poissons Ratio (x) = 0.73973 0.46756
# Poissons Ratio (y) = 0.36587 0.30692
# Poissons Ratio (z) = 0.15136 0.20088
#
# Static dielectric constant tensor:
#      x y z
#    x 3.196990 0.000000 0.164750 
#    y 0.000000 3.233330 0.000000 
#    z 0.164750 0.000000 3.316620 
# 
# 
# High freq. dielectric constant tensor:
#      x y z
#    x 1.672010 0.000000 0.014460 
#    y 0.000000 1.683870 0.000000 
#    z 0.014460 0.000000 1.674200 
# 
# From -- ./inp_files/238331.got.cif
#   From: 2010.06.25/outbox.cif.g09.slc.cpg/sg15_120_cif.got.tgz:238331.got - 2010.06.28 07:06:18.
