data_PCOD8130282
_publ_section_title
;
Structure prediction by ZEFSAII (Michael W. Deem and Ramdas Pophale) SiO2 
 PCOD8130282
Probable space group: C 2/C
;
_chemical_formula_sum "Si O2"
_cell_formula_units_Z 48
_cell_length_a 23.582332
_cell_length_b 18.277849
_cell_length_c 5.394250
_cell_angle_alpha 90.000000
_cell_angle_beta 76.279180
_cell_angle_gamma 90.000000
_cell_volume 2258.755205
_symmetry_space_group_name_H-M "C 2/C"
_symmetry_group_IT_number 15
_symmetry_cell_setting 'monoclinic'
loop_
_space_group_symop_operation_xyz
x,y,z
-x,y,1/2-z
-x,-y,-z
x,-y,1/2+z
1/2+x,1/2+y,z
1/2-x,1/2+y,1/2-z
1/2-x,1/2-y,-z
1/2+x,1/2-y,1/2+z
loop_
_atom_site_type_symbol
_atom_site_label
_atom_site_fract_x
_atom_site_fract_y
_atom_site_fract_z
Si Si1 0.575549 0.500976 0.785336
Si Si2 0.000000 0.664674 0.750000
Si Si3 0.728985 0.044226 0.457362
Si Si4 0.383055 0.339781 0.280149
Si Si5 0.337511 0.363448 0.826574
Si Si6 0.405069 0.044774 0.899212
Si Si7 0.500000 0.254994 0.250000
O O1 0.536229 0.499868 0.576416
O O2 0.615910 0.572436 0.739798
O O3 0.619591 0.433043 0.736194
O O4 0.056698 0.617178 0.630982
O O5 0.985990 0.709732 0.514063
O O6 0.769854 0.115158 0.419655
O O7 0.661999 0.069973 0.528511
O O8 0.743013 0.001348 0.189983
O O9 0.345878 0.316951 0.563110
O O10 0.447071 0.307414 0.236922
O O11 0.353751 0.313577 0.050748
O O12 0.420072 0.001451 0.630794
#
# Coordination Sequence:
#
# PCOD8130282 Si02
#       7
#     8   4   8   8   8   8   4
#     4   8  14  25  44  68  96 131 170 219 275 313
#     4  12  24  43  64  81 116 152 188 238 288 338
#     4  10  18  30  55  92 124 144 172 218 291 373
#     4  10  20  34  51  75 108 152 202 238 275 323
#     4  10  17  31  54  81 114 148 182 234 295 334
#     4  10  21  38  65  98 120 138 171 225 294 364
#     4  12  26  41  58  77 106 162 214 242 268 324
#
# _framework density 21.250641999999999
#
# number of rings (size 3 to 8) (size 9 to 14) (size 15 to 20)
#    0.000    2.000    0.000    6.500    0.000    0.000 
#    0.000    7.500    0.000    6.000    0.000    0.000 
#    0.000    0.000    0.000    0.000    0.000    0.000 
#
# Total GULP energy -297319.847273 kJ/mol
# GULP energy per Si atom -12388.326970 kJ/mol
# Density = 2.120227 g / cm^3
# Si number density = 21.250642 Si / 1000 Ang^3
#
#
#
# Elastic Constant Matrix: (Units=GPa)
#
#
# Indices 1 2 3 4 5 6 
#
# 1 86.1752 17.3449 47.4213 0.0000 -6.6114 0.0000
# 2 17.3449 26.4450 18.4780 0.0000 -0.7463 0.0000
# 3 47.4213 18.4780 237.1790 0.0000 30.9801 0.0000
# 4 0.0000 0.0000 0.0000 18.4386 0.0000 7.1822
# 5 -6.6114 -0.7463 30.9801 0.0000 29.9661 0.0000
# 6 0.0000 0.0000 0.0000 7.1822 0.0000 10.2169
#
#
#
# Elastic Compliance Matrix: (Units=1/GPa)
#
#
# Indices 1 2 3 4 5 6 
#
# 1 0.015520 -0.007621 -0.003390 0.000000 0.006739 0.000000
# 2 -0.007621 0.044359 -0.002147 0.000000 0.001643 0.000000
# 3 -0.003390 -0.002147 0.005972 0.000000 -0.006976 0.000000
# 4 0.000000 0.000000 0.000000 0.074684 0.000000 -0.052501
# 5 0.006739 0.001643 -0.006976 0.000000 0.042110 0.000000
# 6 0.000000 0.000000 0.000000 -0.052501 0.000000 0.134785
#
#
# Mechanical properties :
#
#
# Convention : Reuss Voigt Hill
#
# Bulk Modulus (GPa) = 25.29263 57.36528 41.32895
# Shear Modulus (GPa) = 14.00853 29.49467 21.75160
#
# Velocity S-wave (km/s) = 2.57028 3.72955 3.20280
# Velocity P-wave (km/s) = 4.55372 6.75272 5.75915
#
# Compressibility (1/GPa) = 0.03953721
#
# Stress axis : x y z
#
# Youngs Moduli (GPa) = 64.43101 22.54328 167.43821
#
# Poissons Ratio (x) = 0.17180 0.56755
# Poissons Ratio (y) = 0.49103 0.35944
# Poissons Ratio (z) = 0.21840 0.04839
#
# Static dielectric constant tensor:
#      x y z
#    x 3.747670 0.000000 0.355720 
#    y 0.000000 3.324770 0.000000 
#    z 0.355720 0.000000 5.165980 
# 
# 
# High freq. dielectric constant tensor:
#      x y z
#    x 1.834490 0.000000 0.012660 
#    y 0.000000 1.774350 0.000000 
#    z 0.012660 0.000000 1.885950 
# 
# From -- ./inp_files/15301.got.cif
#   From: 2010.06.25/outbox.cif.g09.slc.cpg/sg15_8_cif.got.tgz:15301.got - 2010.06.28 07:06:18.
