data_PCOD8130280
_publ_section_title
;
Structure prediction by ZEFSAII (Michael W. Deem and Ramdas Pophale) SiO2 
 PCOD8130280
Probable space group: C 2/C
;
_chemical_formula_sum "Si O2"
_cell_formula_units_Z 60
_cell_length_a 11.218002
_cell_length_b 19.905780
_cell_length_c 27.209409
_cell_angle_alpha 90.000000
_cell_angle_beta 34.488565
_cell_angle_gamma 90.000000
_cell_volume 3440.453621
_symmetry_space_group_name_H-M "C 2/C"
_symmetry_group_IT_number 15
_symmetry_cell_setting 'monoclinic'
loop_
_space_group_symop_operation_xyz
x,y,z
-x,y,1/2-z
-x,-y,-z
x,-y,1/2+z
1/2+x,1/2+y,z
1/2-x,1/2+y,1/2-z
1/2-x,1/2-y,-z
1/2+x,1/2-y,1/2+z
loop_
_atom_site_type_symbol
_atom_site_label
_atom_site_fract_x
_atom_site_fract_y
_atom_site_fract_z
Si Si1 0.781400 0.398596 0.249968
Si Si2 0.953574 0.430899 0.091057
Si Si3 0.609618 0.421998 0.596755
Si Si4 0.682004 0.569110 0.591033
Si Si5 0.362600 0.949717 0.750035
Si Si6 0.503073 0.921968 0.596822
Si Si7 0.310435 0.330209 0.844823
Si Si8 0.000000 0.298994 0.250000
O O1 0.863146 0.387910 0.166769
O O2 0.530420 0.387946 0.333366
O O3 0.845835 0.470477 0.249782
O O4 0.881867 0.342464 0.249871
O O5 0.853607 0.405978 0.073132
O O6 0.887767 0.509016 0.119853
O O7 0.208506 0.423207 0.006854
O O8 0.632581 0.491003 0.619903
O O9 0.367877 0.417455 0.661034
O O10 0.665906 0.355444 0.607902
O O11 0.764171 0.576792 0.506722
O O12 0.500000 0.930844 0.750000
O O13 0.487147 0.917246 0.661300
O O14 0.402393 0.855483 0.607759
O O15 0.500000 0.364800 0.750000
O O16 0.328193 0.248926 0.835896
#
# Coordination Sequence:
#
# PCOD8130280 Si02
#       8
#     8   8   8   8   8   8   8   4
#     4  10  21  35  46  72 109 155 175 203 254 306
#     4  10  18  30  57  84 114 120 165 231 277 315
#     4  10  17  31  53  89 103 129 164 217 285 312
#     4  10  18  30  57  84 114 120 165 231 277 315
#     4  10  19  31  50  75 116 140 166 208 257 335
#     4  10  17  31  53  89 103 129 164 217 285 312
#     4  10  18  31  61  71  99 134 173 225 251 304
#     4  10  22  38  48  66 102 156 194 198 230 320
#
# _framework density 17.43956
#
# number of rings (size 3 to 8) (size 9 to 14) (size 15 to 20)
#    0.400    1.600    4.667    1.200    0.000    0.000 
#    2.400    4.000    0.000    6.400    0.000    0.000 
#    0.000    0.000    0.000    0.000    0.000    0.000 
#
# Total GULP energy -371697.649668 kJ/mol
# GULP energy per Si atom -12389.921656 kJ/mol
# Density = 1.739987 g / cm^3
# Si number density = 17.439560 Si / 1000 Ang^3
#
#
#
# Elastic Constant Matrix: (Units=GPa)
#
#
# Indices 1 2 3 4 5 6 
#
# 1 124.7651 37.0675 67.2631 0.0113 -1.9237 -0.0023
# 2 37.0675 73.2453 31.0024 0.0328 -0.4434 -0.0225
# 3 67.2631 31.0024 135.3962 0.0154 2.0841 -0.0184
# 4 0.0113 0.0328 0.0154 17.6042 -0.0856 0.1371
# 5 -1.9237 -0.4434 2.0841 -0.0856 15.6659 0.0296
# 6 -0.0023 -0.0225 -0.0184 0.1371 0.0296 15.3155
#
#
#
# Elastic Compliance Matrix: (Units=1/GPa)
#
#
# Indices 1 2 3 4 5 6 
#
# 1 0.011933 -0.003880 -0.005071 0.000014 0.002030 -0.000014
# 2 -0.003880 0.016392 -0.001829 -0.000025 0.000231 0.000021
# 3 -0.005071 -0.001829 0.010355 -0.000012 -0.002052 0.000013
# 4 0.000014 -0.000025 -0.000012 0.056810 0.000314 -0.000509
# 5 0.002030 0.000231 -0.002052 0.000314 0.064364 -0.000129
# 6 -0.000014 0.000021 0.000013 -0.000509 -0.000129 0.065298
#
#
# Mechanical properties :
#
#
# Convention : Reuss Voigt Hill
#
# Bulk Modulus (GPa) = 58.41287 67.11918 62.76603
# Shear Modulus (GPa) = 19.80825 22.92203 21.36514
#
# Velocity S-wave (km/s) = 3.37385 3.62936 3.50393
# Velocity P-wave (km/s) = 6.98172 7.49221 7.24146
#
# Compressibility (1/GPa) = 0.01711952
#
# Stress axis : x y z
#
# Youngs Moduli (GPa) = 83.80098 61.00475 96.56850
#
# Poissons Ratio (x) = 0.23672 0.48969
# Poissons Ratio (y) = 0.32518 0.17665
# Poissons Ratio (z) = 0.42495 0.11159
#
# Static dielectric constant tensor:
#      x y z
#    x 3.029750 0.000030 0.024770 
#    y 0.000030 2.854810 0.000020 
#    z 0.024770 0.000020 3.425540 
# 
# 
# High freq. dielectric constant tensor:
#      x y z
#    x 1.654250 0.000000 0.001860 
#    y 0.000000 1.630180 0.000000 
#    z 0.001860 0.000000 1.684960 
# 
# From -- ./inp_files/311740.got.cif
#   From: 2010.06.25/outbox.cif.g09.slc.cpg/sg15_156_cif.got.tgz:311740.got - 2010.06.28 07:06:18.
