data_PCOD8130047
_publ_section_title
;
Structure prediction by ZEFSAII (Michael W. Deem and Ramdas Pophale) SiO2 
 PCOD8130047
Probable space group: C 2/C
;
_chemical_formula_sum "Si O2"
_cell_formula_units_Z 56
_cell_length_a 13.507889
_cell_length_b 31.890059
_cell_length_c 13.082257
_cell_angle_alpha 90.000000
_cell_angle_beta 145.198233
_cell_angle_gamma 90.000000
_cell_volume 3216.347392
_symmetry_space_group_name_H-M "C 2/C"
_symmetry_group_IT_number 15
_symmetry_cell_setting 'monoclinic'
loop_
_space_group_symop_operation_xyz
x,y,z
-x,y,1/2-z
-x,-y,-z
x,-y,1/2+z
1/2+x,1/2+y,z
1/2-x,1/2+y,1/2-z
1/2-x,1/2-y,-z
1/2+x,1/2-y,1/2+z
loop_
_atom_site_type_symbol
_atom_site_label
_atom_site_fract_x
_atom_site_fract_y
_atom_site_fract_z
Si Si1 0.011128 0.800265 0.880709
Si Si2 0.333445 0.942782 0.346485
Si Si3 0.515707 0.126377 0.885192
Si Si4 0.038916 0.953159 0.502761
Si Si5 0.603124 0.611687 0.232363
Si Si6 0.099125 0.713735 0.730154
Si Si7 0.908502 0.524766 0.277273
O O1 0.000000 0.803629 0.750000
O O2 0.927157 0.843496 0.850250
O O3 0.913707 0.758305 0.841275
O O4 0.206667 0.799567 0.084100
O O5 0.365290 0.901147 0.307501
O O6 0.458217 0.944581 0.550532
O O7 0.371233 0.982868 0.308115
O O8 0.129815 0.939734 0.207638
O O9 0.500000 0.126285 0.750000
O O10 0.495356 0.174785 0.906506
O O11 0.695107 0.106487 0.072458
O O12 0.045279 0.925665 0.610475
O O13 0.225064 0.950789 0.602430
O O14 0.000000 0.000000 0.500000
O O15 0.500000 0.607268 0.250000
O O16 0.000000 0.724109 0.750000
O O17 0.000000 0.511865 0.250000
#
# Coordination Sequence:
#
# PCOD8130047 Si02
#       7
#     8   8   8   8   8   8   8
#     4  10  17  27  41  64  96 134 172 206 245 302
#     4  10  20  36  53  75 103 131 173 213 253 310
#     4  11  19  30  49  73 102 142 174 210 256 303
#     4  10  21  38  50  75 102 130 174 219 256 304
#     4  11  20  32  50  73 100 140 177 214 256 309
#     4  10  17  26  40  64  97 135 170 205 245 301
#     4  10  21  37  55  74 102 135 169 216 264 303
#
# _framework density 17.411054
#
# number of rings (size 3 to 8) (size 9 to 14) (size 15 to 20)
#    0.000    1.714    1.429    8.143    0.000    1.714 
#    0.000    0.000    0.000    0.000    0.000    0.000 
#    0.000    1.143    0.571    0.000    0.000    0.000 
#
# Total GULP energy -346973.115354 kJ/mol
# GULP energy per Si atom -12391.896977 kJ/mol
# Density = 1.737143 g / cm^3
# Si number density = 17.411054 Si / 1000 Ang^3
#
#
#
# Elastic Constant Matrix: (Units=GPa)
#
#
# Indices 1 2 3 4 5 6 
#
# 1 43.5103 10.9305 27.7634 0.0000 13.8310 0.0000
# 2 10.9305 112.1797 24.8976 0.0000 -1.0982 0.0000
# 3 27.7634 24.8976 116.1177 0.0000 27.1686 0.0000
# 4 0.0000 0.0000 0.0000 33.0525 0.0000 12.2274
# 5 13.8310 -1.0982 27.1686 0.0000 24.6195 0.0000
# 6 0.0000 0.0000 0.0000 12.2274 0.0000 52.5232
#
#
#
# Elastic Compliance Matrix: (Units=1/GPa)
#
#
# Indices 1 2 3 4 5 6 
#
# 1 0.029986 -0.002232 -0.003675 0.000000 -0.012890 0.000000
# 2 -0.002232 0.009762 -0.002635 0.000000 0.004597 0.000000
# 3 -0.003675 -0.002635 0.012942 0.000000 -0.012335 0.000000
# 4 0.000000 0.000000 0.000000 0.033106 0.000000 -0.007707
# 5 -0.012890 0.004597 -0.012335 0.000000 0.061676 0.000000
# 6 0.000000 0.000000 0.000000 -0.007707 0.000000 0.020833
#
#
# Mechanical properties :
#
#
# Convention : Reuss Voigt Hill
#
# Bulk Modulus (GPa) = 28.08608 44.33231 36.20920
# Shear Modulus (GPa) = 25.34746 35.92011 30.63378
#
# Velocity S-wave (km/s) = 3.81967 4.54702 4.19912
# Velocity P-wave (km/s) = 5.96819 7.28592 6.65973
#
# Compressibility (1/GPa) = 0.03560482
#
# Stress axis : x y z
#
# Youngs Moduli (GPa) = 33.34853 102.44223 77.27019
#
# Poissons Ratio (x) = 0.22868 0.28397
# Poissons Ratio (y) = 0.07444 0.20361
# Poissons Ratio (z) = 0.12256 0.26993
#
# Static dielectric constant tensor:
#      x y z
#    x 2.825910 0.000000 0.380270 
#    y 0.000000 3.703120 0.000000 
#    z 0.380270 0.000000 3.645110 
# 
# 
# High freq. dielectric constant tensor:
#      x y z
#    x 1.600880 0.000000 0.035730 
#    y 0.000000 1.686660 0.000000 
#    z 0.035730 0.000000 1.692460 
# 
# From -- ./inp_files/157467.got.cif
#   From: 2010.06.25/outbox.cif.g09.slc.cpg/sg15_79_cif.got.tgz:157467.got - 2010.06.28 07:06:18.
