data_PCOD8130919
_publ_section_title
;
Structure prediction by ZEFSAII (Michael W. Deem and Ramdas Pophale) SiO2 
 PCOD8130919
Probable space group: C 2/C
;
_chemical_formula_sum "Si O2"
_cell_formula_units_Z 60
_cell_length_a 11.749120
_cell_length_b 21.085707
_cell_length_c 14.743514
_cell_angle_alpha 90.000000
_cell_angle_beta 75.269565
_cell_angle_gamma 90.000000
_cell_volume 3532.487518
_symmetry_space_group_name_H-M "C 2/C"
_symmetry_group_IT_number 15
_symmetry_cell_setting 'monoclinic'
loop_
_space_group_symop_operation_xyz
x,y,z
-x,y,1/2-z
-x,-y,-z
x,-y,1/2+z
1/2+x,1/2+y,z
1/2-x,1/2+y,1/2-z
1/2-x,1/2-y,-z
1/2+x,1/2-y,1/2+z
loop_
_atom_site_type_symbol
_atom_site_label
_atom_site_fract_x
_atom_site_fract_y
_atom_site_fract_z
Si Si1 0.904235 0.108336 0.206050
Si Si2 0.708631 0.687754 0.418735
Si Si3 0.026915 0.987445 0.100491
Si Si4 0.343539 0.938809 0.704128
Si Si5 0.094321 0.587200 0.115026
Si Si6 0.291075 0.679298 0.878444
Si Si7 0.293553 0.955722 0.079711
Si Si8 0.000000 0.881987 0.250000
O O1 0.885423 0.148562 0.119539
O O2 0.780291 0.097986 0.284139
O O3 0.000000 0.144317 0.250000
O O4 0.964742 0.042235 0.169132
O O5 0.836141 0.653812 0.398860
O O6 0.656261 0.690815 0.530784
O O7 0.721059 0.756428 0.368359
O O8 0.167199 0.985659 0.081639
O O9 0.980467 0.923445 0.161193
O O10 0.000000 0.000000 0.000000
O O11 0.363542 0.953053 0.806085
O O12 0.454425 0.897196 0.645334
O O13 0.347967 0.005457 0.651343
O O14 0.124623 0.540842 0.025450
O O15 0.207464 0.617993 0.892010
O O16 0.392077 0.666057 0.784983
#
# Coordination Sequence:
#
# PCOD8130919 Si02
#       8
#     8   8   8   8   8   8   8   4
#     4  11  18  31  49  73 103 133 164 207 256 312
#     4   9  19  34  51  74  97 135 173 208 254 292
#     4  11  19  30  49  79 110 135 163 211 266 320
#     4  10  18  31  47  73 102 124 162 205 246 301
#     4   9  19  31  50  72  98 129 168 206 246 300
#     4   9  18  32  50  74 100 129 171 215 248 300
#     4  10  18  31  49  73 101 129 160 202 258 303
#     4  10  18  30  50  80 104 132 168 216 268 302
#
# _framework density 16.985198
#
# number of rings (size 3 to 8) (size 9 to 14) (size 15 to 20)
#    0.000    2.133    2.000    4.400    0.000    2.133 
#    0.000    0.000    2.933    0.000    6.933   10.267 
#    0.000    0.000    0.000    0.000    0.000    0.000 
#
# Total GULP energy -371682.147563 kJ/mol
# GULP energy per Si atom -12389.404919 kJ/mol
# Density = 1.694654 g / cm^3
# Si number density = 16.985198 Si / 1000 Ang^3
#
#
#
# Elastic Constant Matrix: (Units=GPa)
#
#
# Indices 1 2 3 4 5 6 
#
# 1 91.0177 25.1560 33.0346 0.0000 -13.5181 0.0000
# 2 25.1560 68.2300 19.7472 0.0000 4.9804 0.0000
# 3 33.0346 19.7472 88.2813 0.0000 -14.0406 0.0000
# 4 0.0000 0.0000 0.0000 25.3594 0.0000 1.7620
# 5 -13.5181 4.9804 -14.0406 0.0000 24.2298 0.0000
# 6 0.0000 0.0000 0.0000 1.7620 0.0000 16.4484
#
#
#
# Elastic Compliance Matrix: (Units=1/GPa)
#
#
# Indices 1 2 3 4 5 6 
#
# 1 0.014615 -0.005003 -0.003183 0.000000 0.007338 0.000000
# 2 -0.005003 0.018156 -0.003554 0.000000 -0.008583 0.000000
# 3 -0.003183 -0.003554 0.014482 0.000000 0.007347 0.000000
# 4 0.000000 0.000000 0.000000 0.039729 0.000000 -0.004256
# 5 0.007338 -0.008583 0.007347 0.000000 0.051387 0.000000
# 6 0.000000 0.000000 0.000000 -0.004256 0.000000 0.061252
#
#
# Mechanical properties :
#
#
# Convention : Reuss Voigt Hill
#
# Bulk Modulus (GPa) = 42.06442 44.82273 43.44357
# Shear Modulus (GPa) = 21.64284 24.51361 23.07823
#
# Velocity S-wave (km/s) = 3.57349 3.80311 3.69009
# Velocity P-wave (km/s) = 6.46881 6.76250 6.61729
#
# Compressibility (1/GPa) = 0.02377306
#
# Stress axis : x y z
#
# Youngs Moduli (GPa) = 68.42515 55.07842 69.05195
#
# Poissons Ratio (x) = 0.27554 0.21977
# Poissons Ratio (y) = 0.34232 0.24542
# Poissons Ratio (z) = 0.21777 0.19576
#
# Static dielectric constant tensor:
#      x y z
#    x 3.232380 0.000000 -0.115420 
#    y 0.000000 3.082810 0.000000 
#    z -0.115420 0.000000 3.512420 
# 
# 
# High freq. dielectric constant tensor:
#      x y z
#    x 1.639990 0.000000 -0.015820 
#    y 0.000000 1.633180 0.000000 
#    z -0.015820 0.000000 1.667230 
# 
# From -- ./inp_files/146728.got.cif
#   From: 2010.06.25/outbox.cif.g09.slc.cpg/sg15_74_cif.got.tgz:146728.got - 2010.06.28 07:06:18.
