data_PCOD8130774
_publ_section_title
;
Structure prediction by ZEFSAII (Michael W. Deem and Ramdas Pophale) SiO2 
 PCOD8130774
Probable space group: C 2/C
;
_chemical_formula_sum "Si O2"
_cell_formula_units_Z 56
_cell_length_a 22.177591
_cell_length_b 17.039138
_cell_length_c 18.343732
_cell_angle_alpha 90.000000
_cell_angle_beta 25.331011
_cell_angle_gamma 90.000000
_cell_volume 2965.775752
_symmetry_space_group_name_H-M "C 2/C"
_symmetry_group_IT_number 15
_symmetry_cell_setting 'monoclinic'
loop_
_space_group_symop_operation_xyz
x,y,z
-x,y,1/2-z
-x,-y,-z
x,-y,1/2+z
1/2+x,1/2+y,z
1/2-x,1/2+y,1/2-z
1/2-x,1/2-y,-z
1/2+x,1/2-y,1/2+z
loop_
_atom_site_type_symbol
_atom_site_label
_atom_site_fract_x
_atom_site_fract_y
_atom_site_fract_z
Si Si1 0.696967 0.775682 0.275001
Si Si2 0.456194 0.987351 0.382051
Si Si3 0.941892 0.659652 0.982596
Si Si4 0.267256 0.611488 0.821129
Si Si5 0.131932 0.405962 0.784097
Si Si6 0.430381 0.648658 0.975942
Si Si7 0.540060 0.206025 0.128890
O O1 0.595648 0.800777 0.319590
O O2 0.740538 0.857334 0.267841
O O3 0.611371 0.715147 0.419681
O O4 0.831120 0.730464 0.096414
O O5 0.500000 0.002680 0.250000
O O6 0.315569 0.033213 0.563060
O O7 0.582112 0.015108 0.298286
O O8 0.432754 0.894732 0.420564
O O9 0.914056 0.601995 0.081769
O O10 0.434378 0.597433 0.648281
O O11 0.204221 0.682293 0.938732
O O12 0.301938 0.408115 0.596300
O O13 0.062811 0.331640 0.819156
O O14 0.474018 0.699793 0.857414
O O15 0.500000 0.170937 0.250000
#
# Coordination Sequence:
#
# PCOD8130774 Si02
#       7
#     8   8   8   8   8   8   8
#     4  10  18  34  60  89 114 140 192 244 284 324
#     4  11  24  40  56  81 118 161 190 219 280 354
#     4  11  20  38  63  85 112 147 192 239 284 332
#     4  10  18  33  54  80 117 143 186 238 277 332
#     4  10  19  33  55  79 111 144 189 227 282 337
#     4  10  18  30  49  84 112 143 184 234 283 324
#     4  10  18  28  45  74 114 154 185 221 275 338
#
# _framework density 18.882075
#
# number of rings (size 3 to 8) (size 9 to 14) (size 15 to 20)
#    0.000    1.714    5.714    3.857    0.000    3.429 
#    0.000    5.000    0.000    0.000    0.000    0.000 
#    0.000    0.000    0.000    0.000    0.000    0.000 
#
# Total GULP energy -346875.598519 kJ/mol
# GULP energy per Si atom -12388.414233 kJ/mol
# Density = 1.883910 g / cm^3
# Si number density = 18.882075 Si / 1000 Ang^3
#
#
#
# Elastic Constant Matrix: (Units=GPa)
#
#
# Indices 1 2 3 4 5 6 
#
# 1 54.2422 28.4979 46.7416 0.0022 -16.5189 -0.0023
# 2 28.4979 66.0566 33.3567 0.0093 -1.8569 -0.0075
# 3 46.7416 33.3567 93.8813 0.0122 -38.4689 -0.0093
# 4 0.0022 0.0093 0.0122 17.8364 -0.0046 -3.4854
# 5 -16.5189 -1.8569 -38.4689 -0.0046 35.5597 0.0037
# 6 -0.0023 -0.0075 -0.0093 -3.4854 0.0037 13.7010
#
#
#
# Elastic Compliance Matrix: (Units=1/GPa)
#
#
# Indices 1 2 3 4 5 6 
#
# 1 0.035258 -0.007715 -0.014849 0.000008 -0.000088 -0.000006
# 2 -0.007715 0.022894 -0.009469 -0.000007 -0.012633 0.000007
# 3 -0.014849 -0.009469 0.033016 -0.000007 0.028324 0.000005
# 4 0.000008 -0.000007 -0.000007 0.058998 0.000002 0.015009
# 5 -0.000088 -0.012633 0.028324 0.000002 0.058062 -0.000003
# 6 -0.000006 0.000007 0.000005 0.015009 -0.000003 0.076805
#
#
# Mechanical properties :
#
#
# Convention : Reuss Voigt Hill
#
# Bulk Modulus (GPa) = 36.90055 47.93028 42.41542
# Shear Modulus (GPa) = 13.96125 20.45836 17.20981
#
# Velocity S-wave (km/s) = 2.72213 3.29520 3.02228
# Velocity P-wave (km/s) = 5.42817 6.31798 5.88990
#
# Compressibility (1/GPa) = 0.02709987
#
# Stress axis : x y z
#
# Youngs Moduli (GPa) = 28.36211 43.68035 30.28872
#
# Poissons Ratio (x) = 0.33699 0.44977
# Poissons Ratio (y) = 0.21881 0.28682
# Poissons Ratio (z) = 0.42116 0.41363
#
# Static dielectric constant tensor:
#      x y z
#    x 3.283100 0.000000 -0.179750 
#    y 0.000000 3.203880 0.000010 
#    z -0.179750 0.000010 3.437900 
# 
# 
# High freq. dielectric constant tensor:
#      x y z
#    x 1.708320 0.000000 -0.021420 
#    y 0.000000 1.706540 0.000000 
#    z -0.021420 0.000000 1.724310 
# 
# From -- ./inp_files/216028.got.cif
#   From: 2010.06.25/outbox.cif.g09.slc.cpg/sg15_109_cif.got.tgz:216028.got - 2010.06.28 07:06:18.
