data_PCOD8130038
_publ_section_title
;
Structure prediction by ZEFSAII (Michael W. Deem and Ramdas Pophale) SiO2 
 PCOD8130038
Probable space group: C 2/C
;
_chemical_formula_sum "Si O2"
_cell_formula_units_Z 48
_cell_length_a 7.729601
_cell_length_b 25.819939
_cell_length_c 8.983058
_cell_angle_alpha 90.000000
_cell_angle_beta 90.051631
_cell_angle_gamma 90.000000
_cell_volume 1792.818461
_symmetry_space_group_name_H-M "C 2/C"
_symmetry_group_IT_number 15
_symmetry_cell_setting 'monoclinic'
loop_
_space_group_symop_operation_xyz
x,y,z
-x,y,1/2-z
-x,-y,-z
x,-y,1/2+z
1/2+x,1/2+y,z
1/2-x,1/2+y,1/2-z
1/2-x,1/2-y,-z
1/2+x,1/2-y,1/2+z
loop_
_atom_site_type_symbol
_atom_site_label
_atom_site_fract_x
_atom_site_fract_y
_atom_site_fract_z
Si Si1 0.326108 0.931797 0.499509
Si Si2 0.918411 0.181879 0.990500
Si Si3 0.677560 0.816865 0.003173
Si Si4 0.912393 0.065890 0.000730
Si Si5 0.275285 0.251661 0.744723
Si Si6 0.732607 0.999861 0.752081
O O1 0.406607 0.873989 0.502766
O O2 0.392674 0.964535 0.642649
O O3 0.118641 0.932534 0.509994
O O4 0.383799 0.960982 0.348487
O O5 0.879586 0.178097 0.541265
O O6 0.837675 0.124244 0.992906
O O7 0.831317 0.213695 0.859127
O O8 0.888545 0.208124 0.150417
O O9 0.601567 0.782219 0.140272
O O10 0.645341 0.786181 0.848997
O O11 0.858747 0.034758 0.853945
O O12 0.842563 0.038423 0.148022
#
# Coordination Sequence:
#
# PCOD8130038 Si02
#       6
#     8   8   8   8   8   8
#     4  10  17  26  40  60  89 123 154 180 213 265
#     4  10  20  33  48  67  95 130 161 193 235 275
#     4  10  20  33  48  67  95 130 161 193 235 275
#     4  10  17  26  40  60  89 123 154 180 213 265
#     4  10  20  32  48  68  88 126 168 200 230 272
#     4  10  17  24  38  62  88 120 157 178 201 264
#
# _framework density 26.773485999999998
#
# number of rings (size 3 to 8) (size 9 to 14) (size 15 to 20)
#    0.000    2.000    0.000    7.000    0.000    5.333 
#    0.000    0.000    0.000    0.000    0.000    0.000 
#    0.000    0.000    0.000 1386.000    0.000  154.000 
#
# Total GULP energy -297515.713619 kJ/mol
# GULP energy per Si atom -12396.488067 kJ/mol
# Density = 2.671255 g / cm^3
# Si number density = 26.773486 Si / 1000 Ang^3
#
#
#
# Elastic Constant Matrix: (Units=GPa)
#
#
# Indices 1 2 3 4 5 6 
#
# 1 24.1280 2.3557 1.5809 0.0000 -0.4031 0.0000
# 2 2.3557 264.6556 94.9434 0.0000 -5.3586 0.0000
# 3 1.5809 94.9434 195.4863 0.0000 -11.6860 0.0000
# 4 0.0000 0.0000 0.0000 27.0644 0.0000 1.4304
# 5 -0.4031 -5.3586 -11.6860 0.0000 26.7431 0.0000
# 6 0.0000 0.0000 0.0000 1.4304 0.0000 24.2811
#
#
#
# Elastic Compliance Matrix: (Units=1/GPa)
#
#
# Indices 1 2 3 4 5 6 
#
# 1 0.041494 -0.000302 -0.000159 0.000000 0.000495 0.000000
# 2 -0.000302 0.004578 -0.002225 0.000000 -0.000059 0.000000
# 3 -0.000159 -0.002225 0.006336 0.000000 0.002320 0.000000
# 4 0.000000 0.000000 0.000000 0.037064 0.000000 -0.002183
# 5 0.000495 -0.000059 0.002320 0.000000 0.038402 0.000000
# 6 0.000000 0.000000 0.000000 -0.002183 0.000000 0.041313
#
#
# Mechanical properties :
#
#
# Convention : Reuss Voigt Hill
#
# Bulk Modulus (GPa) = 21.26035 75.78108 48.52072
# Shear Modulus (GPa) = 26.28288 41.31038 33.79663
#
# Velocity S-wave (km/s) = 3.13657 3.93231 3.55676
# Velocity P-wave (km/s) = 4.59080 6.99882 5.91857
#
# Compressibility (1/GPa) = 0.04703592
#
# Stress axis : x y z
#
# Youngs Moduli (GPa) = 24.09994 218.43478 157.83169
#
# Poissons Ratio (x) = 0.06601 0.02512
# Poissons Ratio (y) = 0.00728 0.35110
# Poissons Ratio (z) = 0.00384 0.48592
#
# Static dielectric constant tensor:
#      x y z
#    x 4.133200 0.000000 -0.170700 
#    y 0.000000 5.910120 0.000000 
#    z -0.170700 0.000000 5.316930 
# 
# 
# High freq. dielectric constant tensor:
#      x y z
#    x 2.041660 0.000000 -0.005390 
#    y 0.000000 2.102090 0.000000 
#    z -0.005390 0.000000 2.100590 
# 
# From -- ./inp_files/50838.got.cif
#   From: 2010.06.25/outbox.cif.g09.slc.cpg/sg15_26_cif.got.tgz:50838.got - 2010.06.28 07:06:18.
