data_PCOD8130027
_publ_section_title
;
Structure prediction by ZEFSAII (Michael W. Deem and Ramdas Pophale) SiO2 
 PCOD8130027
Probable space group: C 2/C
;
_chemical_formula_sum "Si O2"
_cell_formula_units_Z 60
_cell_length_a 18.671897
_cell_length_b 7.889770
_cell_length_c 19.327377
_cell_angle_alpha 90.000000
_cell_angle_beta 74.752519
_cell_angle_gamma 90.000000
_cell_volume 2747.024279
_symmetry_space_group_name_H-M "C 2/C"
_symmetry_group_IT_number 15
_symmetry_cell_setting 'monoclinic'
loop_
_space_group_symop_operation_xyz
x,y,z
-x,y,1/2-z
-x,-y,-z
x,-y,1/2+z
1/2+x,1/2+y,z
1/2-x,1/2+y,1/2-z
1/2-x,1/2-y,-z
1/2+x,1/2-y,1/2+z
loop_
_atom_site_type_symbol
_atom_site_label
_atom_site_fract_x
_atom_site_fract_y
_atom_site_fract_z
Si Si1 0.630444 0.037896 0.841462
Si Si2 0.669662 0.473225 0.019509
Si Si3 0.612722 0.756049 0.954130
Si Si4 0.000000 0.179462 0.750000
Si Si5 0.513963 0.364803 0.097066
Si Si6 0.240852 0.720163 0.902712
Si Si7 0.461864 0.034861 0.905307
Si Si8 0.371306 0.063039 0.308971
O O1 0.688915 0.175962 0.851977
O O2 0.545486 0.102017 0.871929
O O3 0.643449 0.864798 0.881883
O O4 0.652857 0.025363 0.755689
O O5 0.582425 0.482520 0.059287
O O6 0.721243 0.452000 0.074789
O O7 0.679765 0.650510 0.974496
O O8 0.686636 0.304813 0.972102
O O9 0.555016 0.615943 0.937881
O O10 0.572279 0.884083 0.017273
O O11 0.007613 0.073950 0.819341
O O12 0.926899 0.291386 0.771940
O O13 0.538321 0.168271 0.088791
O O14 0.301340 0.857067 0.865355
O O15 0.410332 0.072936 0.851151
#
# Coordination Sequence:
#
# PCOD8130027 Si02
#       8
#     8   8   8   4   8   8   8   8
#     4  11  22  40  66  94 122 163 212 260 311 376
#     4  11  23  40  59  92 127 169 197 260 322 382
#     4  11  22  35  65  96 123 153 219 269 298 360
#     4  10  16  36  68  88 104 168 216 242 298 378
#     4  10  18  37  66  88 123 158 213 254 311 372
#     4  11  25  41  61  87 131 168 204 246 334 384
#     4  10  19  38  68  92 114 163 214 257 299 373
#     4  11  20  42  68  87 121 170 212 254 308 388
#
# _framework density 21.841816999999999
#
# number of rings (size 3 to 8) (size 9 to 14) (size 15 to 20)
#    0.000    1.333    6.667    3.600    1.867    1.600 
#    2.400    0.000    2.933    0.000    0.000    0.000 
#    0.000    0.000    0.000    0.000    0.000    0.000 
#
# Total GULP energy -371817.825192 kJ/mol
# GULP energy per Si atom -12393.927506 kJ/mol
# Density = 2.179210 g / cm^3
# Si number density = 21.841817 Si / 1000 Ang^3
#
#
#
# Elastic Constant Matrix: (Units=GPa)
#
#
# Indices 1 2 3 4 5 6 
#
# 1 115.8692 22.5686 43.3888 0.0000 21.6478 0.0000
# 2 22.5686 29.0809 10.2584 0.0000 12.6567 0.0000
# 3 43.3888 10.2584 118.5575 0.0000 29.1142 0.0000
# 4 0.0000 0.0000 0.0000 21.8626 0.0000 6.1688
# 5 21.6478 12.6567 29.1142 0.0000 39.3861 0.0000
# 6 0.0000 0.0000 0.0000 6.1688 0.0000 36.5183
#
#
#
# Elastic Compliance Matrix: (Units=1/GPa)
#
#
# Indices 1 2 3 4 5 6 
#
# 1 0.011519 -0.007075 -0.003185 0.000000 -0.001703 0.000000
# 2 -0.007075 0.044337 0.001584 0.000000 -0.011530 0.000000
# 3 -0.003185 0.001584 0.011190 0.000000 -0.007030 0.000000
# 4 0.000000 0.000000 0.000000 0.048029 0.000000 -0.008113
# 5 -0.001703 -0.011530 -0.007030 0.000000 0.035227 0.000000
# 6 0.000000 0.000000 0.000000 -0.008113 0.000000 0.028754
#
#
# Mechanical properties :
#
#
# Convention : Reuss Voigt Hill
#
# Bulk Modulus (GPa) = 20.12314 46.21547 33.16930
# Shear Modulus (GPa) = 23.47715 32.03953 27.75834
#
# Velocity S-wave (km/s) = 3.28208 3.83415 3.56881
# Velocity P-wave (km/s) = 4.85756 6.38796 5.67459
#
# Compressibility (1/GPa) = 0.04969404
#
# Stress axis : x y z
#
# Youngs Moduli (GPa) = 86.80944 22.55472 89.36798
#
# Poissons Ratio (x) = 0.15957 0.28467
# Poissons Ratio (y) = 0.61417 -0.14159
# Poissons Ratio (z) = 0.27652 -0.03573
#
# Static dielectric constant tensor:
#      x y z
#    x 4.241580 0.000000 0.511050 
#    y 0.000000 3.345480 0.000000 
#    z 0.511050 0.000000 3.030250 
# 
# 
# High freq. dielectric constant tensor:
#      x y z
#    x 1.866540 0.000000 0.017780 
#    y 0.000000 1.809420 0.000000 
#    z 0.017780 0.000000 1.870540 
# 
# From -- ./inp_files/247411.got.cif
#   From: 2010.06.25/outbox.cif.g09.slc.cpg/sg15_124_cif.got.tgz:247411.got - 2010.06.28 07:06:18.
