data_PCOD8130506
_publ_section_title
;
Structure prediction by ZEFSAII (Michael W. Deem and Ramdas Pophale) SiO2 
 PCOD8130506
Probable space group: C 2/C
;
_chemical_formula_sum "Si O2"
_cell_formula_units_Z 40
_cell_length_a 21.050354
_cell_length_b 17.670237
_cell_length_c 9.898404
_cell_angle_alpha 90.000000
_cell_angle_beta 42.193505
_cell_angle_gamma 90.000000
_cell_volume 2472.870156
_symmetry_space_group_name_H-M "C 2/C"
_symmetry_group_IT_number 15
_symmetry_cell_setting 'monoclinic'
loop_
_space_group_symop_operation_xyz
x,y,z
-x,y,1/2-z
-x,-y,-z
x,-y,1/2+z
1/2+x,1/2+y,z
1/2-x,1/2+y,1/2-z
1/2-x,1/2-y,-z
1/2+x,1/2-y,1/2+z
loop_
_atom_site_type_symbol
_atom_site_label
_atom_site_fract_x
_atom_site_fract_y
_atom_site_fract_z
Si Si1 0.764004 0.721059 0.825532
Si Si2 0.449433 0.697988 0.971578
Si Si3 0.897469 0.035725 0.158060
Si Si4 0.070476 0.779786 0.529764
Si Si5 0.835699 0.924777 0.042661
O O1 0.862799 0.743215 0.601791
O O2 0.757339 0.628894 0.828031
O O3 0.750000 0.750000 0.000000
O O4 0.675776 0.756327 0.877557
O O5 0.403157 0.621057 0.096635
O O6 0.529149 0.731053 0.945785
O O7 0.500000 0.686372 0.750000
O O8 0.853930 0.031591 0.374975
O O9 0.826677 0.988144 0.173073
O O10 0.000000 0.000000 0.000000
O O11 0.076830 0.869564 0.555625
O O12 0.000000 0.741573 0.750000
#
# Coordination Sequence:
#
# PCOD8130506 Si02
#       5
#     8   8   8   8   8
#     4  10  19  36  54  75 110 149 186 208 262 335
#     4  12  22  33  55  83 113 143 176 226 276 310
#     4  12  18  30  49  81 111 139 163 211 286 331
#     4  10  17  34  52  75 108 142 177 211 255 330
#     4  10  21  31  50  77 112 140 172 213 259 337
#
# _framework density 16.175536000000001
#
# number of rings (size 3 to 8) (size 9 to 14) (size 15 to 20)
#    1.200    0.000    8.000    1.800    0.000    0.800 
#    0.000    0.000    0.000    0.000    0.000    7.000 
#    0.000    0.000    0.000    0.000    0.000    0.000 
#
# Total GULP energy -247807.047110 kJ/mol
# GULP energy per Si atom -12390.352355 kJ/mol
# Density = 1.613872 g / cm^3
# Si number density = 16.175536 Si / 1000 Ang^3
#
#
#
# Elastic Constant Matrix: (Units=GPa)
#
#
# Indices 1 2 3 4 5 6 
#
# 1 116.1746 30.9145 34.1961 0.0000 2.3843 0.0000
# 2 30.9145 54.3231 10.7779 0.0000 -5.1154 0.0000
# 3 34.1961 10.7779 51.1621 0.0000 5.5228 0.0000
# 4 0.0000 0.0000 0.0000 23.0208 0.0000 -2.7401
# 5 2.3843 -5.1154 5.5228 0.0000 27.5315 0.0000
# 6 0.0000 0.0000 0.0000 -2.7401 0.0000 30.8156
#
#
#
# Elastic Compliance Matrix: (Units=1/GPa)
#
#
# Indices 1 2 3 4 5 6 
#
# 1 0.012132 -0.005613 -0.006849 0.000000 -0.000720 0.000000
# 2 -0.005613 0.022364 -0.001493 0.000000 0.004941 0.000000
# 3 -0.006849 -0.001493 0.024944 0.000000 -0.004688 0.000000
# 4 0.000000 0.000000 0.000000 0.043904 0.000000 0.003904
# 5 -0.000720 0.004941 -0.004688 0.000000 0.038243 0.000000
# 6 0.000000 0.000000 0.000000 0.003904 0.000000 0.032798
#
#
# Mechanical properties :
#
#
# Convention : Reuss Voigt Hill
#
# Bulk Modulus (GPa) = 31.71523 41.49299 36.60411
# Shear Modulus (GPa) = 23.49572 25.99167 24.74370
#
# Velocity S-wave (km/s) = 3.81536 4.01290 3.91538
# Velocity P-wave (km/s) = 6.24970 6.86867 6.56648
#
# Compressibility (1/GPa) = 0.03153060
#
# Stress axis : x y z
#
# Youngs Moduli (GPa) = 82.42566 44.71427 40.08993
#
# Poissons Ratio (x) = 0.25099 0.27457
# Poissons Ratio (y) = 0.46267 0.05985
# Poissons Ratio (z) = 0.56452 0.06675
#
# Static dielectric constant tensor:
#      x y z
#    x 3.226600 0.000000 0.083700 
#    y 0.000000 2.958750 0.000000 
#    z 0.083700 0.000000 2.844400 
# 
# 
# High freq. dielectric constant tensor:
#      x y z
#    x 1.628220 0.000000 0.015990 
#    y 0.000000 1.591830 0.000000 
#    z 0.015990 0.000000 1.602520 
# 
# From -- ./inp_files/57397.got.cif
#   From: 2010.06.25/outbox.cif.g09.slc.cpg/sg15_29_cif.got.tgz:57397.got - 2010.06.28 07:06:18.
