data_PCOD8130494
_publ_section_title
;
Structure prediction by ZEFSAII (Michael W. Deem and Ramdas Pophale) SiO2 
 PCOD8130494
Probable space group: C 2/C
;
_chemical_formula_sum "Si O2"
_cell_formula_units_Z 60
_cell_length_a 10.854264
_cell_length_b 23.423390
_cell_length_c 14.667544
_cell_angle_alpha 90.000000
_cell_angle_beta 42.938407
_cell_angle_gamma 90.000000
_cell_volume 2540.327248
_symmetry_space_group_name_H-M "C 2/C"
_symmetry_group_IT_number 15
_symmetry_cell_setting 'monoclinic'
loop_
_space_group_symop_operation_xyz
x,y,z
-x,y,1/2-z
-x,-y,-z
x,-y,1/2+z
1/2+x,1/2+y,z
1/2-x,1/2+y,1/2-z
1/2-x,1/2-y,-z
1/2+x,1/2-y,1/2+z
loop_
_atom_site_type_symbol
_atom_site_label
_atom_site_fract_x
_atom_site_fract_y
_atom_site_fract_z
Si Si1 0.203660 0.246444 0.885863
Si Si2 0.117585 0.564123 0.836663
Si Si3 0.361972 0.838603 0.434389
Si Si4 0.003083 0.972403 0.140061
Si Si5 0.594719 0.950096 0.563839
Si Si6 0.500000 0.142878 0.250000
Si Si7 0.011229 0.097521 0.136461
Si Si8 0.832384 0.198360 0.140123
O O1 0.352399 0.209100 0.860048
O O2 0.279861 0.252764 0.742259
O O3 0.179925 0.307849 0.946832
O O4 0.007135 0.217073 0.988435
O O5 0.332382 0.564327 0.696081
O O6 0.047928 0.624781 0.833981
O O7 0.008948 0.509330 0.855363
O O8 0.088948 0.562064 0.960198
O O9 0.211490 0.885969 0.497484
O O10 0.000000 0.975897 0.250000
O O11 0.971678 0.035435 0.115783
O O12 0.201026 0.949553 0.005048
O O13 0.494923 0.896686 0.663513
O O14 0.670926 0.185741 0.157652
O O15 0.864777 0.140675 0.177868
O O16 0.000000 0.095654 0.250000
#
# Coordination Sequence:
#
# PCOD8130494 Si02
#       8
#     8   8   8   8   8   4   8   8
#     4  10  23  41  68  98 128 166 239 291 345 397
#     4  10  19  37  65  98 136 174 216 278 340 388
#     4  10  19  34  65  99 131 170 215 291 344 398
#     4   9  18  32  60  97 133 170 217 264 316 409
#     4  10  21  38  62  99 134 176 230 263 319 428
#     4  12  26  44  70  88 136 188 224 258 344 426
#     4  10  17  33  66  96 126 172 220 268 336 397
#     4  11  24  44  66  95 131 176 225 290 341 416
#
# _framework density 23.619004
#
# number of rings (size 3 to 8) (size 9 to 14) (size 15 to 20)
#    0.000    1.867    2.667    1.600    1.867    0.533 
#    2.400    4.000    1.467    0.000    0.000    0.000 
#    0.000    0.000    0.000    0.000    0.000    0.000 
#
# Total GULP energy -371946.706854 kJ/mol
# GULP energy per Si atom -12398.223562 kJ/mol
# Density = 2.356525 g / cm^3
# Si number density = 23.619004 Si / 1000 Ang^3
#
#
#
# Elastic Constant Matrix: (Units=GPa)
#
#
# Indices 1 2 3 4 5 6 
#
# 1 87.0839 41.1933 29.9562 0.0000 -37.2414 0.0000
# 2 41.1933 99.9371 18.7642 0.0001 -20.1017 -0.0001
# 3 29.9562 18.7642 80.2894 -0.0001 -31.7826 0.0000
# 4 0.0000 0.0001 -0.0001 35.9993 0.0001 -10.5772
# 5 -37.2414 -20.1017 -31.7826 0.0001 43.0884 0.0000
# 6 0.0000 -0.0001 0.0000 -10.5772 0.0000 29.8789
#
#
#
# Elastic Compliance Matrix: (Units=1/GPa)
#
#
# Indices 1 2 3 4 5 6 
#
# 1 0.020579 -0.005390 -0.000527 0.000000 0.014883 0.000000
# 2 -0.005390 0.012488 -0.000629 0.000000 0.000703 0.000000
# 3 -0.000527 -0.000629 0.017658 0.000000 0.012276 0.000000
# 4 0.000000 0.000000 0.000000 0.031003 0.000000 0.010975
# 5 0.014883 0.000703 0.012276 0.000000 0.045455 0.000000
# 6 0.000000 0.000000 0.000000 0.010975 0.000000 0.037354
#
#
# Mechanical properties :
#
#
# Convention : Reuss Voigt Hill
#
# Bulk Modulus (GPa) = 26.57252 49.68198 38.12725
# Shear Modulus (GPa) = 26.29207 33.61976 29.95592
#
# Velocity S-wave (km/s) = 3.34005 3.77692 3.56518
# Velocity P-wave (km/s) = 5.11365 6.33250 5.75543
#
# Compressibility (1/GPa) = 0.03763286
#
# Stress axis : x y z
#
# Youngs Moduli (GPa) = 48.59379 80.08007 56.63155
#
# Poissons Ratio (x) = 0.43162 0.02983
# Poissons Ratio (y) = 0.26191 0.03563
# Poissons Ratio (z) = 0.02560 0.05038
#
# Static dielectric constant tensor:
#      x y z
#    x 4.091590 0.000000 -0.318930 
#    y 0.000000 4.281030 0.000000 
#    z -0.318930 0.000000 4.169660 
# 
# 
# High freq. dielectric constant tensor:
#      x y z
#    x 1.921410 0.000000 -0.019930 
#    y 0.000000 1.931070 0.000000 
#    z -0.019930 0.000000 1.938470 
# 
# From -- ./inp_files/200523.got.cif
#   From: 2010.06.25/outbox.cif.g09.slc.cpg/sg15_101_cif.got.tgz:200523.got - 2010.06.28 07:06:18.
