data_PCOD8130704
_publ_section_title
;
Structure prediction by ZEFSAII (Michael W. Deem and Ramdas Pophale) SiO2 
 PCOD8130704
Probable space group: C 2/C
;
_chemical_formula_sum "Si O2"
_cell_formula_units_Z 56
_cell_length_a 15.123631
_cell_length_b 13.692002
_cell_length_c 22.811954
_cell_angle_alpha 90.000000
_cell_angle_beta 33.633898
_cell_angle_gamma 90.000000
_cell_volume 2616.402273
_symmetry_space_group_name_H-M "C 2/C"
_symmetry_group_IT_number 15
_symmetry_cell_setting 'monoclinic'
loop_
_space_group_symop_operation_xyz
x,y,z
-x,y,1/2-z
-x,-y,-z
x,-y,1/2+z
1/2+x,1/2+y,z
1/2-x,1/2+y,1/2-z
1/2-x,1/2-y,-z
1/2+x,1/2-y,1/2+z
loop_
_atom_site_type_symbol
_atom_site_label
_atom_site_fract_x
_atom_site_fract_y
_atom_site_fract_z
Si Si1 0.758025 0.404851 0.531971
Si Si2 0.677034 0.300823 0.469495
Si Si3 0.357054 0.182519 0.283645
Si Si4 0.000000 0.630983 0.750000
Si Si5 0.467868 0.393148 0.492035
Si Si6 0.646428 0.386993 0.273371
Si Si7 0.432266 0.006211 0.677015
Si Si8 0.500000 0.494097 0.750000
O O1 0.648776 0.386125 0.534056
O O2 0.860934 0.306132 0.484731
O O3 0.649438 0.428453 0.647643
O O4 0.889796 0.488681 0.448588
O O5 0.864119 0.299676 0.350235
O O6 0.567195 0.315945 0.474703
O O7 0.500000 0.202748 0.250000
O O8 0.216178 0.136949 0.400901
O O9 0.305187 0.280516 0.277936
O O10 0.399727 0.107114 0.208073
O O11 0.079845 0.563292 0.755107
O O12 0.500000 0.500000 0.500000
O O13 0.522530 0.381178 0.395271
O O14 0.803395 0.448378 0.203609
O O15 0.549804 0.440678 0.276547
#
# Coordination Sequence:
#
# PCOD8130704 Si02
#       8
#     8   8   8   4   8   8   8   4
#     4  10  24  40  68  99 144 180 226 300 367 424
#     4  10  20  40  67 106 136 179 229 296 360 432
#     4  12  27  46  74 107 142 188 243 298 357 426
#     4  10  17  37  70 104 134 168 242 290 344 420
#     4  12  24  45  75 104 140 189 246 292 355 434
#     4  12  27  47  71 105 145 190 239 298 359 433
#     4  11  23  44  71 100 137 184 239 292 352 424
#     4  12  27  45  64 100 150 188 236 296 372 422
#
# _framework density 21.403435999999999
#
# number of rings (size 3 to 8) (size 9 to 14) (size 15 to 20)
#    0.000    0.857    4.286    2.143    4.000    3.429 
#    0.000    0.000    0.000    0.000    0.000    0.000 
#    0.000    0.000    0.000    0.000    0.000    0.000 
#
# Total GULP energy -347275.026702 kJ/mol
# GULP energy per Si atom -12402.679525 kJ/mol
# Density = 2.135472 g / cm^3
# Si number density = 21.403436 Si / 1000 Ang^3
#
#
#
# Elastic Constant Matrix: (Units=GPa)
#
#
# Indices 1 2 3 4 5 6 
#
# 1 138.5987 29.4936 29.7299 -0.0001 1.6869 0.0000
# 2 29.4936 80.0682 23.2298 -0.0001 -0.5906 0.0002
# 3 29.7299 23.2298 123.9145 -0.0013 18.9394 0.0006
# 4 -0.0001 -0.0001 -0.0013 21.7446 0.0007 -3.9698
# 5 1.6869 -0.5906 18.9394 0.0007 32.6946 0.0000
# 6 0.0000 0.0002 0.0006 -3.9698 0.0000 26.8421
#
#
#
# Elastic Compliance Matrix: (Units=1/GPa)
#
#
# Indices 1 2 3 4 5 6 
#
# 1 0.008076 -0.002528 -0.001528 0.000000 0.000423 0.000000
# 2 -0.002528 0.014100 -0.002299 0.000000 0.001717 0.000000
# 3 -0.001528 -0.002299 0.009723 0.000001 -0.005595 0.000000
# 4 0.000000 0.000000 0.000001 0.047265 -0.000001 0.006990
# 5 0.000423 0.001717 -0.005595 -0.000001 0.033836 0.000000
# 6 0.000000 0.000000 0.000000 0.006990 0.000000 0.038289
#
#
# Mechanical properties :
#
#
# Convention : Reuss Voigt Hill
#
# Bulk Modulus (GPa) = 52.11683 56.38755 54.25219
# Shear Modulus (GPa) = 29.34344 33.59815 31.47079
#
# Velocity S-wave (km/s) = 3.70668 3.96631 3.83869
# Velocity P-wave (km/s) = 6.53620 6.88315 6.71192
#
# Compressibility (1/GPa) = 0.01918766
#
# Stress axis : x y z
#
# Youngs Moduli (GPa) = 123.82758 70.92014 102.84984
#
# Poissons Ratio (x) = 0.17930 0.15718
# Poissons Ratio (y) = 0.31307 0.23647
# Poissons Ratio (z) = 0.18924 0.16306
#
# Static dielectric constant tensor:
#      x y z
#    x 6.167170 -0.000010 4.156010 
#    y -0.000010 3.842880 -0.000010 
#    z 4.156010 -0.000010 11.376290 
# 
# 
# High freq. dielectric constant tensor:
#      x y z
#    x 1.845310 0.000000 0.002520 
#    y 0.000000 1.838510 0.000000 
#    z 0.002520 0.000000 1.843990 
# 
# From -- ./inp_files/274497.got.cif
#   From: 2010.06.25/outbox.cif.g09.slc.cpg/sg15_138_cif.got.tgz:274497.got - 2010.06.28 07:06:18.
