data_PCOD8130495
_publ_section_title
;
Structure prediction by ZEFSAII (Michael W. Deem and Ramdas Pophale) SiO2 
 PCOD8130495
Probable space group: C 2/C
;
_chemical_formula_sum "Si O2"
_cell_formula_units_Z 44
_cell_length_a 29.814853
_cell_length_b 13.367139
_cell_length_c 9.315737
_cell_angle_alpha 90.000000
_cell_angle_beta 139.485178
_cell_angle_gamma 90.000000
_cell_volume 2411.927676
_symmetry_space_group_name_H-M "C 2/C"
_symmetry_group_IT_number 15
_symmetry_cell_setting 'monoclinic'
loop_
_space_group_symop_operation_xyz
x,y,z
-x,y,1/2-z
-x,-y,-z
x,-y,1/2+z
1/2+x,1/2+y,z
1/2-x,1/2+y,1/2-z
1/2-x,1/2-y,-z
1/2+x,1/2-y,1/2+z
loop_
_atom_site_type_symbol
_atom_site_label
_atom_site_fract_x
_atom_site_fract_y
_atom_site_fract_z
Si Si1 0.109815 0.163817 0.812128
Si Si2 0.598087 0.438771 0.721617
Si Si3 0.268644 0.505091 0.594832
Si Si4 0.000000 0.855432 0.250000
Si Si5 0.640932 0.317293 0.074858
Si Si6 0.266101 0.869802 0.745533
O O1 0.100047 0.202816 0.625005
O O2 0.055395 0.213071 0.793426
O O3 0.089790 0.046858 0.773795
O O4 0.189280 0.178675 0.052398
O O5 0.674088 0.432962 0.836451
O O6 0.540993 0.424904 0.461291
O O7 0.589890 0.352440 0.823204
O O8 0.304553 0.593147 0.772950
O O9 0.222228 0.436018 0.583878
O O10 0.221055 0.557575 0.359213
O O11 0.678002 0.216635 0.116234
#
# Coordination Sequence:
#
# PCOD8130495 Si02
#       6
#     8   8   8   4   8   8
#     4  10  19  32  47  72 106 139 167 204 242 304
#     4  10  19  32  47  71 106 139 172 202 242 298
#     4  10  17  34  46  76 105 135 165 206 249 296
#     4  12  20  30  46  72 102 144 174 194 240 304
#     4  10  19  34  51  70 104 142 166 206 260 292
#     4  10  19  33  52  71 106 137 166 209 256 298
#
# _framework density 18.24267
#
# number of rings (size 3 to 8) (size 9 to 14) (size 15 to 20)
#    0.000    2.182    5.455    3.818    0.000    1.455 
#    0.000    0.000    0.000    0.000    0.000    0.000 
#    0.000   37.818    0.000    0.000    0.000    0.000 
#
# Total GULP energy -272625.641195 kJ/mol
# GULP energy per Si atom -12392.074600 kJ/mol
# Density = 1.820115 g / cm^3
# Si number density = 18.242670 Si / 1000 Ang^3
#
#
#
# Elastic Constant Matrix: (Units=GPa)
#
#
# Indices 1 2 3 4 5 6 
#
# 1 118.8054 47.3869 29.1634 0.0000 -15.9186 0.0000
# 2 47.3869 42.5517 19.0861 0.0000 -3.9270 0.0000
# 3 29.1634 19.0861 68.0432 0.0000 -13.4906 0.0000
# 4 0.0000 0.0000 0.0000 15.5310 0.0000 -2.6442
# 5 -15.9186 -3.9270 -13.4906 0.0000 19.5621 0.0000
# 6 0.0000 0.0000 0.0000 -2.6442 0.0000 9.9628
#
#
#
# Elastic Compliance Matrix: (Units=1/GPa)
#
#
# Indices 1 2 3 4 5 6 
#
# 1 0.016927 -0.017803 -0.000277 0.000000 0.010010 0.000000
# 2 -0.017803 0.045607 -0.007205 0.000000 -0.010300 0.000000
# 3 -0.000277 -0.007205 0.019119 0.000000 0.011513 0.000000
# 4 0.000000 0.000000 0.000000 0.067434 0.000000 0.017898
# 5 0.010010 -0.010300 0.011513 0.000000 0.065137 0.000000
# 6 0.000000 0.000000 0.000000 0.017898 0.000000 0.105123
#
#
# Mechanical properties :
#
#
# Convention : Reuss Voigt Hill
#
# Bulk Modulus (GPa) = 32.16983 46.74145 39.45564
# Shear Modulus (GPa) = 13.14829 17.92877 15.53853
#
# Velocity S-wave (km/s) = 2.68758 3.13835 2.92167
# Velocity P-wave (km/s) = 5.22527 6.22977 5.74950
#
# Compressibility (1/GPa) = 0.03108502
#
# Stress axis : x y z
#
# Youngs Moduli (GPa) = 59.07726 21.92628 52.30454
#
# Poissons Ratio (x) = 0.39034 0.01448
# Poissons Ratio (y) = 1.05172 0.37684
# Poissons Ratio (z) = 0.01635 0.15797
#
# Static dielectric constant tensor:
#      x y z
#    x 3.743800 0.000000 -0.313000 
#    y 0.000000 2.901610 0.000000 
#    z -0.313000 0.000000 3.249520 
# 
# 
# High freq. dielectric constant tensor:
#      x y z
#    x 1.715600 0.000000 -0.034100 
#    y 0.000000 1.646480 0.000000 
#    z -0.034100 0.000000 1.688670 
# 
# From -- ./inp_files/66095.got.cif
#   From: 2010.06.25/outbox.cif.g09.slc.cpg/sg15_34_cif.got.tgz:66095.got - 2010.06.28 07:06:18.
