data_PCOD8130017
_publ_section_title
;
Structure prediction by ZEFSAII (Michael W. Deem and Ramdas Pophale) SiO2 
 PCOD8130017
Probable space group: C 2/C
;
_chemical_formula_sum "Si O2"
_cell_formula_units_Z 52
_cell_length_a 20.917566
_cell_length_b 14.645246
_cell_length_c 8.416774
_cell_angle_alpha 90.000000
_cell_angle_beta 112.079272
_cell_angle_gamma 90.000000
_cell_volume 2389.329769
_symmetry_space_group_name_H-M "C 2/C"
_symmetry_group_IT_number 15
_symmetry_cell_setting 'monoclinic'
loop_
_space_group_symop_operation_xyz
x,y,z
-x,y,1/2-z
-x,-y,-z
x,-y,1/2+z
1/2+x,1/2+y,z
1/2-x,1/2+y,1/2-z
1/2-x,1/2-y,-z
1/2+x,1/2-y,1/2+z
loop_
_atom_site_type_symbol
_atom_site_label
_atom_site_fract_x
_atom_site_fract_y
_atom_site_fract_z
Si Si1 0.000000 0.116806 0.250000
Si Si2 0.397804 0.585579 0.913698
Si Si3 0.497425 0.101956 0.935391
Si Si4 0.388636 0.244117 0.781576
Si Si5 0.269298 0.636615 0.310414
Si Si6 0.186843 0.995622 0.908266
Si Si7 0.128574 0.288016 0.586602
O O1 0.942740 0.179660 0.278152
O O2 0.033589 0.056587 0.423368
O O3 0.385926 0.523443 0.747270
O O4 0.398783 0.691665 0.873249
O O5 0.331013 0.570907 0.963920
O O6 0.500000 0.103090 0.750000
O O7 0.428491 0.162003 0.914040
O O8 0.566245 0.145119 0.073195
O O9 0.500000 0.000000 0.000000
O O10 0.330995 0.290600 0.839719
O O11 0.353826 0.208098 0.585668
O O12 0.277951 0.587581 0.490106
O O13 0.264955 0.559492 0.168229
O O14 0.196584 0.687220 0.248682
#
# Coordination Sequence:
#
# PCOD8130017 Si02
#       7
#     4   8   8   8   8   8   8
#     4  10  16  36  64  78 112 162 190 234 294 364
#     4  10  20  39  58  85 121 157 194 249 292 364
#     4  10  21  41  62  88 117 155 204 253 295 360
#     4  10  18  38  62  84 118 159 201 235 307 365
#     4  11  22  39  61  90 120 164 196 250 302 367
#     4  10  23  38  55  91 125 146 205 247 295 357
#     4  10  20  38  67  82 120 163 200 242 310 357
#
# _framework density 21.763427
#
# number of rings (size 3 to 8) (size 9 to 14) (size 15 to 20)
#    0.000    1.846    6.923    0.462    0.000    3.692 
#    5.538    0.000    0.000    0.000    0.000    0.000 
#    0.000    0.000    0.000    0.000    0.000    0.000 
#
# Total GULP energy -322205.963408 kJ/mol
# GULP energy per Si atom -12392.537054 kJ/mol
# Density = 2.171389 g / cm^3
# Si number density = 21.763427 Si / 1000 Ang^3
#
#
#
# Elastic Constant Matrix: (Units=GPa)
#
#
# Indices 1 2 3 4 5 6 
#
# 1 61.3856 30.1344 20.9953 0.0000 24.8614 0.0000
# 2 30.1344 105.1090 22.2421 0.0000 6.9839 0.0000
# 3 20.9953 22.2421 68.8894 0.0000 19.5697 0.0000
# 4 0.0000 0.0000 0.0000 44.9846 0.0000 0.6525
# 5 24.8614 6.9839 19.5697 0.0000 31.0366 0.0000
# 6 0.0000 0.0000 0.0000 0.6525 0.0000 9.5074
#
#
#
# Elastic Compliance Matrix: (Units=1/GPa)
#
#
# Indices 1 2 3 4 5 6 
#
# 1 0.028065 -0.006553 -0.000573 0.000000 -0.020645 0.000000
# 2 -0.006553 0.011744 -0.003088 0.000000 0.004554 0.000000
# 3 -0.000573 -0.003088 0.018711 0.000000 -0.010645 0.000000
# 4 0.000000 0.000000 0.000000 0.022252 0.000000 -0.001527
# 5 -0.020645 0.004554 -0.010645 0.000000 0.054445 0.000000
# 6 0.000000 0.000000 0.000000 -0.001527 0.000000 0.105286
#
#
# Mechanical properties :
#
#
# Convention : Reuss Voigt Hill
#
# Bulk Modulus (GPa) = 26.25229 42.45863 34.35546
# Shear Modulus (GPa) = 18.27308 27.90655 23.08981
#
# Velocity S-wave (km/s) = 2.90077 3.58476 3.26075
# Velocity P-wave (km/s) = 4.82784 6.05686 5.47693
#
# Compressibility (1/GPa) = 0.03809191
#
# Stress axis : x y z
#
# Youngs Moduli (GPa) = 35.63212 85.15298 53.44320
#
# Poissons Ratio (x) = 0.55802 0.03061
# Poissons Ratio (y) = 0.23350 0.16504
# Poissons Ratio (z) = 0.02041 0.26296
#
# Static dielectric constant tensor:
#      x y z
#    x 3.613350 0.000000 0.294400 
#    y 0.000000 3.631140 0.000000 
#    z 0.294400 0.000000 4.218750 
# 
# 
# High freq. dielectric constant tensor:
#      x y z
#    x 1.821760 0.000000 0.020700 
#    y 0.000000 1.859060 0.000000 
#    z 0.020700 0.000000 1.852870 
# 
# From -- ./inp_files/61679.got.cif
#   From: 2010.06.25/outbox.cif.g09.slc.cpg/sg15_31_cif.got.tgz:61679.got - 2010.06.28 07:06:18.
