data_PCOD8130015
_publ_section_title
;
Structure prediction by ZEFSAII (Michael W. Deem and Ramdas Pophale) SiO2 
 PCOD8130015
Probable space group: C 2/C
;
_chemical_formula_sum "Si O2"
_cell_formula_units_Z 64
_cell_length_a 15.858532
_cell_length_b 23.486340
_cell_length_c 15.659281
_cell_angle_alpha 90.000000
_cell_angle_beta 147.622790
_cell_angle_gamma 90.000000
_cell_volume 3123.217640
_symmetry_space_group_name_H-M "C 2/C"
_symmetry_group_IT_number 15
_symmetry_cell_setting 'monoclinic'
loop_
_space_group_symop_operation_xyz
x,y,z
-x,y,1/2-z
-x,-y,-z
x,-y,1/2+z
1/2+x,1/2+y,z
1/2-x,1/2+y,1/2-z
1/2-x,1/2-y,-z
1/2+x,1/2-y,1/2+z
loop_
_atom_site_type_symbol
_atom_site_label
_atom_site_fract_x
_atom_site_fract_y
_atom_site_fract_z
Si Si1 0.423336 0.003301 0.100188
Si Si2 0.541146 0.604243 0.383026
Si Si3 0.318424 0.193607 0.811804
Si Si4 0.887263 0.985431 0.084494
Si Si5 0.244015 0.376054 0.900892
Si Si6 0.404988 0.876358 0.545724
Si Si7 0.958157 0.184828 0.456868
Si Si8 0.399619 0.889070 0.243724
O O1 0.500000 0.034415 0.250000
O O2 0.397249 0.055910 0.012181
O O3 0.537758 0.951620 0.170243
O O4 0.252835 0.980417 0.984390
O O5 0.500000 0.622493 0.250000
O O6 0.511021 0.536232 0.371787
O O7 0.434413 0.639507 0.358967
O O8 0.721073 0.613951 0.561865
O O9 0.382378 0.256832 0.861612
O O10 0.426331 0.154723 0.843022
O O11 0.139209 0.194994 0.630579
O O12 0.330004 0.165703 0.914179
O O13 0.000000 0.953467 0.250000
O O14 0.815938 0.940445 0.956306
O O15 0.203242 0.363616 0.964321
O O16 0.376407 0.335178 0.974801
O O17 0.089556 0.363935 0.712993
O O18 0.500000 0.867964 0.250000
#
# Coordination Sequence:
#
# PCOD8130015 Si02
#       8
#     8   8   8   8   8   8   8   8
#     4  10  16  36  62  92 128 156 193 245 292 370
#     4  10  21  39  63  91 124 160 199 246 307 359
#     4  11  26  43  61  88 121 160 213 256 296 356
#     4  10  19  34  61  96 128 157 195 240 301 370
#     4  10  21  39  65  91 126 159 196 247 302 363
#     4  10  20  39  66  92 122 161 197 242 310 360
#     4  11  26  44  60  87 123 159 212 259 293 357
#     4  10  20  39  65  90 122 161 201 245 301 363
#
# _framework density 20.491688
#
# number of rings (size 3 to 8) (size 9 to 14) (size 15 to 20)
#    0.000    1.750    5.000    0.750    3.500    4.000 
#    0.000    2.500    0.000    0.000    0.000    0.000 
#    0.000    0.000    0.000    0.000    0.000    0.000 
#
# Total GULP energy -396462.521541 kJ/mol
# GULP energy per Si atom -12389.453798 kJ/mol
# Density = 2.044505 g / cm^3
# Si number density = 20.491688 Si / 1000 Ang^3
#
#
#
# Elastic Constant Matrix: (Units=GPa)
#
#
# Indices 1 2 3 4 5 6 
#
# 1 62.0586 11.6267 11.7072 0.0000 3.9773 0.0000
# 2 11.6267 64.2883 14.7934 0.0000 3.4252 0.0000
# 3 11.7072 14.7934 66.4965 0.0000 0.4335 0.0000
# 4 0.0000 0.0000 0.0000 27.9680 0.0000 -1.1151
# 5 3.9773 3.4252 0.4335 0.0000 25.9965 0.0000
# 6 0.0000 0.0000 0.0000 -1.1151 0.0000 28.2945
#
#
#
# Elastic Compliance Matrix: (Units=1/GPa)
#
#
# Indices 1 2 3 4 5 6 
#
# 1 0.017178 -0.002417 -0.002472 0.000000 -0.002268 0.000000
# 2 -0.002417 0.016850 -0.003311 0.000000 -0.001795 0.000000
# 3 -0.002472 -0.003311 0.016207 0.000000 0.000544 0.000000
# 4 0.000000 0.000000 0.000000 0.035811 0.000000 0.001411
# 5 -0.002268 -0.001795 0.000544 0.000000 0.039041 0.000000
# 6 0.000000 0.000000 0.000000 0.001411 0.000000 0.035398
#
#
# Mechanical properties :
#
#
# Convention : Reuss Voigt Hill
#
# Bulk Modulus (GPa) = 29.55585 29.89978 29.72781
# Shear Modulus (GPa) = 26.57258 26.76623 26.66940
#
# Velocity S-wave (km/s) = 3.60495 3.61806 3.61151
# Velocity P-wave (km/s) = 5.63757 5.66362 5.65061
#
# Compressibility (1/GPa) = 0.03383425
#
# Stress axis : x y z
#
# Youngs Moduli (GPa) = 58.21290 59.34837 61.70298
#
# Poissons Ratio (x) = 0.14345 0.15252
# Poissons Ratio (y) = 0.14070 0.20432
# Poissons Ratio (z) = 0.14389 0.19652
#
# Static dielectric constant tensor:
#      x y z
#    x 3.686760 0.000000 0.137090 
#    y 0.000000 3.709140 0.000000 
#    z 0.137090 0.000000 3.862080 
# 
# 
# High freq. dielectric constant tensor:
#      x y z
#    x 1.778700 0.000000 0.014810 
#    y 0.000000 1.795020 0.000000 
#    z 0.014810 0.000000 1.812250 
# 
# From -- ./inp_files/211988.got.cif
#   From: 2010.06.25/outbox.cif.g09.slc.cpg/sg15_106_cif.got.tgz:211988.got - 2010.06.28 07:06:18.
