data_PCOD8130853
_publ_section_title
;
Structure prediction by ZEFSAII (Michael W. Deem and Ramdas Pophale) SiO2 
 PCOD8130853
Probable space group: C 2/C
;
_chemical_formula_sum "Si O2"
_cell_formula_units_Z 48
_cell_length_a 21.176620
_cell_length_b 9.681144
_cell_length_c 14.202915
_cell_angle_alpha 90.000000
_cell_angle_beta 113.825246
_cell_angle_gamma 90.000000
_cell_volume 2663.657069
_symmetry_space_group_name_H-M "C 2/C"
_symmetry_group_IT_number 15
_symmetry_cell_setting 'monoclinic'
loop_
_space_group_symop_operation_xyz
x,y,z
-x,y,1/2-z
-x,-y,-z
x,-y,1/2+z
1/2+x,1/2+y,z
1/2-x,1/2+y,1/2-z
1/2-x,1/2-y,-z
1/2+x,1/2-y,1/2+z
loop_
_atom_site_type_symbol
_atom_site_label
_atom_site_fract_x
_atom_site_fract_y
_atom_site_fract_z
Si Si1 0.419935 0.917736 0.705707
Si Si2 0.275659 0.661130 0.759052
Si Si3 0.689618 0.579581 0.521978
Si Si4 0.331803 0.943886 0.829345
Si Si5 0.842945 0.623993 0.546953
Si Si6 0.320861 0.311345 0.082678
O O1 0.500000 0.883774 0.750000
O O2 0.396465 0.914787 0.800376
O O3 0.379548 0.804925 0.618472
O O4 0.403618 0.067034 0.650295
O O5 0.319185 0.594055 0.870876
O O6 0.272437 0.826997 0.773819
O O7 0.199249 0.594940 0.711948
O O8 0.311591 0.627032 0.681843
O O9 0.770135 0.570102 0.542837
O O10 0.654224 0.709886 0.449243
O O11 0.653464 0.438188 0.466953
O O12 0.356481 0.935741 0.951110
O O13 0.250000 0.250000 0.000000
#
# Coordination Sequence:
#
# PCOD8130853 Si02
#       6
#     8   8   8   8   8   8
#     4  11  23  37  53  78 114 148 179 217 273 333
#     4  10  18  29  52  82 107 132 176 229 272 303
#     4  10  18  31  54  81 109 130 177 232 270 313
#     4  10  19  32  53  78 108 138 178 222 268 319
#     4  10  19  33  52  80 106 138 174 224 274 312
#     4  11  19  35  56  81 109 142 184 227 268 315
#
# _framework density 18.020337999999999
#
# number of rings (size 3 to 8) (size 9 to 14) (size 15 to 20)
#    0.000    1.667    5.000    1.000    0.000    0.667 
#    0.000    0.833    0.000    9.000    0.000    0.000 
#    0.000    0.000    0.000    0.000    0.000    0.000 
#
# Total GULP energy -297561.267429 kJ/mol
# GULP energy per Si atom -12398.386143 kJ/mol
# Density = 1.797932 g / cm^3
# Si number density = 18.020338 Si / 1000 Ang^3
#
#
#
# Elastic Constant Matrix: (Units=GPa)
#
#
# Indices 1 2 3 4 5 6 
#
# 1 85.0613 39.6505 41.5187 0.0000 6.1554 0.0000
# 2 39.6505 92.3234 44.9782 0.0000 3.6968 0.0000
# 3 41.5187 44.9782 102.1002 0.0000 -13.5863 0.0000
# 4 0.0000 0.0000 0.0000 33.7330 0.0000 -1.2266
# 5 6.1554 3.6968 -13.5863 0.0000 30.1650 0.0000
# 6 0.0000 0.0000 0.0000 -1.2266 0.0000 16.9595
#
#
#
# Elastic Compliance Matrix: (Units=1/GPa)
#
#
# Indices 1 2 3 4 5 6 
#
# 1 0.016947 -0.004254 -0.005753 0.000000 -0.005528 0.000000
# 2 -0.004254 0.015518 -0.005578 0.000000 -0.003546 0.000000
# 3 -0.005753 -0.005578 0.015784 0.000000 0.008967 0.000000
# 4 0.000000 0.000000 0.000000 0.029723 0.000000 0.002150
# 5 -0.005528 -0.003546 0.008967 0.000000 0.038752 0.000000
# 6 0.000000 0.000000 0.000000 0.002150 0.000000 0.059119
#
#
# Mechanical properties :
#
#
# Convention : Reuss Voigt Hill
#
# Bulk Modulus (GPa) = 58.55172 59.08665 58.81919
# Shear Modulus (GPa) = 23.50639 26.39400 24.95019
#
# Velocity S-wave (km/s) = 3.61562 3.83126 3.72500
# Velocity P-wave (km/s) = 7.07056 7.24096 7.15627
#
# Compressibility (1/GPa) = 0.01707892
#
# Stress axis : x y z
#
# Youngs Moduli (GPa) = 59.00580 64.44073 63.35432
#
# Poissons Ratio (x) = 0.27415 0.36448
# Poissons Ratio (y) = 0.25103 0.35339
# Poissons Ratio (z) = 0.33946 0.35945
#
# Static dielectric constant tensor:
#      x y z
#    x 2.878850 0.000000 -0.308670 
#    y 0.000000 3.569530 0.000000 
#    z -0.308670 0.000000 3.496600 
# 
# 
# High freq. dielectric constant tensor:
#      x y z
#    x 1.638110 0.000000 -0.033980 
#    y 0.000000 1.709510 0.000000 
#    z -0.033980 0.000000 1.707310 
# 
# From -- ./inp_files/166398.got.cif
#   From: 2010.06.25/outbox.cif.g09.slc.cpg/sg15_84_cif.got.tgz:166398.got - 2010.06.28 07:06:18.
