data_PCOD8130114
_publ_section_title
;
Structure prediction by ZEFSAII (Michael W. Deem and Ramdas Pophale) SiO2 
 PCOD8130114
Probable space group: C 2/C
;
_chemical_formula_sum "Si O2"
_cell_formula_units_Z 56
_cell_length_a 13.291259
_cell_length_b 22.503272
_cell_length_c 22.393166
_cell_angle_alpha 90.000000
_cell_angle_beta 151.081119
_cell_angle_gamma 90.000000
_cell_volume 3238.824433
_symmetry_space_group_name_H-M "C 2/C"
_symmetry_group_IT_number 15
_symmetry_cell_setting 'monoclinic'
loop_
_space_group_symop_operation_xyz
x,y,z
-x,y,1/2-z
-x,-y,-z
x,-y,1/2+z
1/2+x,1/2+y,z
1/2-x,1/2+y,1/2-z
1/2-x,1/2-y,-z
1/2+x,1/2-y,1/2+z
loop_
_atom_site_type_symbol
_atom_site_label
_atom_site_fract_x
_atom_site_fract_y
_atom_site_fract_z
Si Si1 0.806896 0.693699 0.109662
Si Si2 0.781858 0.674581 0.960297
Si Si3 0.723891 0.015074 0.037883
Si Si4 0.935924 0.922825 0.300021
Si Si5 0.208188 0.474372 0.393619
Si Si6 0.526938 0.412770 0.480020
Si Si7 0.474588 0.918675 0.491060
O O1 0.760533 0.763114 0.093832
O O2 0.610603 0.654475 0.029171
O O3 0.000000 0.674553 0.250000
O O4 0.860878 0.681513 0.068778
O O5 0.578341 0.632360 0.851909
O O6 0.971437 0.645420 0.021215
O O7 0.549579 0.967376 0.968730
O O8 0.672000 0.037339 0.944612
O O9 0.690020 0.070700 0.066205
O O10 0.951024 0.984973 0.159141
O O11 0.715818 0.922017 0.154488
O O12 0.900300 0.920116 0.352486
O O13 0.380460 0.427710 0.459721
O O14 0.277809 0.542264 0.419255
O O15 0.000000 0.461605 0.250000
#
# Coordination Sequence:
#
# PCOD8130114 Si02
#       7
#     8   8   8   8   8   8   8
#     4  10  18  31  47  69  94 115 139 184 227 260
#     4   9  18  29  47  69  90 114 148 178 221 272
#     4   9  18  27  43  66  87 113 150 178 215 261
#     4   9  16  30  45  65  90 114 145 186 218 258
#     4  10  18  31  45  64  92 121 147 182 220 264
#     4   9  19  29  45  69  90 115 151 180 221 271
#     4  10  17  29  45  65  89 116 146 184 219 259
#
# _framework density 17.290223999999998
#
# number of rings (size 3 to 8) (size 9 to 14) (size 15 to 20)
#    0.000    2.571    0.000    4.714    0.000    0.000 
#    0.000    4.286    0.000    0.857    0.000    6.000 
#    0.000    0.000    0.000    0.000    0.000    0.000 
#
# Total GULP energy -347059.650306 kJ/mol
# GULP energy per Si atom -12394.987511 kJ/mol
# Density = 1.725087 g / cm^3
# Si number density = 17.290224 Si / 1000 Ang^3
#
#
#
# Elastic Constant Matrix: (Units=GPa)
#
#
# Indices 1 2 3 4 5 6 
#
# 1 110.0087 45.3563 21.7358 0.0010 -7.7892 -0.0006
# 2 45.3563 95.5726 22.7810 -0.0063 1.3048 -0.0019
# 3 21.7358 22.7810 46.7917 0.0218 -8.3911 -0.0093
# 4 0.0010 -0.0063 0.0218 12.4759 -0.0027 -2.0642
# 5 -7.7892 1.3048 -8.3911 -0.0027 16.5440 0.0011
# 6 -0.0006 -0.0019 -0.0093 -2.0642 0.0011 28.0167
#
#
#
# Elastic Compliance Matrix: (Units=1/GPa)
#
#
# Indices 1 2 3 4 5 6 
#
# 1 0.012040 -0.005275 -0.002127 0.000001 0.005006 -0.000001
# 2 -0.005275 0.014425 -0.005745 0.000016 -0.006535 0.000000
# 3 -0.002127 -0.005745 0.027565 -0.000047 0.013433 0.000005
# 4 0.000001 0.000016 -0.000047 0.081144 -0.000012 0.005979
# 5 0.005006 -0.006535 0.013433 -0.000012 0.070130 0.000000
# 6 -0.000001 0.000000 0.000005 0.005979 0.000000 0.036134
#
#
# Mechanical properties :
#
#
# Convention : Reuss Voigt Hill
#
# Bulk Modulus (GPa) = 36.05300 48.01323 42.03312
# Shear Modulus (GPa) = 18.05212 22.24065 20.14639
#
# Velocity S-wave (km/s) = 3.23471 3.59041 3.41719
# Velocity P-wave (km/s) = 5.90322 6.70950 6.31923
#
# Compressibility (1/GPa) = 0.02773695
#
# Stress axis : x y z
#
# Youngs Moduli (GPa) = 83.05799 69.32310 36.27799
#
# Poissons Ratio (x) = 0.36569 0.07716
# Poissons Ratio (y) = 0.43814 0.20840
# Poissons Ratio (z) = 0.17665 0.39823
#
# Static dielectric constant tensor:
#      x y z
#    x 3.439610 -0.000010 -0.158730 
#    y -0.000010 3.276140 -0.000020 
#    z -0.158730 -0.000020 2.974810 
# 
# 
# High freq. dielectric constant tensor:
#      x y z
#    x 1.670060 0.000000 -0.023690 
#    y 0.000000 1.647920 0.000000 
#    z -0.023690 0.000000 1.649100 
# 
# From -- ./inp_files/90932.got.cif
#   From: 2010.06.25/outbox.cif.g09.slc.cpg/sg15_46_cif.got.tgz:90932.got - 2010.06.28 07:06:18.
