data_PCOD8130572
_publ_section_title
;
Structure prediction by ZEFSAII (Michael W. Deem and Ramdas Pophale) SiO2 
 PCOD8130572
Probable space group: C 2/C
;
_chemical_formula_sum "Si O2"
_cell_formula_units_Z 60
_cell_length_a 17.196416
_cell_length_b 9.157455
_cell_length_c 26.416143
_cell_angle_alpha 90.000000
_cell_angle_beta 46.115452
_cell_angle_gamma 90.000000
_cell_volume 2998.193208
_symmetry_space_group_name_H-M "C 2/C"
_symmetry_group_IT_number 15
_symmetry_cell_setting 'monoclinic'
loop_
_space_group_symop_operation_xyz
x,y,z
-x,y,1/2-z
-x,-y,-z
x,-y,1/2+z
1/2+x,1/2+y,z
1/2-x,1/2+y,1/2-z
1/2-x,1/2-y,-z
1/2+x,1/2-y,1/2+z
loop_
_atom_site_type_symbol
_atom_site_label
_atom_site_fract_x
_atom_site_fract_y
_atom_site_fract_z
Si Si1 0.060286 0.364346 0.036339
Si Si2 0.000000 0.093357 0.250000
Si Si3 0.099800 0.606999 0.407469
Si Si4 0.482900 0.373033 0.872337
Si Si5 0.244557 0.001608 0.505413
Si Si6 0.927721 0.817832 0.169675
Si Si7 0.335615 0.768968 0.898387
Si Si8 0.198205 0.889663 0.181741
O O1 0.983707 0.258733 0.105040
O O2 0.009426 0.525019 0.058103
O O3 0.081577 0.310712 0.969233
O O4 0.174998 0.378526 0.011248
O O5 0.988406 0.178306 0.309848
O O6 0.894467 0.996485 0.296120
O O7 0.117587 0.732953 0.358391
O O8 0.192904 0.484312 0.367252
O O9 0.367606 0.418913 0.947106
O O10 0.559106 0.510650 0.848190
O O11 0.291083 0.069566 0.432023
O O12 0.237095 0.141310 0.544961
O O13 0.827509 0.814628 0.253278
O O14 0.037835 0.750565 0.143656
O O15 0.307492 0.750559 0.852232
#
# Coordination Sequence:
#
# PCOD8130572 Si02
#       8
#     8   4   8   8   8   8   8   8
#     4  11  22  38  56  86 126 155 199 246 313 358
#     4  10  18  38  60  82 114 154 204 236 300 372
#     4  11  24  38  58  85 122 161 197 249 304 371
#     4  10  21  36  62  87 117 161 197 252 301 360
#     4  10  18  32  61  90 116 144 201 250 294 343
#     4  10  21  39  60  86 121 159 204 248 298 366
#     4  10  17  34  62  91 111 151 206 248 288 355
#     4  11  19  37  63  87 113 163 203 244 307 369
#
# _framework density 20.012052000000001
#
# number of rings (size 3 to 8) (size 9 to 14) (size 15 to 20)
#    0.000    1.600    6.667    0.400    0.000    2.667 
#    0.000    2.667    0.000    0.000    0.000    0.000 
#    0.000    0.000    0.000    0.000    0.000    0.000 
#
# Total GULP energy -371648.343641 kJ/mol
# GULP energy per Si atom -12388.278121 kJ/mol
# Density = 1.996650 g / cm^3
# Si number density = 20.012052 Si / 1000 Ang^3
#
#
#
# Elastic Constant Matrix: (Units=GPa)
#
#
# Indices 1 2 3 4 5 6 
#
# 1 61.7322 26.0691 36.9118 -0.0001 22.8785 -0.0002
# 2 26.0691 56.0972 38.1726 -0.0001 31.1658 -0.0002
# 3 36.9118 38.1726 122.6653 0.0000 36.2303 -0.0001
# 4 -0.0001 -0.0001 0.0000 32.3768 0.0000 11.8967
# 5 22.8785 31.1658 36.2303 0.0000 42.7896 -0.0001
# 6 -0.0002 -0.0002 -0.0001 11.8967 -0.0001 19.5275
#
#
#
# Elastic Compliance Matrix: (Units=1/GPa)
#
#
# Indices 1 2 3 4 5 6 
#
# 1 0.022448 -0.005039 -0.003635 0.000000 -0.005254 0.000000
# 2 -0.005039 0.032491 -0.003201 0.000000 -0.018260 0.000000
# 3 -0.003635 -0.003201 0.011974 0.000000 -0.005863 0.000000
# 4 0.000000 0.000000 0.000000 0.039795 0.000000 -0.024244
# 5 -0.005254 -0.018260 -0.005863 0.000000 0.044444 0.000000
# 6 0.000000 0.000000 0.000000 -0.024244 0.000000 0.065980
#
#
# Mechanical properties :
#
#
# Convention : Reuss Voigt Hill
#
# Bulk Modulus (GPa) = 23.16851 49.20020 36.18436
# Shear Modulus (GPa) = 19.58714 28.22817 23.90765
#
# Velocity S-wave (km/s) = 3.13192 3.75981 3.46014
# Velocity P-wave (km/s) = 4.96799 6.59446 5.83815
#
# Compressibility (1/GPa) = 0.04316203
#
# Stress axis : x y z
#
# Youngs Moduli (GPa) = 44.54802 30.77759 83.51373
#
# Poissons Ratio (x) = 0.15510 0.30355
# Poissons Ratio (y) = 0.22449 0.26736
# Poissons Ratio (z) = 0.16192 0.09853
#
# Static dielectric constant tensor:
#      x y z
#    x 5.613270 0.000000 -0.599410 
#    y 0.000000 3.510760 0.000000 
#    z -0.599410 0.000000 4.389650 
# 
# 
# High freq. dielectric constant tensor:
#      x y z
#    x 1.765020 0.000000 0.001010 
#    y 0.000000 1.753150 0.000000 
#    z 0.001010 0.000000 1.797840 
# 
# From -- ./inp_files/298371.got.cif
#   From: 2010.06.25/outbox.cif.g09.slc.cpg/sg15_150_cif.got.tgz:298371.got - 2010.06.28 07:06:18.
