data_PCOD8130325
_publ_section_title
;
Structure prediction by ZEFSAII (Michael W. Deem and Ramdas Pophale) SiO2 
 PCOD8130325
Probable space group: C 2/C
;
_chemical_formula_sum "Si O2"
_cell_formula_units_Z 28
_cell_length_a 14.854391
_cell_length_b 9.607367
_cell_length_c 14.516509
_cell_angle_alpha 90.000000
_cell_angle_beta 130.697296
_cell_angle_gamma 90.000000
_cell_volume 1570.670963
_symmetry_space_group_name_H-M "C 2/C"
_symmetry_group_IT_number 15
_symmetry_cell_setting 'monoclinic'
loop_
_space_group_symop_operation_xyz
x,y,z
-x,y,1/2-z
-x,-y,-z
x,-y,1/2+z
1/2+x,1/2+y,z
1/2-x,1/2+y,1/2-z
1/2-x,1/2-y,-z
1/2+x,1/2-y,1/2+z
loop_
_atom_site_type_symbol
_atom_site_label
_atom_site_fract_x
_atom_site_fract_y
_atom_site_fract_z
Si Si1 0.333736 0.948910 0.726962
Si Si2 0.000000 0.149253 0.750000
Si Si3 0.721607 0.371472 0.299122
Si Si4 0.596759 0.098076 0.420166
O O1 0.291907 0.792988 0.724505
O O2 0.330249 0.976389 0.614433
O O3 0.468993 0.973167 0.851932
O O4 0.246208 0.057769 0.717283
O O5 0.901322 0.062367 0.741012
O O6 0.924437 0.243789 0.628279
O O7 0.830318 0.408631 0.437997
#
# Coordination Sequence:
#
# PCOD8130325 Si02
#       4
#     8   4   8   8
#     4   9  18  30  50  71  87 118 157 182 222 272
#     4   8  16  28  46  70  90 120 154 178 220 276
#     4  10  17  32  48  67  93 120 150 189 221 264
#     4   8  16  32  49  64  90 126 152 176 220 281
#
# _framework density 17.826775000000001
#
# number of rings (size 3 to 8) (size 9 to 14) (size 15 to 20)
#    0.000    4.000    0.000    4.286    0.000    0.000 
#    0.000   17.143    0.000    0.000    0.000    0.000 
#    0.000    0.000    0.000    0.000    0.000    0.000 
#
# Total GULP energy -173436.482149 kJ/mol
# GULP energy per Si atom -12388.320153 kJ/mol
# Density = 1.778620 g / cm^3
# Si number density = 17.826775 Si / 1000 Ang^3
#
#
#
# Elastic Constant Matrix: (Units=GPa)
#
#
# Indices 1 2 3 4 5 6 
#
# 1 133.4578 37.1542 12.6811 0.0000 -2.1389 0.0000
# 2 37.1542 38.6646 1.4030 0.0000 -5.6091 0.0000
# 3 12.6811 1.4030 57.2565 0.0000 -5.5875 0.0000
# 4 0.0000 0.0000 0.0000 3.9595 0.0000 -4.3677
# 5 -2.1389 -5.6091 -5.5875 0.0000 18.0386 0.0000
# 6 0.0000 0.0000 0.0000 -4.3677 0.0000 40.8755
#
#
#
# Elastic Compliance Matrix: (Units=1/GPa)
#
#
# Indices 1 2 3 4 5 6 
#
# 1 0.010594 -0.010491 -0.002356 0.000000 -0.002736 0.000000
# 2 -0.010491 0.037477 0.002497 0.000000 0.011183 0.000000
# 3 -0.002356 0.002497 0.018535 0.000000 0.006238 0.000000
# 4 0.000000 0.000000 0.000000 0.286301 0.000000 0.030592
# 5 -0.002736 0.011183 0.006238 0.000000 0.060522 0.000000
# 6 0.000000 0.000000 0.000000 0.030592 0.000000 0.027733
#
#
# Mechanical properties :
#
#
# Convention : Reuss Voigt Hill
#
# Bulk Modulus (GPa) = 21.78494 36.87282 29.32888
# Shear Modulus (GPa) = 10.47855 24.45077 17.46466
#
# Velocity S-wave (km/s) = 2.42709 3.70750 3.13339
# Velocity P-wave (km/s) = 4.48344 6.24950 5.43863
#
# Compressibility (1/GPa) = 0.04590327
#
# Stress axis : x y z
#
# Youngs Moduli (GPa) = 94.39466 26.68320 53.95283
#
# Poissons Ratio (x) = 0.27994 0.12713
# Poissons Ratio (y) = 0.99033 -0.13470
# Poissons Ratio (z) = 0.22242 -0.06662
#
# Static dielectric constant tensor:
#      x y z
#    x 3.659040 0.000000 0.097910 
#    y 0.000000 2.745590 0.000000 
#    z 0.097910 0.000000 3.090400 
# 
# 
# High freq. dielectric constant tensor:
#      x y z
#    x 1.713640 0.000000 0.005800 
#    y 0.000000 1.625010 0.000000 
#    z 0.005800 0.000000 1.678530 
# 
# From -- ./inp_files/36496.got.cif
#   From: 2010.06.25/outbox.cif.g09.slc.cpg/sg15_19_cif.got.tgz:36496.got - 2010.06.28 07:06:18.
