data_PCOD8130225
_publ_section_title
;
Structure prediction by ZEFSAII (Michael W. Deem and Ramdas Pophale) SiO2 
 PCOD8130225
Probable space group: C 2/C
;
_chemical_formula_sum "Si O2"
_cell_formula_units_Z 56
_cell_length_a 11.999562
_cell_length_b 18.592029
_cell_length_c 25.127314
_cell_angle_alpha 90.000000
_cell_angle_beta 147.417207
_cell_angle_gamma 90.000000
_cell_volume 3018.827356
_symmetry_space_group_name_H-M "C 2/C"
_symmetry_group_IT_number 15
_symmetry_cell_setting 'monoclinic'
loop_
_space_group_symop_operation_xyz
x,y,z
-x,y,1/2-z
-x,-y,-z
x,-y,1/2+z
1/2+x,1/2+y,z
1/2-x,1/2+y,1/2-z
1/2-x,1/2-y,-z
1/2+x,1/2-y,1/2+z
loop_
_atom_site_type_symbol
_atom_site_label
_atom_site_fract_x
_atom_site_fract_y
_atom_site_fract_z
Si Si1 0.983875 0.197526 0.439137
Si Si2 0.526107 0.912976 0.572358
Si Si3 0.138598 0.276272 0.257309
Si Si4 0.352211 0.625012 0.287030
Si Si5 0.074153 0.252711 0.972979
Si Si6 0.914721 0.341060 0.078200
Si Si7 0.267211 0.959126 0.948187
O O1 0.819313 0.156836 0.333837
O O2 0.877720 0.205876 0.454561
O O3 0.063936 0.275049 0.453266
O O4 0.199109 0.153630 0.524700
O O5 0.641167 0.906777 0.676460
O O6 0.467105 0.834644 0.527111
O O7 0.682525 0.951224 0.594145
O O8 0.314023 0.960020 0.488540
O O9 0.069172 0.194414 0.214825
O O10 0.377548 0.282680 0.366204
O O11 0.000000 0.301724 0.250000
O O12 0.101269 0.333725 0.195178
O O13 0.528498 0.563587 0.359351
O O14 0.250000 0.250000 0.000000
O O15 0.928024 0.411671 0.047452
#
# Coordination Sequence:
#
# PCOD8130225 Si02
#       7
#     8   8   8   8   8   8   8
#     4   9  16  30  55  81 105 134 182 234 274 315
#     4  10  20  34  52  80 114 153 176 220 292 343
#     4  10  17  30  55  82 106 138 190 233 268 321
#     4   9  18  31  55  80 105 146 187 233 274 326
#     4  11  21  35  53  82 120 147 177 224 292 342
#     4   9  16  29  53  84 100 128 184 242 265 306
#     4  10  18  32  57  80 112 140 188 237 271 331
#
# _framework density 18.550249999999998
#
# number of rings (size 3 to 8) (size 9 to 14) (size 15 to 20)
#    0.000    2.286    2.857    3.000    0.000    0.000 
#    2.571    6.429    0.000    5.143    0.000    0.000 
#    0.000    0.000    0.000    0.000    0.000    0.000 
#
# Total GULP energy -346900.059393 kJ/mol
# GULP energy per Si atom -12389.287835 kJ/mol
# Density = 1.850803 g / cm^3
# Si number density = 18.550250 Si / 1000 Ang^3
#
#
#
# Elastic Constant Matrix: (Units=GPa)
#
#
# Indices 1 2 3 4 5 6 
#
# 1 105.9164 11.6292 47.3225 0.0001 -11.2248 0.0000
# 2 11.6292 42.7497 34.4935 0.0003 -16.2147 0.0000
# 3 47.3225 34.4935 100.2977 0.0033 -21.8217 -0.0001
# 4 0.0001 0.0003 0.0033 33.4446 0.0002 -3.8944
# 5 -11.2248 -16.2147 -21.8217 0.0002 28.6062 0.0001
# 6 0.0000 0.0000 -0.0001 -3.8944 0.0001 19.4564
#
#
#
# Elastic Compliance Matrix: (Units=1/GPa)
#
#
# Indices 1 2 3 4 5 6 
#
# 1 0.012098 0.002177 -0.006181 0.000001 0.001266 0.000000
# 2 0.002177 0.036483 -0.010658 0.000001 0.013403 0.000000
# 3 -0.006181 -0.010658 0.017637 -0.000002 0.004988 0.000000
# 4 0.000001 0.000001 -0.000002 0.030614 -0.000001 0.006128
# 5 0.001266 0.013403 0.004988 -0.000001 0.046856 0.000000
# 6 0.000000 0.000000 0.000000 0.006128 0.000000 0.052623
#
#
# Mechanical properties :
#
#
# Convention : Reuss Voigt Hill
#
# Bulk Modulus (GPa) = 27.10495 48.42823 37.76659
# Shear Modulus (GPa) = 21.01412 26.66937 23.84175
#
# Velocity S-wave (km/s) = 3.36939 3.79579 3.58893
# Velocity P-wave (km/s) = 5.45715 6.73602 6.13002
#
# Compressibility (1/GPa) = 0.03689364
#
# Stress axis : x y z
#
# Youngs Moduli (GPa) = 82.65584 27.40994 56.69794
#
# Poissons Ratio (x) = -0.05966 0.35047
# Poissons Ratio (y) = -0.17990 0.60427
# Poissons Ratio (z) = 0.51093 0.29213
#
# Static dielectric constant tensor:
#      x y z
#    x 3.243240 0.000000 -0.307000 
#    y 0.000000 3.275790 0.000000 
#    z -0.307000 0.000000 3.431180 
# 
# 
# High freq. dielectric constant tensor:
#      x y z
#    x 1.697190 0.000000 -0.026710 
#    y 0.000000 1.689660 0.000000 
#    z -0.026710 0.000000 1.715990 
# 
# From -- ./inp_files/199436.got.cif
#   From: 2010.06.25/outbox.cif.g09.slc.cpg/sg15_100_cif.got.tgz:199436.got - 2010.06.28 07:06:18.
