data_PCOD8130970
_publ_section_title
;
Structure prediction by ZEFSAII (Michael W. Deem and Ramdas Pophale) SiO2 
 PCOD8130970
Probable space group: C 2/C
;
_chemical_formula_sum "Si O2"
_cell_formula_units_Z 60
_cell_length_a 28.590818
_cell_length_b 22.347449
_cell_length_c 14.780141
_cell_angle_alpha 90.000000
_cell_angle_beta 19.422009
_cell_angle_gamma 90.000000
_cell_volume 3140.185911
_symmetry_space_group_name_H-M "C 2/C"
_symmetry_group_IT_number 15
_symmetry_cell_setting 'monoclinic'
loop_
_space_group_symop_operation_xyz
x,y,z
-x,y,1/2-z
-x,-y,-z
x,-y,1/2+z
1/2+x,1/2+y,z
1/2-x,1/2+y,1/2-z
1/2-x,1/2-y,-z
1/2+x,1/2-y,1/2+z
loop_
_atom_site_type_symbol
_atom_site_label
_atom_site_fract_x
_atom_site_fract_y
_atom_site_fract_z
Si Si1 0.199031 0.631892 0.962104
Si Si2 0.500000 0.290576 0.750000
Si Si3 0.169168 0.259414 0.788717
Si Si4 0.108001 0.639776 0.924668
Si Si5 0.941794 0.066459 0.610414
Si Si6 0.916422 0.150250 0.813009
Si Si7 0.160356 0.145422 0.115347
Si Si8 0.578388 0.739708 0.390474
O O1 0.253817 0.698351 0.885711
O O2 0.170137 0.625405 0.908939
O O3 0.308076 0.579714 0.789507
O O4 0.055308 0.622648 0.281495
O O5 0.614979 0.248694 0.490572
O O6 0.433694 0.334894 0.797766
O O7 0.268814 0.317383 0.604895
O O8 0.038957 0.270354 0.959497
O O9 0.201168 0.609363 0.674685
O O10 0.144345 0.709414 0.834206
O O11 0.894689 0.088510 0.796496
O O12 0.076111 0.102144 0.332824
O O13 0.000000 0.000000 0.500000
O O14 0.000000 0.132471 0.750000
O O15 0.008016 0.194627 0.587638
O O16 0.193206 0.203993 0.118557
#
# Coordination Sequence:
#
# PCOD8130970 Si02
#       8
#     8   4   8   8   8   8   8   8
#     4  11  20  35  60  88 121 155 200 242 303 364
#     4  10  18  30  54  92 122 166 194 228 298 376
#     4  11  18  33  55  87 135 161 182 240 302 386
#     4  11  20  31  56  96 116 153 187 246 305 368
#     4  11  24  45  62  80 111 163 217 262 286 342
#     4  11  21  35  56  87 119 154 194 242 308 365
#     4  10  19  34  53  84 122 155 202 242 291 353
#     4  10  19  30  52  84 127 159 185 228 300 375
#
# _framework density 19.107149
#
# number of rings (size 3 to 8) (size 9 to 14) (size 15 to 20)
#    0.000    1.333    6.667    2.400    0.000    0.000 
#    6.000    0.667    0.000    0.000    0.000    0.000 
#    0.000    0.000    0.000    0.000    0.000    0.000 
#
# Total GULP energy -371721.081536 kJ/mol
# GULP energy per Si atom -12390.702718 kJ/mol
# Density = 1.906366 g / cm^3
# Si number density = 19.107149 Si / 1000 Ang^3
#
#
#
# Elastic Constant Matrix: (Units=GPa)
#
#
# Indices 1 2 3 4 5 6 
#
# 1 87.4503 40.0147 29.2135 -0.0025 1.6118 0.0054
# 2 40.0147 87.1389 35.9147 -0.0021 -2.2848 0.0055
# 3 29.2135 35.9147 124.9103 0.0024 10.8735 0.0086
# 4 -0.0025 -0.0021 0.0024 24.3079 0.0051 -1.1726
# 5 1.6118 -2.2848 10.8735 0.0051 29.0116 -0.0075
# 6 0.0054 0.0055 0.0086 -1.1726 -0.0075 5.3445
#
#
#
# Elastic Compliance Matrix: (Units=1/GPa)
#
#
# Indices 1 2 3 4 5 6 
#
# 1 0.014805 -0.006142 -0.001636 0.000001 -0.000693 -0.000007
# 2 -0.006142 0.015746 -0.003337 0.000000 0.002832 -0.000001
# 3 -0.001636 -0.003337 0.009679 -0.000001 -0.003800 -0.000016
# 4 0.000001 0.000000 -0.000001 0.041579 -0.000004 0.009123
# 5 -0.000693 0.002832 -0.003800 -0.000004 0.036155 0.000053
# 6 -0.000007 -0.000001 -0.000016 0.009123 0.000053 0.189109
#
#
# Mechanical properties :
#
#
# Convention : Reuss Voigt Hill
#
# Bulk Modulus (GPa) = 55.56112 56.64281 56.10196
# Shear Modulus (GPa) = 14.91186 24.68991 19.80089
#
# Velocity S-wave (km/s) = 2.79666 3.59859 3.22267
# Velocity P-wave (km/s) = 6.29049 6.85388 6.57822
#
# Compressibility (1/GPa) = 0.01799820
#
# Stress axis : x y z
#
# Youngs Moduli (GPa) = 67.54490 63.50684 103.31927
#
# Poissons Ratio (x) = 0.39008 0.16904
# Poissons Ratio (y) = 0.41489 0.34482
# Poissons Ratio (z) = 0.11051 0.21195
#
# Static dielectric constant tensor:
#      x y z
#    x 3.726760 -0.000010 0.198150 
#    y -0.000010 3.342400 0.000000 
#    z 0.198150 0.000000 4.124220 
# 
# 
# High freq. dielectric constant tensor:
#      x y z
#    x 1.751010 0.000000 0.011220 
#    y 0.000000 1.678590 0.000000 
#    z 0.011220 0.000000 1.768440 
# 
# From -- ./inp_files/183189.got.cif
#   From: 2010.06.25/outbox.cif.g09.slc.cpg/sg15_92_cif.got.tgz:183189.got - 2010.06.28 07:06:18.
