data_PCOD8130667
_publ_section_title
;
Structure prediction by ZEFSAII (Michael W. Deem and Ramdas Pophale) SiO2 
 PCOD8130667
Probable space group: C 2/C
;
_chemical_formula_sum "Si O2"
_cell_formula_units_Z 64
_cell_length_a 15.924077
_cell_length_b 11.907483
_cell_length_c 27.294388
_cell_angle_alpha 90.000000
_cell_angle_beta 38.955093
_cell_angle_gamma 90.000000
_cell_volume 3253.858937
_symmetry_space_group_name_H-M "C 2/C"
_symmetry_group_IT_number 15
_symmetry_cell_setting 'monoclinic'
loop_
_space_group_symop_operation_xyz
x,y,z
-x,y,1/2-z
-x,-y,-z
x,-y,1/2+z
1/2+x,1/2+y,z
1/2-x,1/2+y,1/2-z
1/2-x,1/2-y,-z
1/2+x,1/2-y,1/2+z
loop_
_atom_site_type_symbol
_atom_site_label
_atom_site_fract_x
_atom_site_fract_y
_atom_site_fract_z
Si Si1 0.814082 0.201251 0.613534
Si Si2 0.650490 0.223177 0.589412
Si Si3 0.586272 0.524684 0.413357
Si Si4 0.764186 0.573646 0.179087
Si Si5 0.011421 0.441085 0.088447
Si Si6 0.738276 0.049213 0.921526
Si Si7 0.409707 0.761120 0.057676
Si Si8 0.988179 0.953924 0.852613
O O1 0.730348 0.196307 0.601975
O O2 0.758958 0.290538 0.678317
O O3 0.967277 0.233056 0.533473
O O4 0.806956 0.076530 0.641006
O O5 0.750000 0.250000 0.500000
O O6 0.560123 0.114775 0.617178
O O7 0.558343 0.330166 0.641435
O O8 0.500000 0.500000 0.500000
O O9 0.653650 0.647568 0.390060
O O10 0.489678 0.530233 0.410212
O O11 0.776259 0.532395 0.118057
O O12 0.633913 0.524634 0.264230
O O13 0.892074 0.529857 0.151881
O O14 0.959873 0.340786 0.077941
O O15 0.135409 0.505302 0.008449
O O16 0.704984 0.177164 0.921839
O O17 0.887514 0.045688 0.875452
#
# Coordination Sequence:
#
# PCOD8130667 Si02
#       8
#     8   8   8   8   8   8   8   8
#     4  11  20  37  59  89 127 159 197 262 308 362
#     4  12  19  34  64  92 117 151 219 256 296 361
#     4  10  23  39  59  86 128 164 203 246 319 380
#     4  11  22  37  59  92 129 157 201 262 328 361
#     4  11  19  35  64  91 121 161 206 256 302 375
#     4  11  20  35  65  92 123 154 217 260 301 363
#     4  10  17  36  59  89 118 164 199 249 301 367
#     4  12  23  38  60  96 120 159 213 265 312 372
#
# _framework density 19.668952999999998
#
# number of rings (size 3 to 8) (size 9 to 14) (size 15 to 20)
#    0.000    1.000    7.500    1.875    0.000    1.000 
#    0.000    3.750    0.000    0.000    9.750    0.000 
#    0.000    0.000    0.000    0.000    0.000    0.000 
#
# Total GULP energy -396778.506693 kJ/mol
# GULP energy per Si atom -12399.328334 kJ/mol
# Density = 1.962419 g / cm^3
# Si number density = 19.668953 Si / 1000 Ang^3
#
#
#
# Elastic Constant Matrix: (Units=GPa)
#
#
# Indices 1 2 3 4 5 6 
#
# 1 117.5593 68.8079 27.1338 0.0000 -19.5393 0.0000
# 2 68.8079 137.6491 19.0678 0.0000 -14.4753 0.0000
# 3 27.1338 19.0678 74.7704 0.0000 -25.6290 0.0000
# 4 0.0000 0.0000 0.0000 18.9092 0.0000 -4.3678
# 5 -19.5393 -14.4753 -25.6290 0.0000 18.8772 0.0000
# 6 0.0000 0.0000 0.0000 -4.3678 0.0000 39.8122
#
#
#
# Elastic Compliance Matrix: (Units=1/GPa)
#
#
# Indices 1 2 3 4 5 6 
#
# 1 0.013437 -0.005716 -0.000287 0.000000 0.009135 0.000000
# 2 -0.005716 0.010334 0.000238 0.000000 0.002331 0.000000
# 3 -0.000287 0.000238 0.025024 0.000000 0.033859 0.000000
# 4 0.000000 0.000000 0.000000 0.054259 0.000000 0.005953
# 5 0.009135 0.002331 0.033859 0.000000 0.110185 0.000000
# 6 0.000000 0.000000 0.000000 0.005953 0.000000 0.025771
#
#
# Mechanical properties :
#
#
# Convention : Reuss Voigt Hill
#
# Bulk Modulus (GPa) = 26.83615 62.22197 44.52906
# Shear Modulus (GPa) = 19.01413 29.85102 24.43258
#
# Velocity S-wave (km/s) = 3.11257 3.89996 3.52830
# Velocity P-wave (km/s) = 5.15664 7.20991 6.26793
#
# Compressibility (1/GPa) = 0.03726317
#
# Stress axis : x y z
#
# Youngs Moduli (GPa) = 74.42322 96.76359 39.96232
#
# Poissons Ratio (x) = 0.55313 0.01148
# Poissons Ratio (y) = 0.42543 -0.00950
# Poissons Ratio (z) = 0.02138 -0.02301
#
# Static dielectric constant tensor:
#      x y z
#    x 3.732520 0.000000 -0.142290 
#    y 0.000000 4.259150 0.000000 
#    z -0.142290 0.000000 3.350280 
# 
# 
# High freq. dielectric constant tensor:
#      x y z
#    x 1.761780 0.000000 -0.004970 
#    y 0.000000 1.770070 0.000000 
#    z -0.004970 0.000000 1.738380 
# 
# From -- ./inp_files/313570.got.cif
#   From: 2010.06.25/outbox.cif.g09.slc.cpg/sg15_157_cif.got.tgz:313570.got - 2010.06.28 07:06:18.
