data_PCOD8130236
_publ_section_title
;
Structure prediction by ZEFSAII (Michael W. Deem and Ramdas Pophale) SiO2 
 PCOD8130236
Probable space group: C 2/C
;
_chemical_formula_sum "Si O2"
_cell_formula_units_Z 56
_cell_length_a 8.314302
_cell_length_b 31.531823
_cell_length_c 10.447364
_cell_angle_alpha 90.000000
_cell_angle_beta 111.319385
_cell_angle_gamma 90.000000
_cell_volume 2551.504224
_symmetry_space_group_name_H-M "C 2/C"
_symmetry_group_IT_number 15
_symmetry_cell_setting 'monoclinic'
loop_
_space_group_symop_operation_xyz
x,y,z
-x,y,1/2-z
-x,-y,-z
x,-y,1/2+z
1/2+x,1/2+y,z
1/2-x,1/2+y,1/2-z
1/2-x,1/2-y,-z
1/2+x,1/2-y,1/2+z
loop_
_atom_site_type_symbol
_atom_site_label
_atom_site_fract_x
_atom_site_fract_y
_atom_site_fract_z
Si Si1 0.199741 0.597467 0.065966
Si Si2 0.705280 0.948010 0.310157
Si Si3 0.706904 0.682681 0.027300
Si Si4 0.194869 0.184901 0.310991
Si Si5 0.794887 0.543175 0.190702
Si Si6 0.211432 0.404011 0.053665
Si Si7 0.493835 0.756101 0.898915
O O1 0.284374 0.644101 0.092289
O O2 0.269159 0.569668 0.204971
O O3 0.268264 0.575110 0.957168
O O4 0.994053 0.602487 0.010485
O O5 0.500000 0.949744 0.250000
O O6 0.774021 0.922426 0.207180
O O7 0.780800 0.995588 0.325710
O O8 0.756050 0.670309 0.186868
O O9 0.858158 0.711546 0.010850
O O10 0.692316 0.640637 0.938117
O O11 0.527921 0.709904 0.972737
O O12 0.310702 0.224647 0.391132
O O13 0.000000 0.201313 0.250000
O O14 0.000000 0.541312 0.250000
O O15 0.727626 0.564279 0.040491
O O16 0.500000 0.749201 0.750000
#
# Coordination Sequence:
#
# PCOD8130236 Si02
#       7
#     8   8   8   8   8   8   8
#     4  10  18  32  53  83 121 162 202 250 297 357
#     4   9  18  29  47  89 132 154 195 255 305 345
#     4  10  19  37  63  88 112 152 204 245 299 366
#     4  11  22  37  60  85 117 156 202 249 307 366
#     4   9  16  27  52  85 120 164 205 246 292 356
#     4  10  17  30  57  85 118 163 202 245 298 359
#     4   9  20  38  63  87 113 148 197 256 302 358
#
# _framework density 21.947838000000001
#
# number of rings (size 3 to 8) (size 9 to 14) (size 15 to 20)
#    0.000    2.286    2.857    0.857    0.000    4.000 
#    2.571    0.000    3.143    0.857    0.000    0.000 
#    0.000    0.000    0.000    0.000    0.000    3.143 
#
# Total GULP energy -347230.732832 kJ/mol
# GULP energy per Si atom -12401.097601 kJ/mol
# Density = 2.189788 g / cm^3
# Si number density = 21.947838 Si / 1000 Ang^3
#
#
#
# Elastic Constant Matrix: (Units=GPa)
#
#
# Indices 1 2 3 4 5 6 
#
# 1 57.4174 43.9300 25.1257 0.0000 6.6599 0.0000
# 2 43.9300 180.8780 71.2404 0.0000 -4.7082 0.0000
# 3 25.1257 71.2404 121.0113 0.0000 -27.3575 0.0000
# 4 0.0000 0.0000 0.0000 34.8921 0.0000 -0.4298
# 5 6.6599 -4.7082 -27.3575 0.0000 26.0564 0.0000
# 6 0.0000 0.0000 0.0000 -0.4298 0.0000 19.8706
#
#
#
# Elastic Compliance Matrix: (Units=1/GPa)
#
#
# Indices 1 2 3 4 5 6 
#
# 1 0.024473 -0.004078 -0.005588 0.000000 -0.012859 0.000000
# 2 -0.004078 0.008232 -0.004495 0.000000 -0.002189 0.000000
# 3 -0.005588 -0.004495 0.016009 0.000000 0.017425 0.000000
# 4 0.000000 0.000000 0.000000 0.028667 0.000000 0.000620
# 5 -0.012859 -0.002189 0.017425 0.000000 0.059564 0.000000
# 6 0.000000 0.000000 0.000000 0.000620 0.000000 0.050339
#
#
# Mechanical properties :
#
#
# Convention : Reuss Voigt Hill
#
# Bulk Modulus (GPa) = 49.03410 71.09988 60.06699
# Shear Modulus (GPa) = 22.48173 30.76454 26.62314
#
# Velocity S-wave (km/s) = 3.20398 3.74801 3.48662
# Velocity P-wave (km/s) = 6.00642 7.15509 6.60577
#
# Compressibility (1/GPa) = 0.02039397
#
# Stress axis : x y z
#
# Youngs Moduli (GPa) = 40.86162 121.47399 62.46410
#
# Poissons Ratio (x) = 0.49533 0.34904
# Poissons Ratio (y) = 0.16662 0.28076
# Poissons Ratio (z) = 0.22833 0.54599
#
# Static dielectric constant tensor:
#      x y z
#    x 3.499600 0.000000 -0.081100 
#    y 0.000000 3.997500 0.000000 
#    z -0.081100 0.000000 3.953290 
# 
# 
# High freq. dielectric constant tensor:
#      x y z
#    x 1.827530 0.000000 -0.007770 
#    y 0.000000 1.869520 0.000000 
#    z -0.007770 0.000000 1.855750 
# 
# From -- ./inp_files/81425.got.cif
#   From: 2010.06.25/outbox.cif.g09.slc.cpg/sg15_41_cif.got.tgz:81425.got - 2010.06.28 07:06:18.
