data_PCOD8130808
_publ_section_title
;
Structure prediction by ZEFSAII (Michael W. Deem and Ramdas Pophale) SiO2 
 PCOD8130808
Probable space group: C 2/C
;
_chemical_formula_sum "Si O2"
_cell_formula_units_Z 52
_cell_length_a 22.285798
_cell_length_b 26.316573
_cell_length_c 8.836398
_cell_angle_alpha 90.000000
_cell_angle_beta 38.816794
_cell_angle_gamma 90.000000
_cell_volume 3248.509204
_symmetry_space_group_name_H-M "C 2/C"
_symmetry_group_IT_number 15
_symmetry_cell_setting 'monoclinic'
loop_
_space_group_symop_operation_xyz
x,y,z
-x,y,1/2-z
-x,-y,-z
x,-y,1/2+z
1/2+x,1/2+y,z
1/2-x,1/2+y,1/2-z
1/2-x,1/2-y,-z
1/2+x,1/2-y,1/2+z
loop_
_atom_site_type_symbol
_atom_site_label
_atom_site_fract_x
_atom_site_fract_y
_atom_site_fract_z
Si Si1 0.702517 0.175844 0.299420
Si Si2 0.597972 0.976628 0.362033
Si Si3 0.000000 0.396253 0.750000
Si Si4 0.907557 0.692930 0.265035
Si Si5 0.384538 0.933535 0.476168
Si Si6 0.399830 0.713309 0.000875
Si Si7 0.936437 0.255343 0.239717
O O1 0.686729 0.192162 0.155270
O O2 0.663884 0.119450 0.393374
O O3 0.651951 0.214299 0.515245
O O4 0.815316 0.177057 0.110857
O O5 0.578062 0.930724 0.514643
O O6 0.654380 0.953086 0.109532
O O7 0.500000 0.000000 0.500000
O O8 0.653212 0.023548 0.332358
O O9 0.933210 0.362855 0.772534
O O10 0.891795 0.730996 0.436919
O O11 0.995756 0.706377 0.983414
O O12 0.500000 0.927552 0.250000
O O13 0.500000 0.688385 0.750000
O O14 0.396586 0.716241 0.191295
O O15 0.000000 0.229228 0.250000
#
# Coordination Sequence:
#
# PCOD8130808 Si02
#       7
#     8   8   4   8   8   8   8
#     4  11  20  30  50  71  97 133 170 196 242 289
#     4  10  18  29  44  67 100 131 156 189 233 297
#     4  12  16  28  50  66 102 138 156 182 242 292
#     4  10  19  30  49  71 101 130 165 190 241 292
#     4  10  19  31  45  70 101 129 157 193 240 291
#     4  10  20  35  47  69  98 131 168 210 236 279
#     4   9  17  32  48  68  95 128 158 199 239 292
#
# _framework density 16.007342000000001
#
# number of rings (size 3 to 8) (size 9 to 14) (size 15 to 20)
#    0.000    1.846    4.615    5.077    0.000    0.000 
#    0.000    0.000    0.000    0.000    0.000    1.077 
#    0.000    0.000    0.000    0.000    0.000    0.000 
#
# Total GULP energy -322193.313653 kJ/mol
# GULP energy per Si atom -12392.050525 kJ/mol
# Density = 1.597091 g / cm^3
# Si number density = 16.007342 Si / 1000 Ang^3
#
#
#
# Elastic Constant Matrix: (Units=GPa)
#
#
# Indices 1 2 3 4 5 6 
#
# 1 119.0777 30.5502 41.4884 0.0000 5.2818 0.0000
# 2 30.5502 52.0220 19.5633 0.0000 -5.8214 0.0000
# 3 41.4884 19.5633 45.2697 0.0000 0.7657 0.0000
# 4 0.0000 0.0000 0.0000 11.6936 0.0000 3.6854
# 5 5.2818 -5.8214 0.7657 0.0000 27.6225 0.0000
# 6 0.0000 0.0000 0.0000 3.6854 0.0000 21.1916
#
#
#
# Elastic Compliance Matrix: (Units=1/GPa)
#
#
# Indices 1 2 3 4 5 6 
#
# 1 0.013178 -0.004260 -0.010183 0.000000 -0.003135 0.000000
# 2 -0.004260 0.025076 -0.007039 0.000000 0.006294 0.000000
# 3 -0.010183 -0.007039 0.034472 0.000000 -0.000492 0.000000
# 4 0.000000 0.000000 0.000000 0.090475 0.000000 -0.015734
# 5 -0.003135 0.006294 -0.000492 0.000000 0.038142 0.000000
# 6 0.000000 0.000000 0.000000 -0.015734 0.000000 0.049925
#
#
# Mechanical properties :
#
#
# Convention : Reuss Voigt Hill
#
# Bulk Modulus (GPa) = 33.59959 44.39700 38.99829
# Shear Modulus (GPa) = 16.43912 20.41939 18.42925
#
# Velocity S-wave (km/s) = 3.20812 3.57547 3.39676
# Velocity P-wave (km/s) = 5.89562 6.69633 6.30870
#
# Compressibility (1/GPa) = 0.02976227
#
# Stress axis : x y z
#
# Youngs Moduli (GPa) = 75.88501 39.87924 29.00879
#
# Poissons Ratio (x) = 0.16989 0.29540
# Poissons Ratio (y) = 0.32328 0.20418
# Poissons Ratio (z) = 0.77274 0.28069
#
# Static dielectric constant tensor:
#      x y z
#    x 3.620950 0.000000 0.424540 
#    y 0.000000 2.932540 0.000000 
#    z 0.424540 0.000000 2.939110 
# 
# 
# High freq. dielectric constant tensor:
#      x y z
#    x 1.627010 0.000000 0.035630 
#    y 0.000000 1.592100 0.000000 
#    z 0.035630 0.000000 1.582890 
# 
# From -- ./inp_files/41741.got.cif
#   From: 2010.06.25/outbox.cif.g09.slc.cpg/sg15_21_cif.got.tgz:41741.got - 2010.06.28 07:06:18.
