data_PCOD8130783
_publ_section_title
;
Structure prediction by ZEFSAII (Michael W. Deem and Ramdas Pophale) SiO2 
 PCOD8130783
Probable space group: C 2/C
;
_chemical_formula_sum "Si O2"
_cell_formula_units_Z 56
_cell_length_a 18.739664
_cell_length_b 12.364674
_cell_length_c 14.203126
_cell_angle_alpha 90.000000
_cell_angle_beta 102.277094
_cell_angle_gamma 90.000000
_cell_volume 3215.740919
_symmetry_space_group_name_H-M "C 2/C"
_symmetry_group_IT_number 15
_symmetry_cell_setting 'monoclinic'
loop_
_space_group_symop_operation_xyz
x,y,z
-x,y,1/2-z
-x,-y,-z
x,-y,1/2+z
1/2+x,1/2+y,z
1/2-x,1/2+y,1/2-z
1/2-x,1/2-y,-z
1/2+x,1/2-y,1/2+z
loop_
_atom_site_type_symbol
_atom_site_label
_atom_site_fract_x
_atom_site_fract_y
_atom_site_fract_z
Si Si1 0.944913 0.065593 0.159941
Si Si2 0.785907 0.984619 0.681680
Si Si3 0.796263 0.353452 0.986693
Si Si4 0.707586 0.476620 0.100525
Si Si5 0.587034 0.698643 0.525419
Si Si6 0.190273 0.836611 0.452735
Si Si7 0.030643 0.182035 0.858309
O O1 0.865075 0.064361 0.182605
O O2 0.000000 0.117268 0.250000
O O3 0.972241 0.947432 0.138195
O O4 0.950432 0.141956 0.072591
O O5 0.727305 0.903509 0.620162
O O6 0.770805 0.990124 0.788323
O O7 0.779790 0.102755 0.632102
O O8 0.879305 0.313631 0.999017
O O9 0.750000 0.250000 0.000000
O O10 0.781613 0.439436 0.066704
O O11 0.647759 0.381068 0.087906
O O12 0.674985 0.578002 0.033001
O O13 0.524433 0.729741 0.580764
O O14 0.250000 0.750000 0.500000
O O15 0.113456 0.778603 0.404057
O O16 0.000000 0.224672 0.750000
#
# Coordination Sequence:
#
# PCOD8130783 Si02
#       7
#     8   8   8   8   8   8   8
#     4  10  18  28  48  78 109 134 169 204 266 328
#     4  10  19  34  51  77 105 143 175 215 265 313
#     4   9  18  34  50  77 104 140 176 212 256 317
#     4  10  19  32  54  75 107 141 174 217 264 310
#     4  11  18  33  54  74 112 138 170 213 263 323
#     4  10  21  36  50  80 109 135 179 220 264 315
#     4  10  20  32  51  78 108 142 172 209 272 325
#
# _framework density 17.414338999999998
#
# number of rings (size 3 to 8) (size 9 to 14) (size 15 to 20)
#    0.000    2.000    5.714    3.000    2.000    3.429 
#    0.000    0.000    0.000    3.429    0.000    6.000 
#    0.000    0.000    0.000    0.000    0.000    0.000 
#
# Total GULP energy -347100.576622 kJ/mol
# GULP energy per Si atom -12396.449165 kJ/mol
# Density = 1.737470 g / cm^3
# Si number density = 17.414339 Si / 1000 Ang^3
#
#
#
# Elastic Constant Matrix: (Units=GPa)
#
#
# Indices 1 2 3 4 5 6 
#
# 1 91.9082 24.0662 41.4143 0.0000 -2.2708 0.0000
# 2 24.0662 24.5921 17.3719 0.0000 -0.5895 0.0000
# 3 41.4143 17.3719 130.6897 0.0000 -14.2092 0.0000
# 4 0.0000 0.0000 0.0000 12.6301 0.0000 8.3296
# 5 -2.2708 -0.5895 -14.2092 0.0000 27.7471 0.0000
# 6 0.0000 0.0000 0.0000 8.3296 0.0000 25.3151
#
#
#
# Elastic Compliance Matrix: (Units=1/GPa)
#
#
# Indices 1 2 3 4 5 6 
#
# 1 0.015805 -0.013124 -0.003339 0.000000 -0.000696 0.000000
# 2 -0.013124 0.055906 -0.003452 0.000000 -0.001654 0.000000
# 3 -0.003339 -0.003452 0.009670 0.000000 0.004605 0.000000
# 4 0.000000 0.000000 0.000000 0.101119 0.000000 -0.033272
# 5 -0.000696 -0.001654 0.004605 0.000000 0.038306 0.000000
# 6 0.000000 0.000000 0.000000 -0.033272 0.000000 0.050450
#
#
# Mechanical properties :
#
#
# Convention : Reuss Voigt Hill
#
# Bulk Modulus (GPa) = 24.06836 45.87719 34.97277
# Shear Modulus (GPa) = 15.38765 24.09430 19.74097
#
# Velocity S-wave (km/s) = 2.97580 3.72370 3.37056
# Velocity P-wave (km/s) = 5.06539 6.69997 5.93918
#
# Compressibility (1/GPa) = 0.04154833
#
# Stress axis : x y z
#
# Youngs Moduli (GPa) = 63.27282 17.88720 103.41794
#
# Poissons Ratio (x) = 0.23476 0.34535
# Poissons Ratio (y) = 0.83041 0.35702
# Poissons Ratio (z) = 0.21129 0.06175
#
# Static dielectric constant tensor:
#      x y z
#    x 3.285960 0.000000 0.059810 
#    y 0.000000 3.355280 0.000000 
#    z 0.059810 0.000000 3.419160 
# 
# 
# High freq. dielectric constant tensor:
#      x y z
#    x 1.659000 0.000000 -0.005100 
#    y 0.000000 1.634020 0.000000 
#    z -0.005100 0.000000 1.683630 
# 
# From -- ./inp_files/160991.got.cif
#   From: 2010.06.25/outbox.cif.g09.slc.cpg/sg15_81_cif.got.tgz:160991.got - 2010.06.28 07:06:18.
