data_PCOD8130069
_publ_section_title
;
Structure prediction by ZEFSAII (Michael W. Deem and Ramdas Pophale) SiO2 
 PCOD8130069
Probable space group: C 2/C
;
_chemical_formula_sum "Si O2"
_cell_formula_units_Z 40
_cell_length_a 13.525697
_cell_length_b 22.219289
_cell_length_c 9.677005
_cell_angle_alpha 90.000000
_cell_angle_beta 40.285202
_cell_angle_gamma 90.000000
_cell_volume 1880.449300
_symmetry_space_group_name_H-M "C 2/C"
_symmetry_group_IT_number 15
_symmetry_cell_setting 'monoclinic'
loop_
_space_group_symop_operation_xyz
x,y,z
-x,y,1/2-z
-x,-y,-z
x,-y,1/2+z
1/2+x,1/2+y,z
1/2-x,1/2+y,1/2-z
1/2-x,1/2-y,-z
1/2+x,1/2-y,1/2+z
loop_
_atom_site_type_symbol
_atom_site_label
_atom_site_fract_x
_atom_site_fract_y
_atom_site_fract_z
Si Si1 0.665613 0.459249 0.134987
Si Si2 0.288501 0.323681 0.393303
Si Si3 0.336333 0.032345 0.175287
Si Si4 0.952238 0.751421 0.517063
Si Si5 0.299957 0.830277 0.691813
O O1 0.500000 0.475258 0.250000
O O2 0.673594 0.392217 0.186009
O O3 0.708348 0.501042 0.218184
O O4 0.790100 0.468972 0.883639
O O5 0.443871 0.287153 0.203407
O O6 0.235640 0.318465 0.607768
O O7 0.152882 0.298500 0.444736
O O8 0.338225 0.100947 0.116543
O O9 0.500000 0.000000 0.000000
O O10 0.056975 0.710948 0.507016
O O11 0.853392 0.800687 0.712426
#
# Coordination Sequence:
#
# PCOD8130069 Si02
#       5
#     8   8   8   8   8
#     4  11  23  39  58  85 118 154 194 237 282 337
#     4  10  17  28  47  76 111 144 179 224 279 335
#     4  11  23  39  59  86 117 153 194 236 282 339
#     4  10  17  27  47  76 111 143 175 226 286 334
#     4  10  18  29  48  77 108 140 180 227 281 335
#
# _framework density 21.271512000000001
#
# number of rings (size 3 to 8) (size 9 to 14) (size 15 to 20)
#    0.000    1.600    0.000    9.600    0.000    3.200 
#    0.000    0.000    0.000    0.000    0.000   35.000 
#    0.000    0.000    0.000    0.000    0.000    0.000 
#
# Total GULP energy -247797.621480 kJ/mol
# GULP energy per Si atom -12389.881074 kJ/mol
# Density = 2.122310 g / cm^3
# Si number density = 21.271512 Si / 1000 Ang^3
#
#
#
# Elastic Constant Matrix: (Units=GPa)
#
#
# Indices 1 2 3 4 5 6 
#
# 1 53.4355 45.7135 24.3566 0.0000 -24.1016 0.0000
# 2 45.7135 169.4066 42.8618 0.0000 -31.4022 0.0000
# 3 24.3566 42.8618 76.6156 0.0000 -42.8011 0.0000
# 4 0.0000 0.0000 0.0000 39.0037 0.0000 -4.4692
# 5 -24.1016 -31.4022 -42.8011 0.0000 34.7086 0.0000
# 6 0.0000 0.0000 0.0000 -4.4692 0.0000 28.5386
#
#
#
# Elastic Compliance Matrix: (Units=1/GPa)
#
#
# Indices 1 2 3 4 5 6 
#
# 1 0.032161 -0.005695 0.008227 0.000000 0.027325 0.000000
# 2 -0.005695 0.008137 -0.002694 0.000000 0.000085 0.000000
# 3 0.008227 -0.002694 0.044274 0.000000 0.057871 0.000000
# 4 0.000000 0.000000 0.000000 0.026107 0.000000 0.004088
# 5 0.027325 0.000085 0.057871 0.000000 0.119226 0.000000
# 6 0.000000 0.000000 0.000000 0.004088 0.000000 0.035681
#
#
# Mechanical properties :
#
#
# Convention : Reuss Voigt Hill
#
# Bulk Modulus (GPa) = 11.86990 58.36905 35.11948
# Shear Modulus (GPa) = 17.00723 32.88525 24.94624
#
# Velocity S-wave (km/s) = 2.83067 3.93616 3.42826
# Velocity P-wave (km/s) = 4.03433 6.93955 5.67597
#
# Compressibility (1/GPa) = 0.08424669
#
# Stress axis : x y z
#
# Youngs Moduli (GPa) = 31.09382 122.89374 22.58676
#
# Poissons Ratio (x) = 0.69985 -0.18581
# Poissons Ratio (y) = 0.17707 0.06086
# Poissons Ratio (z) = -0.25580 0.33112
#
# Static dielectric constant tensor:
#      x y z
#    x 3.470350 0.000000 -0.507230 
#    y 0.000000 4.367440 0.000000 
#    z -0.507230 0.000000 4.053530 
# 
# 
# High freq. dielectric constant tensor:
#      x y z
#    x 1.791290 0.000000 -0.045160 
#    y 0.000000 1.856600 0.000000 
#    z -0.045160 0.000000 1.835690 
# 
# From -- ./inp_files/40561.got.cif
#   From: 2010.06.25/outbox.cif.g09.slc.cpg/sg15_21_cif.got.tgz:40561.got - 2010.06.28 07:06:18.
