data_PCOD8130845
_publ_section_title
;
Structure prediction by ZEFSAII (Michael W. Deem and Ramdas Pophale) SiO2 
 PCOD8130845
Probable space group: C 2/C
;
_chemical_formula_sum "Si O2"
_cell_formula_units_Z 60
_cell_length_a 13.747821
_cell_length_b 17.883564
_cell_length_c 19.704693
_cell_angle_alpha 90.000000
_cell_angle_beta 143.457646
_cell_angle_gamma 90.000000
_cell_volume 2884.554407
_symmetry_space_group_name_H-M "C 2/C"
_symmetry_group_IT_number 15
_symmetry_cell_setting 'monoclinic'
loop_
_space_group_symop_operation_xyz
x,y,z
-x,y,1/2-z
-x,-y,-z
x,-y,1/2+z
1/2+x,1/2+y,z
1/2-x,1/2+y,1/2-z
1/2-x,1/2-y,-z
1/2+x,1/2-y,1/2+z
loop_
_atom_site_type_symbol
_atom_site_label
_atom_site_fract_x
_atom_site_fract_y
_atom_site_fract_z
Si Si1 0.032933 0.947777 0.930413
Si Si2 0.927135 0.292676 0.308506
Si Si3 0.500000 0.174153 0.250000
Si Si4 0.460614 0.817672 0.994034
Si Si5 0.636923 0.634435 0.272030
Si Si6 0.751241 0.318512 0.082002
Si Si7 0.067829 0.249875 0.921672
Si Si8 0.144197 0.898079 0.532011
O O1 0.909902 0.937827 0.797992
O O2 0.930043 0.925035 0.938635
O O3 0.183262 0.891152 0.006542
O O4 0.114732 0.029025 0.969326
O O5 0.843841 0.209984 0.263308
O O6 0.834990 0.342698 0.200671
O O7 0.912670 0.335878 0.373394
O O8 0.116967 0.281569 0.394425
O O9 0.536378 0.226413 0.203782
O O10 0.663094 0.123579 0.353307
O O11 0.314062 0.878383 0.906111
O O12 0.394521 0.737812 0.983172
O O13 0.547799 0.811122 0.970103
O O14 0.500000 0.652780 0.250000
O O15 0.250000 0.250000 0.000000
O O16 0.035179 0.167745 0.935903
#
# Coordination Sequence:
#
# PCOD8130845 Si02
#       8
#     8   8   4   8   8   8   8   8
#     4  11  21  36  57  83 123 145 195 224 296 369
#     4  10  18  30  49  83 120 150 193 227 277 357
#     4  10  22  42  66  80 114 142 212 254 288 330
#     4  11  18  31  55  80 120 146 195 240 291 328
#     4  11  19  30  51  85 119 155 180 230 291 347
#     4  10  18  29  50  81 117 155 185 233 283 342
#     4  10  21  38  59  86 102 144 201 250 293 318
#     4  10  22  40  59  85 108 154 189 245 294 344
#
# _framework density 20.800439999999998
#
# number of rings (size 3 to 8) (size 9 to 14) (size 15 to 20)
#    0.000    1.600    5.333    2.000    0.000    4.267 
#    1.200    0.000    0.000    0.000    0.000    7.467 
#    0.000    0.000    0.000    0.000    0.000    0.000 
#
# Total GULP energy -371650.244779 kJ/mol
# GULP energy per Si atom -12388.341493 kJ/mol
# Density = 2.075310 g / cm^3
# Si number density = 20.800440 Si / 1000 Ang^3
#
#
#
# Elastic Constant Matrix: (Units=GPa)
#
#
# Indices 1 2 3 4 5 6 
#
# 1 79.1955 2.1101 18.9331 0.0004 -15.1892 0.0002
# 2 2.1101 79.4292 27.3022 0.0003 -4.8723 0.0002
# 3 18.9331 27.3022 87.7542 0.0012 -26.8298 0.0008
# 4 0.0004 0.0003 0.0012 33.9749 0.0007 -4.0221
# 5 -15.1892 -4.8723 -26.8298 0.0007 39.3067 0.0004
# 6 0.0002 0.0002 0.0008 -4.0221 0.0004 15.8135
#
#
#
# Elastic Compliance Matrix: (Units=1/GPa)
#
#
# Indices 1 2 3 4 5 6 
#
# 1 0.013857 0.000536 -0.001894 0.000000 0.004128 0.000000
# 2 0.000536 0.014196 -0.004968 0.000000 -0.001424 0.000000
# 3 -0.001894 -0.004968 0.016350 -0.000001 0.009812 -0.000001
# 4 0.000000 0.000000 -0.000001 0.030347 -0.000001 0.007719
# 5 0.004128 -0.001424 0.009812 -0.000001 0.033557 -0.000002
# 6 0.000000 0.000000 -0.000001 0.007719 -0.000002 0.065201
#
#
# Mechanical properties :
#
#
# Convention : Reuss Voigt Hill
#
# Bulk Modulus (GPa) = 31.49489 38.11887 34.80688
# Shear Modulus (GPa) = 25.41385 31.02125 28.21755
#
# Velocity S-wave (km/s) = 3.49921 3.86602 3.68718
# Velocity P-wave (km/s) = 5.61251 6.18821 5.90738
#
# Compressibility (1/GPa) = 0.03175118
#
# Stress axis : x y z
#
# Youngs Moduli (GPa) = 72.16382 70.44357 61.16339
#
# Poissons Ratio (x) = -0.03778 0.11587
# Poissons Ratio (y) = -0.03870 0.30384
# Poissons Ratio (z) = 0.13671 0.34994
#
# Static dielectric constant tensor:
#      x y z
#    x 3.873410 0.000000 -0.220180 
#    y 0.000000 3.636290 0.000000 
#    z -0.220180 0.000000 2.199790 
# 
# 
# High freq. dielectric constant tensor:
#      x y z
#    x 1.815300 0.000000 -0.010410 
#    y 0.000000 1.755130 0.000000 
#    z -0.010410 0.000000 1.831040 
# 
# From -- ./inp_files/244931.got.cif
#   From: 2010.06.25/outbox.cif.g09.slc.cpg/sg15_123_cif.got.tgz:244931.got - 2010.06.28 07:06:18.
