data_PCOD8130130
_publ_section_title
;
Structure prediction by ZEFSAII (Michael W. Deem and Ramdas Pophale) SiO2 
 PCOD8130130
Probable space group: C 2/C
;
_chemical_formula_sum "Si O2"
_cell_formula_units_Z 48
_cell_length_a 12.942789
_cell_length_b 13.697373
_cell_length_c 26.135110
_cell_angle_alpha 90.000000
_cell_angle_beta 143.596983
_cell_angle_gamma 90.000000
_cell_volume 2749.678175
_symmetry_space_group_name_H-M "C 2/C"
_symmetry_group_IT_number 15
_symmetry_cell_setting 'monoclinic'
loop_
_space_group_symop_operation_xyz
x,y,z
-x,y,1/2-z
-x,-y,-z
x,-y,1/2+z
1/2+x,1/2+y,z
1/2-x,1/2+y,1/2-z
1/2-x,1/2-y,-z
1/2+x,1/2-y,1/2+z
loop_
_atom_site_type_symbol
_atom_site_label
_atom_site_fract_x
_atom_site_fract_y
_atom_site_fract_z
Si Si1 0.828913 0.925802 0.296475
Si Si2 0.230464 0.637852 0.064501
Si Si3 0.869894 0.330561 0.371837
Si Si4 0.865771 0.941160 0.153146
Si Si5 0.886040 0.146884 0.318283
Si Si6 0.305357 0.764128 0.188002
O O1 0.681521 0.899622 0.196175
O O2 0.799452 0.860639 0.335444
O O3 0.022756 0.905361 0.351289
O O4 0.813202 0.040339 0.303285
O O5 0.233861 0.529083 0.089051
O O6 0.405539 0.651531 0.101957
O O7 0.208842 0.717905 0.100740
O O8 0.071196 0.649014 0.962494
O O9 0.750192 0.351295 0.373478
O O10 0.831507 0.218437 0.342358
O O11 0.000000 0.979565 0.250000
O O12 0.805949 0.182530 0.232637
O O13 0.500000 0.795602 0.250000
#
# Coordination Sequence:
#
# PCOD8130130 Si02
#       6
#     8   8   8   8   8   8
#     4   9  18  33  48  65  92 126 153 182 230 283
#     4  10  17  29  50  74  92 115 156 200 227 259
#     4  10  18  29  50  74  91 117 158 196 225 266
#     4   9  17  30  48  68  93 123 153 187 229 273
#     4   9  18  32  49  68  95 125 152 187 232 273
#     4   9  17  31  50  69  91 122 157 188 225 274
#
# _framework density 17.456589000000001
#
# number of rings (size 3 to 8) (size 9 to 14) (size 15 to 20)
#    0.000    2.667    0.000    4.500    0.000    0.000 
#    0.000    5.833    0.000   10.000    0.000    0.000 
#    0.000    0.000    0.000    0.000    0.000    0.000 
#
# Total GULP energy -297558.204185 kJ/mol
# GULP energy per Si atom -12398.258508 kJ/mol
# Density = 1.741686 g / cm^3
# Si number density = 17.456589 Si / 1000 Ang^3
#
#
#
# Elastic Constant Matrix: (Units=GPa)
#
#
# Indices 1 2 3 4 5 6 
#
# 1 78.8662 71.8402 13.7593 0.0000 -2.2765 0.0000
# 2 71.8402 147.5084 43.1126 0.0000 4.1683 0.0000
# 3 13.7593 43.1126 82.9218 0.0000 1.4586 0.0000
# 4 0.0000 0.0000 0.0000 18.7393 0.0000 0.9273
# 5 -2.2765 4.1683 1.4586 0.0000 9.8893 0.0000
# 6 0.0000 0.0000 0.0000 0.9273 0.0000 37.0901
#
#
#
# Elastic Compliance Matrix: (Units=1/GPa)
#
#
# Indices 1 2 3 4 5 6 
#
# 1 0.024238 -0.012823 0.002458 0.000000 0.010622 0.000000
# 2 -0.012823 0.014854 -0.005447 0.000000 -0.008410 0.000000
# 3 0.002458 -0.005447 0.014471 0.000000 0.000728 0.000000
# 4 0.000000 0.000000 0.000000 0.053430 0.000000 -0.001336
# 5 0.010622 -0.008410 0.000728 0.000000 0.107002 0.000000
# 6 0.000000 0.000000 0.000000 -0.001336 0.000000 0.026995
#
#
# Mechanical properties :
#
#
# Convention : Reuss Voigt Hill
#
# Bulk Modulus (GPa) = 45.58083 62.96896 54.27490
# Shear Modulus (GPa) = 17.86172 25.18268 21.52220
#
# Velocity S-wave (km/s) = 3.20223 3.80226 3.51507
# Velocity P-wave (km/s) = 6.31190 7.44489 6.90168
#
# Compressibility (1/GPa) = 0.02193905
#
# Stress axis : x y z
#
# Youngs Moduli (GPa) = 41.25696 67.32066 69.10377
#
# Poissons Ratio (x) = 0.86328 -0.16988
# Poissons Ratio (y) = 0.52905 0.37643
# Poissons Ratio (z) = -0.10142 0.36672
#
# Static dielectric constant tensor:
#      x y z
#    x 3.270230 0.000000 0.030900 
#    y 0.000000 3.284520 0.000000 
#    z 0.030900 0.000000 3.041690 
# 
# 
# High freq. dielectric constant tensor:
#      x y z
#    x 1.663110 0.000000 0.004350 
#    y 0.000000 1.671930 0.000000 
#    z 0.004350 0.000000 1.657080 
# 
# From -- ./inp_files/143421.got.cif
#   From: 2010.06.25/outbox.cif.g09.slc.cpg/sg15_72_cif.got.tgz:143421.got - 2010.06.28 07:06:18.
