data_PCOD8130421
_publ_section_title
;
Structure prediction by ZEFSAII (Michael W. Deem and Ramdas Pophale) SiO2 
 PCOD8130421
Probable space group: C 2/C
;
_chemical_formula_sum "Si O2"
_cell_formula_units_Z 56
_cell_length_a 19.279107
_cell_length_b 8.408340
_cell_length_c 21.790568
_cell_angle_alpha 90.000000
_cell_angle_beta 53.309263
_cell_angle_gamma 90.000000
_cell_volume 2832.506495
_symmetry_space_group_name_H-M "C 2/C"
_symmetry_group_IT_number 15
_symmetry_cell_setting 'monoclinic'
loop_
_space_group_symop_operation_xyz
x,y,z
-x,y,1/2-z
-x,-y,-z
x,-y,1/2+z
1/2+x,1/2+y,z
1/2-x,1/2+y,1/2-z
1/2-x,1/2-y,-z
1/2+x,1/2-y,1/2+z
loop_
_atom_site_type_symbol
_atom_site_label
_atom_site_fract_x
_atom_site_fract_y
_atom_site_fract_z
Si Si1 0.686006 0.310736 0.125991
Si Si2 0.706969 0.375502 0.442171
Si Si3 0.367118 0.791619 0.205777
Si Si4 0.259671 0.076414 0.302615
Si Si5 0.175313 0.574845 0.031475
Si Si6 0.638517 0.339901 0.659607
Si Si7 0.941723 0.286676 0.416720
O O1 0.687269 0.208969 0.187775
O O2 0.639331 0.211579 0.096279
O O3 0.632620 0.470059 0.167887
O O4 0.784450 0.349107 0.051610
O O5 0.706451 0.464483 0.377414
O O6 0.746261 0.484188 0.475176
O O7 0.763776 0.213766 0.409634
O O8 0.608421 0.329840 0.509846
O O9 0.304655 0.660707 0.209969
O O10 0.389378 0.742076 0.262920
O O11 0.456909 0.794311 0.120468
O O12 0.324599 0.967425 0.228135
O O13 0.095097 0.464502 0.057100
O O14 0.571051 0.276903 0.645365
#
# Coordination Sequence:
#
# PCOD8130421 Si02
#       7
#     8   8   8   8   8   8   8
#     4  10  17  32  61  82 111 150 184 216 268 347
#     4   9  17  34  61  86 115 143 183 231 282 338
#     4  11  24  40  58  76 114 154 196 232 279 343
#     4  10  23  40  58  77 108 163 194 221 282 342
#     4   9  17  31  58  91 115 143 174 229 289 332
#     4  10  18  34  60  88 116 150 179 224 287 341
#     4  11  19  36  59  91 114 140 185 244 287 321
#
# _framework density 19.770475999999999
#
# number of rings (size 3 to 8) (size 9 to 14) (size 15 to 20)
#    0.000    2.000    2.857    3.000    0.000    0.571 
#    0.000    5.000    0.000    0.000    0.000    0.000 
#    0.000    0.000    0.000    0.000    0.000    0.000 
#
# Total GULP energy -347211.224568 kJ/mol
# GULP energy per Si atom -12400.400877 kJ/mol
# Density = 1.972548 g / cm^3
# Si number density = 19.770476 Si / 1000 Ang^3
#
#
#
# Elastic Constant Matrix: (Units=GPa)
#
#
# Indices 1 2 3 4 5 6 
#
# 1 45.2316 25.4488 30.7142 -0.0001 -10.3407 0.0005
# 2 25.4488 121.4155 22.4542 -0.0004 -10.8360 0.0010
# 3 30.7142 22.4542 66.1297 -0.0001 -20.2618 0.0002
# 4 -0.0001 -0.0004 -0.0001 32.7516 0.0001 8.5010
# 5 -10.3407 -10.8360 -20.2618 0.0001 28.1497 -0.0003
# 6 0.0005 0.0010 0.0002 8.5010 -0.0003 29.2910
#
#
#
# Elastic Compliance Matrix: (Units=1/GPa)
#
#
# Indices 1 2 3 4 5 6 
#
# 1 0.034511 -0.004533 -0.014292 0.000000 0.000645 0.000000
# 2 -0.004533 0.009439 -0.000637 0.000000 0.001510 0.000000
# 3 -0.014292 -0.000637 0.026034 0.000000 0.013243 0.000000
# 4 0.000000 0.000000 0.000000 0.033020 0.000000 -0.009583
# 5 0.000645 0.001510 0.013243 0.000000 0.045875 0.000000
# 6 0.000000 0.000000 0.000000 -0.009583 0.000000 0.036922
#
#
# Mechanical properties :
#
#
# Convention : Reuss Voigt Hill
#
# Bulk Modulus (GPa) = 32.19567 43.33457 37.76512
# Shear Modulus (GPa) = 21.26953 28.31576 24.79264
#
# Velocity S-wave (km/s) = 3.28353 3.78858 3.54506
# Velocity P-wave (km/s) = 5.54035 6.41126 5.99165
#
# Compressibility (1/GPa) = 0.03106008
#
# Stress axis : x y z
#
# Youngs Moduli (GPa) = 28.97607 105.94543 38.41157
#
# Poissons Ratio (x) = 0.48024 0.54898
# Poissons Ratio (y) = 0.13134 0.02447
# Poissons Ratio (z) = 0.41413 0.06749
#
# Static dielectric constant tensor:
#      x y z
#    x 3.115760 0.000000 0.133840 
#    y 0.000000 3.840040 0.000000 
#    z 0.133840 0.000000 3.541360 
# 
# 
# High freq. dielectric constant tensor:
#      x y z
#    x 1.723040 0.000000 0.013440 
#    y 0.000000 1.789080 0.000000 
#    z 0.013440 0.000000 1.765830 
# 
# From -- ./inp_files/279349.got.cif
#   From: 2010.06.25/outbox.cif.g09.slc.cpg/sg15_140_cif.got.tgz:279349.got - 2010.06.28 07:06:18.
