data_PCOD8130172
_publ_section_title
;
Structure prediction by ZEFSAII (Michael W. Deem and Ramdas Pophale) SiO2 
 PCOD8130172
Probable space group: C 2/C
;
_chemical_formula_sum "Si O2"
_cell_formula_units_Z 60
_cell_length_a 29.323165
_cell_length_b 19.683606
_cell_length_c 8.520526
_cell_angle_alpha 90.000000
_cell_angle_beta 129.588089
_cell_angle_gamma 90.000000
_cell_volume 3789.978046
_symmetry_space_group_name_H-M "C 2/C"
_symmetry_group_IT_number 15
_symmetry_cell_setting 'monoclinic'
loop_
_space_group_symop_operation_xyz
x,y,z
-x,y,1/2-z
-x,-y,-z
x,-y,1/2+z
1/2+x,1/2+y,z
1/2-x,1/2+y,1/2-z
1/2-x,1/2-y,-z
1/2+x,1/2-y,1/2+z
loop_
_atom_site_type_symbol
_atom_site_label
_atom_site_fract_x
_atom_site_fract_y
_atom_site_fract_z
Si Si1 0.500000 0.212711 0.250000
Si Si2 0.842097 0.453595 0.645338
Si Si3 0.625822 0.844306 0.018878
Si Si4 0.063111 0.400373 0.435024
Si Si5 0.534965 0.245718 0.988344
Si Si6 0.835664 0.390965 0.079442
Si Si7 0.839926 0.764638 0.155140
Si Si8 0.766160 0.652780 0.151819
O O1 0.556187 0.164300 0.391241
O O2 0.496984 0.256489 0.409898
O O3 0.862788 0.417825 0.531818
O O4 0.822225 0.529783 0.574929
O O5 0.787066 0.411262 0.594588
O O6 0.898544 0.454767 0.885577
O O7 0.661452 0.846334 0.258821
O O8 0.651202 0.780566 0.980152
O O9 0.051669 0.334014 0.516885
O O10 0.101270 0.379037 0.367621
O O11 0.000000 0.433085 0.250000
O O12 0.500000 0.267022 0.750000
O O13 0.597018 0.287047 0.131533
O O14 0.778959 0.363634 0.860855
O O15 0.803735 0.720601 0.200682
O O16 0.803259 0.832577 0.030077
#
# Coordination Sequence:
#
# PCOD8130172 Si02
#       8
#     4   8   8   8   8   8   8   8
#     4  10  18  28  44  64  94 124 156 198 228 276
#     4  10  19  33  41  61  89 120 161 194 228 269
#     4  10  18  29  42  64  88 118 154 193 237 264
#     4  10  18  31  41  60  90 125 166 188 223 269
#     4  10  17  30  50  69  95 125 153 191 242 281
#     4  11  20  29  45  61  89 123 159 201 230 265
#     4   9  17  32  49  63  88 115 156 191 226 292
#     4   9  18  33  48  62  83 123 154 190 237 270
#
# _framework density 15.831225999999999
#
# number of rings (size 3 to 8) (size 9 to 14) (size 15 to 20)
#    0.000    2.133    5.333    3.200    0.000    1.067 
#    2.400    0.000    0.000    0.000    0.000    0.000 
#    0.000    1.067    0.000    1.067    0.000    0.000 
#
# Total GULP energy -371738.097897 kJ/mol
# GULP energy per Si atom -12391.269930 kJ/mol
# Density = 1.579519 g / cm^3
# Si number density = 15.831226 Si / 1000 Ang^3
#
#
#
# Elastic Constant Matrix: (Units=GPa)
#
#
# Indices 1 2 3 4 5 6 
#
# 1 59.3608 23.2645 55.0572 0.0000 0.4452 0.0000
# 2 23.2645 45.2110 43.1872 0.0000 12.7845 0.0000
# 3 55.0572 43.1872 141.7333 0.0000 3.4575 0.0000
# 4 0.0000 0.0000 0.0000 20.2267 0.0000 1.2546
# 5 0.4452 12.7845 3.4575 0.0000 28.7265 0.0000
# 6 0.0000 0.0000 0.0000 1.2546 0.0000 6.4916
#
#
#
# Elastic Compliance Matrix: (Units=1/GPa)
#
#
# Indices 1 2 3 4 5 6 
#
# 1 0.027609 -0.006947 -0.008699 0.000000 0.003711 0.000000
# 2 -0.006947 0.038449 -0.008628 0.000000 -0.015965 0.000000
# 3 -0.008699 -0.008628 0.013005 0.000000 0.002409 0.000000
# 4 0.000000 0.000000 0.000000 0.050039 0.000000 -0.009671
# 5 0.003711 -0.015965 0.002409 0.000000 0.041569 0.000000
# 6 0.000000 0.000000 0.000000 -0.009671 0.000000 0.155913
#
#
# Mechanical properties :
#
#
# Convention : Reuss Voigt Hill
#
# Bulk Modulus (GPa) = 32.76932 54.36920 43.56926
# Shear Modulus (GPa) = 12.97679 19.40871 16.19275
#
# Velocity S-wave (km/s) = 2.86614 3.50519 3.20165
# Velocity P-wave (km/s) = 5.63002 7.12737 6.42248
#
# Compressibility (1/GPa) = 0.03051635
#
# Stress axis : x y z
#
# Youngs Moduli (GPa) = 36.22020 26.00822 76.89538
#
# Poissons Ratio (x) = 0.18068 0.66888
# Poissons Ratio (y) = 0.25162 0.66343
# Poissons Ratio (z) = 0.31506 0.22439
#
# Static dielectric constant tensor:
#      x y z
#    x 3.125840 0.000000 -0.098910 
#    y 0.000000 2.576760 0.000000 
#    z -0.098910 0.000000 3.267880 
# 
# 
# High freq. dielectric constant tensor:
#      x y z
#    x 1.602520 0.000000 -0.015050 
#    y 0.000000 1.550430 0.000000 
#    z -0.015050 0.000000 1.618980 
# 
# From -- ./inp_files/57494.got.cif
#   From: 2010.06.25/outbox.cif.g09.slc.cpg/sg15_29_cif.got.tgz:57494.got - 2010.06.28 07:06:18.
