data_PCOD8130499
_publ_section_title
;
Structure prediction by ZEFSAII (Michael W. Deem and Ramdas Pophale) SiO2 
 PCOD8130499
Probable space group: C 2/C
;
_chemical_formula_sum "Si O2"
_cell_formula_units_Z 60
_cell_length_a 18.265086
_cell_length_b 19.810297
_cell_length_c 9.480062
_cell_angle_alpha 90.000000
_cell_angle_beta 96.838120
_cell_angle_gamma 90.000000
_cell_volume 3405.834156
_symmetry_space_group_name_H-M "C 2/C"
_symmetry_group_IT_number 15
_symmetry_cell_setting 'monoclinic'
loop_
_space_group_symop_operation_xyz
x,y,z
-x,y,1/2-z
-x,-y,-z
x,-y,1/2+z
1/2+x,1/2+y,z
1/2-x,1/2+y,1/2-z
1/2-x,1/2-y,-z
1/2+x,1/2-y,1/2+z
loop_
_atom_site_type_symbol
_atom_site_label
_atom_site_fract_x
_atom_site_fract_y
_atom_site_fract_z
Si Si1 0.412052 0.297082 0.230223
Si Si2 0.250199 0.837803 0.662087
Si Si3 0.389601 0.568733 0.374527
Si Si4 0.083492 0.950594 0.307246
Si Si5 0.661324 0.781869 0.036514
Si Si6 0.319549 0.783954 0.937026
Si Si7 0.500000 0.336663 0.750000
Si Si8 0.421674 0.794753 0.207361
O O1 0.500000 0.285676 0.250000
O O2 0.390841 0.375956 0.229841
O O3 0.385430 0.267245 0.075517
O O4 0.370762 0.265996 0.356051
O O5 0.184722 0.889236 0.635384
O O6 0.308595 0.846532 0.546555
O O7 0.225492 0.759946 0.631121
O O8 0.288146 0.841616 0.824833
O O9 0.371337 0.508706 0.262352
O O10 0.405978 0.534798 0.526508
O O11 0.460595 0.615671 0.355708
O O12 0.000000 0.963780 0.250000
O O13 0.613534 0.811238 0.150833
O O14 0.250000 0.750000 0.000000
O O15 0.371538 0.820386 0.066109
O O16 0.564355 0.286097 0.822745
O O17 0.500000 0.832282 0.250000
#
# Coordination Sequence:
#
# PCOD8130499 Si02
#       8
#     8   8   8   8   8   8   4   8
#     4  10  21  34  51  73 104 144 186 217 263 315
#     4  10  20  33  50  67  99 137 178 220 269 321
#     4  12  22  38  47  72 102 147 191 226 256 294
#     4  11  24  34  51  70 101 146 195 226 250 296
#     4  10  17  34  50  69  97 139 178 209 273 324
#     4  11  20  31  51  79 101 134 186 223 270 317
#     4  10  20  30  52  66 108 138 178 220 256 286
#     4  10  19  30  51  77 103 136 169 219 266 312
#
# _framework density 17.61683
#
# number of rings (size 3 to 8) (size 9 to 14) (size 15 to 20)
#    0.400    1.067    4.667    1.200    3.733    1.067 
#    0.000    0.000    0.000    0.000    0.000    0.000 
#    0.000    0.000    0.000  147.600   16.800    0.000 
#
# Total GULP energy -371672.468732 kJ/mol
# GULP energy per Si atom -12389.082291 kJ/mol
# Density = 1.757673 g / cm^3
# Si number density = 17.616830 Si / 1000 Ang^3
#
#
#
# Elastic Constant Matrix: (Units=GPa)
#
#
# Indices 1 2 3 4 5 6 
#
# 1 102.6913 24.8238 66.9706 0.0000 -10.3336 0.0000
# 2 24.8238 46.5921 28.0637 0.0000 -8.4810 0.0000
# 3 66.9706 28.0637 149.3566 0.0000 0.0036 0.0000
# 4 0.0000 0.0000 0.0000 7.5376 0.0000 -35.2891
# 5 -10.3336 -8.4810 0.0036 0.0000 35.7430 0.0000
# 6 0.0000 0.0000 0.0000 -35.2891 0.0000 -92.7193
#
#
#
# Elastic Compliance Matrix: (Units=1/GPa)
#
#
# Indices 1 2 3 4 5 6 
#
# 1 0.014873 -0.003704 -0.005973 0.000000 0.003422 0.000000
# 2 -0.003704 0.026363 -0.003293 0.000000 0.005185 0.000000
# 3 -0.005973 -0.003293 0.009993 0.000000 -0.002509 0.000000
# 4 0.000000 0.000000 0.000000 0.047690 0.000000 -0.018151
# 5 0.003422 0.005185 -0.002509 0.000000 0.030197 0.000000
# 6 0.000000 0.000000 0.000000 -0.018151 0.000000 -0.003877
#
#
# Mechanical properties :
#
#
# Convention : Reuss Voigt Hill
#
# Bulk Modulus (GPa) = 39.54234 59.81737 49.67985
# Shear Modulus (GPa) = 31.32664 2.03105 16.67885
#
# Velocity S-wave (km/s) = 4.22147 1.07490 3.08028
# Velocity P-wave (km/s) = 6.80115 5.96397 6.39627
#
# Compressibility (1/GPa) = 0.02528935
#
# Stress axis : x y z
#
# Youngs Moduli (GPa) = 67.23636 37.93133 100.07483
#
# Poissons Ratio (x) = 0.14048 0.59776
# Poissons Ratio (y) = 0.24901 0.32956
# Poissons Ratio (z) = 0.40161 0.12491
#
# Static dielectric constant tensor:
#      x y z
#    x 3.676490 0.000000 -0.083650 
#    y 0.000000 2.912020 0.000000 
#    z -0.083650 0.000000 3.564190 
# 
# 
# High freq. dielectric constant tensor:
#      x y z
#    x 1.690490 0.000000 -0.006350 
#    y 0.000000 1.615350 0.000000 
#    z -0.006350 0.000000 1.703470 
# 
# From -- ./inp_files/50270.got.cif
#   From: 2010.06.25/outbox.cif.g09.slc.cpg/sg15_26_cif.got.tgz:50270.got - 2010.06.28 07:06:18.
