data_PCOD8130590
_publ_section_title
;
Structure prediction by ZEFSAII (Michael W. Deem and Ramdas Pophale) SiO2 
 PCOD8130590
Probable space group: C 2/C
;
_chemical_formula_sum "Si O2"
_cell_formula_units_Z 48
_cell_length_a 17.844832
_cell_length_b 8.112878
_cell_length_c 17.098462
_cell_angle_alpha 90.000000
_cell_angle_beta 101.276698
_cell_angle_gamma 90.000000
_cell_volume 2427.605391
_symmetry_space_group_name_H-M "C 2/C"
_symmetry_group_IT_number 15
_symmetry_cell_setting 'monoclinic'
loop_
_space_group_symop_operation_xyz
x,y,z
-x,y,1/2-z
-x,-y,-z
x,-y,1/2+z
1/2+x,1/2+y,z
1/2-x,1/2+y,1/2-z
1/2-x,1/2-y,-z
1/2+x,1/2-y,1/2+z
loop_
_atom_site_type_symbol
_atom_site_label
_atom_site_fract_x
_atom_site_fract_y
_atom_site_fract_z
Si Si1 0.231844 0.001830 0.538608
Si Si2 0.133884 0.714912 0.984240
Si Si3 0.871432 0.516988 0.360766
Si Si4 0.917410 0.301379 0.720849
Si Si5 0.481152 0.136369 0.663110
Si Si6 0.232421 0.816282 0.377344
O O1 0.235441 0.895858 0.461944
O O2 0.239139 0.875119 0.612750
O O3 0.153528 0.106265 0.524873
O O4 0.298495 0.138130 0.554580
O O5 0.066453 0.744108 0.907927
O O6 0.113986 0.594073 0.051050
O O7 0.876867 0.653882 0.294541
O O8 0.789815 0.422811 0.335058
O O9 0.938938 0.387351 0.364289
O O10 0.936761 0.464110 0.672937
O O11 0.856217 0.180384 0.667908
O O12 0.000000 0.210638 0.750000
O O13 0.500000 0.226523 0.750000
#
# Coordination Sequence:
#
# PCOD8130590 Si02
#       6
#     8   8   8   8   8   8
#     4   9  20  31  57  80 106 145 175 228 277 312
#     4  10  17  35  55  82 106 139 190 219 262 335
#     4   9  20  32  57  85 103 143 184 227 271 309
#     4   9  19  36  57  79 106 152 182 215 272 334
#     4   9  18  35  56  78 106 150 179 216 270 336
#     4  10  18  37  53  81 110 138 183 227 271 323
#
# _framework density 19.772570999999999
#
# number of rings (size 3 to 8) (size 9 to 14) (size 15 to 20)
#    0.000    3.000    1.667    0.500    0.000    1.333 
#    9.000    1.667    0.000    0.000    0.000    0.000 
#    0.000    0.000    0.000    0.000    0.000    0.000 
#
# Total GULP energy -297328.295886 kJ/mol
# GULP energy per Si atom -12388.678995 kJ/mol
# Density = 1.972757 g / cm^3
# Si number density = 19.772571 Si / 1000 Ang^3
#
#
#
# Elastic Constant Matrix: (Units=GPa)
#
#
# Indices 1 2 3 4 5 6 
#
# 1 117.4616 31.2865 34.2089 0.0000 14.3778 0.0000
# 2 31.2865 47.9054 16.2142 0.0000 7.9247 0.0000
# 3 34.2089 16.2142 38.4727 0.0000 8.0612 0.0000
# 4 0.0000 0.0000 0.0000 -7.7483 0.0000 -1.2136
# 5 14.3778 7.9247 8.0612 0.0000 39.1895 0.0000
# 6 0.0000 0.0000 0.0000 -1.2136 0.0000 14.3041
#
#
#
# Elastic Compliance Matrix: (Units=1/GPa)
#
#
# Indices 1 2 3 4 5 6 
#
# 1 0.012604 -0.004976 -0.008728 0.000000 -0.001823 0.000000
# 2 -0.004976 0.026640 -0.006330 0.000000 -0.002260 0.000000
# 3 -0.008728 -0.006330 0.037080 0.000000 -0.003145 0.000000
# 4 0.000000 0.000000 0.000000 -0.127368 0.000000 -0.010806
# 5 -0.001823 -0.002260 -0.003145 0.000000 0.027290 0.000000
# 6 0.000000 0.000000 0.000000 -0.010806 0.000000 0.068993
#
#
# Mechanical properties :
#
#
# Convention : Reuss Voigt Hill
#
# Bulk Modulus (GPa) = 27.58097 40.80655 34.19376
# Shear Modulus (GPa) = 51.33960 17.29108 34.31534
#
# Velocity S-wave (km/s) = 5.10112 2.96040 4.17046
# Velocity P-wave (km/s) = 6.97672 5.68929 6.36564
#
# Compressibility (1/GPa) = 0.03625688
#
# Stress axis : x y z
#
# Youngs Moduli (GPa) = 79.34160 37.53722 26.96886
#
# Poissons Ratio (x) = 0.18678 0.23538
# Poissons Ratio (y) = 0.39479 0.17070
# Poissons Ratio (z) = 0.69249 0.23760
#
# Static dielectric constant tensor:
#      x y z
#    x 3.745090 0.000000 0.110990 
#    y 0.000000 3.440750 0.000000 
#    z 0.110990 0.000000 3.519440 
# 
# 
# High freq. dielectric constant tensor:
#      x y z
#    x 1.771320 0.000000 0.009690 
#    y 0.000000 1.733310 0.000000 
#    z 0.009690 0.000000 1.767540 
# 
# From -- ./inp_files/208696.got.cif
#   From: 2010.06.25/outbox.cif.g09.slc.cpg/sg15_105_cif.got.tgz:208696.got - 2010.06.28 07:06:18.
