data_PCOD8130294
_publ_section_title
;
Structure prediction by ZEFSAII (Michael W. Deem and Ramdas Pophale) SiO2 
 PCOD8130294
Probable space group: C 2/C
;
_chemical_formula_sum "Si O2"
_cell_formula_units_Z 56
_cell_length_a 11.502624
_cell_length_b 20.046592
_cell_length_c 17.673002
_cell_angle_alpha 90.000000
_cell_angle_beta 49.457094
_cell_angle_gamma 90.000000
_cell_volume 3096.815562
_symmetry_space_group_name_H-M "C 2/C"
_symmetry_group_IT_number 15
_symmetry_cell_setting 'monoclinic'
loop_
_space_group_symop_operation_xyz
x,y,z
-x,y,1/2-z
-x,-y,-z
x,-y,1/2+z
1/2+x,1/2+y,z
1/2-x,1/2+y,1/2-z
1/2-x,1/2-y,-z
1/2+x,1/2-y,1/2+z
loop_
_atom_site_type_symbol
_atom_site_label
_atom_site_fract_x
_atom_site_fract_y
_atom_site_fract_z
Si Si1 0.935219 0.682442 0.957801
Si Si2 0.455418 0.930983 0.979613
Si Si3 0.693154 0.980847 0.784949
Si Si4 0.524970 0.547849 0.419980
Si Si5 0.156514 0.827101 0.466222
Si Si6 0.140384 0.976227 0.145784
Si Si7 0.631752 0.126161 0.751814
O O1 0.778639 0.663547 0.981573
O O2 0.071200 0.680590 0.837945
O O3 0.920433 0.754718 0.001405
O O4 0.969085 0.631509 0.010822
O O5 0.532377 0.939969 0.862909
O O6 0.269426 0.925080 0.057572
O O7 0.500000 0.000000 0.000000
O O8 0.794320 0.949225 0.675611
O O9 0.783066 0.973236 0.826503
O O10 0.675625 0.059941 0.778812
O O11 0.500000 0.500000 0.500000
O O12 0.479631 0.621980 0.461532
O O13 0.423672 0.520983 0.394268
O O14 0.228056 0.841248 0.353166
O O15 0.000000 0.938541 0.250000
O O16 0.500000 0.104214 0.750000
#
# Coordination Sequence:
#
# PCOD8130294 Si02
#       7
#     8   8   8   8   8   8   8
#     4  10  20  35  54  80 113 149 178 223 282 351
#     4  10  17  31  56  78 105 139 188 225 266 324
#     4  10  19  32  53  81 108 143 187 231 275 326
#     4  11  21  34  52  82 113 142 184 236 280 321
#     4  10  21  34  52  80 118 146 176 224 288 341
#     4   9  19  32  52  81 105 140 184 235 273 320
#     4  10  19  32  53  81 110 144 184 222 284 342
#
# _framework density 18.083093000000002
#
# number of rings (size 3 to 8) (size 9 to 14) (size 15 to 20)
#    0.000    2.000    4.286    1.714    2.000    1.143 
#    0.000    6.429    0.000    0.857    0.000    1.000 
#    0.000    0.000    0.000    0.000    0.000    0.000 
#
# Total GULP energy -346963.716605 kJ/mol
# GULP energy per Si atom -12391.561307 kJ/mol
# Density = 1.804193 g / cm^3
# Si number density = 18.083093 Si / 1000 Ang^3
#
#
#
# Elastic Constant Matrix: (Units=GPa)
#
#
# Indices 1 2 3 4 5 6 
#
# 1 33.9149 29.7209 36.5698 -0.0001 -8.8928 0.0001
# 2 29.7209 119.7323 70.2405 0.0000 -9.2194 0.0000
# 3 36.5698 70.2405 185.6250 -0.0001 -28.3420 0.0001
# 4 -0.0001 0.0000 -0.0001 30.5379 0.0001 -0.9894
# 5 -8.8928 -9.2194 -28.3420 0.0001 32.3341 -0.0001
# 6 0.0001 0.0000 0.0001 -0.9894 -0.0001 24.5224
#
#
#
# Elastic Compliance Matrix: (Units=1/GPa)
#
#
# Indices 1 2 3 4 5 6 
#
# 1 0.042467 -0.007328 -0.004767 0.000000 0.005412 0.000000
# 2 -0.007328 0.012009 -0.003331 0.000000 -0.001511 0.000000
# 3 -0.004767 -0.003331 0.008361 0.000000 0.005067 0.000000
# 4 0.000000 0.000000 0.000000 0.032789 0.000000 0.001323
# 5 0.005412 -0.001511 0.005067 0.000000 0.036426 0.000000
# 6 0.000000 0.000000 0.000000 0.001323 0.000000 0.040832
#
#
# Mechanical properties :
#
#
# Convention : Reuss Voigt Hill
#
# Bulk Modulus (GPa) = 31.26628 68.03717 49.65172
# Shear Modulus (GPa) = 23.32112 30.99495 27.15804
#
# Velocity S-wave (km/s) = 3.59509 4.14458 3.87957
# Velocity P-wave (km/s) = 5.87884 7.78523 6.89821
#
# Compressibility (1/GPa) = 0.03198334
#
# Stress axis : x y z
#
# Youngs Moduli (GPa) = 23.54787 83.27179 119.60839
#
# Poissons Ratio (x) = 0.61022 0.57019
# Poissons Ratio (y) = 0.17256 0.39844
# Poissons Ratio (z) = 0.11226 0.27739
#
# Static dielectric constant tensor:
#      x y z
#    x 3.141950 0.000000 -0.130390 
#    y 0.000000 3.010460 0.000000 
#    z -0.130390 0.000000 4.009530 
# 
# 
# High freq. dielectric constant tensor:
#      x y z
#    x 1.676140 0.000000 -0.009600 
#    y 0.000000 1.661070 0.000000 
#    z -0.009600 0.000000 1.732630 
# 
# From -- ./inp_files/199444.got.cif
#   From: 2010.06.25/outbox.cif.g09.slc.cpg/sg15_100_cif.got.tgz:199444.got - 2010.06.28 07:06:18.
