data_PCOD8130231
_publ_section_title
;
Structure prediction by ZEFSAII (Michael W. Deem and Ramdas Pophale) SiO2 
 PCOD8130231
Probable space group: C 2/C
;
_chemical_formula_sum "Si O2"
_cell_formula_units_Z 64
_cell_length_a 16.644405
_cell_length_b 16.244651
_cell_length_c 12.028045
_cell_angle_alpha 90.000000
_cell_angle_beta 90.533594
_cell_angle_gamma 90.000000
_cell_volume 3252.032451
_symmetry_space_group_name_H-M "C 2/C"
_symmetry_group_IT_number 15
_symmetry_cell_setting 'monoclinic'
loop_
_space_group_symop_operation_xyz
x,y,z
-x,y,1/2-z
-x,-y,-z
x,-y,1/2+z
1/2+x,1/2+y,z
1/2-x,1/2+y,1/2-z
1/2-x,1/2-y,-z
1/2+x,1/2-y,1/2+z
loop_
_atom_site_type_symbol
_atom_site_label
_atom_site_fract_x
_atom_site_fract_y
_atom_site_fract_z
Si Si1 0.937965 0.395378 0.489828
Si Si2 0.301192 0.815886 0.072024
Si Si3 0.434118 0.479903 0.156543
Si Si4 0.408259 0.175930 0.217035
Si Si5 0.450360 0.614028 0.994293
Si Si6 0.159557 0.848794 0.212075
Si Si7 0.524783 0.760940 0.368183
Si Si8 0.110412 0.437444 0.583018
O O1 0.891486 0.348057 0.588591
O O2 0.879145 0.463794 0.432481
O O3 0.967053 0.338413 0.389242
O O4 0.017680 0.427687 0.550595
O O5 0.252694 0.850146 0.178391
O O6 0.380294 0.776311 0.125003
O O7 0.250000 0.750000 0.000000
O O8 0.326528 0.892200 0.995479
O O9 0.500000 0.501267 0.250000
O O10 0.405852 0.564281 0.095395
O O11 0.361405 0.425143 0.206021
O O12 0.474784 0.431645 0.057251
O O13 0.500000 0.196183 0.250000
O O14 0.360330 0.260409 0.235982
O O15 0.376610 0.099665 0.293074
O O16 0.494882 0.694442 0.039197
O O17 0.385674 0.640403 0.904289
O O18 0.500000 0.724352 0.250000
#
# Coordination Sequence:
#
# PCOD8130231 Si02
#       8
#     8   8   8   8   8   8   8   8
#     4   9  19  33  52  81 113 145 195 249 293 343
#     4  11  20  37  58  86 116 156 199 247 296 373
#     4   9  19  32  55  84 115 149 194 261 309 357
#     4  10  17  30  56  82 108 151 202 248 290 360
#     4  10  18  34  56  84 113 147 201 255 303 362
#     4  11  19  34  57  84 114 153 207 246 299 372
#     4  11  22  36  58  83 117 158 198 244 302 365
#     4   9  18  32  51  80 111 146 193 247 293 344
#
# _framework density 19.68
#
# number of rings (size 3 to 8) (size 9 to 14) (size 15 to 20)
#    0.000    2.000    2.500    3.750    0.000    3.500 
#    0.000    3.750    0.000    3.000    0.000    0.000 
#    0.000    0.000    0.000    0.000    0.000    0.000 
#
# Total GULP energy -396525.123631 kJ/mol
# GULP energy per Si atom -12391.410113 kJ/mol
# Density = 1.963521 g / cm^3
# Si number density = 19.680000 Si / 1000 Ang^3
#
#
#
# Elastic Constant Matrix: (Units=GPa)
#
#
# Indices 1 2 3 4 5 6 
#
# 1 63.5372 36.2707 38.0906 0.0000 -20.2583 0.0000
# 2 36.2707 94.0631 29.4740 0.0000 -4.8969 0.0000
# 3 38.0906 29.4740 79.4891 0.0000 -15.9012 0.0000
# 4 0.0000 0.0000 0.0000 11.5193 0.0000 -2.7756
# 5 -20.2583 -4.8969 -15.9012 0.0000 25.7675 0.0000
# 6 0.0000 0.0000 0.0000 -2.7756 0.0000 16.2351
#
#
#
# Elastic Compliance Matrix: (Units=1/GPa)
#
#
# Indices 1 2 3 4 5 6 
#
# 1 0.031243 -0.008538 -0.008233 0.000000 0.017860 0.000000
# 2 -0.008538 0.014368 -0.002319 0.000000 -0.005413 0.000000
# 3 -0.008233 -0.002319 0.018256 0.000000 0.004353 0.000000
# 4 0.000000 0.000000 0.000000 0.090540 0.000000 0.015479
# 5 0.017860 -0.005413 0.004353 0.000000 0.054507 0.000000
# 6 0.000000 0.000000 0.000000 0.015479 0.000000 0.064241
#
#
# Mechanical properties :
#
#
# Convention : Reuss Voigt Hill
#
# Bulk Modulus (GPa) = 38.92954 49.41778 44.17366
# Shear Modulus (GPa) = 15.63001 19.58800 17.60900
#
# Velocity S-wave (km/s) = 2.82123 3.15830 2.99451
# Velocity P-wave (km/s) = 5.51694 6.20201 5.86948
#
# Compressibility (1/GPa) = 0.02568744
#
# Stress axis : x y z
#
# Youngs Moduli (GPa) = 32.00760 69.59806 54.77621
#
# Poissons Ratio (x) = 0.59420 0.45096
# Poissons Ratio (y) = 0.27327 0.12704
# Poissons Ratio (z) = 0.26351 0.16142
#
# Static dielectric constant tensor:
#      x y z
#    x 3.318460 0.000000 -0.272640 
#    y 0.000000 4.041630 0.000000 
#    z -0.272640 0.000000 3.664140 
# 
# 
# High freq. dielectric constant tensor:
#      x y z
#    x 1.725690 0.000000 -0.023620 
#    y 0.000000 1.775710 0.000000 
#    z -0.023620 0.000000 1.770640 
# 
# From -- ./inp_files/98793.got.cif
#   From: 2010.06.25/outbox.cif.g09.slc.cpg/sg15_50_cif.got.tgz:98793.got - 2010.06.28 07:06:18.
