data_PCOD8130104
_publ_section_title
;
Structure prediction by ZEFSAII (Michael W. Deem and Ramdas Pophale) SiO2 
 PCOD8130104
Probable space group: C 2/C
;
_chemical_formula_sum "Si O2"
_cell_formula_units_Z 56
_cell_length_a 12.308111
_cell_length_b 17.250227
_cell_length_c 18.719792
_cell_angle_alpha 90.000000
_cell_angle_beta 147.932728
_cell_angle_gamma 90.000000
_cell_volume 2110.143119
_symmetry_space_group_name_H-M "C 2/C"
_symmetry_group_IT_number 15
_symmetry_cell_setting 'monoclinic'
loop_
_space_group_symop_operation_xyz
x,y,z
-x,y,1/2-z
-x,-y,-z
x,-y,1/2+z
1/2+x,1/2+y,z
1/2-x,1/2+y,1/2-z
1/2-x,1/2-y,-z
1/2+x,1/2-y,1/2+z
loop_
_atom_site_type_symbol
_atom_site_label
_atom_site_fract_x
_atom_site_fract_y
_atom_site_fract_z
Si Si1 0.195419 0.494437 0.273568
Si Si2 0.488736 0.297090 0.949767
Si Si3 0.047757 0.811788 0.406286
Si Si4 0.623988 0.132619 0.625809
Si Si5 0.352566 0.447995 0.508692
Si Si6 0.288538 0.555331 0.590270
Si Si7 0.456620 0.844297 0.808140
O O1 0.101031 0.417660 0.184719
O O2 0.206829 0.481846 0.365125
O O3 0.422393 0.512657 0.370563
O O4 0.037506 0.564705 0.165490
O O5 0.537900 0.204946 0.967362
O O6 0.644249 0.353913 0.993948
O O7 0.267800 0.315668 0.794836
O O8 0.498485 0.326450 0.036676
O O9 0.848413 0.828388 0.247137
O O10 0.108400 0.720265 0.429331
O O11 0.213373 0.877601 0.473408
O O12 0.607866 0.077863 0.546005
O O13 0.256671 0.472573 0.532176
O O14 0.500000 0.549941 0.750000
O O15 0.500000 0.834630 0.750000
#
# Coordination Sequence:
#
# PCOD8130104 Si02
#       7
#     8   8   8   8   8   8   8
#     4  10  18  33  53  75 108 141 184 226 270 336
#     4  10  20  32  55  79 109 149 180 222 276 343
#     4  10  17  32  49  76 111 135 170 218 278 332
#     4  10  19  32  51  85 112 136 176 236 281 312
#     4  10  17  32  56  80 104 148 193 218 274 337
#     4  10  17  28  51  78 114 133 174 233 267 323
#     4  10  21  31  48  81 107 138 180 223 280 336
#
# _framework density 26.538484
#
# number of rings (size 3 to 8) (size 9 to 14) (size 15 to 20)
#    0.000    2.000    4.286    3.857    0.000    3.429 
#    0.000    0.714    0.000    0.857    0.000    3.000 
#    0.000    0.000    0.000    0.000    0.000    0.000 
#
# Total GULP energy -347062.688437 kJ/mol
# GULP energy per Si atom -12395.096016 kJ/mol
# Density = 2.647808 g / cm^3
# Si number density = 26.538484 Si / 1000 Ang^3
#
#
#
# Elastic Constant Matrix: (Units=GPa)
#
#
# Indices 1 2 3 4 5 6 
#
# 1 38.9336 58.6861 39.1937 0.0005 -24.8316 0.0005
# 2 58.6861 203.8436 59.8515 0.0013 -21.7799 0.0015
# 3 39.1937 59.8515 73.2783 0.0008 -12.0317 0.0009
# 4 0.0005 0.0013 0.0008 55.7133 0.0017 9.9586
# 5 -24.8316 -21.7799 -12.0317 0.0017 44.7554 0.0017
# 6 0.0005 0.0015 0.0009 9.9586 0.0017 129.4133
#
#
#
# Elastic Compliance Matrix: (Units=1/GPa)
#
#
# Indices 1 2 3 4 5 6 
#
# 1 0.142833 -0.020286 -0.050673 -0.000002 0.055753 -0.000001
# 2 -0.020286 0.009477 0.002112 0.000000 -0.006076 0.000000
# 3 -0.050673 0.002112 0.036173 0.000000 -0.017362 0.000000
# 4 -0.000002 0.000000 0.000000 0.018199 -0.000001 -0.001400
# 5 0.055753 -0.006076 -0.017362 -0.000001 0.045653 -0.000001
# 6 -0.000001 0.000000 0.000000 -0.001400 -0.000001 0.007835
#
#
# Mechanical properties :
#
#
# Convention : Reuss Voigt Hill
#
# Bulk Modulus (GPa) = 19.68869 70.16868 44.92868
# Shear Modulus (GPa) = 12.05419 56.53134 34.29276
#
# Velocity S-wave (km/s) = 2.13355 4.62038 3.59860
# Velocity P-wave (km/s) = 3.67483 7.41361 5.85090
#
# Compressibility (1/GPa) = 0.05079059
#
# Stress axis : x y z
#
# Youngs Moduli (GPa) = 7.00117 105.52280 27.64461
#
# Poissons Ratio (x) = 2.14064 1.40083
# Poissons Ratio (y) = 0.14203 -0.05840
# Poissons Ratio (z) = 0.35477 -0.22291
#
# Static dielectric constant tensor:
#      x y z
#    x 4.313460 0.000000 0.069900 
#    y 0.000000 5.373960 -0.000010 
#    z 0.069900 -0.000010 5.008070 
# 
# 
# High freq. dielectric constant tensor:
#      x y z
#    x 2.021200 0.000000 0.006520 
#    y 0.000000 2.090880 0.000000 
#    z 0.006520 0.000000 2.083080 
# 
# From -- ./inp_files/199571.got.cif
#   From: 2010.06.25/outbox.cif.g09.slc.cpg/sg15_100_cif.got.tgz:199571.got - 2010.06.28 07:06:18.
