data_PCOD8130409
_publ_section_title
;
Structure prediction by ZEFSAII (Michael W. Deem and Ramdas Pophale) SiO2 
 PCOD8130409
Probable space group: C 2/C
;
_chemical_formula_sum "Si O2"
_cell_formula_units_Z 56
_cell_length_a 9.190979
_cell_length_b 23.625765
_cell_length_c 15.045453
_cell_angle_alpha 90.000000
_cell_angle_beta 108.181027
_cell_angle_gamma 90.000000
_cell_volume 3103.923487
_symmetry_space_group_name_H-M "C 2/C"
_symmetry_group_IT_number 15
_symmetry_cell_setting 'monoclinic'
loop_
_space_group_symop_operation_xyz
x,y,z
-x,y,1/2-z
-x,-y,-z
x,-y,1/2+z
1/2+x,1/2+y,z
1/2-x,1/2+y,1/2-z
1/2-x,1/2-y,-z
1/2+x,1/2-y,1/2+z
loop_
_atom_site_type_symbol
_atom_site_label
_atom_site_fract_x
_atom_site_fract_y
_atom_site_fract_z
Si Si1 0.639428 0.442934 0.103882
Si Si2 0.696406 0.862739 0.494884
Si Si3 0.025212 0.713328 0.654086
Si Si4 0.849999 0.398539 0.285883
Si Si5 0.007876 0.163454 0.146268
Si Si6 0.654228 0.569941 0.056273
Si Si7 0.564318 0.937745 0.012882
O O1 0.693032 0.417503 0.208582
O O2 0.646980 0.510602 0.106646
O O3 0.752300 0.416840 0.052659
O O4 0.466700 0.424963 0.047757
O O5 0.628615 0.812497 0.420317
O O6 0.561590 0.889004 0.529068
O O7 0.832753 0.839986 0.580480
O O8 0.160633 0.666398 0.679444
O O9 0.069063 0.774954 0.622930
O O10 0.000000 0.730433 0.750000
O O11 0.863392 0.436584 0.375121
O O12 0.000000 0.404034 0.250000
O O13 0.120609 0.117902 0.123098
O O14 0.000000 0.153166 0.250000
O O15 0.818998 0.575892 0.043956
O O16 0.500000 0.000000 0.000000
#
# Coordination Sequence:
#
# PCOD8130409 Si02
#       7
#     8   8   8   8   8   8   8
#     4  10  18  36  55  80 116 149 183 243 280 336
#     4  10  18  34  58  82 111 144 195 236 286 330
#     4   9  16  32  59  86 106 139 204 242 267 331
#     4  10  17  32  58  85 106 141 195 238 273 330
#     4  10  22  37  55  81 115 156 188 235 288 343
#     4  10  22  36  52  83 122 147 186 232 295 348
#     4  11  20  34  56  82 112 150 187 233 284 348
#
# _framework density 18.041681000000001
#
# number of rings (size 3 to 8) (size 9 to 14) (size 15 to 20)
#    0.000    2.000    5.714    0.429    0.000    1.714 
#    0.000    5.000    0.000    0.000    7.429    0.000 
#    0.000    0.000    0.000    0.000    0.000    0.000 
#
# Total GULP energy -346895.809631 kJ/mol
# GULP energy per Si atom -12389.136058 kJ/mol
# Density = 1.800062 g / cm^3
# Si number density = 18.041681 Si / 1000 Ang^3
#
#
#
# Elastic Constant Matrix: (Units=GPa)
#
#
# Indices 1 2 3 4 5 6 
#
# 1 85.0230 48.0729 32.9462 0.0000 -2.9850 0.0000
# 2 48.0729 153.1625 62.5917 0.0000 3.4945 0.0000
# 3 32.9462 62.5917 108.7236 0.0000 14.3080 0.0000
# 4 0.0000 0.0000 0.0000 -26.5085 0.0000 8.8741
# 5 -2.9850 3.4945 14.3080 0.0000 24.7284 0.0000
# 6 0.0000 0.0000 0.0000 8.8741 0.0000 22.9438
#
#
#
# Elastic Compliance Matrix: (Units=1/GPa)
#
#
# Indices 1 2 3 4 5 6 
#
# 1 0.015119 -0.003591 -0.003054 0.000000 0.004099 0.000000
# 2 -0.003591 0.009463 -0.004467 0.000000 0.000814 0.000000
# 3 -0.003054 -0.004467 0.013703 0.000000 -0.007666 0.000000
# 4 0.000000 0.000000 0.000000 -0.033399 0.000000 0.012918
# 5 0.004099 0.000814 -0.007666 0.000000 0.045255 0.000000
# 6 0.000000 0.000000 0.000000 0.012918 0.000000 0.038588
#
#
# Mechanical properties :
#
#
# Convention : Reuss Voigt Hill
#
# Bulk Modulus (GPa) = 62.25622 70.45897 66.35760
# Shear Modulus (GPa) = 42.98994 17.78595 30.38795
#
# Velocity S-wave (km/s) = 4.88670 3.14319 4.10850
# Velocity P-wave (km/s) = 8.14994 7.23264 7.70496
#
# Compressibility (1/GPa) = 0.01606265
#
# Stress axis : x y z
#
# Youngs Moduli (GPa) = 66.14130 105.67559 72.97518
#
# Poissons Ratio (x) = 0.37949 0.22284
# Poissons Ratio (y) = 0.23752 0.32596
# Poissons Ratio (z) = 0.20197 0.47202
#
# Static dielectric constant tensor:
#      x y z
#    x 3.253100 0.000000 0.283810 
#    y 0.000000 3.549750 0.000000 
#    z 0.283810 0.000000 3.489750 
# 
# 
# High freq. dielectric constant tensor:
#      x y z
#    x 1.667700 0.000000 0.015010 
#    y 0.000000 1.710580 0.000000 
#    z 0.015010 0.000000 1.700340 
# 
# From -- ./inp_files/137266.got.cif
#   From: 2010.06.25/outbox.cif.g09.slc.cpg/sg15_69_cif.got.tgz:137266.got - 2010.06.28 07:06:18.
