data_PCOD8130412
_publ_section_title
;
Structure prediction by ZEFSAII (Michael W. Deem and Ramdas Pophale) SiO2 
 PCOD8130412
Probable space group: C 2/C
;
_chemical_formula_sum "Si O2"
_cell_formula_units_Z 64
_cell_length_a 8.614606
_cell_length_b 19.149613
_cell_length_c 26.513122
_cell_angle_alpha 90.000000
_cell_angle_beta 131.265270
_cell_angle_gamma 90.000000
_cell_volume 3287.608351
_symmetry_space_group_name_H-M "C 2/C"
_symmetry_group_IT_number 15
_symmetry_cell_setting 'monoclinic'
loop_
_space_group_symop_operation_xyz
x,y,z
-x,y,1/2-z
-x,-y,-z
x,-y,1/2+z
1/2+x,1/2+y,z
1/2-x,1/2+y,1/2-z
1/2-x,1/2-y,-z
1/2+x,1/2-y,1/2+z
loop_
_atom_site_type_symbol
_atom_site_label
_atom_site_fract_x
_atom_site_fract_y
_atom_site_fract_z
Si Si1 0.673704 0.463867 0.636233
Si Si2 0.266971 0.466426 0.601092
Si Si3 0.820417 0.912860 0.971278
Si Si4 0.743915 0.104680 0.893941
Si Si5 0.107515 0.550788 0.965063
Si Si6 0.580181 0.248297 0.823040
Si Si7 0.887234 0.645334 0.361589
Si Si8 0.297213 0.833440 0.726655
O O1 0.500837 0.487455 0.639321
O O2 0.587944 0.435141 0.563910
O O3 0.802747 0.534194 0.648989
O O4 0.796509 0.402312 0.690527
O O5 0.186325 0.420426 0.535734
O O6 0.242370 0.420623 0.645763
O O7 0.136780 0.536995 0.580840
O O8 0.633783 0.857654 0.924035
O O9 0.728551 0.978745 0.980568
O O10 0.009233 0.883178 0.045446
O O11 0.639780 0.103730 0.926648
O O12 0.625136 0.167964 0.842950
O O13 0.500000 0.255559 0.750000
O O14 0.800154 0.287608 0.872817
O O15 0.408358 0.285036 0.822807
O O16 0.833958 0.644092 0.291622
O O17 0.500000 0.791148 0.750000
#
# Coordination Sequence:
#
# PCOD8130412 Si02
#       8
#     8   8   8   8   8   8   8   8
#     4  11  19  35  64  92 115 150 204 247 294 349
#     4  10  17  32  58  89 118 151 192 250 289 348
#     4  10  18  34  60  91 118 155 197 249 293 358
#     4  11  21  38  59  91 129 156 189 243 314 366
#     4   9  18  32  55  86 128 156 182 239 318 345
#     4  10  24  43  59  81 124 162 190 247 307 356
#     4  10  21  37  60  88 116 154 208 245 291 348
#     4  11  22  41  66  84 109 161 213 253 285 356
#
# _framework density 19.467039
#
# number of rings (size 3 to 8) (size 9 to 14) (size 15 to 20)
#    0.000    1.750    5.000    0.750    0.000    1.000 
#    0.000    5.000    0.000    0.000    0.000    0.000 
#    0.000    0.000    0.000    0.000    0.000    0.000 
#
# Total GULP energy -396460.490690 kJ/mol
# GULP energy per Si atom -12389.390334 kJ/mol
# Density = 1.942273 g / cm^3
# Si number density = 19.467039 Si / 1000 Ang^3
#
#
#
# Elastic Constant Matrix: (Units=GPa)
#
#
# Indices 1 2 3 4 5 6 
#
# 1 117.4965 26.1386 25.3345 0.0001 7.8758 0.0000
# 2 26.1386 80.5560 23.6423 0.0000 7.3819 0.0000
# 3 25.3345 23.6423 27.6143 0.0001 3.2784 0.0000
# 4 0.0001 0.0000 0.0001 28.8887 0.0001 1.2520
# 5 7.8758 7.3819 3.2784 0.0001 30.6751 0.0000
# 6 0.0000 0.0000 0.0000 1.2520 0.0000 14.8382
#
#
#
# Elastic Compliance Matrix: (Units=1/GPa)
#
#
# Indices 1 2 3 4 5 6 
#
# 1 0.010725 -0.000668 -0.009075 0.000000 -0.001623 0.000000
# 2 -0.000668 0.016814 -0.013494 0.000000 -0.002433 0.000000
# 3 -0.009075 -0.013494 0.056142 0.000000 -0.000423 0.000000
# 4 0.000000 0.000000 0.000000 0.034743 0.000000 -0.002931
# 5 -0.001623 -0.002433 -0.000423 0.000000 0.033647 0.000000
# 6 0.000000 0.000000 0.000000 -0.002931 0.000000 0.067641
#
#
# Mechanical properties :
#
#
# Convention : Reuss Voigt Hill
#
# Bulk Modulus (GPa) = 26.87638 41.76638 34.32138
# Shear Modulus (GPa) = 17.94773 24.91715 21.43244
#
# Velocity S-wave (km/s) = 3.03966 3.58154 3.32167
# Velocity P-wave (km/s) = 5.11424 6.21327 5.69035
#
# Compressibility (1/GPa) = 0.03720739
#
# Stress axis : x y z
#
# Youngs Moduli (GPa) = 93.23995 59.47589 17.81202
#
# Poissons Ratio (x) = 0.03972 0.16165
# Poissons Ratio (y) = 0.06227 0.24035
# Poissons Ratio (z) = 0.84616 0.80254
#
# Static dielectric constant tensor:
#      x y z
#    x 4.065760 0.000000 0.050570 
#    y 0.000000 3.208800 0.000000 
#    z 0.050570 0.000000 3.499990 
# 
# 
# High freq. dielectric constant tensor:
#      x y z
#    x 1.786670 0.000000 -0.003290 
#    y 0.000000 1.708260 0.000000 
#    z -0.003290 0.000000 1.746870 
# 
# From -- ./inp_files/290010.got.cif
#   From: 2010.06.25/outbox.cif.g09.slc.cpg/sg15_146_cif.got.tgz:290010.got - 2010.06.28 07:06:18.
