data_PCOD8130461
_publ_section_title
;
Structure prediction by ZEFSAII (Michael W. Deem and Ramdas Pophale) SiO2 
 PCOD8130461
Probable space group: C 2/C
;
_chemical_formula_sum "Si O2"
_cell_formula_units_Z 60
_cell_length_a 25.250578
_cell_length_b 7.779558
_cell_length_c 16.914094
_cell_angle_alpha 90.000000
_cell_angle_beta 56.645965
_cell_angle_gamma 90.000000
_cell_volume 2775.312293
_symmetry_space_group_name_H-M "C 2/C"
_symmetry_group_IT_number 15
_symmetry_cell_setting 'monoclinic'
loop_
_space_group_symop_operation_xyz
x,y,z
-x,y,1/2-z
-x,-y,-z
x,-y,1/2+z
1/2+x,1/2+y,z
1/2-x,1/2+y,1/2-z
1/2-x,1/2-y,-z
1/2+x,1/2-y,1/2+z
loop_
_atom_site_type_symbol
_atom_site_label
_atom_site_fract_x
_atom_site_fract_y
_atom_site_fract_z
Si Si1 0.034906 0.550185 0.378027
Si Si2 0.915891 0.640590 0.402228
Si Si3 0.695949 0.637921 0.727143
Si Si4 0.087099 0.749380 0.927328
Si Si5 0.949435 0.934083 0.128465
Si Si6 0.160936 0.457751 0.670055
Si Si7 0.288510 0.739924 0.281756
Si Si8 0.000000 0.098772 0.750000
O O1 0.045237 0.422473 0.443284
O O2 0.017120 0.749850 0.419075
O O3 0.097084 0.540933 0.274065
O O4 0.972434 0.504401 0.377165
O O5 0.889231 0.737274 0.502015
O O6 0.858014 0.541388 0.406972
O O7 0.939693 0.782968 0.320224
O O8 0.623287 0.612850 0.805973
O O9 0.703204 0.788631 0.655913
O O10 0.724596 0.453843 0.675173
O O11 0.728497 0.698207 0.781390
O O12 0.148985 0.758294 0.823033
O O13 0.043790 0.919144 0.944550
O O14 0.977776 0.006988 0.189722
O O15 0.201668 0.629315 0.653319
#
# Coordination Sequence:
#
# PCOD8130461 Si02
#       8
#     8   8   8   8   8   8   8   4
#     4   9  18  35  55  77 107 149 175 211 265 322
#     4  11  18  36  57  79 113 146 168 226 269 315
#     4  10  17  33  57  77 102 137 186 217 260 319
#     4  10  22  34  53  86 110 134 187 219 268 313
#     4   9  19  36  54  79 108 141 180 220 261 323
#     4  10  18  34  54  79 107 137 182 220 261 319
#     4  10  20  33  56  82  98 142 182 225 260 316
#     4  10  18  34  58  78 108 152 176 206 274 314
#
# _framework density 21.619188999999999
#
# number of rings (size 3 to 8) (size 9 to 14) (size 15 to 20)
#    0.000    2.133    5.333    0.400    0.000    2.133 
#    7.200    2.000    0.000    0.800    0.000    0.000 
#    0.000    0.000    0.000    0.000    0.000    0.000 
#
# Total GULP energy -371798.320630 kJ/mol
# GULP energy per Si atom -12393.277354 kJ/mol
# Density = 2.156998 g / cm^3
# Si number density = 21.619189 Si / 1000 Ang^3
#
#
#
# Elastic Constant Matrix: (Units=GPa)
#
#
# Indices 1 2 3 4 5 6 
#
# 1 117.1964 46.5458 17.0966 -0.0015 45.3007 -0.0020
# 2 46.5458 129.7683 35.9472 -0.0034 30.2866 -0.0012
# 3 17.0966 35.9472 61.0550 0.0001 36.6639 -0.0004
# 4 -0.0015 -0.0034 0.0001 24.9437 -0.0006 6.6728
# 5 45.3007 30.2866 36.6639 -0.0006 41.3396 -0.0006
# 6 -0.0020 -0.0012 -0.0004 6.6728 -0.0006 26.0801
#
#
#
# Elastic Compliance Matrix: (Units=1/GPa)
#
#
# Indices 1 2 3 4 5 6 
#
# 1 0.022325 -0.004416 0.019461 -0.000001 -0.038489 0.000001
# 2 -0.004416 0.010426 -0.006891 0.000001 0.003312 0.000000
# 3 0.019461 -0.006891 0.052975 -0.000002 -0.063261 0.000001
# 4 -0.000001 0.000001 -0.000002 0.043036 0.000002 -0.011011
# 5 -0.038489 0.003312 -0.063261 0.000002 0.120047 -0.000001
# 6 0.000001 0.000000 0.000001 -0.011011 -0.000001 0.041161
#
#
# Mechanical properties :
#
#
# Convention : Reuss Voigt Hill
#
# Bulk Modulus (GPa) = 9.80050 56.35542 33.07796
# Shear Modulus (GPa) = 16.25120 32.36803 24.30962
#
# Velocity S-wave (km/s) = 2.74469 3.87355 3.35691
# Velocity P-wave (km/s) = 3.81936 6.79189 5.50987
#
# Compressibility (1/GPa) = 0.10203563
#
# Stress axis : x y z
#
# Youngs Moduli (GPa) = 44.79315 95.91713 18.87697
#
# Poissons Ratio (x) = 0.42353 -0.36737
# Poissons Ratio (y) = 0.19779 0.13007
# Poissons Ratio (z) = -0.87174 0.66092
#
# Static dielectric constant tensor:
#      x y z
#    x 4.057670 -0.000010 0.251340 
#    y -0.000010 4.504640 0.000000 
#    z 0.251340 0.000000 3.564430 
# 
# 
# High freq. dielectric constant tensor:
#      x y z
#    x 1.861040 0.000000 0.009730 
#    y 0.000000 1.840950 0.000000 
#    z 0.009730 0.000000 1.824010 
# 
# From -- ./inp_files/171864.got.cif
#   From: 2010.06.25/outbox.cif.g09.slc.cpg/sg15_86_cif.got.tgz:171864.got - 2010.06.28 07:06:18.
