data_PCOD8130659
_publ_section_title
;
Structure prediction by ZEFSAII (Michael W. Deem and Ramdas Pophale) SiO2 
 PCOD8130659
Probable space group: C 2/C
;
_chemical_formula_sum "Si O2"
_cell_formula_units_Z 48
_cell_length_a 7.493818
_cell_length_b 12.001655
_cell_length_c 22.499554
_cell_angle_alpha 90.000000
_cell_angle_beta 106.183323
_cell_angle_gamma 90.000000
_cell_volume 1943.385543
_symmetry_space_group_name_H-M "C 2/C"
_symmetry_group_IT_number 15
_symmetry_cell_setting 'monoclinic'
loop_
_space_group_symop_operation_xyz
x,y,z
-x,y,1/2-z
-x,-y,-z
x,-y,1/2+z
1/2+x,1/2+y,z
1/2-x,1/2+y,1/2-z
1/2-x,1/2-y,-z
1/2+x,1/2-y,1/2+z
loop_
_atom_site_type_symbol
_atom_site_label
_atom_site_fract_x
_atom_site_fract_y
_atom_site_fract_z
Si Si1 0.773746 0.629401 0.674683
Si Si2 0.218603 0.865150 0.866265
Si Si3 0.601451 0.155833 0.001224
Si Si4 0.796172 0.410655 0.307356
Si Si5 0.314661 0.500867 0.943483
Si Si6 0.353921 0.278445 0.897165
O O1 0.757638 0.763045 0.677084
O O2 0.706486 0.588721 0.733128
O O3 0.646265 0.581380 0.609824
O O4 0.981253 0.587832 0.677970
O O5 0.393035 0.867281 0.928031
O O6 0.029357 0.843280 0.884710
O O7 0.213015 0.980897 0.830868
O O8 0.750000 0.250000 0.000000
O O9 0.405314 0.198325 0.957575
O O10 0.648512 0.043421 0.969578
O O11 0.742304 0.297610 0.339068
O O12 0.238352 0.380901 0.913620
O O13 0.500000 0.500000 0.000000
#
# Coordination Sequence:
#
# PCOD8130659 Si02
#       6
#     8   8   8   8   8   8
#     4  10  22  40  60  87 117 164 197 245 305 344
#     4  10  19  38  64  84 119 157 193 247 297 347
#     4  10  17  36  58  91 116 155 194 236 306 347
#     4  10  22  40  61  87 120 159 207 240 293 369
#     4  12  19  36  66  89 123 155 196 255 299 353
#     4  10  21  38  62  89 118 157 200 241 304 359
#
# _framework density 24.699165000000001
#
# number of rings (size 3 to 8) (size 9 to 14) (size 15 to 20)
#    0.000    1.667    8.333    0.000    2.333    0.667 
#    0.000    2.500    0.000    0.000    0.000    0.000 
#    0.000    0.000    0.000    0.000    0.000    0.000 
#
# Total GULP energy -297472.255578 kJ/mol
# GULP energy per Si atom -12394.677316 kJ/mol
# Density = 2.464295 g / cm^3
# Si number density = 24.699165 Si / 1000 Ang^3
#
#
#
# Elastic Constant Matrix: (Units=GPa)
#
#
# Indices 1 2 3 4 5 6 
#
# 1 19.1934 26.3924 12.8772 0.0000 -5.7857 0.0000
# 2 26.3924 168.9676 53.8913 0.0000 -9.5171 0.0000
# 3 12.8772 53.8913 163.0092 0.0000 -8.2750 0.0000
# 4 0.0000 0.0000 0.0000 49.3829 0.0000 -10.4182
# 5 -5.7857 -9.5171 -8.2750 0.0000 19.4497 0.0000
# 6 0.0000 0.0000 0.0000 -10.4182 0.0000 30.4683
#
#
#
# Elastic Compliance Matrix: (Units=1/GPa)
#
#
# Indices 1 2 3 4 5 6 
#
# 1 0.071328 -0.009738 -0.001615 0.000000 0.015766 0.000000
# 2 -0.009738 0.008053 -0.001881 0.000000 0.000243 0.000000
# 3 -0.001615 -0.001881 0.006963 0.000000 0.001562 0.000000
# 4 0.000000 0.000000 0.000000 0.021824 0.000000 0.007462
# 5 0.015766 0.000243 0.001562 0.000000 0.056888 0.000000
# 6 0.000000 0.000000 0.000000 0.007462 0.000000 0.035373
#
#
# Mechanical properties :
#
#
# Convention : Reuss Voigt Hill
#
# Bulk Modulus (GPa) = 16.70096 59.72130 38.21113
# Shear Modulus (GPa) = 20.25471 37.06078 28.65774
#
# Velocity S-wave (km/s) = 2.86677 3.87781 3.40997
# Velocity P-wave (km/s) = 4.21121 6.65446 5.56849
#
# Compressibility (1/GPa) = 0.05987681
#
# Stress axis : x y z
#
# Youngs Moduli (GPa) = 14.01970 124.17838 143.61136
#
# Poissons Ratio (x) = 1.20928 0.23191
# Poissons Ratio (y) = 0.13653 0.27009
# Poissons Ratio (z) = 0.02264 0.23354
#
# Static dielectric constant tensor:
#      x y z
#    x 3.815240 0.000000 -0.052080 
#    y 0.000000 4.808280 0.000000 
#    z -0.052080 0.000000 4.980520 
# 
# 
# High freq. dielectric constant tensor:
#      x y z
#    x 1.934710 0.000000 -0.006860 
#    y 0.000000 1.997050 0.000000 
#    z -0.006860 0.000000 1.995730 
# 
# From -- ./inp_files/263563.got.cif
#   From: 2010.06.25/outbox.cif.g09.slc.cpg/sg15_132_cif.got.tgz:263563.got - 2010.06.28 07:06:18.
