data_PCOD8130721
_publ_section_title
;
Structure prediction by ZEFSAII (Michael W. Deem and Ramdas Pophale) SiO2 
 PCOD8130721
Probable space group: C 2/C
;
_chemical_formula_sum "Si O2"
_cell_formula_units_Z 40
_cell_length_a 22.187875
_cell_length_b 7.496927
_cell_length_c 18.148479
_cell_angle_alpha 90.000000
_cell_angle_beta 140.492699
_cell_angle_gamma 90.000000
_cell_volume 1920.511340
_symmetry_space_group_name_H-M "C 2/C"
_symmetry_group_IT_number 15
_symmetry_cell_setting 'monoclinic'
loop_
_space_group_symop_operation_xyz
x,y,z
-x,y,1/2-z
-x,-y,-z
x,-y,1/2+z
1/2+x,1/2+y,z
1/2-x,1/2+y,1/2-z
1/2-x,1/2-y,-z
1/2+x,1/2-y,1/2+z
loop_
_atom_site_type_symbol
_atom_site_label
_atom_site_fract_x
_atom_site_fract_y
_atom_site_fract_z
Si Si1 0.574257 0.993822 0.174913
Si Si2 0.594290 0.537216 0.045475
Si Si3 0.377328 0.861657 0.939930
Si Si4 0.971048 0.150343 0.804958
Si Si5 0.670902 0.638079 0.263519
O O1 0.606174 0.074846 0.127413
O O2 0.577049 0.154320 0.236573
O O3 0.645011 0.836949 0.268205
O O4 0.467272 0.916985 0.073081
O O5 0.641495 0.349645 0.071750
O O6 0.659638 0.650560 0.163098
O O7 0.500000 0.500000 0.000000
O O8 0.566393 0.649151 0.946010
O O9 0.277799 0.930122 0.880244
O O10 0.000000 0.103219 0.750000
O O11 0.897940 0.002323 0.763414
#
# Coordination Sequence:
#
# PCOD8130721 Si02
#       5
#     8   8   8   8   8
#     4  11  21  38  64  95 125 159 205 259 310 364
#     4  10  17  39  61  87 122 158 200 255 304 349
#     4  11  20  37  68  98 123 152 208 270 307 359
#     4  11  24  43  61  87 131 173 203 252 316 371
#     4  11  22  40  67  95 122 162 210 260 310 361
#
# _framework density 20.827787000000001
#
# number of rings (size 3 to 8) (size 9 to 14) (size 15 to 20)
#    0.000    1.200    8.000    2.400    0.000    0.800 
#    3.600    2.000    0.000    0.000    0.000    0.000 
#    0.000    0.000    0.000    0.000    0.000    0.000 
#
# Total GULP energy -247881.727910 kJ/mol
# GULP energy per Si atom -12394.086396 kJ/mol
# Density = 2.078038 g / cm^3
# Si number density = 20.827787 Si / 1000 Ang^3
#
#
#
# Elastic Constant Matrix: (Units=GPa)
#
#
# Indices 1 2 3 4 5 6 
#
# 1 95.8873 32.5927 52.8179 0.0000 6.4882 0.0000
# 2 32.5927 124.8888 15.0011 0.0000 3.9993 0.0000
# 3 52.8179 15.0011 61.3913 0.0000 16.6531 0.0000
# 4 0.0000 0.0000 0.0000 14.4423 0.0000 3.1908
# 5 6.4882 3.9993 16.6531 0.0000 34.9927 0.0000
# 6 0.0000 0.0000 0.0000 3.1908 0.0000 25.1818
#
#
#
# Elastic Compliance Matrix: (Units=1/GPa)
#
#
# Indices 1 2 3 4 5 6 
#
# 1 0.022105 -0.003587 -0.019682 0.000000 0.005678 0.000000
# 2 -0.003587 0.008831 0.001173 0.000000 -0.000902 0.000000
# 3 -0.019682 0.001173 0.036723 0.000000 -0.013961 0.000000
# 4 0.000000 0.000000 0.000000 0.071235 0.000000 -0.009026
# 5 0.005678 -0.000902 -0.013961 0.000000 0.034272 0.000000
# 6 0.000000 0.000000 0.000000 -0.009026 0.000000 0.040855
#
#
# Mechanical properties :
#
#
# Convention : Reuss Voigt Hill
#
# Bulk Modulus (GPa) = 42.61252 53.66562 48.13907
# Shear Modulus (GPa) = 18.79439 27.04041 22.91740
#
# Velocity S-wave (km/s) = 3.00721 3.60708 3.32072
# Velocity P-wave (km/s) = 5.70628 6.57041 6.15353
#
# Compressibility (1/GPa) = 0.02346728
#
# Stress axis : x y z
#
# Youngs Moduli (GPa) = 45.23776 113.23514 27.23083
#
# Poissons Ratio (x) = 0.40613 0.53596
# Poissons Ratio (y) = 0.16225 -0.03193
# Poissons Ratio (z) = 0.89038 -0.13278
#
# Static dielectric constant tensor:
#      x y z
#    x 3.519640 0.000000 0.084960 
#    y 0.000000 3.889060 0.000000 
#    z 0.084960 0.000000 4.387710 
# 
# 
# High freq. dielectric constant tensor:
#      x y z
#    x 1.782590 0.000000 0.028420 
#    y 0.000000 1.832440 0.000000 
#    z 0.028420 0.000000 1.789020 
# 
# From -- ./inp_files/214143.got.cif
#   From: 2010.06.25/outbox.cif.g09.slc.cpg/sg15_108_cif.got.tgz:214143.got - 2010.06.28 07:06:18.
