data_PCOD8130625
_publ_section_title
;
Structure prediction by ZEFSAII (Michael W. Deem and Ramdas Pophale) SiO2 
 PCOD8130625
Probable space group: C 2/C
;
_chemical_formula_sum "Si O2"
_cell_formula_units_Z 48
_cell_length_a 28.157619
_cell_length_b 12.380171
_cell_length_c 13.477623
_cell_angle_alpha 90.000000
_cell_angle_beta 154.616263
_cell_angle_gamma 90.000000
_cell_volume 2014.038608
_symmetry_space_group_name_H-M "C 2/C"
_symmetry_group_IT_number 15
_symmetry_cell_setting 'monoclinic'
loop_
_space_group_symop_operation_xyz
x,y,z
-x,y,1/2-z
-x,-y,-z
x,-y,1/2+z
1/2+x,1/2+y,z
1/2-x,1/2+y,1/2-z
1/2-x,1/2-y,-z
1/2+x,1/2-y,1/2+z
loop_
_atom_site_type_symbol
_atom_site_label
_atom_site_fract_x
_atom_site_fract_y
_atom_site_fract_z
Si Si1 0.618257 0.231530 0.527747
Si Si2 0.209732 0.714651 0.317432
Si Si3 0.183633 0.851273 0.835746
Si Si4 0.979184 0.804936 0.815884
Si Si5 0.388440 0.927705 0.140674
Si Si6 0.882802 0.501703 0.909966
O O1 0.709830 0.242263 0.616042
O O2 0.624732 0.330721 0.617438
O O3 0.644178 0.128700 0.650621
O O4 0.500000 0.223960 0.250000
O O5 0.250000 0.750000 0.500000
O O6 0.201605 0.583275 0.299413
O O7 0.091124 0.769863 0.080124
O O8 0.089681 0.882977 0.739320
O O9 0.250000 0.750000 0.000000
O O10 0.277022 0.945122 0.996756
O O11 0.906271 0.699170 0.651106
O O12 0.000000 0.866021 0.750000
O O13 0.492690 0.977821 0.396083
O O14 0.375950 0.987727 0.014732
#
# Coordination Sequence:
#
# PCOD8130625 Si02
#       6
#     8   8   8   8   8   8
#     4  12  23  38  64 100 128 165 219 274 320 386
#     4  11  22  40  59  93 137 176 203 272 334 381
#     4  10  20  35  61  97 117 171 216 255 318 389
#     4  10  17  35  62  85 116 170 214 248 309 388
#     4   9  15  36  62  85 124 156 201 259 309 374
#     4  10  19  39  64  93 128 166 208 270 322 377
#
# _framework density 23.832711
#
# number of rings (size 3 to 8) (size 9 to 14) (size 15 to 20)
#    0.000    1.667    6.667    2.000    0.000    0.000 
#    6.000    5.000    0.000    8.000    0.000    0.000 
#    0.000    0.000    0.000    0.000    0.000    0.000 
#
# Total GULP energy -297390.750931 kJ/mol
# GULP energy per Si atom -12391.281289 kJ/mol
# Density = 2.377847 g / cm^3
# Si number density = 23.832711 Si / 1000 Ang^3
#
#
#
# Elastic Constant Matrix: (Units=GPa)
#
#
# Indices 1 2 3 4 5 6 
#
# 1 196.5410 30.8338 59.3393 0.0000 20.0264 0.0000
# 2 30.8338 57.8658 26.7853 0.0000 10.1103 0.0000
# 3 59.3393 26.7853 81.8396 0.0000 3.9133 0.0000
# 4 0.0000 0.0000 0.0000 20.6574 0.0000 -6.5900
# 5 20.0264 10.1103 3.9133 0.0000 47.5695 0.0000
# 6 0.0000 0.0000 0.0000 -6.5900 0.0000 18.3485
#
#
#
# Elastic Compliance Matrix: (Units=1/GPa)
#
#
# Indices 1 2 3 4 5 6 
#
# 1 0.006856 -0.001186 -0.004474 0.000000 -0.002266 0.000000
# 2 -0.001186 0.021278 -0.005935 0.000000 -0.003535 0.000000
# 3 -0.004474 -0.005935 0.017324 0.000000 0.001720 0.000000
# 4 0.000000 0.000000 0.000000 0.054673 0.000000 0.019636
# 5 -0.002266 -0.003535 0.001720 0.000000 0.022586 0.000000
# 6 0.000000 0.000000 0.000000 0.019636 0.000000 0.061553
#
#
# Mechanical properties :
#
#
# Convention : Reuss Voigt Hill
#
# Bulk Modulus (GPa) = 44.91073 63.35146 54.13110
# Shear Modulus (GPa) = 23.26851 31.93429 27.60140
#
# Velocity S-wave (km/s) = 3.12801 3.66448 3.40682
# Velocity P-wave (km/s) = 5.65075 6.67413 6.18365
#
# Compressibility (1/GPa) = 0.02226639
#
# Stress axis : x y z
#
# Youngs Moduli (GPa) = 145.86011 46.99625 57.72486
#
# Poissons Ratio (x) = 0.05574 0.25829
# Poissons Ratio (y) = 0.17300 0.34261
# Poissons Ratio (z) = 0.65264 0.27893
#
# Static dielectric constant tensor:
#      x y z
#    x 5.236340 0.000000 0.418240 
#    y 0.000000 4.048800 0.000000 
#    z 0.418240 0.000000 4.542330 
# 
# 
# High freq. dielectric constant tensor:
#      x y z
#    x 1.970910 0.000000 -0.003630 
#    y 0.000000 1.888890 0.000000 
#    z -0.003630 0.000000 1.947260 
# 
# From -- ./inp_files/123606.got.cif
#   From: 2010.06.25/outbox.cif.g09.slc.cpg/sg15_62_cif.got.tgz:123606.got - 2010.06.28 07:06:18.
