data_PCOD8130162
_publ_section_title
;
Structure prediction by ZEFSAII (Michael W. Deem and Ramdas Pophale) SiO2 
 PCOD8130162
Probable space group: C 2/C
;
_chemical_formula_sum "Si O2"
_cell_formula_units_Z 60
_cell_length_a 23.424820
_cell_length_b 9.621840
_cell_length_c 16.737897
_cell_angle_alpha 90.000000
_cell_angle_beta 130.440777
_cell_angle_gamma 90.000000
_cell_volume 2871.202329
_symmetry_space_group_name_H-M "C 2/C"
_symmetry_group_IT_number 15
_symmetry_cell_setting 'monoclinic'
loop_
_space_group_symop_operation_xyz
x,y,z
-x,y,1/2-z
-x,-y,-z
x,-y,1/2+z
1/2+x,1/2+y,z
1/2-x,1/2+y,1/2-z
1/2-x,1/2-y,-z
1/2+x,1/2-y,1/2+z
loop_
_atom_site_type_symbol
_atom_site_label
_atom_site_fract_x
_atom_site_fract_y
_atom_site_fract_z
Si Si1 0.427555 0.666264 0.640340
Si Si2 0.570149 0.841201 0.006771
Si Si3 0.830648 0.316265 0.817531
Si Si4 0.000000 0.635154 0.750000
Si Si5 0.963061 0.654778 0.549323
Si Si6 0.230428 0.088519 0.980236
Si Si7 0.763065 0.431587 0.331741
Si Si8 0.875983 0.571439 0.194977
O O1 0.500000 0.597145 0.750000
O O2 0.450908 0.718069 0.573560
O O3 0.356004 0.561530 0.570581
O O4 0.400628 0.797904 0.665927
O O5 0.658987 0.848737 0.099089
O O6 0.540051 0.987075 0.944395
O O7 0.533204 0.802359 0.057997
O O8 0.886377 0.288631 0.941725
O O9 0.766078 0.424779 0.785238
O O10 0.798346 0.169054 0.762313
O O11 0.878772 0.387902 0.790654
O O12 0.970012 0.721164 0.645381
O O13 0.932360 0.551359 0.728508
O O14 0.240055 0.028199 0.900422
O O15 0.250000 0.250000 0.000000
O O16 0.291420 0.019172 0.095127
#
# Coordination Sequence:
#
# PCOD8130162 Si02
#       8
#     8   8   8   4   8   8   8   8
#     4  11  16  25  47  77 109 134 175 235 281 322
#     4  10  17  30  47  80 109 135 182 231 281 320
#     4  11  22  34  54  82 119 147 189 227 284 331
#     4  12  18  30  50  78 114 144 178 228 298 328
#     4  10  20  29  48  79 110 144 176 236 278 336
#     4  10  18  30  50  78 105 147 186 233 281 321
#     4  11  20  35  53  81 117 149 186 236 275 335
#     4  11  17  29  50  79 110 141 177 234 286 325
#
# _framework density 20.897169000000002
#
# number of rings (size 3 to 8) (size 9 to 14) (size 15 to 20)
#    0.000    1.333    7.333    4.000    0.000    0.000 
#    0.000    0.000    0.000    8.000    0.000    0.000 
#    2.000    0.000    0.000    0.000    0.000    0.000 
#
# Total GULP energy -371879.452294 kJ/mol
# GULP energy per Si atom -12395.981743 kJ/mol
# Density = 2.084961 g / cm^3
# Si number density = 20.897169 Si / 1000 Ang^3
#
#
#
# Elastic Constant Matrix: (Units=GPa)
#
#
# Indices 1 2 3 4 5 6 
#
# 1 111.0677 6.7783 52.8441 0.0000 -1.9662 0.0000
# 2 6.7783 8.7708 9.3740 0.0000 -0.7695 0.0000
# 3 52.8441 9.3740 152.7793 0.0000 -2.6314 0.0000
# 4 0.0000 0.0000 0.0000 12.0159 0.0000 1.5320
# 5 -1.9662 -0.7695 -2.6314 0.0000 53.4468 0.0000
# 6 0.0000 0.0000 0.0000 1.5320 0.0000 9.9719
#
#
#
# Elastic Compliance Matrix: (Units=1/GPa)
#
#
# Indices 1 2 3 4 5 6 
#
# 1 0.010959 -0.004716 -0.003498 0.000000 0.000163 0.000000
# 2 -0.004716 0.124148 -0.005963 0.000000 0.001320 0.000000
# 3 -0.003498 -0.005963 0.008124 0.000000 0.000185 0.000000
# 4 0.000000 0.000000 0.000000 0.084886 0.000000 -0.013041
# 5 0.000163 0.001320 0.000185 0.000000 0.018744 0.000000
# 6 0.000000 0.000000 0.000000 -0.013041 0.000000 0.102285
#
#
# Mechanical properties :
#
#
# Convention : Reuss Voigt Hill
#
# Bulk Modulus (GPa) = 8.70502 45.62341 27.16421
# Shear Modulus (GPa) = 12.02518 28.66168 20.34343
#
# Velocity S-wave (km/s) = 2.40145 3.70747 3.12348
# Velocity P-wave (km/s) = 3.44441 6.34089 5.10249
#
# Compressibility (1/GPa) = 0.11487630
#
# Stress axis : x y z
#
# Youngs Moduli (GPa) = 91.25232 8.05488 123.08499
#
# Poissons Ratio (x) = 0.03799 0.43058
# Poissons Ratio (y) = 0.43035 0.73400
# Poissons Ratio (z) = 0.31922 0.04803
#
# Static dielectric constant tensor:
#      x y z
#    x 4.285290 0.000000 0.291890 
#    y 0.000000 3.059990 0.000000 
#    z 0.291890 0.000000 4.661360 
# 
# 
# High freq. dielectric constant tensor:
#      x y z
#    x 1.831100 0.000000 0.002550 
#    y 0.000000 1.728340 0.000000 
#    z 0.002550 0.000000 1.840410 
# 
# From -- ./inp_files/173177.got.cif
#   From: 2010.06.25/outbox.cif.g09.slc.cpg/sg15_87_cif.got.tgz:173177.got - 2010.06.28 07:06:18.
