data_PCOD8130006
_publ_section_title
;
Structure prediction by ZEFSAII (Michael W. Deem and Ramdas Pophale) SiO2 
 PCOD8130006
Probable space group: C 2/C
;
_chemical_formula_sum "Si O2"
_cell_formula_units_Z 56
_cell_length_a 8.907585
_cell_length_b 18.534796
_cell_length_c 22.211374
_cell_angle_alpha 90.000000
_cell_angle_beta 50.893116
_cell_angle_gamma 90.000000
_cell_volume 2845.564883
_symmetry_space_group_name_H-M "C 2/C"
_symmetry_group_IT_number 15
_symmetry_cell_setting 'monoclinic'
loop_
_space_group_symop_operation_xyz
x,y,z
-x,y,1/2-z
-x,-y,-z
x,-y,1/2+z
1/2+x,1/2+y,z
1/2-x,1/2+y,1/2-z
1/2-x,1/2-y,-z
1/2+x,1/2-y,1/2+z
loop_
_atom_site_type_symbol
_atom_site_label
_atom_site_fract_x
_atom_site_fract_y
_atom_site_fract_z
Si Si1 0.605147 0.986111 0.305043
Si Si2 0.542044 0.334207 0.013392
Si Si3 0.791805 0.951382 0.138816
Si Si4 0.981109 0.905516 0.602028
Si Si5 0.993807 0.315196 0.917985
Si Si6 0.844778 0.460547 0.578577
Si Si7 0.644087 0.853484 0.761117
O O1 0.759406 0.950374 0.219821
O O2 0.407177 0.939464 0.348764
O O3 0.687192 0.991907 0.352378
O O4 0.558467 0.067332 0.296243
O O5 0.451106 0.391193 0.083255
O O6 0.475913 0.254535 0.048525
O O7 0.460117 0.351993 0.967243
O O8 0.774169 0.334580 0.955714
O O9 0.856911 0.031358 0.102205
O O10 0.147286 0.950791 0.592734
O O11 0.863742 0.858740 0.681428
O O12 0.077452 0.380792 0.933548
O O13 0.127995 0.304553 0.824790
O O14 0.000000 0.500000 0.500000
O O15 0.500000 0.816352 0.750000
#
# Coordination Sequence:
#
# PCOD8130006 Si02
#       7
#     8   8   8   8   8   8   8
#     4   9  18  34  56  85 113 143 186 246 289 337
#     4  11  21  37  58  83 110 154 198 238 290 353
#     4  10  18  34  59  84 108 148 196 236 283 352
#     4  11  20  33  63  87 110 154 197 236 294 353
#     4  10  23  38  55  79 118 151 193 244 289 343
#     4  11  22  37  57  87 122 149 186 246 297 345
#     4  10  16  36  59  81 107 144 197 244 280 347
#
# _framework density 19.679748
#
# number of rings (size 3 to 8) (size 9 to 14) (size 15 to 20)
#    0.000    1.714    4.286    3.000    0.000    5.714 
#    0.000    4.286    3.143    0.000    0.000    0.000 
#    0.000    0.000    0.000    0.000    0.000    0.000 
#
# Total GULP energy -347005.203140 kJ/mol
# GULP energy per Si atom -12393.042969 kJ/mol
# Density = 1.963496 g / cm^3
# Si number density = 19.679748 Si / 1000 Ang^3
#
#
#
# Elastic Constant Matrix: (Units=GPa)
#
#
# Indices 1 2 3 4 5 6 
#
# 1 89.4784 18.7388 58.4087 0.0023 10.8042 -0.0013
# 2 18.7388 66.3202 62.0796 0.0011 4.7656 -0.0009
# 3 58.4087 62.0796 159.0607 -0.0009 11.9228 -0.0007
# 4 0.0023 0.0011 -0.0009 -9.6036 -0.0007 19.2784
# 5 10.8042 4.7656 11.9228 -0.0007 27.3525 0.0005
# 6 -0.0013 -0.0009 -0.0007 19.2784 0.0005 10.9387
#
#
#
# Elastic Compliance Matrix: (Units=1/GPa)
#
#
# Indices 1 2 3 4 5 6 
#
# 1 0.015135 0.001469 -0.005855 0.000002 -0.003682 -0.000001
# 2 0.001469 0.023901 -0.009833 0.000002 -0.000458 -0.000001
# 3 -0.005855 -0.009833 0.012377 -0.000001 -0.001369 0.000001
# 4 0.000002 0.000002 -0.000001 -0.022946 -0.000002 0.040441
# 5 -0.003682 -0.000458 -0.001369 -0.000002 0.038691 0.000001
# 6 -0.000001 -0.000001 0.000001 0.040441 0.000001 0.020146
#
#
# Mechanical properties :
#
#
# Convention : Reuss Voigt Hill
#
# Bulk Modulus (GPa) = 43.52717 65.92375 54.72546
# Shear Modulus (GPa) = 40.51880 17.44634 28.98257
#
# Velocity S-wave (km/s) = 4.54244 2.98067 3.84175
# Velocity P-wave (km/s) = 7.04822 6.73920 6.89544
#
# Compressibility (1/GPa) = 0.02297415
#
# Stress axis : x y z
#
# Youngs Moduli (GPa) = 66.07306 41.83976 80.79306
#
# Poissons Ratio (x) = -0.06145 0.47303
# Poissons Ratio (y) = -0.09705 0.79445
# Poissons Ratio (z) = 0.38685 0.41142
#
# Static dielectric constant tensor:
#      x y z
#    x 3.540250 0.000000 0.132200 
#    y 0.000000 3.244140 0.000000 
#    z 0.132200 0.000000 3.955890 
# 
# 
# High freq. dielectric constant tensor:
#      x y z
#    x 1.756650 0.000000 0.001720 
#    y 0.000000 1.730060 0.000000 
#    z 0.001720 0.000000 1.785780 
# 
# From -- ./inp_files/233771.got.cif
#   From: 2010.06.25/outbox.cif.g09.slc.cpg/sg15_117_cif.got.tgz:233771.got - 2010.06.28 07:06:18.
