data_PCOD8130321
_publ_section_title
;
Structure prediction by ZEFSAII (Michael W. Deem and Ramdas Pophale) SiO2 
 PCOD8130321
Probable space group: C 2/C
;
_chemical_formula_sum "Si O2"
_cell_formula_units_Z 56
_cell_length_a 20.830714
_cell_length_b 8.985757
_cell_length_c 18.174024
_cell_angle_alpha 90.000000
_cell_angle_beta 90.000000
_cell_angle_gamma 90.000000
_cell_volume 3401.808981
_symmetry_space_group_name_H-M "C 2/C"
_symmetry_group_IT_number 15
_symmetry_cell_setting 'monoclinic'
loop_
_space_group_symop_operation_xyz
x,y,z
-x,y,1/2-z
-x,-y,-z
x,-y,1/2+z
1/2+x,1/2+y,z
1/2-x,1/2+y,1/2-z
1/2-x,1/2-y,-z
1/2+x,1/2-y,1/2+z
loop_
_atom_site_type_symbol
_atom_site_label
_atom_site_fract_x
_atom_site_fract_y
_atom_site_fract_z
Si Si1 0.430148 0.633772 0.442171
Si Si2 0.930148 0.133772 0.057829
Si Si3 0.837096 0.754459 0.050455
Si Si4 0.245034 0.500000 1.000000
Si Si5 0.424953 0.610442 0.834231
Si Si6 0.662904 0.254459 0.050455
Si Si7 0.575047 0.610442 0.834231
O O1 0.500000 0.712892 0.436375
O O2 0.433872 0.500000 0.500000
O O3 0.376904 0.747944 0.472676
O O4 0.411553 0.557404 0.364323
O O5 0.911553 0.057404 0.135677
O O6 0.876904 0.247944 0.027324
O O7 0.798553 0.600118 0.054444
O O8 0.884066 0.767349 0.120482
O O9 0.788509 0.894484 0.051172
O O10 0.288509 0.605516 0.948828
O O11 0.201447 0.600118 0.054444
O O12 0.384066 0.732651 0.879518
O O13 0.500000 0.650159 0.843760
O O14 0.403033 0.616535 0.750000
#
# Coordination Sequence:
#
# PCOD8130321 Si02
#       7
#     8   8   8   8   8   8   8
#     4   8  13  25  46  67  87 113 149 191 227 261
#     4   8  13  25  46  67  87 113 149 191 227 261
#     4  10  17  32  46  70  92 123 157 195 225 271
#     4  10  20  28  50  64  94 124 158 186 230 268
#     4   9  16  28  49  72  93 119 153 194 237 278
#     4  10  17  32  46  70  92 123 157 195 225 271
#     4   9  16  28  49  72  93 119 153 194 237 278
#
# _framework density 16.461829000000002
#
# number of rings (size 3 to 8) (size 9 to 14) (size 15 to 20)
#    0.000    2.857    4.286    2.571    0.000    0.000 
#    0.000    4.286    0.000    1.714    0.000    4.000 
#    0.000    0.000    0.000    0.000    0.000    0.000 
#
# Total GULP energy -346946.785897 kJ/mol
# GULP energy per Si atom -12390.956639 kJ/mol
# Density = 1.642436 g / cm^3
# Si number density = 16.461829 Si / 1000 Ang^3
#
#
#
# Elastic Constant Matrix: (Units=GPa)
#
#
# Indices 1 2 3 4 5 6 
#
# 1 98.3212 39.2577 47.7063 0.0000 0.0000 0.0000
# 2 39.2577 62.7576 28.6263 0.0000 0.0000 0.0000
# 3 47.7063 28.6263 107.8818 0.0000 0.0000 0.0000
# 4 0.0000 0.0000 0.0000 13.9488 0.0000 0.0000
# 5 0.0000 0.0000 0.0000 0.0000 19.0371 0.0000
# 6 0.0000 0.0000 0.0000 0.0000 0.0000 11.0931
#
#
#
# Elastic Compliance Matrix: (Units=1/GPa)
#
#
# Indices 1 2 3 4 5 6 
#
# 1 0.015528 -0.007488 -0.004880 0.000000 0.000000 0.000000
# 2 -0.007488 0.021739 -0.002457 0.000000 0.000000 0.000000
# 3 -0.004880 -0.002457 0.012079 0.000000 0.000000 0.000000
# 4 0.000000 0.000000 0.000000 0.071691 0.000000 0.000000
# 5 0.000000 0.000000 0.000000 0.000000 0.052529 0.000000
# 6 0.000000 0.000000 0.000000 0.000000 0.000000 0.090146
#
#
# Mechanical properties :
#
#
# Convention : Reuss Voigt Hill
#
# Bulk Modulus (GPa) = 50.76932 55.57124 53.17028
# Shear Modulus (GPa) = 16.67065 19.04047 17.85556
#
# Velocity S-wave (km/s) = 3.18572 3.40464 3.29700
# Velocity P-wave (km/s) = 6.66629 7.02042 6.84564
#
# Compressibility (1/GPa) = 0.01969693
#
# Stress axis : x y z
#
# Youngs Moduli (GPa) = 64.39907 46.00005 82.78578
#
# Poissons Ratio (x) = 0.34443 0.40398
# Poissons Ratio (y) = 0.48220 0.20343
# Poissons Ratio (z) = 0.31426 0.11304
#
# Static dielectric constant tensor:
#      x y z
#    x 3.523460 0.000000 0.000000 
#    y 0.000000 2.768680 0.000000 
#    z 0.000000 0.000000 3.174310 
# 
# 
# High freq. dielectric constant tensor:
#      x y z
#    x 1.654610 0.000000 0.000000 
#    y 0.000000 1.586660 0.000000 
#    z 0.000000 0.000000 1.603480 
# 
# From -- ./inp_files/217994.got.cif
#   From: 2010.06.25/outbox.cif.g09.slc.cpg/sg15_109_cif.got.tgz:217994.got - 2010.06.28 07:06:18.
