data_PCOD8130356
_publ_section_title
;
Structure prediction by ZEFSAII (Michael W. Deem and Ramdas Pophale) SiO2 
 PCOD8130356
Probable space group: C 2/C
;
_chemical_formula_sum "Si O2"
_cell_formula_units_Z 44
_cell_length_a 15.015458
_cell_length_b 20.034339
_cell_length_c 11.865693
_cell_angle_alpha 90.000000
_cell_angle_beta 139.579634
_cell_angle_gamma 90.000000
_cell_volume 2314.426467
_symmetry_space_group_name_H-M "C 2/C"
_symmetry_group_IT_number 15
_symmetry_cell_setting 'monoclinic'
loop_
_space_group_symop_operation_xyz
x,y,z
-x,y,1/2-z
-x,-y,-z
x,-y,1/2+z
1/2+x,1/2+y,z
1/2-x,1/2+y,1/2-z
1/2-x,1/2-y,-z
1/2+x,1/2-y,1/2+z
loop_
_atom_site_type_symbol
_atom_site_label
_atom_site_fract_x
_atom_site_fract_y
_atom_site_fract_z
Si Si1 0.136433 0.976087 0.191389
Si Si2 0.698571 0.757633 0.694434
Si Si3 0.060919 0.766949 0.421752
Si Si4 0.848307 0.129026 0.969417
Si Si5 0.500000 0.603513 0.750000
Si Si6 0.826811 0.115769 0.204924
O O1 0.107058 0.942717 0.285522
O O2 0.222431 0.043921 0.294213
O O3 0.211133 0.924633 0.178645
O O4 0.000000 0.000000 0.000000
O O5 0.539609 0.753175 0.573993
O O6 0.722225 0.699712 0.626110
O O7 0.734062 0.828224 0.673765
O O8 0.788451 0.742930 0.894565
O O9 0.071149 0.847625 0.411628
O O10 0.000000 0.731716 0.250000
O O11 0.797659 0.110912 0.044251
O O12 0.013634 0.132152 0.119011
#
# Coordination Sequence:
#
# PCOD8130356 Si02
#       6
#     8   8   8   8   4   8
#     4  10  17  32  52  81 115 144 189 243 284 331
#     4  12  19  39  53  85 122 148 194 230 286 345
#     4  10  22  34  57  84 114 150 187 233 292 330
#     4  10  19  35  53  83 114 152 189 234 285 336
#     4  10  18  34  54  84 112 146 188 246 288 320
#     4  10  21  32  56  85 116 151 189 235 292 333
#
# _framework density 19.011189999999999
#
# number of rings (size 3 to 8) (size 9 to 14) (size 15 to 20)
#    0.545    1.091    3.636    4.364    0.000    0.000 
#    0.000    0.000    0.000    1.091    0.000    2.545 
#    0.000    0.000    0.000    0.000    0.000    0.000 
#
# Total GULP energy -272611.406008 kJ/mol
# GULP energy per Si atom -12391.427546 kJ/mol
# Density = 1.896792 g / cm^3
# Si number density = 19.011190 Si / 1000 Ang^3
#
#
#
# Elastic Constant Matrix: (Units=GPa)
#
#
# Indices 1 2 3 4 5 6 
#
# 1 69.4322 45.9767 18.7678 0.0000 -26.1747 0.0000
# 2 45.9767 143.0258 31.7059 0.0000 -21.8867 0.0000
# 3 18.7678 31.7059 48.2782 0.0000 -15.7658 0.0000
# 4 0.0000 0.0000 0.0000 27.1694 0.0000 -5.0514
# 5 -26.1747 -21.8867 -15.7658 0.0000 27.3482 0.0000
# 6 0.0000 0.0000 0.0000 -5.0514 0.0000 38.9398
#
#
#
# Elastic Compliance Matrix: (Units=1/GPa)
#
#
# Indices 1 2 3 4 5 6 
#
# 1 0.025388 -0.005076 0.000090 0.000000 0.020288 0.000000
# 2 -0.005076 0.009620 -0.004209 0.000000 0.000414 0.000000
# 3 0.000090 -0.004209 0.027559 0.000000 0.012604 0.000000
# 4 0.000000 0.000000 0.000000 0.037716 0.000000 0.004893
# 5 0.020288 0.000414 0.012604 0.000000 0.063580 0.000000
# 6 0.000000 0.000000 0.000000 0.004893 0.000000 0.026315
#
#
# Mechanical properties :
#
#
# Convention : Reuss Voigt Hill
#
# Bulk Modulus (GPa) = 22.63740 50.40411 36.52075
# Shear Modulus (GPa) = 22.39193 29.64388 26.01791
#
# Velocity S-wave (km/s) = 3.43567 3.95306 3.70342
# Velocity P-wave (km/s) = 5.26039 6.88520 6.12690
#
# Compressibility (1/GPa) = 0.04417469
#
# Stress axis : x y z
#
# Youngs Moduli (GPa) = 39.38888 103.94987 36.28590
#
# Poissons Ratio (x) = 0.52770 -0.00325
# Poissons Ratio (y) = 0.19996 0.15274
# Poissons Ratio (z) = -0.00353 0.43755
#
# Static dielectric constant tensor:
#      x y z
#    x 3.141290 0.000000 -0.353980 
#    y 0.000000 3.756350 0.000000 
#    z -0.353980 0.000000 3.302000 
# 
# 
# High freq. dielectric constant tensor:
#      x y z
#    x 1.720830 0.000000 -0.046750 
#    y 0.000000 1.744650 0.000000 
#    z -0.046750 0.000000 1.710460 
# 
# From -- ./inp_files/99898.got.cif
#   From: 2010.06.25/outbox.cif.g09.slc.cpg/sg15_50_cif.got.tgz:99898.got - 2010.06.28 07:06:18.
