data_PCOD8130406
_publ_section_title
;
Structure prediction by ZEFSAII (Michael W. Deem and Ramdas Pophale) SiO2 
 PCOD8130406
Probable space group: C 2/C
;
_chemical_formula_sum "Si O2"
_cell_formula_units_Z 64
_cell_length_a 12.706715
_cell_length_b 19.624176
_cell_length_c 19.816269
_cell_angle_alpha 90.000000
_cell_angle_beta 133.083455
_cell_angle_gamma 90.000000
_cell_volume 3608.970414
_symmetry_space_group_name_H-M "C 2/C"
_symmetry_group_IT_number 15
_symmetry_cell_setting 'monoclinic'
loop_
_space_group_symop_operation_xyz
x,y,z
-x,y,1/2-z
-x,-y,-z
x,-y,1/2+z
1/2+x,1/2+y,z
1/2-x,1/2+y,1/2-z
1/2-x,1/2-y,-z
1/2+x,1/2-y,1/2+z
loop_
_atom_site_type_symbol
_atom_site_label
_atom_site_fract_x
_atom_site_fract_y
_atom_site_fract_z
Si Si1 0.026819 0.415485 0.688596
Si Si2 0.375941 0.526981 0.645930
Si Si3 0.209665 0.815764 0.710732
Si Si4 0.886222 0.471330 0.899896
Si Si5 0.436839 0.378219 0.647972
Si Si6 0.619251 0.749616 0.040129
Si Si7 0.818055 0.684135 0.399124
Si Si8 0.755384 0.144119 0.502249
O O1 0.886316 0.375734 0.601149
O O2 0.000000 0.447693 0.750000
O O3 0.161804 0.364965 0.755039
O O4 0.062512 0.479441 0.655189
O O5 0.500000 0.553693 0.750000
O O6 0.255787 0.513863 0.650050
O O7 0.399004 0.456654 0.614512
O O8 0.337259 0.580382 0.570920
O O9 0.192079 0.758859 0.645457
O O10 0.243635 0.783218 0.799314
O O11 0.055200 0.854510 0.645957
O O12 0.873378 0.390400 0.902979
O O13 0.000000 0.500000 0.000000
O O14 0.500000 0.379414 0.750000
O O15 0.296974 0.327210 0.589797
O O16 0.708544 0.809003 0.043915
O O17 0.451033 0.768110 0.978223
O O18 0.633993 0.681844 0.000249
#
# Coordination Sequence:
#
# PCOD8130406 Si02
#       8
#     8   8   8   8   8   8   8   8
#     4  11  19  34  53  80 109 144 188 220 279 327
#     4  10  19  35  56  81 107 136 180 232 278 320
#     4  10  19  33  54  76 102 146 180 223 271 319
#     4  10  17  32  58  78 104 138 185 229 264 327
#     4   8  17  34  57  77 100 132 182 230 264 318
#     4  11  21  33  51  77 114 142 181 216 267 334
#     4   9  18  33  52  79 104 136 182 224 267 319
#     4  11  22  34  51  82 111 144 178 223 274 332
#
# _framework density 17.733588999999998
#
# number of rings (size 3 to 8) (size 9 to 14) (size 15 to 20)
#    0.000    2.000    5.000    2.250    0.000    1.500 
#    0.000    0.625    0.000    0.000    0.000    3.500 
#    0.000    0.000    0.000    0.000    0.000    0.000 
#
# Total GULP energy -396525.686338 kJ/mol
# GULP energy per Si atom -12391.427698 kJ/mol
# Density = 1.769323 g / cm^3
# Si number density = 17.733589 Si / 1000 Ang^3
#
#
#
# Elastic Constant Matrix: (Units=GPa)
#
#
# Indices 1 2 3 4 5 6 
#
# 1 75.6871 28.7221 56.4627 0.0000 15.1513 0.0000
# 2 28.7221 55.9975 44.9618 0.0000 4.0135 0.0000
# 3 56.4627 44.9618 112.5790 0.0000 3.0596 0.0000
# 4 0.0000 0.0000 0.0000 33.5062 0.0000 -1.5477
# 5 15.1513 4.0135 3.0596 0.0000 32.3164 0.0000
# 6 0.0000 0.0000 0.0000 -1.5477 0.0000 24.4464
#
#
#
# Elastic Compliance Matrix: (Units=1/GPa)
#
#
# Indices 1 2 3 4 5 6 
#
# 1 0.024416 -0.003225 -0.010685 0.000000 -0.010035 0.000000
# 2 -0.003225 0.026882 -0.009092 0.000000 -0.000966 0.000000
# 3 -0.010685 -0.009092 0.017752 0.000000 0.004458 0.000000
# 4 0.000000 0.000000 0.000000 0.029933 0.000000 0.001895
# 5 -0.010035 -0.000966 0.004458 0.000000 0.035347 0.000000
# 6 0.000000 0.000000 0.000000 0.001895 0.000000 0.041026
#
#
# Mechanical properties :
#
#
# Convention : Reuss Voigt Hill
#
# Bulk Modulus (GPa) = 43.39336 56.06188 49.72762
# Shear Modulus (GPa) = 21.83023 25.66161 23.74592
#
# Velocity S-wave (km/s) = 3.51238 3.80815 3.66325
# Velocity P-wave (km/s) = 6.40092 7.14269 6.78196
#
# Compressibility (1/GPa) = 0.02304500
#
# Stress axis : x y z
#
# Youngs Moduli (GPa) = 40.95710 37.19994 56.33311
#
# Poissons Ratio (x) = 0.11997 0.60190
# Poissons Ratio (y) = 0.13209 0.51220
# Poissons Ratio (z) = 0.43761 0.33823
#
# Static dielectric constant tensor:
#      x y z
#    x 3.650360 0.000000 0.095040 
#    y 0.000000 3.200830 0.000000 
#    z 0.095040 0.000000 3.149200 
# 
# 
# High freq. dielectric constant tensor:
#      x y z
#    x 1.696090 0.000000 0.013360 
#    y 0.000000 1.650950 0.000000 
#    z 0.013360 0.000000 1.684530 
# 
# From -- ./inp_files/240263.got.cif
#   From: 2010.06.25/outbox.cif.g09.slc.cpg/sg15_121_cif.got.tgz:240263.got - 2010.06.28 07:06:18.
