data_PCOD8130349
_publ_section_title
;
Structure prediction by ZEFSAII (Michael W. Deem and Ramdas Pophale) SiO2 
 PCOD8130349
Probable space group: C 2/C
;
_chemical_formula_sum "Si O2"
_cell_formula_units_Z 56
_cell_length_a 8.678792
_cell_length_b 13.762091
_cell_length_c 24.136224
_cell_angle_alpha 90.000000
_cell_angle_beta 112.510530
_cell_angle_gamma 90.000000
_cell_volume 2663.148044
_symmetry_space_group_name_H-M "C 2/C"
_symmetry_group_IT_number 15
_symmetry_cell_setting 'monoclinic'
loop_
_space_group_symop_operation_xyz
x,y,z
-x,y,1/2-z
-x,-y,-z
x,-y,1/2+z
1/2+x,1/2+y,z
1/2-x,1/2+y,1/2-z
1/2-x,1/2-y,-z
1/2+x,1/2-y,1/2+z
loop_
_atom_site_type_symbol
_atom_site_label
_atom_site_fract_x
_atom_site_fract_y
_atom_site_fract_z
Si Si1 0.957831 0.392582 0.474645
Si Si2 0.830622 0.440337 0.286322
Si Si3 0.690898 0.495726 0.154198
Si Si4 0.314877 0.520968 0.624688
Si Si5 0.379094 0.177995 0.401383
Si Si6 0.964589 0.361319 0.686895
Si Si7 0.373262 0.152526 0.615673
O O1 0.765069 0.396618 0.426985
O O2 0.000000 0.500000 0.500000
O O3 0.989610 0.316363 0.529234
O O4 0.074124 0.356538 0.440572
O O5 0.750112 0.429317 0.214752
O O6 0.683525 0.438510 0.312089
O O7 0.925124 0.542262 0.298491
O O8 0.967168 0.357407 0.320682
O O9 0.494253 0.510841 0.128467
O O10 0.771153 0.603693 0.160287
O O11 0.741575 0.434645 0.107260
O O12 0.190988 0.430177 0.608820
O O13 0.482859 0.202918 0.359162
O O14 0.220526 0.247135 0.385960
O O15 0.000000 0.304194 0.750000
#
# Coordination Sequence:
#
# PCOD8130349 Si02
#       7
#     8   8   8   8   8   8   8
#     4   9  18  35  55  75 104 146 187 220 257 321
#     4   8  16  32  52  71 100 139 178 216 260 326
#     4  10  17  32  52  75 102 137 176 219 269 328
#     4   9  18  32  54  78 100 139 188 221 260 325
#     4  10  19  35  53  76 106 140 179 226 269 317
#     4   8  16  32  52  71  99 138 175 212 264 324
#     4  10  19  32  53  78 105 139 177 222 278 317
#
# _framework density 21.027744999999999
#
# number of rings (size 3 to 8) (size 9 to 14) (size 15 to 20)
#    0.000    2.857    0.000    4.714    0.000    0.000 
#    0.000   20.000    0.000    0.000    0.000    0.000 
#    0.000    0.000    0.000    0.000    0.000    0.000 
#
# Total GULP energy -346886.063720 kJ/mol
# GULP energy per Si atom -12388.787990 kJ/mol
# Density = 2.097988 g / cm^3
# Si number density = 21.027745 Si / 1000 Ang^3
#
#
#
# Elastic Constant Matrix: (Units=GPa)
#
#
# Indices 1 2 3 4 5 6 
#
# 1 141.8417 8.0281 53.4737 0.0000 -12.2799 0.0000
# 2 8.0281 26.8723 18.0104 0.0000 -7.2679 0.0000
# 3 53.4737 18.0104 120.6788 0.0000 -26.4207 0.0000
# 4 0.0000 0.0000 0.0000 12.9743 0.0000 -0.4554
# 5 -12.2799 -7.2679 -26.4207 0.0000 29.9646 0.0000
# 6 0.0000 0.0000 0.0000 -0.4554 0.0000 31.1597
#
#
#
# Elastic Compliance Matrix: (Units=1/GPa)
#
#
# Indices 1 2 3 4 5 6 
#
# 1 0.008465 0.000011 -0.003708 0.000000 0.000202 0.000000
# 2 0.000011 0.042146 -0.005026 0.000000 0.005795 0.000000
# 3 -0.003708 -0.005026 0.012491 0.000000 0.008275 0.000000
# 4 0.000000 0.000000 0.000000 0.077115 0.000000 0.001127
# 5 0.000202 0.005795 0.008275 0.000000 0.042158 0.000000
# 6 0.000000 0.000000 0.000000 0.001127 0.000000 0.032109
#
#
# Mechanical properties :
#
#
# Convention : Reuss Voigt Hill
#
# Bulk Modulus (GPa) = 21.90308 49.82413 35.86360
# Shear Modulus (GPa) = 20.23069 28.81177 24.52123
#
# Velocity S-wave (km/s) = 3.10513 3.70561 3.41858
# Velocity P-wave (km/s) = 4.82646 6.48495 5.71617
#
# Compressibility (1/GPa) = 0.04565568
#
# Stress axis : x y z
#
# Youngs Moduli (GPa) = 118.13353 23.72723 80.05448
#
# Poissons Ratio (x) = -0.00026 0.29687
# Poissons Ratio (y) = -0.00132 0.40236
# Poissons Ratio (z) = 0.43808 0.11925
#
# Static dielectric constant tensor:
#      x y z
#    x 3.892120 0.000000 -0.326420 
#    y 0.000000 3.284350 0.000000 
#    z -0.326420 0.000000 4.431130 
# 
# 
# High freq. dielectric constant tensor:
#      x y z
#    x 1.824950 0.000000 -0.016470 
#    y 0.000000 1.775360 0.000000 
#    z -0.016470 0.000000 1.829000 
# 
# From -- ./inp_files/288462.got.cif
#   From: 2010.06.25/outbox.cif.g09.slc.cpg/sg15_145_cif.got.tgz:288462.got - 2010.06.28 07:06:18.
