data_PCOD8130480
_publ_section_title
;
Structure prediction by ZEFSAII (Michael W. Deem and Ramdas Pophale) SiO2 
 PCOD8130480
Probable space group: C 2/C
;
_chemical_formula_sum "Si O2"
_cell_formula_units_Z 56
_cell_length_a 16.330050
_cell_length_b 17.978645
_cell_length_c 16.574191
_cell_angle_alpha 90.000000
_cell_angle_beta 146.339727
_cell_angle_gamma 90.000000
_cell_volume 2697.094613
_symmetry_space_group_name_H-M "C 2/C"
_symmetry_group_IT_number 15
_symmetry_cell_setting 'monoclinic'
loop_
_space_group_symop_operation_xyz
x,y,z
-x,y,1/2-z
-x,-y,-z
x,-y,1/2+z
1/2+x,1/2+y,z
1/2-x,1/2+y,1/2-z
1/2-x,1/2-y,-z
1/2+x,1/2-y,1/2+z
loop_
_atom_site_type_symbol
_atom_site_label
_atom_site_fract_x
_atom_site_fract_y
_atom_site_fract_z
Si Si1 0.860596 0.882223 0.931272
Si Si2 0.461147 0.742079 0.999441
Si Si3 0.136909 0.422440 0.940464
Si Si4 0.633076 0.632727 0.755240
Si Si5 0.850816 0.496792 0.722204
Si Si6 0.074029 0.706029 0.210454
Si Si7 0.813528 0.339830 0.242142
O O1 0.935001 0.831612 0.923637
O O2 0.785140 0.959611 0.837649
O O3 0.723535 0.836994 0.857504
O O4 0.982039 0.904055 0.098686
O O5 0.530621 0.797078 0.122411
O O6 0.445578 0.785697 0.902311
O O7 0.302282 0.712947 0.900544
O O8 0.168991 0.466809 0.885186
O O9 0.010096 0.468692 0.885853
O O10 0.069072 0.338649 0.872026
O O11 0.289245 0.419748 0.115230
O O12 0.587129 0.711419 0.758022
O O13 0.749099 0.645589 0.778205
O O14 0.840406 0.585102 0.715099
#
# Coordination Sequence:
#
# PCOD8130480 Si02
#       7
#     8   8   8   8   8   8   8
#     4   9  17  32  51  82 117 145 183 236 284 340
#     4  10  17  33  60  85 114 145 192 244 287 333
#     4  10  20  38  54  79 119 161 188 226 287 351
#     4  10  18  31  59  86 110 148 194 236 285 345
#     4  10  23  37  52  79 123 160 183 229 287 353
#     4   9  15  32  55  83 113 147 187 235 280 350
#     4  10  20  36  60  88 113 144 192 244 289 338
#
# _framework density 20.763082000000001
#
# number of rings (size 3 to 8) (size 9 to 14) (size 15 to 20)
#    0.000    2.571    4.286    0.857    0.000    3.429 
#    0.000   22.143    0.000    3.429    0.000    0.000 
#    0.000    0.000    0.000    0.000    0.000    0.000 
#
# Total GULP energy -346882.799229 kJ/mol
# GULP energy per Si atom -12388.671401 kJ/mol
# Density = 2.071582 g / cm^3
# Si number density = 20.763082 Si / 1000 Ang^3
#
#
#
# Elastic Constant Matrix: (Units=GPa)
#
#
# Indices 1 2 3 4 5 6 
#
# 1 29.5031 30.5013 14.8473 -0.0094 3.7945 -0.0015
# 2 30.5013 141.2452 75.6023 -0.0136 1.8048 -0.0085
# 3 14.8473 75.6023 131.6282 0.0070 18.8010 0.0057
# 4 -0.0094 -0.0136 0.0070 19.1675 -0.0086 -6.2195
# 5 3.7945 1.8048 18.8010 -0.0086 14.1604 -0.0046
# 6 -0.0015 -0.0085 0.0057 -6.2195 -0.0046 24.4535
#
#
#
# Elastic Compliance Matrix: (Units=1/GPa)
#
#
# Indices 1 2 3 4 5 6 
#
# 1 0.046273 -0.011870 0.003891 0.000004 -0.016053 -0.000004
# 2 -0.011870 0.014061 -0.008559 0.000017 0.012753 0.000013
# 3 0.003891 -0.008559 0.014891 -0.000024 -0.019723 -0.000016
# 4 0.000004 0.000017 -0.000024 0.056865 0.000067 0.014463
# 5 -0.016053 0.012753 -0.019723 0.000067 0.099483 0.000044
# 6 -0.000004 0.000013 -0.000016 0.014463 0.000044 0.044572
#
#
# Mechanical properties :
#
#
# Convention : Reuss Voigt Hill
#
# Bulk Modulus (GPa) = 23.72476 60.47537 42.10007
# Shear Modulus (GPa) = 15.46685 23.65131 19.55908
#
# Velocity S-wave (km/s) = 2.73228 3.37872 3.07255
# Velocity P-wave (km/s) = 4.62656 6.66413 5.73654
#
# Compressibility (1/GPa) = 0.04215006
#
# Stress axis : x y z
#
# Youngs Moduli (GPa) = 21.61091 71.11627 67.15293
#
# Poissons Ratio (x) = 0.84416 -0.26131
# Poissons Ratio (y) = 0.25652 0.57476
# Poissons Ratio (z) = -0.08409 0.60868
#
# Static dielectric constant tensor:
#      x y z
#    x 3.255590 0.000000 0.414310 
#    y 0.000000 3.768690 0.000000 
#    z 0.414310 0.000000 4.115580 
# 
# 
# High freq. dielectric constant tensor:
#      x y z
#    x 1.755150 0.000000 0.031460 
#    y 0.000000 1.795500 0.000000 
#    z 0.031460 0.000000 1.824630 
# 
# From -- ./inp_files/211903.got.cif
#   From: 2010.06.25/outbox.cif.g09.slc.cpg/sg15_106_cif.got.tgz:211903.got - 2010.06.28 07:06:18.
