data_PCOD8130057
_publ_section_title
;
Structure prediction by ZEFSAII (Michael W. Deem and Ramdas Pophale) SiO2 
 PCOD8130057
Probable space group: C 2/C
;
_chemical_formula_sum "Si O2"
_cell_formula_units_Z 48
_cell_length_a 24.558480
_cell_length_b 15.957064
_cell_length_c 23.711690
_cell_angle_alpha 90.000000
_cell_angle_beta 161.108105
_cell_angle_gamma 90.000000
_cell_volume 3008.650932
_symmetry_space_group_name_H-M "C 2/C"
_symmetry_group_IT_number 15
_symmetry_cell_setting 'monoclinic'
loop_
_space_group_symop_operation_xyz
x,y,z
-x,y,1/2-z
-x,-y,-z
x,-y,1/2+z
1/2+x,1/2+y,z
1/2-x,1/2+y,1/2-z
1/2-x,1/2-y,-z
1/2+x,1/2-y,1/2+z
loop_
_atom_site_type_symbol
_atom_site_label
_atom_site_fract_x
_atom_site_fract_y
_atom_site_fract_z
Si Si1 0.157921 0.841233 0.740079
Si Si2 0.066756 0.194103 0.377395
Si Si3 0.377682 0.722058 0.891600
Si Si4 0.944361 0.373218 0.255089
Si Si5 0.085243 0.626054 0.561622
Si Si6 0.049403 0.535873 0.966363
O O1 0.273107 0.757254 0.843904
O O2 0.064377 0.845512 0.707761
O O3 0.024032 0.838229 0.557793
O O4 0.266592 0.925265 0.842603
O O5 0.252517 0.157702 0.567195
O O6 0.000000 0.172129 0.250000
O O7 0.069262 0.294693 0.389388
O O8 0.267640 0.669186 0.739911
O O9 0.443885 0.802159 0.921545
O O10 0.000000 0.413345 0.250000
O O11 0.974329 0.443429 0.331599
O O12 0.063462 0.564821 0.486635
O O13 0.077954 0.572347 0.612071
#
# Coordination Sequence:
#
# PCOD8130057 Si02
#       6
#     8   8   8   8   8   8
#     4  10  17  27  43  63  91 120 148 181 213 251
#     4  11  19  28  43  63  89 124 159 176 199 254
#     4   9  17  30  46  62  85 119 151 179 218 263
#     4  11  20  30  44  63  91 123 153 182 214 254
#     4   9  18  31  47  66  90 117 147 183 221 264
#     4  10  19  30  44  67  94 117 145 183 225 257
#
# _framework density 15.953995000000001
#
# number of rings (size 3 to 8) (size 9 to 14) (size 15 to 20)
#    0.000    2.000    0.000    9.000    0.000    0.667 
#    0.000    3.333    0.000    0.000    0.000    1.167 
#    0.000    0.000    0.000    0.000    0.000    0.000 
#
# Total GULP energy -297557.273105 kJ/mol
# GULP energy per Si atom -12398.219713 kJ/mol
# Density = 1.591768 g / cm^3
# Si number density = 15.953995 Si / 1000 Ang^3
#
#
#
# Elastic Constant Matrix: (Units=GPa)
#
#
# Indices 1 2 3 4 5 6 
#
# 1 78.8384 47.3575 40.6300 0.0068 -7.2887 0.0002
# 2 47.3575 89.1601 52.9506 0.0068 -10.7892 0.0017
# 3 40.6300 52.9506 102.5735 0.0146 0.3500 0.0043
# 4 0.0068 0.0068 0.0146 19.7137 0.0084 -5.1993
# 5 -7.2887 -10.7892 0.3500 0.0084 21.1068 0.0015
# 6 0.0002 0.0017 0.0043 -5.1993 0.0015 17.8957
#
#
#
# Elastic Compliance Matrix: (Units=1/GPa)
#
#
# Indices 1 2 3 4 5 6 
#
# 1 0.019572 -0.007855 -0.003708 -0.000002 0.002805 0.000001
# 2 -0.007855 0.020970 -0.007742 -0.000003 0.008135 -0.000002
# 3 -0.003708 -0.007742 0.015233 -0.000006 -0.005490 -0.000004
# 4 -0.000002 -0.000003 -0.000006 0.054936 -0.000025 0.015961
# 5 0.002805 0.008135 -0.005490 -0.000025 0.052596 -0.000011
# 6 0.000001 -0.000002 -0.000004 0.015961 -0.000011 0.060517
#
#
# Mechanical properties :
#
#
# Convention : Reuss Voigt Hill
#
# Bulk Modulus (GPa) = 58.24957 61.38311 59.81634
# Shear Modulus (GPa) = 18.64603 20.38549 19.51576
#
# Velocity S-wave (km/s) = 3.42239 3.57847 3.50130
# Velocity P-wave (km/s) = 7.22546 7.45872 7.34301
#
# Compressibility (1/GPa) = 0.01716751
#
# Stress axis : x y z
#
# Youngs Moduli (GPa) = 51.09218 47.68782 65.64779
#
# Poissons Ratio (x) = 0.37457 0.24340
# Poissons Ratio (y) = 0.40131 0.50821
# Poissons Ratio (z) = 0.18943 0.36918
#
# Static dielectric constant tensor:
#      x y z
#    x 2.968630 0.000000 0.137720 
#    y 0.000000 2.822740 -0.000010 
#    z 0.137720 -0.000010 3.190890 
# 
# 
# High freq. dielectric constant tensor:
#      x y z
#    x 1.592760 0.000000 0.012190 
#    y 0.000000 1.570950 0.000000 
#    z 0.012190 0.000000 1.629440 
# 
# From -- ./inp_files/61189.got.cif
#   From: 2010.06.25/outbox.cif.g09.slc.cpg/sg15_31_cif.got.tgz:61189.got - 2010.06.28 07:06:18.
