data_PCOD8130220
_publ_section_title
;
Structure prediction by ZEFSAII (Michael W. Deem and Ramdas Pophale) SiO2 
 PCOD8130220
Probable space group: C 2/C
;
_chemical_formula_sum "Si O2"
_cell_formula_units_Z 56
_cell_length_a 23.795970
_cell_length_b 8.889205
_cell_length_c 17.140852
_cell_angle_alpha 90.000000
_cell_angle_beta 131.753537
_cell_angle_gamma 90.000000
_cell_volume 2704.873987
_symmetry_space_group_name_H-M "C 2/C"
_symmetry_group_IT_number 15
_symmetry_cell_setting 'monoclinic'
loop_
_space_group_symop_operation_xyz
x,y,z
-x,y,1/2-z
-x,-y,-z
x,-y,1/2+z
1/2+x,1/2+y,z
1/2-x,1/2+y,1/2-z
1/2-x,1/2-y,-z
1/2+x,1/2-y,1/2+z
loop_
_atom_site_type_symbol
_atom_site_label
_atom_site_fract_x
_atom_site_fract_y
_atom_site_fract_z
Si Si1 0.668863 0.260987 0.551727
Si Si2 0.074886 0.186202 0.364448
Si Si3 0.420439 0.483847 0.467548
Si Si4 0.275301 0.010207 0.634172
Si Si5 0.716942 0.650022 0.386942
Si Si6 0.276330 0.449477 0.248642
Si Si7 0.865129 0.499187 0.083063
O O1 0.608308 0.344165 0.550167
O O2 0.712926 0.391245 0.544050
O O3 0.732517 0.177873 0.661250
O O4 0.619334 0.151856 0.450034
O O5 0.073901 0.098435 0.444535
O O6 0.142002 0.139956 0.369004
O O7 0.076097 0.367389 0.382968
O O8 0.000000 0.142713 0.250000
O O9 0.500000 0.500000 0.500000
O O10 0.357347 0.393692 0.358133
O O11 0.250753 0.180474 0.588436
O O12 0.277880 0.995326 0.730539
O O13 0.357172 0.972988 0.669945
O O14 0.703262 0.591467 0.286907
O O15 0.779937 0.548340 0.484484
#
# Coordination Sequence:
#
# PCOD8130220 Si02
#       7
#     8   8   8   8   8   8   8
#     4  10  21  36  59  90 117 147 193 245 293 341
#     4  11  23  39  58  81 113 159 198 230 284 356
#     4  11  23  42  62  86 119 156 194 242 296 351
#     4  10  17  30  54  84 114 145 185 234 280 332
#     4  10  19  35  57  83 114 150 189 233 287 345
#     4  10  20  34  57  90 119 150 192 241 289 344
#     4  10  20  36  58  82 113 149 190 239 288 337
#
# _framework density 20.703368000000001
#
# number of rings (size 3 to 8) (size 9 to 14) (size 15 to 20)
#    0.000    1.714    0.000    8.143    0.000    4.571 
#    0.000    4.286    0.000    0.000    0.000    0.000 
#    0.000    0.000    0.000    0.000    0.000    0.000 
#
# Total GULP energy -346892.054161 kJ/mol
# GULP energy per Si atom -12389.001934 kJ/mol
# Density = 2.065625 g / cm^3
# Si number density = 20.703368 Si / 1000 Ang^3
#
#
#
# Elastic Constant Matrix: (Units=GPa)
#
#
# Indices 1 2 3 4 5 6 
#
# 1 130.8246 50.5359 52.2663 0.0000 -15.5207 0.0000
# 2 50.5359 103.8816 29.8660 0.0000 -6.4438 0.0000
# 3 52.2663 29.8660 101.4776 0.0000 -3.6486 0.0000
# 4 0.0000 0.0000 0.0000 31.0567 0.0000 -6.9618
# 5 -15.5207 -6.4438 -3.6486 0.0000 29.3326 0.0000
# 6 0.0000 0.0000 0.0000 -6.9618 0.0000 25.1046
#
#
#
# Elastic Compliance Matrix: (Units=1/GPa)
#
#
# Indices 1 2 3 4 5 6 
#
# 1 0.011600 -0.004024 -0.004622 0.000000 0.004679 0.000000
# 2 -0.004024 0.012022 -0.001454 0.000000 0.000331 0.000000
# 3 -0.004622 -0.001454 0.012620 0.000000 -0.001195 0.000000
# 4 0.000000 0.000000 0.000000 0.034333 0.000000 0.009521
# 5 0.004679 0.000331 -0.001195 0.000000 0.036491 0.000000
# 6 0.000000 0.000000 0.000000 0.009521 0.000000 0.042474
#
#
# Mechanical properties :
#
#
# Convention : Reuss Voigt Hill
#
# Bulk Modulus (GPa) = 62.33459 66.83558 64.58509
# Shear Modulus (GPa) = 28.55707 30.66650 29.61179
#
# Velocity S-wave (km/s) = 3.71798 3.85285 3.78602
# Velocity P-wave (km/s) = 6.97173 7.22116 7.09754
#
# Compressibility (1/GPa) = 0.01604246
#
# Stress axis : x y z
#
# Youngs Moduli (GPa) = 86.20768 83.17775 79.24000
#
# Poissons Ratio (x) = 0.33471 0.36625
# Poissons Ratio (y) = 0.34690 0.11520
# Poissons Ratio (z) = 0.39845 0.12093
#
# Static dielectric constant tensor:
#      x y z
#    x 4.030650 0.000000 -0.449090 
#    y 0.000000 3.958630 0.000000 
#    z -0.449090 0.000000 3.905620 
# 
# 
# High freq. dielectric constant tensor:
#      x y z
#    x 1.807560 0.000000 -0.028650 
#    y 0.000000 1.812880 0.000000 
#    z -0.028650 0.000000 1.795070 
# 
# From -- ./inp_files/218646.got.cif
#   From: 2010.06.25/outbox.cif.g09.slc.cpg/sg15_110_cif.got.tgz:218646.got - 2010.06.28 07:06:18.
