data_PCOD8130380
_publ_section_title
;
Structure prediction by ZEFSAII (Michael W. Deem and Ramdas Pophale) SiO2 
 PCOD8130380
Probable space group: C 2/C
;
_chemical_formula_sum "Si O2"
_cell_formula_units_Z 56
_cell_length_a 17.058771
_cell_length_b 17.198614
_cell_length_c 13.096896
_cell_angle_alpha 90.000000
_cell_angle_beta 136.867814
_cell_angle_gamma 90.000000
_cell_volume 2627.029076
_symmetry_space_group_name_H-M "C 2/C"
_symmetry_group_IT_number 15
_symmetry_cell_setting 'monoclinic'
loop_
_space_group_symop_operation_xyz
x,y,z
-x,y,1/2-z
-x,-y,-z
x,-y,1/2+z
1/2+x,1/2+y,z
1/2-x,1/2+y,1/2-z
1/2-x,1/2-y,-z
1/2+x,1/2-y,1/2+z
loop_
_atom_site_type_symbol
_atom_site_label
_atom_site_fract_x
_atom_site_fract_y
_atom_site_fract_z
Si Si1 0.000000 0.973881 0.750000
Si Si2 0.069192 0.705147 0.020467
Si Si3 0.316501 0.542973 0.698269
Si Si4 0.026311 0.881527 0.984421
Si Si5 0.609611 0.001421 0.237755
Si Si6 0.270711 0.401443 0.778890
Si Si7 0.000000 0.622289 0.750000
Si Si8 0.085713 0.598364 0.512797
O O1 0.023429 0.920148 0.870282
O O2 0.107504 0.031457 0.830959
O O3 0.083145 0.797217 0.030018
O O4 0.042535 0.676048 0.881386
O O5 0.965228 0.680989 0.998005
O O6 0.188728 0.671035 0.175202
O O7 0.262305 0.459352 0.674271
O O8 0.212551 0.604879 0.581108
O O9 0.396367 0.565905 0.869554
O O10 0.900793 0.872848 0.916269
O O11 0.725477 0.053486 0.338911
O O12 0.607597 0.934891 0.322897
O O13 0.596382 0.957534 0.118888
O O14 0.500928 0.058997 0.150063
#
# Coordination Sequence:
#
# PCOD8130380 Si02
#       8
#     4   8   8   8   8   8   4   8
#     4  10  21  40  56  87 122 146 208 244 267 358
#     4  10  21  36  58  88 124 147 185 244 304 363
#     4  10  20  39  61  83 114 162 200 233 288 346
#     4  11  23  39  59  87 121 160 191 233 309 352
#     4   8  15  31  54  80 111 146 191 235 273 339
#     4   9  19  39  55  78 116 158 198 229 274 352
#     4  10  17  32  54  95 120 140 186 246 309 338
#     4   8  16  34  54  77 111 152 190 229 279 341
#
# _framework density 21.316855
#
# number of rings (size 3 to 8) (size 9 to 14) (size 15 to 20)
#    0.000    2.571    0.000    4.714    2.000    0.000 
#   30.857    3.571    0.000    4.286    0.000    0.000 
#    0.000    0.000    0.000    0.000    0.000    0.000 
#
# Total GULP energy -346904.600097 kJ/mol
# GULP energy per Si atom -12389.450003 kJ/mol
# Density = 2.126834 g / cm^3
# Si number density = 21.316855 Si / 1000 Ang^3
#
#
#
# Elastic Constant Matrix: (Units=GPa)
#
#
# Indices 1 2 3 4 5 6 
#
# 1 117.3892 46.1968 36.6874 0.0000 32.7394 0.0000
# 2 46.1968 81.7922 28.3501 0.0000 -3.9693 0.0000
# 3 36.6874 28.3501 62.2372 0.0000 20.0742 0.0000
# 4 0.0000 0.0000 0.0000 21.7972 0.0000 4.7003
# 5 32.7394 -3.9693 20.0742 0.0000 27.3911 0.0000
# 6 0.0000 0.0000 0.0000 4.7003 0.0000 27.0770
#
#
#
# Elastic Compliance Matrix: (Units=1/GPa)
#
#
# Indices 1 2 3 4 5 6 
#
# 1 0.022242 -0.015618 0.004332 0.000000 -0.032023 0.000000
# 2 -0.015618 0.027453 -0.013885 0.000000 0.032822 0.000000
# 3 0.004332 -0.013885 0.029017 0.000000 -0.028456 0.000000
# 4 0.000000 0.000000 0.000000 0.047661 0.000000 -0.008274
# 5 -0.032023 0.032822 -0.028456 0.000000 0.100395 0.000000
# 6 0.000000 0.000000 0.000000 -0.008274 0.000000 0.038368
#
#
# Mechanical properties :
#
#
# Convention : Reuss Voigt Hill
#
# Bulk Modulus (GPa) = 35.24930 53.76526 44.50728
# Shear Modulus (GPa) = 15.38765 25.26535 20.32650
#
# Velocity S-wave (km/s) = 2.68965 3.44645 3.09130
# Velocity P-wave (km/s) = 5.12029 6.41202 5.80222
#
# Compressibility (1/GPa) = 0.02836936
#
# Stress axis : x y z
#
# Youngs Moduli (GPa) = 44.95952 36.42604 34.46228
#
# Poissons Ratio (x) = 0.56890 -0.14929
# Poissons Ratio (y) = 0.70218 0.47852
# Poissons Ratio (z) = -0.19476 0.50579
#
# Static dielectric constant tensor:
#      x y z
#    x 4.306700 0.000000 0.419330 
#    y 0.000000 3.672390 0.000000 
#    z 0.419330 0.000000 3.682210 
# 
# 
# High freq. dielectric constant tensor:
#      x y z
#    x 1.842220 0.000000 0.017770 
#    y 0.000000 1.809650 0.000000 
#    z 0.017770 0.000000 1.819560 
# 
# From -- ./inp_files/163123.got.cif
#   From: 2010.06.25/outbox.cif.g09.slc.cpg/sg15_82_cif.got.tgz:163123.got - 2010.06.28 07:06:18.
