data_PCOD8130775
_publ_section_title
;
Structure prediction by ZEFSAII (Michael W. Deem and Ramdas Pophale) SiO2 
 PCOD8130775
Probable space group: C 2/C
;
_chemical_formula_sum "Si O2"
_cell_formula_units_Z 60
_cell_length_a 19.480697
_cell_length_b 19.623002
_cell_length_c 14.370551
_cell_angle_alpha 90.000000
_cell_angle_beta 42.575861
_cell_angle_gamma 90.000000
_cell_volume 3716.664787
_symmetry_space_group_name_H-M "C 2/C"
_symmetry_group_IT_number 15
_symmetry_cell_setting 'monoclinic'
loop_
_space_group_symop_operation_xyz
x,y,z
-x,y,1/2-z
-x,-y,-z
x,-y,1/2+z
1/2+x,1/2+y,z
1/2-x,1/2+y,1/2-z
1/2-x,1/2-y,-z
1/2+x,1/2-y,1/2+z
loop_
_atom_site_type_symbol
_atom_site_label
_atom_site_fract_x
_atom_site_fract_y
_atom_site_fract_z
Si Si1 0.705788 0.816945 0.363035
Si Si2 0.695232 0.817801 0.739494
Si Si3 0.224140 0.111629 0.520870
Si Si4 0.119073 0.432335 0.933230
Si Si5 0.882704 0.488152 0.365495
Si Si6 0.500000 0.364226 0.250000
Si Si7 0.613806 0.929528 0.333562
Si Si8 0.498316 0.767675 0.853206
O O1 0.769768 0.755041 0.255369
O O2 0.759745 0.848272 0.399435
O O3 0.687909 0.872237 0.300499
O O4 0.604758 0.779979 0.492707
O O5 0.758038 0.839016 0.584840
O O6 0.697281 0.875136 0.817987
O O7 0.579042 0.808106 0.831575
O O8 0.103537 0.090476 0.637727
O O9 0.301738 0.048879 0.438307
O O10 0.143981 0.500696 0.853102
O O11 0.140347 0.443989 0.020492
O O12 0.002968 0.410588 0.030280
O O13 0.866901 0.437087 0.295450
O O14 0.000000 0.516251 0.250000
O O15 0.485002 0.314189 0.175002
O O16 0.500000 0.803035 0.750000
#
# Coordination Sequence:
#
# PCOD8130775 Si02
#       8
#     8   8   8   8   8   4   8   8
#     4  12  20  31  52  81 109 145 173 219 270 324
#     4  12  20  31  52  81 109 145 173 219 270 324
#     4  12  20  31  53  77 117 139 172 219 268 325
#     4  10  20  33  53  80 111 141 172 222 277 320
#     4  10  22  36  54  83 111 136 175 226 274 321
#     4  10  20  34  44  78 118 146 168 204 274 332
#     4  10  20  33  53  80 111 141 172 222 277 320
#     4  10  18  28  45  75 117 133 162 212 274 324
#
# _framework density 16.143505999999999
#
# number of rings (size 3 to 8) (size 9 to 14) (size 15 to 20)
#    0.400    0.800    8.000    0.400    1.867    0.000 
#    0.000    0.667    0.000    4.800    0.000    0.000 
#    0.000    0.000    0.000    0.000    0.000    0.000 
#
# Total GULP energy -371769.323907 kJ/mol
# GULP energy per Si atom -12392.310797 kJ/mol
# Density = 1.610676 g / cm^3
# Si number density = 16.143506 Si / 1000 Ang^3
#
#
#
# Elastic Constant Matrix: (Units=GPa)
#
#
# Indices 1 2 3 4 5 6 
#
# 1 77.6511 48.7999 48.0247 0.0000 5.6781 0.0000
# 2 48.7999 86.6175 36.9702 0.0000 4.2345 0.0000
# 3 48.0247 36.9702 56.0794 0.0000 1.6581 0.0000
# 4 0.0000 0.0000 0.0000 34.3015 0.0000 9.9595
# 5 5.6781 4.2345 1.6581 0.0000 31.7678 0.0000
# 6 0.0000 0.0000 0.0000 9.9595 0.0000 60.8475
#
#
#
# Elastic Compliance Matrix: (Units=1/GPa)
#
#
# Indices 1 2 3 4 5 6 
#
# 1 0.031807 -0.008586 -0.021477 0.000000 -0.003420 0.000000
# 2 -0.008586 0.018464 -0.004800 0.000000 -0.000676 0.000000
# 3 -0.021477 -0.004800 0.039317 0.000000 0.002426 0.000000
# 4 0.000000 0.000000 0.000000 0.030608 0.000000 -0.005010
# 5 -0.003420 -0.000676 0.002426 0.000000 0.032053 0.000000
# 6 0.000000 0.000000 0.000000 -0.005010 0.000000 0.017255
#
#
# Mechanical properties :
#
#
# Convention : Reuss Voigt Hill
#
# Bulk Modulus (GPa) = 50.34694 54.21531 52.28112
# Shear Modulus (GPa) = 20.33771 31.15359 25.74565
#
# Velocity S-wave (km/s) = 3.55323 4.39770 3.99783
# Velocity P-wave (km/s) = 6.93460 7.70991 7.33251
#
# Compressibility (1/GPa) = 0.01986218
#
# Stress axis : x y z
#
# Youngs Moduli (GPa) = 31.43982 54.15998 25.43445
#
# Poissons Ratio (x) = 0.46500 0.54626
# Poissons Ratio (y) = 0.26993 0.12208
# Poissons Ratio (z) = 0.67524 0.25995
#
# Static dielectric constant tensor:
#      x y z
#    x 3.093640 0.000000 -0.016060 
#    y 0.000000 2.931000 0.000000 
#    z -0.016060 0.000000 3.002540 
# 
# 
# High freq. dielectric constant tensor:
#      x y z
#    x 1.609000 0.000000 -0.005370 
#    y 0.000000 1.602490 0.000000 
#    z -0.005370 0.000000 1.611460 
# 
# From -- ./inp_files/162935.got.cif
#   From: 2010.06.25/outbox.cif.g09.slc.cpg/sg15_82_cif.got.tgz:162935.got - 2010.06.28 07:06:18.
