data_PCOD8130571
_publ_section_title
;
Structure prediction by ZEFSAII (Michael W. Deem and Ramdas Pophale) SiO2 
 PCOD8130571
Probable space group: C 2/C
;
_chemical_formula_sum "Si O2"
_cell_formula_units_Z 60
_cell_length_a 9.706890
_cell_length_b 16.836606
_cell_length_c 20.527837
_cell_angle_alpha 90.000000
_cell_angle_beta 103.677095
_cell_angle_gamma 90.000000
_cell_volume 3259.754525
_symmetry_space_group_name_H-M "C 2/C"
_symmetry_group_IT_number 15
_symmetry_cell_setting 'monoclinic'
loop_
_space_group_symop_operation_xyz
x,y,z
-x,y,1/2-z
-x,-y,-z
x,-y,1/2+z
1/2+x,1/2+y,z
1/2-x,1/2+y,1/2-z
1/2-x,1/2-y,-z
1/2+x,1/2-y,1/2+z
loop_
_atom_site_type_symbol
_atom_site_label
_atom_site_fract_x
_atom_site_fract_y
_atom_site_fract_z
Si Si1 0.007893 0.272622 0.027473
Si Si2 0.500000 0.875006 0.250000
Si Si3 0.061616 0.525426 0.634433
Si Si4 0.230413 0.522625 0.972532
Si Si5 0.057148 0.867654 0.060391
Si Si6 0.322821 0.224567 0.634432
Si Si7 0.669496 0.125004 0.088997
Si Si8 0.246752 0.882351 0.439601
O O1 0.923797 0.293523 0.084027
O O2 0.173535 0.297193 0.050869
O O3 0.993992 0.179124 0.010764
O O4 0.946540 0.320699 0.959352
O O5 0.432169 0.936434 0.293597
O O6 0.611431 0.813580 0.293599
O O7 0.095746 0.430704 0.636171
O O8 0.187507 0.567165 0.610544
O O9 0.910240 0.543525 0.584023
O O10 0.372666 0.547190 0.949140
O O11 0.237185 0.570707 0.040651
O O12 0.233216 0.429128 0.989243
O O13 0.173044 0.817171 0.110532
O O14 0.921170 0.875003 0.092329
O O15 0.290421 0.319288 0.636173
#
# Coordination Sequence:
#
# PCOD8130571 Si02
#       8
#     8   4   8   8   8   8   8   8
#     4  11  17  35  57  88 114 146 182 232 295 358
#     4  12  22  40  66  76 100 162 230 228 260 352
#     4  11  21  36  63  80 113 155 198 235 277 354
#     4  11  17  35  57  88 114 146 182 232 295 358
#     4  11  20  31  54  92 118 141 176 239 309 340
#     4  11  21  36  63  80 113 155 198 235 277 354
#     4  10  17  34  62  85 108 138 190 236 292 332
#     4  11  20  31  54  92 118 141 176 239 309 340
#
# _framework density 18.406293999999999
#
# number of rings (size 3 to 8) (size 9 to 14) (size 15 to 20)
#    0.000    1.067    8.000    2.400    0.000    0.000 
#    0.000    0.667   14.667    0.000    0.000    0.000 
#    0.000    0.000    0.000    0.000    0.000    0.000 
#
# Total GULP energy -371729.326937 kJ/mol
# GULP energy per Si atom -12390.977565 kJ/mol
# Density = 1.836440 g / cm^3
# Si number density = 18.406294 Si / 1000 Ang^3
#
#
#
# Elastic Constant Matrix: (Units=GPa)
#
#
# Indices 1 2 3 4 5 6 
#
# 1 153.6671 49.0976 44.7105 0.0000 6.7496 0.0000
# 2 49.0976 91.1451 45.9256 0.0000 0.2130 0.0000
# 3 44.7105 45.9256 86.0559 0.0000 -2.0043 0.0000
# 4 0.0000 0.0000 0.0000 23.2551 0.0000 0.9541
# 5 6.7496 0.2130 -2.0043 0.0000 7.1498 0.0000
# 6 0.0000 0.0000 0.0000 0.9541 0.0000 36.8451
#
#
#
# Elastic Compliance Matrix: (Units=1/GPa)
#
#
# Indices 1 2 3 4 5 6 
#
# 1 0.008823 -0.003166 -0.003106 0.000000 -0.009106 0.000000
# 2 -0.003166 0.016196 -0.006985 0.000000 0.000548 0.000000
# 3 -0.003106 -0.006985 0.017147 0.000000 0.007948 0.000000
# 4 0.000000 0.000000 0.000000 0.043047 0.000000 -0.001115
# 5 -0.009106 0.000548 0.007948 0.000000 0.150671 0.000000
# 6 0.000000 0.000000 0.000000 -0.001115 0.000000 0.027170
#
#
# Mechanical properties :
#
#
# Convention : Reuss Voigt Hill
#
# Bulk Modulus (GPa) = 63.89792 67.81506 65.85649
# Shear Modulus (GPa) = 16.96145 26.19228 21.57687
#
# Velocity S-wave (km/s) = 3.03892 3.77637 3.42753
# Velocity P-wave (km/s) = 6.86323 7.47917 7.17781
#
# Compressibility (1/GPa) = 0.01564996
#
# Stress axis : x y z
#
# Youngs Moduli (GPa) = 113.34057 61.74550 58.31847
#
# Poissons Ratio (x) = 0.19550 0.18116
# Poissons Ratio (y) = 0.35886 0.40737
# Poissons Ratio (z) = 0.35207 0.43131
#
# Static dielectric constant tensor:
#      x y z
#    x 3.525900 0.000000 0.034430 
#    y 0.000000 3.962060 0.000000 
#    z 0.034430 0.000000 3.037300 
# 
# 
# High freq. dielectric constant tensor:
#      x y z
#    x 1.717010 0.000000 0.004120 
#    y 0.000000 1.728930 0.000000 
#    z 0.004120 0.000000 1.658500 
# 
# From -- ./inp_files/232764.got.cif
#   From: 2010.06.25/outbox.cif.g09.slc.cpg/sg15_117_cif.got.tgz:232764.got - 2010.06.28 07:06:18.
