data_PCOD8130985
_publ_section_title
;
Structure prediction by ZEFSAII (Michael W. Deem and Ramdas Pophale) SiO2 
 PCOD8130985
Probable space group: C 2/C
;
_chemical_formula_sum "Si O2"
_cell_formula_units_Z 60
_cell_length_a 30.419626
_cell_length_b 8.803343
_cell_length_c 19.305961
_cell_angle_alpha 90.000000
_cell_angle_beta 39.299986
_cell_angle_gamma 90.000000
_cell_volume 3274.596042
_symmetry_space_group_name_H-M "C 2/C"
_symmetry_group_IT_number 15
_symmetry_cell_setting 'monoclinic'
loop_
_space_group_symop_operation_xyz
x,y,z
-x,y,1/2-z
-x,-y,-z
x,-y,1/2+z
1/2+x,1/2+y,z
1/2-x,1/2+y,1/2-z
1/2-x,1/2-y,-z
1/2+x,1/2-y,1/2+z
loop_
_atom_site_type_symbol
_atom_site_label
_atom_site_fract_x
_atom_site_fract_y
_atom_site_fract_z
Si Si1 0.434359 0.220046 0.759596
Si Si2 0.704799 0.325774 0.614583
Si Si3 0.684658 0.679553 0.616422
Si Si4 0.072076 0.434203 0.087566
Si Si5 0.605054 0.270013 0.085288
Si Si6 0.285492 0.902141 0.649111
Si Si7 0.254039 0.246901 0.662503
Si Si8 0.000000 0.993658 0.750000
O O1 0.367973 0.232565 0.790119
O O2 0.411522 0.141089 0.858721
O O3 0.497619 0.122808 0.648727
O O4 0.458441 0.391207 0.746114
O O5 0.750000 0.250000 0.500000
O O6 0.690394 0.498072 0.610339
O O7 0.743255 0.312170 0.641275
O O8 0.750000 0.750000 0.500000
O O9 0.618315 0.735754 0.652966
O O10 0.687768 0.746373 0.690883
O O11 0.071440 0.615112 0.098678
O O12 0.132138 0.380278 0.962207
O O13 0.550216 0.404258 0.140567
O O14 0.676252 0.311527 0.958788
O O15 0.264612 0.847221 0.749714
O O16 0.267518 0.077231 0.669685
#
# Coordination Sequence:
#
# PCOD8130985 Si02
#       8
#     8   8   8   8   8   8   8   4
#     4  10  20  33  51  86 113 135 182 225 270 325
#     4  11  20  34  56  83 111 140 183 228 271 317
#     4   9  19  34  53  82 110 131 180 230 267 317
#     4   9  19  34  54  79 111 145 173 223 272 322
#     4  10  18  35  57  80 109 141 180 224 273 321
#     4  10  20  36  56  77 109 148 180 226 268 323
#     4   9  21  35  54  80 110 140 184 221 273 324
#     4  10  18  30  56  80 108 142 174 226 272 328
#
# _framework density 18.322872
#
# number of rings (size 3 to 8) (size 9 to 14) (size 15 to 20)
#    0.000    2.400    2.667    1.600    0.000    4.267 
#    0.000    0.000    2.933    4.000    0.000    0.000 
#    0.000    0.000    0.000    0.000    0.000    0.000 
#
# Total GULP energy -371795.554468 kJ/mol
# GULP energy per Si atom -12393.185149 kJ/mol
# Density = 1.828117 g / cm^3
# Si number density = 18.322872 Si / 1000 Ang^3
#
#
#
# Elastic Constant Matrix: (Units=GPa)
#
#
# Indices 1 2 3 4 5 6 
#
# 1 73.0200 18.1700 46.3281 0.0034 -4.7800 0.0113
# 2 18.1700 54.6492 37.2728 -0.0059 -6.7638 0.0107
# 3 46.3281 37.2728 107.7789 -0.0064 -2.8748 0.0042
# 4 0.0034 -0.0059 -0.0064 29.0242 -0.0023 2.0170
# 5 -4.7800 -6.7638 -2.8748 -0.0023 28.4380 -0.0016
# 6 0.0113 0.0107 0.0042 2.0170 -0.0016 12.3230
#
#
#
# Elastic Compliance Matrix: (Units=1/GPa)
#
#
# Indices 1 2 3 4 5 6 
#
# 1 0.019007 -0.000669 -0.007879 -0.000003 0.002239 -0.000013
# 2 -0.000669 0.024663 -0.008110 0.000005 0.004934 -0.000018
# 3 -0.007879 -0.008110 0.015425 0.000002 -0.001694 0.000008
# 4 -0.000003 0.000005 0.000002 0.034850 0.000003 -0.005704
# 5 0.002239 0.004934 -0.001694 0.000003 0.036543 -0.000002
# 6 -0.000013 -0.000018 0.000008 -0.005704 -0.000002 0.082083
#
#
# Mechanical properties :
#
#
# Convention : Reuss Voigt Hill
#
# Bulk Modulus (GPa) = 38.79158 48.77666 43.78412
# Shear Modulus (GPa) = 19.64807 22.86886 21.25847
#
# Velocity S-wave (km/s) = 3.27819 3.53669 3.40989
# Velocity P-wave (km/s) = 5.96203 6.58452 6.28099
#
# Compressibility (1/GPa) = 0.02577879
#
# Stress axis : x y z
#
# Youngs Moduli (GPa) = 52.61303 40.54690 64.83192
#
# Poissons Ratio (x) = 0.02711 0.51081
# Poissons Ratio (y) = 0.03517 0.52579
# Poissons Ratio (z) = 0.41454 0.32884
#
# Static dielectric constant tensor:
#      x y z
#    x 3.748390 -0.000020 -0.137390 
#    y -0.000020 3.425400 0.000030 
#    z -0.137390 0.000030 3.303700 
# 
# 
# High freq. dielectric constant tensor:
#      x y z
#    x 1.698800 0.000000 -0.020960 
#    y 0.000000 1.719930 0.000000 
#    z -0.020960 0.000000 1.689710 
# 
# From -- ./inp_files/221877.got.cif
#   From: 2010.06.25/outbox.cif.g09.slc.cpg/sg15_111_cif.got.tgz:221877.got - 2010.06.28 07:06:18.
