data_PCOD8130903
_publ_section_title
;
Structure prediction by ZEFSAII (Michael W. Deem and Ramdas Pophale) SiO2 
 PCOD8130903
Probable space group: C 2/C
;
_chemical_formula_sum "Si O2"
_cell_formula_units_Z 48
_cell_length_a 34.466894
_cell_length_b 9.351734
_cell_length_c 7.963098
_cell_angle_alpha 90.000000
_cell_angle_beta 72.817124
_cell_angle_gamma 90.000000
_cell_volume 2452.146726
_symmetry_space_group_name_H-M "C 2/C"
_symmetry_group_IT_number 15
_symmetry_cell_setting 'monoclinic'
loop_
_space_group_symop_operation_xyz
x,y,z
-x,y,1/2-z
-x,-y,-z
x,-y,1/2+z
1/2+x,1/2+y,z
1/2-x,1/2+y,1/2-z
1/2-x,1/2-y,-z
1/2+x,1/2-y,1/2+z
loop_
_atom_site_type_symbol
_atom_site_label
_atom_site_fract_x
_atom_site_fract_y
_atom_site_fract_z
Si Si1 0.295547 0.703708 0.970415
Si Si2 0.131117 0.635600 0.226810
Si Si3 0.880824 0.136419 0.472762
Si Si4 0.545923 0.797722 0.223189
Si Si5 0.081782 0.433086 0.486566
Si Si6 0.331253 0.434849 0.733292
O O1 0.323058 0.844725 0.898811
O O2 0.307014 0.572637 0.833129
O O3 0.250000 0.750000 0.000000
O O4 0.300965 0.658122 0.158026
O O5 0.125347 0.748167 0.378481
O O6 0.120488 0.480968 0.320159
O O7 0.099548 0.663393 0.114075
O O8 0.926864 0.156139 0.348558
O O9 0.849138 0.161819 0.360102
O O10 0.870206 0.982691 0.568154
O O11 0.500000 0.751680 0.250000
O O12 0.551276 0.840922 0.411764
O O13 0.557633 0.929699 0.087396
#
# Coordination Sequence:
#
# PCOD8130903 Si02
#       6
#     8   8   8   8   8   8
#     4  10  20  34  53  77 100 127 164 207 246 282
#     4   9  18  32  50  73  99 135 167 193 242 303
#     4   9  18  34  54  70  94 135 169 195 242 301
#     4  10  18  30  49  77 103 129 164 207 246 284
#     4   9  18  31  49  73 105 135 162 197 245 301
#     4   9  19  37  54  70  98 133 165 199 243 297
#
# _framework density 19.574683
#
# number of rings (size 3 to 8) (size 9 to 14) (size 15 to 20)
#    0.000    2.667    0.000    1.500    0.000    1.333 
#    0.000    8.333    0.000    0.000    0.000    0.000 
#    0.000    0.000    0.000    0.000    0.000    0.000 
#
# Total GULP energy -297372.877283 kJ/mol
# GULP energy per Si atom -12390.536553 kJ/mol
# Density = 1.953013 g / cm^3
# Si number density = 19.574683 Si / 1000 Ang^3
#
#
#
# Elastic Constant Matrix: (Units=GPa)
#
#
# Indices 1 2 3 4 5 6 
#
# 1 163.6019 46.2222 65.7853 0.0000 14.6928 0.0000
# 2 46.2222 39.2891 31.8753 0.0000 12.1754 0.0000
# 3 65.7853 31.8753 126.6913 0.0000 32.2359 0.0000
# 4 0.0000 0.0000 0.0000 25.2759 0.0000 3.5423
# 5 14.6928 12.1754 32.2359 0.0000 33.0796 0.0000
# 6 0.0000 0.0000 0.0000 3.5423 0.0000 32.1325
#
#
#
# Elastic Compliance Matrix: (Units=1/GPa)
#
#
# Indices 1 2 3 4 5 6 
#
# 1 0.010014 -0.009818 -0.003348 0.000000 0.002428 0.000000
# 2 -0.009818 0.042300 -0.003580 0.000000 -0.007719 0.000000
# 3 -0.003348 -0.003580 0.013056 0.000000 -0.009918 0.000000
# 4 0.000000 0.000000 0.000000 0.040184 0.000000 -0.004430
# 5 0.002428 -0.007719 -0.009918 0.000000 0.041658 0.000000
# 6 0.000000 0.000000 0.000000 -0.004430 0.000000 0.031610
#
#
# Mechanical properties :
#
#
# Convention : Reuss Voigt Hill
#
# Bulk Modulus (GPa) = 31.36952 68.59422 49.98187
# Shear Modulus (GPa) = 22.42762 30.47757 26.45260
#
# Velocity S-wave (km/s) = 3.38856 3.95015 3.68008
# Velocity P-wave (km/s) = 5.60090 7.47819 6.60657
#
# Compressibility (1/GPa) = 0.03187808
#
# Stress axis : x y z
#
# Youngs Moduli (GPa) = 99.85759 23.64084 76.59384
#
# Poissons Ratio (x) = 0.23210 0.25640
# Poissons Ratio (y) = 0.98039 0.27424
# Poissons Ratio (z) = 0.33428 0.08464
#
# Static dielectric constant tensor:
#      x y z
#    x 3.565580 0.000000 -0.032920 
#    y 0.000000 3.802350 0.000000 
#    z -0.032920 0.000000 4.037290 
# 
# 
# High freq. dielectric constant tensor:
#      x y z
#    x 1.742040 0.000000 0.014300 
#    y 0.000000 1.731980 0.000000 
#    z 0.014300 0.000000 1.787580 
# 
# From -- ./inp_files/68755.got.cif
#   From: 2010.06.25/outbox.cif.g09.slc.cpg/sg15_35_cif.got.tgz:68755.got - 2010.06.28 07:06:18.
