data_PCOD8130258
_publ_section_title
;
Structure prediction by ZEFSAII (Michael W. Deem and Ramdas Pophale) SiO2 
 PCOD8130258
Probable space group: C 2/C
;
_chemical_formula_sum "Si O2"
_cell_formula_units_Z 60
_cell_length_a 21.395278
_cell_length_b 12.534772
_cell_length_c 20.207608
_cell_angle_alpha 90.000000
_cell_angle_beta 38.173534
_cell_angle_gamma 90.000000
_cell_volume 3349.419995
_symmetry_space_group_name_H-M "C 2/C"
_symmetry_group_IT_number 15
_symmetry_cell_setting 'monoclinic'
loop_
_space_group_symop_operation_xyz
x,y,z
-x,y,1/2-z
-x,-y,-z
x,-y,1/2+z
1/2+x,1/2+y,z
1/2-x,1/2+y,1/2-z
1/2-x,1/2-y,-z
1/2+x,1/2-y,1/2+z
loop_
_atom_site_type_symbol
_atom_site_label
_atom_site_fract_x
_atom_site_fract_y
_atom_site_fract_z
Si Si1 0.272852 0.259069 0.670375
Si Si2 0.968393 0.269901 0.075970
Si Si3 0.984204 0.934705 0.893453
Si Si4 0.689022 0.163391 0.378141
Si Si5 0.214490 0.986671 0.882894
Si Si6 0.837252 0.319488 0.311620
Si Si7 0.500000 0.296636 0.750000
Si Si8 0.308848 0.536488 0.752953
O O1 0.392593 0.230550 0.576448
O O2 0.228816 0.291255 0.776995
O O3 0.255052 0.361502 0.637955
O O4 0.214657 0.152815 0.696970
O O5 0.002583 0.148251 0.057527
O O6 0.909205 0.313691 0.188211
O O7 0.067526 0.341314 0.981102
O O8 0.974947 0.871863 0.832529
O O9 0.079933 0.012112 0.813295
O O10 0.886297 0.004325 0.989796
O O11 0.738306 0.242328 0.391650
O O12 0.729560 0.043686 0.353480
O O13 0.300409 0.058006 0.847356
O O14 0.199314 0.028979 0.820173
O O15 0.903554 0.280956 0.318802
#
# Coordination Sequence:
#
# PCOD8130258 Si02
#       8
#     8   8   8   8   8   8   4   8
#     4  10  21  31  49  81 116 142 184 221 275 348
#     4  10  17  31  50  82 110 147 177 220 283 327
#     4  11  20  34  60  79 110 144 193 230 273 328
#     4  10  18  31  52  78 114 147 176 230 279 318
#     4  11  20  34  55  84 114 148 179 233 283 331
#     4  10  19  36  51  81 115 136 188 230 273 322
#     4  10  22  38  56  86 108 144 192 234 278 326
#     4  11  19  35  52  83 119 148 180 230 273 343
#
# _framework density 17.913547999999999
#
# number of rings (size 3 to 8) (size 9 to 14) (size 15 to 20)
#    0.000    1.600    9.333    0.400    1.867    1.067 
#    0.000    0.000    0.000    1.600    0.000    0.000 
#    0.000    0.000    0.000    0.000    0.000    0.000 
#
# Total GULP energy -371836.269827 kJ/mol
# GULP energy per Si atom -12394.542328 kJ/mol
# Density = 1.787278 g / cm^3
# Si number density = 17.913548 Si / 1000 Ang^3
#
#
#
# Elastic Constant Matrix: (Units=GPa)
#
#
# Indices 1 2 3 4 5 6 
#
# 1 81.3270 47.2217 29.6349 0.0000 -15.9257 0.0000
# 2 47.2217 160.1784 43.6836 0.0000 -18.9822 0.0000
# 3 29.6349 43.6836 68.5047 0.0000 -27.5057 0.0000
# 4 0.0000 0.0000 0.0000 12.2590 0.0000 -1.5706
# 5 -15.9257 -18.9822 -27.5057 0.0000 23.6358 0.0000
# 6 0.0000 0.0000 0.0000 -1.5706 0.0000 26.0302
#
#
#
# Elastic Compliance Matrix: (Units=1/GPa)
#
#
# Indices 1 2 3 4 5 6 
#
# 1 0.016301 -0.003437 -0.002925 0.000000 0.004819 0.000000
# 2 -0.003437 0.008291 -0.003860 0.000000 -0.000149 0.000000
# 3 -0.002925 -0.003860 0.030575 0.000000 0.030509 0.000000
# 4 0.000000 0.000000 0.000000 0.082208 0.000000 0.004960
# 5 0.004819 -0.000149 0.030509 0.000000 0.080941 0.000000
# 6 0.000000 0.000000 0.000000 0.004960 0.000000 0.038716
#
#
# Mechanical properties :
#
#
# Convention : Reuss Voigt Hill
#
# Bulk Modulus (GPa) = 28.79980 61.23227 45.01603
# Shear Modulus (GPa) = 17.29795 25.01632 21.15714
#
# Velocity S-wave (km/s) = 3.11084 3.74104 3.44040
# Velocity P-wave (km/s) = 5.38657 7.27439 6.40046
#
# Compressibility (1/GPa) = 0.03472247
#
# Stress axis : x y z
#
# Youngs Moduli (GPa) = 61.34485 120.60779 32.70691
#
# Poissons Ratio (x) = 0.41451 0.09567
# Poissons Ratio (y) = 0.21083 0.12626
# Poissons Ratio (z) = 0.17945 0.46558
#
# Static dielectric constant tensor:
#      x y z
#    x 3.290160 0.000000 -0.346670 
#    y 0.000000 3.606930 0.000000 
#    z -0.346670 0.000000 3.244410 
# 
# 
# High freq. dielectric constant tensor:
#      x y z
#    x 1.659490 0.000000 -0.033800 
#    y 0.000000 1.691180 0.000000 
#    z -0.033800 0.000000 1.682070 
# 
# From -- ./inp_files/215183.got.cif
#   From: 2010.06.25/outbox.cif.g09.slc.cpg/sg15_108_cif.got.tgz:215183.got - 2010.06.28 07:06:18.
