data_PCOD8130430
_publ_section_title
;
Structure prediction by ZEFSAII (Michael W. Deem and Ramdas Pophale) SiO2 
 PCOD8130430
Probable space group: C 2/C
;
_chemical_formula_sum "Si O2"
_cell_formula_units_Z 64
_cell_length_a 33.011025
_cell_length_b 15.216811
_cell_length_c 22.533069
_cell_angle_alpha 90.000000
_cell_angle_beta 17.529818
_cell_angle_gamma 90.000000
_cell_volume 3409.266804
_symmetry_space_group_name_H-M "C 2/C"
_symmetry_group_IT_number 15
_symmetry_cell_setting 'monoclinic'
loop_
_space_group_symop_operation_xyz
x,y,z
-x,y,1/2-z
-x,-y,-z
x,-y,1/2+z
1/2+x,1/2+y,z
1/2-x,1/2+y,1/2-z
1/2-x,1/2-y,-z
1/2+x,1/2-y,1/2+z
loop_
_atom_site_type_symbol
_atom_site_label
_atom_site_fract_x
_atom_site_fract_y
_atom_site_fract_z
Si Si1 0.646132 0.204749 0.062305
Si Si2 0.073288 0.096165 0.396143
Si Si3 0.647527 0.948601 0.045925
Si Si4 0.844522 0.433677 0.856559
Si Si5 0.730452 0.370512 0.789460
Si Si6 0.356971 0.599428 0.955436
Si Si7 0.862367 0.460945 0.058076
Si Si8 0.323149 0.687819 0.699595
O O1 0.500000 0.164827 0.250000
O O2 0.697391 0.154932 0.049716
O O3 0.630141 0.307902 0.097135
O O4 0.753166 0.195386 0.860666
O O5 0.103461 0.127311 0.421532
O O6 0.979223 0.165743 0.493517
O O7 0.217763 0.103731 0.160747
O O8 0.000000 0.000000 0.500000
O O9 0.500000 0.898190 0.250000
O O10 0.669964 0.982404 0.080864
O O11 0.637202 0.030677 0.014566
O O12 0.994926 0.423618 0.620379
O O13 0.754039 0.454403 0.925734
O O14 0.838457 0.443544 0.619640
O O15 0.806006 0.276227 0.684750
O O16 0.677713 0.392627 0.927740
O O17 0.500000 0.550022 0.750000
O O18 0.746416 0.392458 0.239322
#
# Coordination Sequence:
#
# PCOD8130430 Si02
#       8
#     8   8   8   8   8   8   8   8
#     4  10  17  33  49  81 117 147 194 236 297 368
#     4  11  20  37  65  85 113 163 206 249 294 356
#     4   9  18  33  58  89 108 145 204 257 293 347
#     4  11  18  32  57  78 111 158 195 241 305 365
#     4  10  24  39  51  88 127 152 202 246 296 373
#     4  10  24  31  46  79 123 161 182 240 301 366
#     4  10  19  36  59  81 117 156 198 247 294 361
#     4  11  20  34  60  91 116 154 200 253 301 342
#
# _framework density 18.772365000000001
#
# number of rings (size 3 to 8) (size 9 to 14) (size 15 to 20)
#    0.000    1.750    5.000    0.750    3.500    2.500 
#    0.000    0.000    0.000    6.750    0.000   10.500 
#    0.000    0.000    0.000    0.000    0.000    0.000 
#
# Total GULP energy -396540.326619 kJ/mol
# GULP energy per Si atom -12391.885207 kJ/mol
# Density = 1.872964 g / cm^3
# Si number density = 18.772365 Si / 1000 Ang^3
#
#
#
# Elastic Constant Matrix: (Units=GPa)
#
#
# Indices 1 2 3 4 5 6 
#
# 1 117.9074 41.6130 53.1225 0.0007 -25.2207 -0.0001
# 2 41.6130 83.9137 37.5615 0.0050 -7.8575 -0.0033
# 3 53.1225 37.5615 131.5828 0.0007 -21.9717 -0.0008
# 4 0.0007 0.0050 0.0007 19.0451 -0.0011 -5.0636
# 5 -25.2207 -7.8575 -21.9717 -0.0011 30.5552 0.0002
# 6 -0.0001 -0.0033 -0.0008 -5.0636 0.0002 25.9831
#
#
#
# Elastic Compliance Matrix: (Units=1/GPa)
#
#
# Indices 1 2 3 4 5 6 
#
# 1 0.012881 -0.004491 -0.002655 0.000001 0.007569 0.000000
# 2 -0.004491 0.015246 -0.002845 -0.000004 -0.001832 0.000001
# 3 -0.002655 -0.002845 0.010223 0.000001 0.004428 0.000000
# 4 0.000001 -0.000004 0.000001 0.055376 0.000002 0.010792
# 5 0.007569 -0.001832 0.004428 0.000002 0.041688 0.000000
# 6 0.000000 0.000001 0.000000 0.010792 0.000000 0.040590
#
#
# Mechanical properties :
#
#
# Convention : Reuss Voigt Hill
#
# Bulk Modulus (GPa) = 54.43848 66.44419 60.44133
# Shear Modulus (GPa) = 24.73924 28.52381 26.63153
#
# Velocity S-wave (km/s) = 3.63416 3.90225 3.77059
# Velocity P-wave (km/s) = 6.83167 7.46826 7.15705
#
# Compressibility (1/GPa) = 0.01836936
#
# Stress axis : x y z
#
# Youngs Moduli (GPa) = 77.63297 65.59129 97.81779
#
# Poissons Ratio (x) = 0.29456 0.25967
# Poissons Ratio (y) = 0.34863 0.27829
# Poissons Ratio (z) = 0.20609 0.18660
#
# Static dielectric constant tensor:
#      x y z
#    x 3.390740 0.000000 -0.198600 
#    y 0.000000 3.249270 0.000000 
#    z -0.198600 0.000000 3.647360 
# 
# 
# High freq. dielectric constant tensor:
#      x y z
#    x 1.717750 0.000000 -0.014810 
#    y 0.000000 1.692320 0.000000 
#    z -0.014810 0.000000 1.735230 
# 
# From -- ./inp_files/259433.got.cif
#   From: 2010.06.25/outbox.cif.g09.slc.cpg/sg15_130_cif.got.tgz:259433.got - 2010.06.28 07:06:18.
