data_PCOD8130899
_publ_section_title
;
Structure prediction by ZEFSAII (Michael W. Deem and Ramdas Pophale) SiO2 
 PCOD8130899
Probable space group: C 2/C
;
_chemical_formula_sum "Si O2"
_cell_formula_units_Z 48
_cell_length_a 22.908579
_cell_length_b 14.553927
_cell_length_c 18.708275
_cell_angle_alpha 90.000000
_cell_angle_beta 23.241202
_cell_angle_gamma 90.000000
_cell_volume 2461.343433
_symmetry_space_group_name_H-M "C 2/C"
_symmetry_group_IT_number 15
_symmetry_cell_setting 'monoclinic'
loop_
_space_group_symop_operation_xyz
x,y,z
-x,y,1/2-z
-x,-y,-z
x,-y,1/2+z
1/2+x,1/2+y,z
1/2-x,1/2+y,1/2-z
1/2-x,1/2-y,-z
1/2+x,1/2-y,1/2+z
loop_
_atom_site_type_symbol
_atom_site_label
_atom_site_fract_x
_atom_site_fract_y
_atom_site_fract_z
Si Si1 0.265812 0.805552 0.109754
Si Si2 0.736116 0.239114 0.299990
Si Si3 0.366554 0.552819 0.113894
Si Si4 0.921930 0.546312 0.506722
Si Si5 0.973214 0.138775 0.857938
Si Si6 0.956386 0.365389 0.109765
O O1 0.212558 0.788547 0.250632
O O2 0.369728 0.897637 0.995690
O O3 0.125502 0.822413 0.218392
O O4 0.359894 0.722369 0.972437
O O5 0.853505 0.155673 0.160870
O O6 0.798575 0.313053 0.287866
O O7 0.579328 0.202462 0.504596
O O8 0.216290 0.497851 0.294900
O O9 0.500000 0.500000 0.000000
O O10 0.401791 0.561779 0.989620
O O11 0.999403 0.614301 0.477382
O O12 0.035331 0.463366 0.357320
O O13 0.000000 0.093687 0.750000
#
# Coordination Sequence:
#
# PCOD8130899 Si02
#       6
#     8   8   8   8   8   8
#     4  10  18  32  50  69 106 142 179 209 254 316
#     4   9  17  27  45  68 100 134 168 212 264 313
#     4  10  18  30  49  71  99 138 179 223 259 298
#     4   9  17  29  48  70  98 139 177 222 256 300
#     4  11  22  34  51  76 110 150 175 204 261 325
#     4   9  17  27  42  70 100 132 164 212 275 304
#
# _framework density 19.501546000000001
#
# number of rings (size 3 to 8) (size 9 to 14) (size 15 to 20)
#    0.000    2.333    1.667    3.500    2.333    1.333 
#    0.000    0.000    0.000    0.000    0.000    0.000 
#    0.000   22.667    0.000    0.167    0.000    0.000 
#
# Total GULP energy -297399.898680 kJ/mol
# GULP energy per Si atom -12391.662445 kJ/mol
# Density = 1.945716 g / cm^3
# Si number density = 19.501546 Si / 1000 Ang^3
#
#
#
# Elastic Constant Matrix: (Units=GPa)
#
#
# Indices 1 2 3 4 5 6 
#
# 1 59.0780 22.8395 27.3712 -0.0019 -9.3794 0.0011
# 2 22.8395 74.7984 13.8265 -0.0033 -4.4159 0.0023
# 3 27.3712 13.8265 34.5452 -0.0031 -6.0277 0.0027
# 4 -0.0019 -0.0033 -0.0031 23.1993 0.0026 -14.5761
# 5 -9.3794 -4.4159 -6.0277 0.0026 32.5929 -0.0019
# 6 0.0011 0.0023 0.0027 -14.5761 -0.0019 32.0445
#
#
#
# Elastic Compliance Matrix: (Units=1/GPa)
#
#
# Indices 1 2 3 4 5 6 
#
# 1 0.028756 -0.004821 -0.020176 -0.000001 0.003891 0.000001
# 2 -0.004821 0.015272 -0.002246 0.000001 0.000266 0.000000
# 3 -0.020176 -0.002246 0.046259 0.000003 0.002445 -0.000002
# 4 -0.000001 0.000001 0.000003 0.060354 -0.000003 0.027453
# 5 0.003891 0.000266 0.002445 -0.000003 0.032289 0.000000
# 6 0.000001 0.000000 -0.000002 0.027453 0.000000 0.043694
#
#
# Mechanical properties :
#
#
# Convention : Reuss Voigt Hill
#
# Bulk Modulus (GPa) = 27.93212 32.94402 30.43807
# Shear Modulus (GPa) = 17.06229 24.52628 20.79428
#
# Velocity S-wave (km/s) = 2.96111 3.55020 3.26895
# Velocity P-wave (km/s) = 5.10343 5.80817 5.46717
#
# Compressibility (1/GPa) = 0.03580108
#
# Stress axis : x y z
#
# Youngs Moduli (GPa) = 34.77552 65.47771 21.61750
#
# Poissons Ratio (x) = 0.31569 0.43614
# Poissons Ratio (y) = 0.16767 0.04855
# Poissons Ratio (z) = 0.70161 0.14707
#
# Static dielectric constant tensor:
#      x y z
#    x 3.417730 0.000000 -0.527970 
#    y 0.000000 4.008770 0.000000 
#    z -0.527970 0.000000 3.396370 
# 
# 
# High freq. dielectric constant tensor:
#      x y z
#    x 1.728510 0.000000 -0.062060 
#    y 0.000000 1.771760 0.000000 
#    z -0.062060 0.000000 1.718120 
# 
# From -- ./inp_files/215488.got.cif
#   From: 2010.06.25/outbox.cif.g09.slc.cpg/sg15_108_cif.got.tgz:215488.got - 2010.06.28 07:06:18.
