data_PCOD8130266
_publ_section_title
;
Structure prediction by ZEFSAII (Michael W. Deem and Ramdas Pophale) SiO2 
 PCOD8130266
Probable space group: C 2/C
;
_chemical_formula_sum "Si O2"
_cell_formula_units_Z 56
_cell_length_a 8.519112
_cell_length_b 16.227183
_cell_length_c 21.976895
_cell_angle_alpha 90.000000
_cell_angle_beta 93.792401
_cell_angle_gamma 90.000000
_cell_volume 3031.459396
_symmetry_space_group_name_H-M "C 2/C"
_symmetry_group_IT_number 15
_symmetry_cell_setting 'monoclinic'
loop_
_space_group_symop_operation_xyz
x,y,z
-x,y,1/2-z
-x,-y,-z
x,-y,1/2+z
1/2+x,1/2+y,z
1/2-x,1/2+y,1/2-z
1/2-x,1/2-y,-z
1/2+x,1/2-y,1/2+z
loop_
_atom_site_type_symbol
_atom_site_label
_atom_site_fract_x
_atom_site_fract_y
_atom_site_fract_z
Si Si1 0.775020 0.451915 0.603722
Si Si2 0.493311 0.938795 0.320717
Si Si3 0.064209 0.591569 0.503177
Si Si4 0.123004 0.693995 0.913731
Si Si5 0.411677 0.396553 0.439499
Si Si6 0.459579 0.379866 0.579016
Si Si7 0.706906 0.461661 0.392723
O O1 0.889456 0.484745 0.660196
O O2 0.874455 0.389164 0.563277
O O3 0.717565 0.529906 0.561697
O O4 0.618515 0.403058 0.621113
O O5 0.500000 0.922024 0.250000
O O6 0.549029 0.856406 0.356041
O O7 0.311081 0.957840 0.333915
O O8 0.205285 0.591314 0.554373
O O9 0.000000 0.500000 0.500000
O O10 0.940800 0.660750 0.522428
O O11 0.313160 0.685355 0.920242
O O12 0.086515 0.788928 0.902765
O O13 0.493928 0.388722 0.507557
O O14 0.535886 0.416661 0.388343
O O15 0.318071 0.441665 0.592862
#
# Coordination Sequence:
#
# PCOD8130266 Si02
#       7
#     8   8   8   8   8   8   8
#     4  10  18  32  56  76 109 141 186 219 269 328
#     4  10  22  41  57  71  99 149 202 233 262 324
#     4  11  15  31  51  77 109 144 177 217 263 337
#     4  10  22  32  52  83 117 147 169 220 290 325
#     4  10  17  31  51  83 118 144 167 208 274 352
#     4  11  19  32  52  91 117 136 166 227 288 338
#     4  10  18  32  57  77 106 144 180 223 270 326
#
# _framework density 18.472950999999998
#
# number of rings (size 3 to 8) (size 9 to 14) (size 15 to 20)
#    0.000    1.714    7.143    1.286    0.000    0.571 
#    0.000    7.857    0.000    0.000    0.000    0.000 
#    0.000    0.000    0.000    0.000    0.000    0.000 
#
# Total GULP energy -346910.885569 kJ/mol
# GULP energy per Si atom -12389.674485 kJ/mol
# Density = 1.843091 g / cm^3
# Si number density = 18.472951 Si / 1000 Ang^3
#
#
#
# Elastic Constant Matrix: (Units=GPa)
#
#
# Indices 1 2 3 4 5 6 
#
# 1 103.6681 40.9610 32.5575 0.0000 -15.2881 0.0000
# 2 40.9610 97.7559 20.2177 0.0000 -7.4017 0.0000
# 3 32.5575 20.2177 87.5667 0.0000 -8.3723 0.0000
# 4 0.0000 0.0000 0.0000 10.5559 0.0000 0.8585
# 5 -15.2881 -7.4017 -8.3723 0.0000 20.9496 0.0000
# 6 0.0000 0.0000 0.0000 0.8585 0.0000 23.2115
#
#
#
# Elastic Compliance Matrix: (Units=1/GPa)
#
#
# Indices 1 2 3 4 5 6 
#
# 1 0.013461 -0.004429 -0.003319 0.000000 0.006932 0.000000
# 2 -0.004429 0.012374 -0.001145 0.000000 0.000682 0.000000
# 3 -0.003319 -0.001145 0.013151 0.000000 0.002429 0.000000
# 4 0.000000 0.000000 0.000000 0.095020 0.000000 -0.003514
# 5 0.006932 0.000682 0.002429 0.000000 0.054004 0.000000
# 6 0.000000 0.000000 0.000000 -0.003514 0.000000 0.043212
#
#
# Mechanical properties :
#
#
# Convention : Reuss Voigt Hill
#
# Bulk Modulus (GPa) = 47.17314 52.94036 50.05675
# Shear Modulus (GPa) = 19.52563 23.96036 21.74299
#
# Velocity S-wave (km/s) = 3.25466 3.60537 3.43449
# Velocity P-wave (km/s) = 6.30202 6.78617 6.54857
#
# Compressibility (1/GPa) = 0.02119850
#
# Stress axis : x y z
#
# Youngs Moduli (GPa) = 74.28958 80.81596 76.04215
#
# Poissons Ratio (x) = 0.35793 0.25242
# Poissons Ratio (y) = 0.32902 0.08707
# Poissons Ratio (z) = 0.24660 0.09253
#
# Static dielectric constant tensor:
#      x y z
#    x 3.789830 0.000000 -0.186710 
#    y 0.000000 3.195420 0.000000 
#    z -0.186710 0.000000 2.914150 
# 
# 
# High freq. dielectric constant tensor:
#      x y z
#    x 1.739400 0.000000 -0.011250 
#    y 0.000000 1.694840 0.000000 
#    z -0.011250 0.000000 1.658220 
# 
# From -- ./inp_files/232123.got.cif
#   From: 2010.06.25/outbox.cif.g09.slc.cpg/sg15_117_cif.got.tgz:232123.got - 2010.06.28 07:06:18.
