data_PCOD8130742
_publ_section_title
;
Structure prediction by ZEFSAII (Michael W. Deem and Ramdas Pophale) SiO2 
 PCOD8130742
Probable space group: C 2/C
;
_chemical_formula_sum "Si O2"
_cell_formula_units_Z 60
_cell_length_a 20.158557
_cell_length_b 23.097773
_cell_length_c 9.046289
_cell_angle_alpha 90.000000
_cell_angle_beta 119.681922
_cell_angle_gamma 90.000000
_cell_volume 3659.432332
_symmetry_space_group_name_H-M "C 2/C"
_symmetry_group_IT_number 15
_symmetry_cell_setting 'monoclinic'
loop_
_space_group_symop_operation_xyz
x,y,z
-x,y,1/2-z
-x,-y,-z
x,-y,1/2+z
1/2+x,1/2+y,z
1/2-x,1/2+y,1/2-z
1/2-x,1/2-y,-z
1/2+x,1/2-y,1/2+z
loop_
_atom_site_type_symbol
_atom_site_label
_atom_site_fract_x
_atom_site_fract_y
_atom_site_fract_z
Si Si1 0.189737 0.658209 0.083204
Si Si2 0.685567 0.818914 0.241511
Si Si3 0.432546 0.925102 0.941714
Si Si4 0.645344 0.311802 0.746641
Si Si5 0.965766 0.333850 0.553983
Si Si6 0.500930 0.298981 0.420119
Si Si7 0.500000 0.008212 0.250000
Si Si8 0.149929 0.790195 0.085635
O O1 0.280731 0.648601 0.207583
O O2 0.161187 0.720805 0.111300
O O3 0.172198 0.653791 0.888734
O O4 0.149389 0.606119 0.128448
O O5 0.670407 0.751296 0.225980
O O6 0.772993 0.825123 0.283612
O O7 0.625613 0.846221 0.057753
O O8 0.444222 0.970873 0.085263
O O9 0.495819 0.874553 0.026842
O O10 0.442979 0.954439 0.791443
O O11 0.569634 0.333705 0.576659
O O12 0.625555 0.310048 0.896548
O O13 0.984664 0.268442 0.534409
O O14 0.000000 0.350862 0.750000
O O15 0.500000 0.316816 0.250000
O O16 0.417009 0.313986 0.385066
#
# Coordination Sequence:
#
# PCOD8130742 Si02
#       8
#     8   8   8   8   8   8   4   8
#     4   9  16  29  49  62  80 118 157 188 219 263
#     4   8  16  27  42  65  86 111 158 195 205 242
#     4  11  19  35  46  63  86 116 152 188 236 267
#     4   8  16  28  42  63  86 113 158 189 208 248
#     4  10  18  29  42  61  87 121 158 181 215 272
#     4  10  18  27  38  65  94 124 150 181 215 253
#     4  10  24  32  46  64  84 110 150 206 236 264
#     4   9  15  28  44  63  87 121 155 186 211 242
#
# _framework density 16.395985
#
# number of rings (size 3 to 8) (size 9 to 14) (size 15 to 20)
#    0.000    2.667    2.000    2.800    0.000    0.000 
#    2.400    2.667    0.000    0.000    0.000    0.000 
#    0.000    0.000    0.000   56.400    0.000    2.667 
#
# Total GULP energy -371693.511000 kJ/mol
# GULP energy per Si atom -12389.783700 kJ/mol
# Density = 1.635867 g / cm^3
# Si number density = 16.395985 Si / 1000 Ang^3
#
#
#
# Elastic Constant Matrix: (Units=GPa)
#
#
# Indices 1 2 3 4 5 6 
#
# 1 146.8107 29.1449 67.2976 0.0000 9.0575 0.0000
# 2 29.1449 35.2482 20.6261 0.0000 -4.0990 0.0000
# 3 67.2976 20.6261 102.6316 0.0000 14.8531 0.0000
# 4 0.0000 0.0000 0.0000 8.4562 0.0000 -2.3984
# 5 9.0575 -4.0990 14.8531 0.0000 26.2366 0.0000
# 6 0.0000 0.0000 0.0000 -2.3984 0.0000 24.0590
#
#
#
# Elastic Compliance Matrix: (Units=1/GPa)
#
#
# Indices 1 2 3 4 5 6 
#
# 1 0.010585 -0.005625 -0.005615 0.000000 -0.001354 0.000000
# 2 -0.005625 0.037448 -0.005409 0.000000 0.010854 0.000000
# 3 -0.005615 -0.005409 0.015635 0.000000 -0.007758 0.000000
# 4 0.000000 0.000000 0.000000 0.121698 0.000000 0.012132
# 5 -0.001354 0.010854 -0.007758 0.000000 0.044670 0.000000
# 6 0.000000 0.000000 0.000000 0.012132 0.000000 0.042774
#
#
# Mechanical properties :
#
#
# Convention : Reuss Voigt Hill
#
# Bulk Modulus (GPa) = 32.92441 57.64752 45.28596
# Shear Modulus (GPa) = 15.81125 22.92513 19.36819
#
# Velocity S-wave (km/s) = 3.10875 3.74333 3.44070
# Velocity P-wave (km/s) = 5.74544 7.34297 6.59277
#
# Compressibility (1/GPa) = 0.03037260
#
# Stress axis : x y z
#
# Youngs Moduli (GPa) = 94.46989 26.70363 63.95902
#
# Poissons Ratio (x) = 0.15019 0.35911
# Poissons Ratio (y) = 0.53135 0.34594
# Poissons Ratio (z) = 0.53042 0.14443
#
# Static dielectric constant tensor:
#      x y z
#    x 3.377120 0.000000 0.436770 
#    y 0.000000 2.759760 0.000000 
#    z 0.436770 0.000000 3.616970 
# 
# 
# High freq. dielectric constant tensor:
#      x y z
#    x 1.636780 0.000000 0.003590 
#    y 0.000000 1.567130 0.000000 
#    z 0.003590 0.000000 1.630330 
# 
# From -- ./inp_files/51299.got.cif
#   From: 2010.06.25/outbox.cif.g09.slc.cpg/sg15_26_cif.got.tgz:51299.got - 2010.06.28 07:06:18.
