data_PCOD8130345
_publ_section_title
;
Structure prediction by ZEFSAII (Michael W. Deem and Ramdas Pophale) SiO2 
 PCOD8130345
Probable space group: C 2/C
;
_chemical_formula_sum "Si O2"
_cell_formula_units_Z 64
_cell_length_a 11.071700
_cell_length_b 20.869032
_cell_length_c 17.643103
_cell_angle_alpha 90.000000
_cell_angle_beta 121.310310
_cell_angle_gamma 90.000000
_cell_volume 3482.853457
_symmetry_space_group_name_H-M "C 2/C"
_symmetry_group_IT_number 15
_symmetry_cell_setting 'monoclinic'
loop_
_space_group_symop_operation_xyz
x,y,z
-x,y,1/2-z
-x,-y,-z
x,-y,1/2+z
1/2+x,1/2+y,z
1/2-x,1/2+y,1/2-z
1/2-x,1/2-y,-z
1/2+x,1/2-y,1/2+z
loop_
_atom_site_type_symbol
_atom_site_label
_atom_site_fract_x
_atom_site_fract_y
_atom_site_fract_z
Si Si1 0.932100 0.871053 0.805521
Si Si2 0.795609 0.820553 0.538521
Si Si3 0.185987 0.802111 0.378969
Si Si4 0.349737 0.837809 0.574903
Si Si5 0.351960 0.415928 0.425975
Si Si6 0.364979 0.677501 0.803908
Si Si7 0.154308 0.060490 0.081036
Si Si8 0.836894 0.314984 0.851131
O O1 0.897448 0.930592 0.849043
O O2 0.787022 0.833801 0.746254
O O3 0.000000 0.898505 0.750000
O O4 0.041262 0.820981 0.880040
O O5 0.750000 0.750000 0.500000
O O6 0.778799 0.873027 0.467153
O O7 0.693919 0.840778 0.574590
O O8 0.295964 0.837584 0.470259
O O9 0.196501 0.726287 0.396560
O O10 0.223590 0.815815 0.303084
O O11 0.030782 0.829197 0.342611
O O12 0.286761 0.896239 0.601726
O O13 0.518141 0.846224 0.630693
O O14 0.311602 0.384918 0.331829
O O15 0.293107 0.487842 0.412973
O O16 0.522340 0.419399 0.485565
O O17 0.344924 0.738021 0.853107
#
# Coordination Sequence:
#
# PCOD8130345 Si02
#       8
#     8   8   8   8   8   8   8   8
#     4   9  20  36  54  82 106 142 190 232 272 335
#     4  10  19  35  59  81 111 144 184 235 281 337
#     4   9  19  30  52  84 112 138 178 238 287 325
#     4  10  19  34  55  81 111 147 186 227 286 337
#     4  10  20  35  56  82 111 150 190 224 282 347
#     4  10  17  32  51  84 115 136 180 234 286 331
#     4  10  20  36  56  79 114 153 186 228 281 345
#     4  10  20  33  57  82 108 145 189 232 283 328
#
# _framework density 18.375737999999998
#
# number of rings (size 3 to 8) (size 9 to 14) (size 15 to 20)
#    0.000    2.250    2.500    0.750    0.000    2.500 
#    2.250    1.875    0.000    4.500    0.000    0.000 
#    0.000    0.000    0.000    0.000    0.000    0.000 
#
# Total GULP energy -396729.510416 kJ/mol
# GULP energy per Si atom -12397.797201 kJ/mol
# Density = 1.833391 g / cm^3
# Si number density = 18.375738 Si / 1000 Ang^3
#
#
#
# Elastic Constant Matrix: (Units=GPa)
#
#
# Indices 1 2 3 4 5 6 
#
# 1 90.0317 56.0646 47.5847 0.0000 -6.6008 0.0000
# 2 56.0646 112.4446 47.3374 0.0000 -17.3458 0.0000
# 3 47.5847 47.3374 112.6883 0.0000 -18.3778 0.0000
# 4 0.0000 0.0000 0.0000 18.8228 0.0000 -3.7843
# 5 -6.6008 -17.3458 -18.3778 0.0000 30.5484 0.0000
# 6 0.0000 0.0000 0.0000 -3.7843 0.0000 25.8716
#
#
#
# Elastic Compliance Matrix: (Units=1/GPa)
#
#
# Indices 1 2 3 4 5 6 
#
# 1 0.018192 -0.007440 -0.005105 0.000000 -0.003365 0.000000
# 2 -0.007440 0.014254 -0.001983 0.000000 0.005293 0.000000
# 3 -0.005105 -0.001983 0.012750 0.000000 0.005441 0.000000
# 4 0.000000 0.000000 0.000000 0.054737 0.000000 0.008006
# 5 -0.003365 0.005293 0.005441 0.000000 0.038287 0.000000
# 6 0.000000 0.000000 0.000000 0.008006 0.000000 0.039824
#
#
# Mechanical properties :
#
#
# Convention : Reuss Voigt Hill
#
# Bulk Modulus (GPa) = 61.95889 68.57087 65.26488
# Shear Modulus (GPa) = 23.53160 25.99377 24.76269
#
# Velocity S-wave (km/s) = 3.58240 3.76516 3.67492
# Velocity P-wave (km/s) = 7.13459 7.50326 7.32125
#
# Compressibility (1/GPa) = 0.01613973
#
# Stress axis : x y z
#
# Youngs Moduli (GPa) = 54.96909 70.15430 78.43061
#
# Poissons Ratio (x) = 0.52198 0.40040
# Poissons Ratio (y) = 0.40899 0.15551
# Poissons Ratio (z) = 0.28063 0.13910
#
# Static dielectric constant tensor:
#      x y z
#    x 3.303820 0.000000 -0.116230 
#    y 0.000000 3.113600 0.000000 
#    z -0.116230 0.000000 3.577360 
# 
# 
# High freq. dielectric constant tensor:
#      x y z
#    x 1.703500 0.000000 -0.014230 
#    y 0.000000 1.683880 0.000000 
#    z -0.014230 0.000000 1.719800 
# 
# From -- ./inp_files/200189.got.cif
#   From: 2010.06.25/outbox.cif.g09.slc.cpg/sg15_101_cif.got.tgz:200189.got - 2010.06.28 07:06:18.
