data_PCOD8130581
_publ_section_title
;
Structure prediction by ZEFSAII (Michael W. Deem and Ramdas Pophale) SiO2 
 PCOD8130581
Probable space group: C 2/C
;
_chemical_formula_sum "Si O2"
_cell_formula_units_Z 56
_cell_length_a 8.317266
_cell_length_b 27.280290
_cell_length_c 13.956918
_cell_angle_alpha 90.000000
_cell_angle_beta 127.478182
_cell_angle_gamma 90.000000
_cell_volume 2513.116399
_symmetry_space_group_name_H-M "C 2/C"
_symmetry_group_IT_number 15
_symmetry_cell_setting 'monoclinic'
loop_
_space_group_symop_operation_xyz
x,y,z
-x,y,1/2-z
-x,-y,-z
x,-y,1/2+z
1/2+x,1/2+y,z
1/2-x,1/2+y,1/2-z
1/2-x,1/2-y,-z
1/2+x,1/2-y,1/2+z
loop_
_atom_site_type_symbol
_atom_site_label
_atom_site_fract_x
_atom_site_fract_y
_atom_site_fract_z
Si Si1 0.091113 0.654304 0.419918
Si Si2 0.236074 0.615149 0.810196
Si Si3 0.853822 0.306328 0.367649
Si Si4 0.614126 0.978847 0.193740
Si Si5 0.297324 0.650730 0.030862
Si Si6 0.608977 0.066985 0.067432
Si Si7 0.288049 0.305371 0.805282
O O1 0.069027 0.596687 0.439922
O O2 0.866318 0.679872 0.335064
O O3 0.212442 0.681544 0.548317
O O4 0.215726 0.661877 0.368887
O O5 0.272253 0.658437 0.748082
O O6 0.289010 0.561563 0.782889
O O7 0.361259 0.627483 0.951007
O O8 0.000000 0.609169 0.750000
O O9 0.777563 0.252218 0.318655
O O10 0.095449 0.316123 0.443100
O O11 0.500000 0.994794 0.250000
O O12 0.705793 0.027376 0.175914
O O13 0.464226 0.956149 0.059202
O O14 0.275352 0.607086 0.099125
O O15 0.480407 0.683412 0.136508
#
# Coordination Sequence:
#
# PCOD8130581 Si02
#       7
#     8   8   8   8   8   8   8
#     4  10  23  42  56  86 124 160 207 244 301 368
#     4   9  16  35  59  90 119 147 200 249 292 360
#     4  10  20  38  61  87 119 159 205 245 296 361
#     4  10  17  34  66  93 116 159 198 244 310 363
#     4  10  20  39  59  91 122 154 204 253 295 358
#     4  10  20  35  64  93 116 158 206 245 300 372
#     4  11  24  37  59  86 125 167 196 251 304 350
#
# _framework density 22.283090000000001
#
# number of rings (size 3 to 8) (size 9 to 14) (size 15 to 20)
#    0.000    2.000    5.714    0.857    4.000    2.286 
#    7.714    0.000    0.000   11.143    0.000    0.000 
#    0.000    0.000    0.000    0.000    0.000    0.000 
#
# Total GULP energy -346950.419392 kJ/mol
# GULP energy per Si atom -12391.086407 kJ/mol
# Density = 2.223237 g / cm^3
# Si number density = 22.283090 Si / 1000 Ang^3
#
#
#
# Elastic Constant Matrix: (Units=GPa)
#
#
# Indices 1 2 3 4 5 6 
#
# 1 36.0893 18.9918 14.7040 0.0000 -8.4187 0.0000
# 2 18.9918 119.1893 36.7391 0.0000 -21.4838 0.0000
# 3 14.7040 36.7391 60.6218 0.0000 -26.7813 0.0000
# 4 0.0000 0.0000 0.0000 26.2271 0.0000 -11.2624
# 5 -8.4187 -21.4838 -26.7813 0.0000 36.5495 0.0000
# 6 0.0000 0.0000 0.0000 -11.2624 0.0000 18.9673
#
#
#
# Elastic Compliance Matrix: (Units=1/GPa)
#
#
# Indices 1 2 3 4 5 6 
#
# 1 0.031850 -0.003215 -0.004984 0.000000 0.001794 0.000000
# 2 -0.003215 0.010762 -0.004842 0.000000 0.002037 0.000000
# 3 -0.004984 -0.004842 0.027909 0.000000 0.016456 0.000000
# 4 0.000000 0.000000 0.000000 0.051178 0.000000 0.030388
# 5 0.001794 0.002037 0.016456 0.000000 0.041029 0.000000
# 6 0.000000 0.000000 0.000000 0.030388 0.000000 0.070766
#
#
# Mechanical properties :
#
#
# Convention : Reuss Voigt Hill
#
# Bulk Modulus (GPa) = 22.50332 39.64112 31.07222
# Shear Modulus (GPa) = 18.22220 26.04648 22.13434
#
# Velocity S-wave (km/s) = 2.86275 3.42261 3.15512
# Velocity P-wave (km/s) = 4.58780 5.78338 5.21993
#
# Compressibility (1/GPa) = 0.04443788
#
# Stress axis : x y z
#
# Youngs Moduli (GPa) = 31.39688 92.91790 35.83065
#
# Poissons Ratio (x) = 0.29876 0.17858
# Poissons Ratio (y) = 0.10095 0.17351
# Poissons Ratio (z) = 0.15648 0.44995
#
# Static dielectric constant tensor:
#      x y z
#    x 3.686100 0.000000 -0.405180 
#    y 0.000000 4.244210 0.000000 
#    z -0.405180 0.000000 4.214180 
# 
# 
# High freq. dielectric constant tensor:
#      x y z
#    x 1.840460 0.000000 -0.039960 
#    y 0.000000 1.883980 0.000000 
#    z -0.039960 0.000000 1.881450 
# 
# From -- ./inp_files/138682.got.cif
#   From: 2010.06.25/outbox.cif.g09.slc.cpg/sg15_70_cif.got.tgz:138682.got - 2010.06.28 07:06:18.
