data_PCOD8130593
_publ_section_title
;
Structure prediction by ZEFSAII (Michael W. Deem and Ramdas Pophale) SiO2 
 PCOD8130593
Probable space group: C 2/C
;
_chemical_formula_sum "Si O2"
_cell_formula_units_Z 64
_cell_length_a 23.386584
_cell_length_b 5.264187
_cell_length_c 25.219508
_cell_angle_alpha 90.000000
_cell_angle_beta 96.072606
_cell_angle_gamma 90.000000
_cell_volume 3087.385510
_symmetry_space_group_name_H-M "C 2/C"
_symmetry_group_IT_number 15
_symmetry_cell_setting 'monoclinic'
loop_
_space_group_symop_operation_xyz
x,y,z
-x,y,1/2-z
-x,-y,-z
x,-y,1/2+z
1/2+x,1/2+y,z
1/2-x,1/2+y,1/2-z
1/2-x,1/2-y,-z
1/2+x,1/2-y,1/2+z
loop_
_atom_site_type_symbol
_atom_site_label
_atom_site_fract_x
_atom_site_fract_y
_atom_site_fract_z
Si Si1 0.042509 0.166036 0.544807
Si Si2 0.413392 0.837879 0.478416
Si Si3 0.496641 0.209710 0.811802
Si Si4 0.658282 0.686203 0.623317
Si Si5 0.161112 0.724428 0.429121
Si Si6 0.041573 0.791915 0.368637
Si Si7 0.623165 0.185985 0.646047
Si Si8 0.232849 0.229814 0.438026
O O1 0.054928 0.395573 0.504381
O O2 0.099232 0.118958 0.586316
O O3 0.988820 0.230585 0.577210
O O4 0.038341 0.890236 0.513348
O O5 0.360325 0.780174 0.511930
O O6 0.391137 0.875815 0.416816
O O7 0.500000 0.248642 0.750000
O O8 0.518899 0.929896 0.828341
O O9 0.533463 0.430340 0.843055
O O10 0.431440 0.245334 0.823602
O O11 0.668185 0.420426 0.656051
O O12 0.709525 0.752853 0.589654
O O13 0.651537 0.915858 0.665480
O O14 0.108968 0.753392 0.383396
O O15 0.191340 0.459921 0.417810
O O16 0.203804 0.958689 0.424640
O O17 0.250000 0.250000 0.500000
#
# Coordination Sequence:
#
# PCOD8130593 Si02
#       8
#     8   8   8   8   8   8   8   8
#     4  10  18  34  56  82 117 159 199 248 294 350
#     4  10  18  33  53  78 121 162 202 230 281 358
#     4  12  23  41  67  95 124 159 197 262 329 384
#     4  10  18  32  59  79 117 154 201 262 283 331
#     4  12  26  38  59  91 130 181 206 248 316 348
#     4  12  23  43  59  93 136 155 206 256 309 407
#     4  10  17  35  55  89 117 145 208 244 305 362
#     4  12  23  40  58  87 124 173 230 256 281 352
#
# _framework density 20.729514000000002
#
# number of rings (size 3 to 8) (size 9 to 14) (size 15 to 20)
#    0.000    1.000    5.000    6.000    0.000    1.000 
#    0.000    0.000    0.000    0.000    0.000   17.500 
#    0.000    0.000    0.000    0.000    0.000    0.000 
#
# Total GULP energy -396805.031725 kJ/mol
# GULP energy per Si atom -12400.157241 kJ/mol
# Density = 2.068233 g / cm^3
# Si number density = 20.729514 Si / 1000 Ang^3
#
#
#
# Elastic Constant Matrix: (Units=GPa)
#
#
# Indices 1 2 3 4 5 6 
#
# 1 88.5018 28.1617 20.6272 0.0000 -12.9729 0.0000
# 2 28.1617 180.0164 16.7424 0.0000 -6.2922 0.0000
# 3 20.6272 16.7424 61.5003 0.0000 -16.3712 0.0000
# 4 0.0000 0.0000 0.0000 20.5051 0.0000 -1.8763
# 5 -12.9729 -6.2922 -16.3712 0.0000 16.8003 0.0000
# 6 0.0000 0.0000 0.0000 -1.8763 0.0000 41.7865
#
#
#
# Elastic Compliance Matrix: (Units=1/GPa)
#
#
# Indices 1 2 3 4 5 6 
#
# 1 0.013430 -0.001644 -0.001972 0.000000 0.007833 0.000000
# 2 -0.001644 0.005909 -0.001088 0.000000 -0.000117 0.000000
# 3 -0.001972 -0.001088 0.022555 0.000000 0.020048 0.000000
# 4 0.000000 0.000000 0.000000 0.048970 0.000000 0.002199
# 5 0.007833 -0.000117 0.020048 0.000000 0.085064 0.000000
# 6 0.000000 0.000000 0.000000 0.002199 0.000000 0.024030
#
#
# Mechanical properties :
#
#
# Convention : Reuss Voigt Hill
#
# Bulk Modulus (GPa) = 30.78251 51.23124 41.00688
# Shear Modulus (GPa) = 22.70725 33.45086 28.07906
#
# Velocity S-wave (km/s) = 3.31328 4.02143 3.68441
# Velocity P-wave (km/s) = 5.43314 6.80664 6.15830
#
# Compressibility (1/GPa) = 0.03248598
#
# Stress axis : x y z
#
# Youngs Moduli (GPa) = 74.45978 169.22308 44.33702
#
# Poissons Ratio (x) = 0.27817 0.08742
# Poissons Ratio (y) = 0.12240 0.04826
# Poissons Ratio (z) = 0.14681 0.18419
#
# Static dielectric constant tensor:
#      x y z
#    x 3.809040 0.000000 -0.111100 
#    y 0.000000 4.799290 0.000000 
#    z -0.111100 0.000000 3.248510 
# 
# 
# High freq. dielectric constant tensor:
#      x y z
#    x 1.812300 0.000000 -0.015700 
#    y 0.000000 1.860250 0.000000 
#    z -0.015700 0.000000 1.753390 
# 
# From -- ./inp_files/299937.got.cif
#   From: 2010.06.25/outbox.cif.g09.slc.cpg/sg15_150_cif.got.tgz:299937.got - 2010.06.28 07:06:18.
