data_PCOD8130896
_publ_section_title
;
Structure prediction by ZEFSAII (Michael W. Deem and Ramdas Pophale) SiO2 
 PCOD8130896
Probable space group: C 2/C
;
_chemical_formula_sum "Si O2"
_cell_formula_units_Z 52
_cell_length_a 29.296878
_cell_length_b 8.085044
_cell_length_c 30.169724
_cell_angle_alpha 90.000000
_cell_angle_beta 17.457429
_cell_angle_gamma 90.000000
_cell_volume 2143.838793
_symmetry_space_group_name_H-M "C 2/C"
_symmetry_group_IT_number 15
_symmetry_cell_setting 'monoclinic'
loop_
_space_group_symop_operation_xyz
x,y,z
-x,y,1/2-z
-x,-y,-z
x,-y,1/2+z
1/2+x,1/2+y,z
1/2-x,1/2+y,1/2-z
1/2-x,1/2-y,-z
1/2+x,1/2-y,1/2+z
loop_
_atom_site_type_symbol
_atom_site_label
_atom_site_fract_x
_atom_site_fract_y
_atom_site_fract_z
Si Si1 0.853232 0.842182 0.754820
Si Si2 0.500000 0.511298 0.750000
Si Si3 0.056688 0.336583 0.891336
Si Si4 0.375889 0.502110 0.452062
Si Si5 0.231659 0.452073 0.293802
Si Si6 0.796161 0.634259 0.016981
Si Si7 0.581115 0.978399 0.777217
O O1 0.898422 0.651133 0.715850
O O2 0.995937 0.967738 0.629530
O O3 0.782312 0.881365 0.772721
O O4 0.726406 0.876463 0.909199
O O5 0.561341 0.608456 0.648590
O O6 0.641198 0.402783 0.635640
O O7 0.156760 0.490448 0.817188
O O8 0.123065 0.164332 0.848204
O O9 0.055901 0.339185 0.838177
O O10 0.886057 0.346589 0.067480
O O11 0.340731 0.679886 0.461883
O O12 0.225890 0.423708 0.613241
O O13 0.934827 0.503564 0.880065
#
# Coordination Sequence:
#
# PCOD8130896 Si02
#       7
#     8   4   8   8   8   8   8
#     4   9  18  36  57  81 123 162 198 240 302 349
#     4  10  18  30  48  86 126 162 188 254 300 366
#     4  11  25  41  63  89 124 154 204 245 299 350
#     4   9  19  29  53  83 119 161 197 238 304 353
#     4  11  24  43  61  91 120 161 197 251 291 356
#     4   9  17  31  51  81 120 159 197 244 300 352
#     4  10  19  36  57  88 120 163 201 250 295 360
#
# _framework density 24.255555000000001
#
# number of rings (size 3 to 8) (size 9 to 14) (size 15 to 20)
#    0.000    2.154    1.538    2.308    2.154    1.231 
#    0.000    0.000    0.000    0.000    0.000   17.231 
#    0.000    0.000    0.000    0.000    0.000    0.000 
#
# Total GULP energy -322330.631034 kJ/mol
# GULP energy per Si atom -12397.331963 kJ/mol
# Density = 2.420035 g / cm^3
# Si number density = 24.255555 Si / 1000 Ang^3
#
#
#
# Elastic Constant Matrix: (Units=GPa)
#
#
# Indices 1 2 3 4 5 6 
#
# 1 79.6257 -13.3676 22.3015 2.7737 0.8287 -0.4814
# 2 -13.3676 26.5919 -6.4008 8.1957 -4.0637 -1.5394
# 3 22.3015 -6.4008 101.4820 4.8430 -5.6517 -1.1046
# 4 2.7737 8.1957 4.8430 8.3708 -2.5538 -1.1219
# 5 0.8287 -4.0637 -5.6517 -2.5538 36.9548 -0.0616
# 6 -0.4814 -1.5394 -1.1046 -1.1219 -0.0616 13.5443
#
#
#
# Elastic Compliance Matrix: (Units=1/GPa)
#
#
# Indices 1 2 3 4 5 6 
#
# 1 0.015770 0.012489 -0.001912 -0.016409 -0.000406 0.000463
# 2 0.012489 0.068117 0.005211 -0.072581 0.002996 0.002612
# 3 -0.001912 0.005211 0.011194 -0.010374 0.001612 0.000585
# 4 -0.016409 -0.072581 -0.010374 0.204450 0.004941 0.007279
# 5 -0.000406 0.002996 0.001612 0.004941 0.027988 0.000994
# 6 0.000463 0.002612 0.000585 0.007279 0.000994 0.074800
#
#
# Mechanical properties :
#
#
# Convention : Reuss Voigt Hill
#
# Bulk Modulus (GPa) = 7.89544 23.64065 15.76805
# Shear Modulus (GPa) = 12.10766 25.45174 18.77970
#
# Velocity S-wave (km/s) = 2.23664 3.24283 2.78554
# Velocity P-wave (km/s) = 3.15154 4.87739 4.10616
#
# Compressibility (1/GPa) = 0.12665534
#
# Stress axis : x y z
#
# Youngs Moduli (GPa) = 63.41304 14.68070 89.33285
#
# Poissons Ratio (x) = -0.18335 0.17083
# Poissons Ratio (y) = -0.79196 -0.46549
# Poissons Ratio (z) = 0.12126 -0.07650
#
# Static dielectric constant tensor:
#      x y z
#    x 4.284100 -0.000090 -0.026210 
#    y -0.000090 3.661410 0.000250 
#    z -0.026210 0.000250 4.583320 
# 
# 
# High freq. dielectric constant tensor:
#      x y z
#    x 1.963770 -0.000020 -0.010460 
#    y -0.000020 1.910750 0.000030 
#    z -0.010460 0.000030 1.977230 
# 
# From -- ./inp_files/320164.got.cif
#   From: 2010.06.25/outbox.cif.g09.slc.cpg/sg15_161_cif.got.tgz:320164.got - 2010.06.28 07:06:18.
