data_PCOD8130794
_publ_section_title
;
Structure prediction by ZEFSAII (Michael W. Deem and Ramdas Pophale) SiO2 
 PCOD8130794
Probable space group: C 2/C
;
_chemical_formula_sum "Si O2"
_cell_formula_units_Z 36
_cell_length_a 10.624863
_cell_length_b 13.475927
_cell_length_c 18.522972
_cell_angle_alpha 90.000000
_cell_angle_beta 40.484568
_cell_angle_gamma 90.000000
_cell_volume 1721.868893
_symmetry_space_group_name_H-M "C 2/C"
_symmetry_group_IT_number 15
_symmetry_cell_setting 'monoclinic'
loop_
_space_group_symop_operation_xyz
x,y,z
-x,y,1/2-z
-x,-y,-z
x,-y,1/2+z
1/2+x,1/2+y,z
1/2-x,1/2+y,1/2-z
1/2-x,1/2-y,-z
1/2+x,1/2-y,1/2+z
loop_
_atom_site_type_symbol
_atom_site_label
_atom_site_fract_x
_atom_site_fract_y
_atom_site_fract_z
Si Si1 0.500000 0.731475 0.750000
Si Si2 0.244611 0.106965 0.540290
Si Si3 0.151468 0.329076 0.824716
Si Si4 0.021793 0.945515 0.881309
Si Si5 0.558039 0.358916 0.438282
O O1 0.668294 0.660940 0.645112
O O2 0.599996 0.800336 0.765562
O O3 0.476400 0.107992 0.436364
O O4 0.151653 0.162428 0.509480
O O5 0.169370 0.992104 0.573352
O O6 0.342249 0.397332 0.738966
O O7 0.196929 0.232039 0.854153
O O8 0.137079 0.035387 0.872693
O O9 0.959759 0.863025 0.967553
#
# Coordination Sequence:
#
# PCOD8130794 Si02
#       5
#     4   8   8   8   8
#     4  10  18  28  52  80  96 120 168 218 232 284
#     4   9  18  30  47  77 100 125 162 205 244 284
#     4  11  17  29  55  75  98 131 161 203 251 277
#     4   9  18  31  46  77 103 125 161 210 236 299
#     4   8  17  31  46  75 104 122 164 206 244 282
#
# _framework density 20.907513999999999
#
# number of rings (size 3 to 8) (size 9 to 14) (size 15 to 20)
#    1.333    1.333    0.000    5.333    0.000    0.000 
#    0.000    1.111    0.000    1.333    0.000    0.000 
#    0.000    0.000    0.000    0.000    0.000    0.000 
#
# Total GULP energy -223061.999307 kJ/mol
# GULP energy per Si atom -12392.333295 kJ/mol
# Density = 2.085993 g / cm^3
# Si number density = 20.907514 Si / 1000 Ang^3
#
#
#
# Elastic Constant Matrix: (Units=GPa)
#
#
# Indices 1 2 3 4 5 6 
#
# 1 17.7707 20.8619 20.6203 0.0006 2.2131 0.0000
# 2 20.8619 102.5030 72.3192 0.0000 -9.0597 0.0000
# 3 20.6203 72.3192 136.2430 0.0014 -5.4094 -0.0006
# 4 0.0006 0.0000 0.0014 48.0527 -0.0006 6.0606
# 5 2.2131 -9.0597 -5.4094 -0.0006 5.9472 0.0001
# 6 0.0000 0.0000 -0.0006 6.0606 0.0001 14.4603
#
#
#
# Elastic Compliance Matrix: (Units=1/GPa)
#
#
# Indices 1 2 3 4 5 6 
#
# 1 0.099826 -0.022924 -0.006019 -0.000002 -0.077545 0.000001
# 2 -0.022924 0.022675 -0.007113 0.000001 0.036603 -0.000001
# 3 -0.006019 -0.007113 0.012123 0.000000 0.002431 0.000001
# 4 -0.000002 0.000001 0.000000 0.021972 0.000004 -0.009209
# 5 -0.077545 0.036603 0.002431 0.000004 0.254975 -0.000003
# 6 0.000001 -0.000001 0.000001 -0.009209 -0.000003 0.073014
#
#
# Mechanical properties :
#
#
# Convention : Reuss Voigt Hill
#
# Bulk Modulus (GPa) = 15.99718 53.79104 34.89411
# Shear Modulus (GPa) = 8.65747 23.20640 15.93193
#
# Velocity S-wave (km/s) = 2.03711 3.33521 2.76346
# Velocity P-wave (km/s) = 3.63333 6.37303 5.18732
#
# Compressibility (1/GPa) = 0.06251102
#
# Stress axis : x y z
#
# Youngs Moduli (GPa) = 10.01746 44.10071 82.48636
#
# Poissons Ratio (x) = 1.01097 0.49649
# Poissons Ratio (y) = 0.22964 0.58676
# Poissons Ratio (z) = 0.06030 0.31371
#
# Static dielectric constant tensor:
#      x y z
#    x 3.079050 0.000000 0.149110 
#    y 0.000000 3.718970 0.000000 
#    z 0.149110 0.000000 3.663040 
# 
# 
# High freq. dielectric constant tensor:
#      x y z
#    x 1.752730 0.000000 0.019600 
#    y 0.000000 1.814820 0.000000 
#    z 0.019600 0.000000 1.819220 
# 
# From -- ./inp_files/198622.got.cif
#   From: 2010.06.25/outbox.cif.g09.slc.cpg/sg15_100_cif.got.tgz:198622.got - 2010.06.28 07:06:18.
