data_PCOD8130766
_publ_section_title
;
Structure prediction by ZEFSAII (Michael W. Deem and Ramdas Pophale) SiO2 
 PCOD8130766
Probable space group: C 2/C
;
_chemical_formula_sum "Si O2"
_cell_formula_units_Z 64
_cell_length_a 13.266714
_cell_length_b 30.758414
_cell_length_c 10.051431
_cell_angle_alpha 90.000000
_cell_angle_beta 90.000000
_cell_angle_gamma 90.000000
_cell_volume 4101.617909
_symmetry_space_group_name_H-M "C 2/C"
_symmetry_group_IT_number 15
_symmetry_cell_setting 'monoclinic'
loop_
_space_group_symop_operation_xyz
x,y,z
-x,y,1/2-z
-x,-y,-z
x,-y,1/2+z
1/2+x,1/2+y,z
1/2-x,1/2+y,1/2-z
1/2-x,1/2-y,-z
1/2+x,1/2-y,1/2+z
loop_
_atom_site_type_symbol
_atom_site_label
_atom_site_fract_x
_atom_site_fract_y
_atom_site_fract_z
Si Si1 0.619324 0.899750 0.973690
Si Si2 0.883119 0.224133 0.902759
Si Si3 0.229311 0.688061 0.098471
Si Si4 0.880421 0.562168 0.750000
Si Si5 0.616881 0.724133 0.902759
Si Si6 0.119324 0.600250 0.026310
Si Si7 0.770689 0.688061 0.098471
Si Si8 0.880906 0.465339 0.750000
O O1 0.672319 0.856564 0.924690
O O2 0.654303 0.939621 0.881005
O O3 0.655992 0.911144 0.121815
O O4 0.500000 0.892401 0.964448
O O5 0.849259 0.273406 0.931437
O O6 0.861314 0.211132 0.750000
O O7 0.000000 0.220263 0.937636
O O8 0.823901 0.191247 0.999113
O O9 0.268887 0.690530 0.250000
O O10 0.172319 0.643436 0.075310
O O11 0.844008 0.588856 0.621814
O O12 0.832865 0.513618 0.750000
O O13 0.000000 0.557873 0.750000
O O14 0.650741 0.773406 0.931437
O O15 0.676099 0.691247 0.999113
O O16 0.154303 0.560379 0.118996
O O17 0.000000 0.469802 0.750000
#
# Coordination Sequence:
#
# PCOD8130766 Si02
#       8
#     8   8   8   8   8   8   8   8
#     4  10  18  28  44  66  94 126 157 188 221 266
#     4   9  19  34  50  66  91 123 153 189 231 270
#     4  10  19  31  48  70  93 121 156 189 223 268
#     4   9  18  28  40  63  93 125 157 187 222 266
#     4   9  19  34  50  66  91 123 153 189 231 270
#     4  10  18  28  44  66  94 126 157 188 221 266
#     4  10  19  31  48  70  93 121 156 189 223 268
#     4   9  16  28  44  61  89 127 157 183 224 272
#
# _framework density 15.603598
#
# number of rings (size 3 to 8) (size 9 to 14) (size 15 to 20)
#    0.000    2.500    1.250    1.500    1.750    4.500 
#    0.000    0.000    0.000    0.000    0.000    0.000 
#    0.000    6.000    0.000    0.000    0.000    0.000 
#
# Total GULP energy -396789.464534 kJ/mol
# GULP energy per Si atom -12399.670767 kJ/mol
# Density = 1.556808 g / cm^3
# Si number density = 15.603598 Si / 1000 Ang^3
#
#
#
# Elastic Constant Matrix: (Units=GPa)
#
#
# Indices 1 2 3 4 5 6 
#
# 1 63.6177 21.9869 37.9094 0.0000 1.3624 0.0000
# 2 21.9869 62.2889 21.8594 0.0000 -0.0099 0.0000
# 3 37.9094 21.8594 103.9404 0.0000 1.7717 0.0000
# 4 0.0000 0.0000 0.0000 19.9867 0.0000 0.2497
# 5 1.3624 -0.0099 1.7717 0.0000 21.6503 0.0000
# 6 0.0000 0.0000 0.0000 0.2497 0.0000 16.7728
#
#
#
# Elastic Compliance Matrix: (Units=1/GPa)
#
#
# Indices 1 2 3 4 5 6 
#
# 1 0.021572 -0.005246 -0.006751 0.000000 -0.000807 0.000000
# 2 -0.005246 0.018611 -0.002009 0.000000 0.000503 0.000000
# 3 -0.006751 -0.002009 0.012516 0.000000 -0.000600 0.000000
# 4 0.000000 0.000000 0.000000 0.050042 0.000000 -0.000745
# 5 -0.000807 0.000503 -0.000600 0.000000 0.046289 0.000000
# 6 0.000000 0.000000 0.000000 -0.000745 0.000000 0.059631
#
#
# Mechanical properties :
#
#
# Convention : Reuss Voigt Hill
#
# Bulk Modulus (GPa) = 40.50671 43.70648 42.10659
# Shear Modulus (GPa) = 20.41631 21.55473 20.98552
#
# Velocity S-wave (km/s) = 3.62116 3.72074 3.67129
# Velocity P-wave (km/s) = 6.59545 6.82128 6.70931
#
# Compressibility (1/GPa) = 0.02468727
#
# Stress axis : x y z
#
# Youngs Moduli (GPa) = 46.35672 53.73146 79.89843
#
# Poissons Ratio (x) = 0.28185 0.53938
# Poissons Ratio (y) = 0.24317 0.16055
# Poissons Ratio (z) = 0.31294 0.10797
#
# Static dielectric constant tensor:
#      x y z
#    x 2.619070 0.000000 0.050680 
#    y 0.000000 2.983270 0.000000 
#    z 0.050680 0.000000 3.271100 
# 
# 
# High freq. dielectric constant tensor:
#      x y z
#    x 1.547100 0.000000 0.005590 
#    y 0.000000 1.599090 0.000000 
#    z 0.005590 0.000000 1.619070 
# 
# From -- ./inp_files/44269.got.cif
#   From: 2010.06.25/outbox.cif.g09.slc.cpg/sg15_23_cif.got.tgz:44269.got - 2010.06.28 07:06:18.
