data_PCOD8130022
_publ_section_title
;
Structure prediction by ZEFSAII (Michael W. Deem and Ramdas Pophale) SiO2 
 PCOD8130022
Probable space group: C 2/C
;
_chemical_formula_sum "Si O2"
_cell_formula_units_Z 52
_cell_length_a 14.155818
_cell_length_b 19.491212
_cell_length_c 17.290865
_cell_angle_alpha 90.000000
_cell_angle_beta 150.266302
_cell_angle_gamma 90.000000
_cell_volume 2366.167425
_symmetry_space_group_name_H-M "C 2/C"
_symmetry_group_IT_number 15
_symmetry_cell_setting 'monoclinic'
loop_
_space_group_symop_operation_xyz
x,y,z
-x,y,1/2-z
-x,-y,-z
x,-y,1/2+z
1/2+x,1/2+y,z
1/2-x,1/2+y,1/2-z
1/2-x,1/2-y,-z
1/2+x,1/2-y,1/2+z
loop_
_atom_site_type_symbol
_atom_site_label
_atom_site_fract_x
_atom_site_fract_y
_atom_site_fract_z
Si Si1 0.132139 0.154267 0.050637
Si Si2 0.000000 0.325223 0.250000
Si Si3 0.027400 0.528204 0.936116
Si Si4 0.195572 0.928328 0.101901
Si Si5 0.794970 0.461225 0.570590
Si Si6 0.189861 0.253509 0.701602
Si Si7 0.572123 0.184772 0.964384
O O1 0.235254 0.115839 0.052350
O O2 0.288805 0.183048 0.223232
O O3 0.998419 0.102199 0.002658
O O4 0.011827 0.216382 0.927622
O O5 0.827110 0.368545 0.162113
O O6 0.909905 0.284865 0.111483
O O7 0.814337 0.529584 0.750291
O O8 0.175762 0.474954 0.999907
O O9 0.119065 0.604179 0.999315
O O10 0.000000 0.500000 0.000000
O O11 0.144431 0.983447 0.998368
O O12 0.000000 0.481654 0.750000
O O13 0.354122 0.198250 0.835819
O O14 0.207282 0.277575 0.623233
#
# Coordination Sequence:
#
# PCOD8130022 Si02
#       7
#     8   4   8   8   8   8   8
#     4  11  22  42  67  93 130 179 220 266 330 393
#     4  10  16  36  64  90 134 158 216 270 342 390
#     4  10  20  37  69  91 127 164 213 276 332 379
#     4  10  18  39  65  94 128 168 210 275 338 394
#     4  10  21  39  66  95 125 167 215 270 341 389
#     4  10  23  39  63  95 130 178 223 264 324 396
#     4  10  20  39  60  90 132 171 214 270 332 386
#
# _framework density 21.976467
#
# number of rings (size 3 to 8) (size 9 to 14) (size 15 to 20)
#    0.000    1.846    6.923    0.462    4.308    0.615 
#    0.000    1.538    0.000    0.000    0.000    0.000 
#    0.000    0.000    0.000    0.000    0.000    0.000 
#
# Total GULP energy -322091.875491 kJ/mol
# GULP energy per Si atom -12388.149057 kJ/mol
# Density = 2.192645 g / cm^3
# Si number density = 21.976467 Si / 1000 Ang^3
#
#
#
# Elastic Constant Matrix: (Units=GPa)
#
#
# Indices 1 2 3 4 5 6 
#
# 1 126.9401 75.0299 44.5519 -0.0024 -21.5366 0.0000
# 2 75.0299 99.2265 43.6496 0.0059 -14.8088 -0.0045
# 3 44.5519 43.6496 75.5608 0.0000 -13.9390 -0.0105
# 4 -0.0024 0.0059 0.0000 29.8968 -0.0274 1.7886
# 5 -21.5366 -14.8088 -13.9390 -0.0274 25.2261 -0.0095
# 6 0.0000 -0.0045 -0.0105 1.7886 -0.0095 44.6288
#
#
#
# Elastic Compliance Matrix: (Units=1/GPa)
#
#
# Indices 1 2 3 4 5 6 
#
# 1 0.015549 -0.009788 -0.002366 0.000009 0.006222 -0.000001
# 2 -0.009788 0.020051 -0.005770 -0.000005 0.000226 0.000001
# 3 -0.002366 -0.005770 0.018891 0.000005 0.005031 0.000005
# 4 0.000009 -0.000005 0.000005 0.033529 0.000044 -0.001344
# 5 0.006222 0.000226 0.005031 0.000044 0.047866 0.000010
# 6 -0.000001 0.000001 0.000005 -0.001344 0.000010 0.022461
#
#
# Mechanical properties :
#
#
# Convention : Reuss Voigt Hill
#
# Bulk Modulus (GPa) = 53.64046 69.79891 61.71969
# Shear Modulus (GPa) = 24.94896 29.18341 27.06618
#
# Velocity S-wave (km/s) = 3.37301 3.64804 3.51322
# Velocity P-wave (km/s) = 6.29530 7.04088 6.67850
#
# Compressibility (1/GPa) = 0.01864264
#
# Stress axis : x y z
#
# Youngs Moduli (GPa) = 64.31263 49.87223 52.93587
#
# Poissons Ratio (x) = 0.48815 0.12524
# Poissons Ratio (y) = 0.62950 0.30545
# Poissons Ratio (z) = 0.15216 0.28777
#
# Static dielectric constant tensor:
#      x y z
#    x 4.038270 -0.000030 -0.217080 
#    y -0.000030 4.037930 -0.000040 
#    z -0.217080 -0.000040 3.976190 
# 
# 
# High freq. dielectric constant tensor:
#      x y z
#    x 1.852560 0.000000 -0.007750 
#    y 0.000000 1.860090 0.000000 
#    z -0.007750 0.000000 1.840260 
# 
# From -- ./inp_files/206824.got.cif
#   From: 2010.06.25/outbox.cif.g09.slc.cpg/sg15_104_cif.got.tgz:206824.got - 2010.06.28 07:06:18.
