data_PCOD8130597
_publ_section_title
;
Structure prediction by ZEFSAII (Michael W. Deem and Ramdas Pophale) SiO2 
 PCOD8130597
Probable space group: C 2/C
;
_chemical_formula_sum "Si O2"
_cell_formula_units_Z 64
_cell_length_a 12.326853
_cell_length_b 12.587547
_cell_length_c 22.510332
_cell_angle_alpha 90.000000
_cell_angle_beta 106.861092
_cell_angle_gamma 90.000000
_cell_volume 3342.658799
_symmetry_space_group_name_H-M "C 2/C"
_symmetry_group_IT_number 15
_symmetry_cell_setting 'monoclinic'
loop_
_space_group_symop_operation_xyz
x,y,z
-x,y,1/2-z
-x,-y,-z
x,-y,1/2+z
1/2+x,1/2+y,z
1/2-x,1/2+y,1/2-z
1/2-x,1/2-y,-z
1/2+x,1/2-y,1/2+z
loop_
_atom_site_type_symbol
_atom_site_label
_atom_site_fract_x
_atom_site_fract_y
_atom_site_fract_z
Si Si1 0.915687 0.220788 0.684358
Si Si2 0.256363 0.973004 0.147501
Si Si3 0.711926 0.316347 0.705559
Si Si4 0.619047 0.233103 0.802174
Si Si5 0.093386 0.770233 0.510537
Si Si6 0.830545 0.364334 0.575153
Si Si7 0.522484 0.326094 0.896285
Si Si8 0.005037 0.069386 0.898078
O O1 0.789726 0.219927 0.692775
O O2 0.920184 0.311992 0.634834
O O3 0.000000 0.252452 0.750000
O O4 0.951960 0.108952 0.659993
O O5 0.338124 0.886422 0.187638
O O6 0.130916 0.925290 0.119033
O O7 0.261984 0.069369 0.195566
O O8 0.305928 0.014189 0.091107
O O9 0.704295 0.304672 0.775865
O O10 0.588684 0.306562 0.659187
O O11 0.500000 0.231264 0.750000
O O12 0.621027 0.279298 0.869931
O O13 0.115740 0.655416 0.482066
O O14 0.209415 0.804045 0.561601
O O15 0.992861 0.763281 0.543449
O O16 0.062706 0.860129 0.457803
O O17 0.546926 0.449172 0.913753
#
# Coordination Sequence:
#
# PCOD8130597 Si02
#       8
#     8   8   8   8   8   8   8   8
#     4  10  18  30  51  84 107 130 172 224 269 309
#     4  10  19  36  52  80 110 134 181 220 269 310
#     4   9  19  36  53  74 107 145 178 213 259 323
#     4  10  22  36  55  76 111 150 174 213 270 323
#     4  10  17  35  57  78 104 140 188 216 258 319
#     4   9  19  32  56  79 103 144 177 219 256 318
#     4  10  19  35  53  79 106 138 182 220 265 312
#     4  10  20  30  57  84 103 136 176 229 271 304
#
# _framework density 19.146435
#
# number of rings (size 3 to 8) (size 9 to 14) (size 15 to 20)
#    0.000    2.250    3.750    1.125    0.000    5.500 
#    0.000    1.250    0.000    0.000    0.000    0.000 
#    0.000    0.000    0.000    0.000    0.000    0.000 
#
# Total GULP energy -396465.911386 kJ/mol
# GULP energy per Si atom -12389.559731 kJ/mol
# Density = 1.910286 g / cm^3
# Si number density = 19.146435 Si / 1000 Ang^3
#
#
#
# Elastic Constant Matrix: (Units=GPa)
#
#
# Indices 1 2 3 4 5 6 
#
# 1 57.0902 42.5445 33.6437 0.0000 -27.3586 0.0000
# 2 42.5445 67.8901 35.8774 0.0000 -14.3328 0.0000
# 3 33.6437 35.8774 98.8086 0.0000 -23.2435 0.0000
# 4 0.0000 0.0000 0.0000 24.0378 0.0000 -7.3873
# 5 -27.3586 -14.3328 -23.2435 0.0000 36.4295 0.0000
# 6 0.0000 0.0000 0.0000 -7.3873 0.0000 32.3120
#
#
#
# Elastic Compliance Matrix: (Units=1/GPa)
#
#
# Indices 1 2 3 4 5 6 
#
# 1 0.049431 -0.024492 -0.001732 0.000000 0.026382 0.000000
# 2 -0.024492 0.030743 -0.005065 0.000000 -0.009530 0.000000
# 3 -0.001732 -0.005065 0.013854 0.000000 0.005546 0.000000
# 4 0.000000 0.000000 0.000000 0.044745 0.000000 0.010230
# 5 0.026382 -0.009530 0.005546 0.000000 0.047052 0.000000
# 6 0.000000 0.000000 0.000000 0.010230 0.000000 0.033287
#
#
# Mechanical properties :
#
#
# Convention : Reuss Voigt Hill
#
# Bulk Modulus (GPa) = 31.79661 49.76889 40.78275
# Shear Modulus (GPa) = 17.11312 26.00409 21.55861
#
# Velocity S-wave (km/s) = 2.99290 3.68933 3.35921
# Velocity P-wave (km/s) = 5.34662 6.64819 6.03261
#
# Compressibility (1/GPa) = 0.03144989
#
# Stress axis : x y z
#
# Youngs Moduli (GPa) = 20.23015 32.52797 72.18101
#
# Poissons Ratio (x) = 0.79667 0.12502
# Poissons Ratio (y) = 0.49547 0.36560
# Poissons Ratio (z) = 0.03504 0.16476
#
# Static dielectric constant tensor:
#      x y z
#    x 3.735920 0.000000 -0.444390 
#    y 0.000000 3.346880 0.000000 
#    z -0.444390 0.000000 3.770710 
# 
# 
# High freq. dielectric constant tensor:
#      x y z
#    x 1.734670 0.000000 -0.015500 
#    y 0.000000 1.714040 0.000000 
#    z -0.015500 0.000000 1.752050 
# 
# From -- ./inp_files/268924.got.cif
#   From: 2010.06.25/outbox.cif.g09.slc.cpg/sg15_135_cif.got.tgz:268924.got - 2010.06.28 07:06:18.
