data_PCOD8130558
_publ_section_title
;
Structure prediction by ZEFSAII (Michael W. Deem and Ramdas Pophale) SiO2 
 PCOD8130558
Probable space group: C 2/C
;
_chemical_formula_sum "Si O2"
_cell_formula_units_Z 56
_cell_length_a 19.055111
_cell_length_b 16.249268
_cell_length_c 15.992709
_cell_angle_alpha 90.000000
_cell_angle_beta 148.590715
_cell_angle_gamma 90.000000
_cell_volume 2580.645500
_symmetry_space_group_name_H-M "C 2/C"
_symmetry_group_IT_number 15
_symmetry_cell_setting 'monoclinic'
loop_
_space_group_symop_operation_xyz
x,y,z
-x,y,1/2-z
-x,-y,-z
x,-y,1/2+z
1/2+x,1/2+y,z
1/2-x,1/2+y,1/2-z
1/2-x,1/2-y,-z
1/2+x,1/2-y,1/2+z
loop_
_atom_site_type_symbol
_atom_site_label
_atom_site_fract_x
_atom_site_fract_y
_atom_site_fract_z
Si Si1 0.070110 0.169528 0.671440
Si Si2 0.792310 0.274493 0.173326
Si Si3 0.549778 0.503654 0.209460
Si Si4 0.558339 0.158390 0.893241
Si Si5 0.780556 0.442706 0.829596
Si Si6 0.217519 0.207565 0.155970
Si Si7 0.669022 0.420532 0.117324
O O1 0.173692 0.245185 0.792085
O O2 0.077560 0.137854 0.582985
O O3 0.920767 0.204260 0.536437
O O4 0.097918 0.091981 0.761546
O O5 0.798342 0.261634 0.277864
O O6 0.735230 0.368016 0.109095
O O7 0.946628 0.272383 0.300937
O O8 0.699623 0.208988 0.028692
O O9 0.500000 0.533780 0.250000
O O10 0.667303 0.561244 0.288985
O O11 0.424014 0.509396 0.018132
O O12 0.500000 0.116362 0.750000
O O13 0.579878 0.085232 0.982962
O O14 0.760646 0.382650 0.730394
O O15 0.781537 0.533920 0.790421
#
# Coordination Sequence:
#
# PCOD8130558 Si02
#       7
#     8   8   8   8   8   8   8
#     4  10  19  36  60  89 115 155 204 251 297 364
#     4  10  22  35  58  87 115 165 198 253 304 368
#     4  11  22  36  62  91 124 161 203 251 314 375
#     4  11  24  38  54  87 132 159 201 242 323 382
#     4  10  20  37  62  86 116 164 203 262 291 366
#     4  10  17  34  60  84 114 146 208 252 291 349
#     4  10  19  37  63  87 119 156 218 250 303 363
#
# _framework density 21.699998000000001
#
# number of rings (size 3 to 8) (size 9 to 14) (size 15 to 20)
#    0.000    1.714    2.857    3.857    4.000    1.143 
#    0.000    2.143    0.000    0.000    0.000    0.000 
#    0.000    0.000    0.000    0.000    0.000    0.000 
#
# Total GULP energy -346875.798106 kJ/mol
# GULP energy per Si atom -12388.421361 kJ/mol
# Density = 2.165061 g / cm^3
# Si number density = 21.699998 Si / 1000 Ang^3
#
#
#
# Elastic Constant Matrix: (Units=GPa)
#
#
# Indices 1 2 3 4 5 6 
#
# 1 32.1518 8.2220 7.4279 0.0002 2.4924 0.0001
# 2 8.2220 88.0809 35.6135 0.0002 5.2773 0.0001
# 3 7.4279 35.6135 109.2020 0.0004 7.5580 0.0003
# 4 0.0002 0.0002 0.0004 24.6879 0.0004 6.8014
# 5 2.4924 5.2773 7.5580 0.0004 21.3613 0.0002
# 6 0.0001 0.0001 0.0003 6.8014 0.0002 30.5340
#
#
#
# Elastic Compliance Matrix: (Units=1/GPa)
#
#
# Indices 1 2 3 4 5 6 
#
# 1 0.032199 -0.002341 -0.001237 0.000000 -0.002741 0.000000
# 2 -0.002341 0.013313 -0.004074 0.000000 -0.001575 0.000000
# 3 -0.001237 -0.004074 0.010754 0.000000 -0.002654 0.000000
# 4 0.000000 0.000000 0.000000 0.043154 -0.000001 -0.009612
# 5 -0.002741 -0.001575 -0.002654 -0.000001 0.048462 0.000000
# 6 0.000000 0.000000 0.000000 -0.009612 0.000000 0.034892
#
#
# Mechanical properties :
#
#
# Convention : Reuss Voigt Hill
#
# Bulk Modulus (GPa) = 24.41247 36.88461 30.64854
# Shear Modulus (GPa) = 23.61487 27.19471 25.40479
#
# Velocity S-wave (km/s) = 3.30243 3.54391 3.42530
# Velocity P-wave (km/s) = 5.08093 5.81207 5.45875
#
# Compressibility (1/GPa) = 0.04096268
#
# Stress axis : x y z
#
# Youngs Moduli (GPa) = 31.05642 75.11389 92.99177
#
# Poissons Ratio (x) = 0.17587 0.11503
# Poissons Ratio (y) = 0.07271 0.37880
# Poissons Ratio (z) = 0.03842 0.30598
#
# Static dielectric constant tensor:
#      x y z
#    x 3.737630 0.000000 0.242740 
#    y 0.000000 3.976070 0.000000 
#    z 0.242740 0.000000 3.827900 
# 
# 
# High freq. dielectric constant tensor:
#      x y z
#    x 1.818710 0.000000 0.011950 
#    y 0.000000 1.849410 0.000000 
#    z 0.011950 0.000000 1.836780 
# 
# From -- ./inp_files/216058.got.cif
#   From: 2010.06.25/outbox.cif.g09.slc.cpg/sg15_109_cif.got.tgz:216058.got - 2010.06.28 07:06:18.
