data_PCOD8130331
_publ_section_title
;
Structure prediction by ZEFSAII (Michael W. Deem and Ramdas Pophale) SiO2 
 PCOD8130331
Probable space group: C 2/C
;
_chemical_formula_sum "Si O2"
_cell_formula_units_Z 64
_cell_length_a 28.294026
_cell_length_b 17.391566
_cell_length_c 14.466427
_cell_angle_alpha 90.000000
_cell_angle_beta 33.641672
_cell_angle_gamma 90.000000
_cell_volume 3943.685606
_symmetry_space_group_name_H-M "C 2/C"
_symmetry_group_IT_number 15
_symmetry_cell_setting 'monoclinic'
loop_
_space_group_symop_operation_xyz
x,y,z
-x,y,1/2-z
-x,-y,-z
x,-y,1/2+z
1/2+x,1/2+y,z
1/2-x,1/2+y,1/2-z
1/2-x,1/2-y,-z
1/2+x,1/2-y,1/2+z
loop_
_atom_site_type_symbol
_atom_site_label
_atom_site_fract_x
_atom_site_fract_y
_atom_site_fract_z
Si Si1 0.421914 0.710549 0.440617
Si Si2 0.516391 0.583456 0.620317
Si Si3 0.219023 0.087167 0.863885
Si Si4 0.833804 0.694099 0.773876
Si Si5 0.690388 0.820222 0.982496
Si Si6 0.385549 0.453547 0.790211
Si Si7 0.525440 0.310009 0.943963
Si Si8 0.197669 0.040674 0.259435
O O1 0.500000 0.680346 0.250000
O O2 0.349096 0.646961 0.564425
O O3 0.386598 0.790685 0.457129
O O4 0.452513 0.723196 0.496039
O O5 0.500000 0.614045 0.750000
O O6 0.469377 0.502676 0.677654
O O7 0.483737 0.646244 0.599156
O O8 0.617233 0.572949 0.446960
O O9 0.310213 0.125123 0.742031
O O10 0.240607 0.026887 0.748406
O O11 0.178327 0.047141 0.020139
O O12 0.755385 0.751774 0.893805
O O13 0.919907 0.738526 0.605806
O O14 0.845209 0.658614 0.858051
O O15 0.732468 0.892995 0.865067
O O16 0.413039 0.367249 0.715420
O O17 0.334367 0.490863 0.787639
#
# Coordination Sequence:
#
# PCOD8130331 Si02
#       8
#     8   8   8   8   8   8   8   8
#     4  11  19  29  51  81 105 126 160 215 260 294
#     4  11  21  30  47  72 106 143 166 194 247 312
#     4  11  20  29  50  74 111 134 160 202 255 306
#     4  10  17  32  49  73 100 137 165 210 251 300
#     4  10  18  31  49  73 106 133 167 204 256 301
#     4  11  18  29  46  73 107 133 160 200 247 310
#     4  11  19  32  50  74 104 133 171 208 252 296
#     4  11  20  32  46  70 107 143 164 199 249 308
#
# _framework density 16.228473999999999
#
# number of rings (size 3 to 8) (size 9 to 14) (size 15 to 20)
#    0.000    1.250    7.500    3.750    0.000    0.000 
#    0.000    0.000    0.000    3.000    0.000    0.000 
#    0.000    0.000    0.000    0.000    0.000    0.000 
#
# Total GULP energy -396745.435265 kJ/mol
# GULP energy per Si atom -12398.294852 kJ/mol
# Density = 1.619154 g / cm^3
# Si number density = 16.228474 Si / 1000 Ang^3
#
#
#
# Elastic Constant Matrix: (Units=GPa)
#
#
# Indices 1 2 3 4 5 6 
#
# 1 125.8368 50.1523 25.5964 0.0000 2.0918 0.0000
# 2 50.1523 75.9258 30.6579 0.0000 -3.3858 0.0000
# 3 25.5964 30.6579 34.9587 0.0000 2.0938 0.0000
# 4 0.0000 0.0000 0.0000 25.6750 0.0000 -2.4190
# 5 2.0918 -3.3858 2.0938 0.0000 16.7832 0.0000
# 6 0.0000 0.0000 0.0000 -2.4190 0.0000 29.7740
#
#
#
# Elastic Compliance Matrix: (Units=1/GPa)
#
#
# Indices 1 2 3 4 5 6 
#
# 1 0.011028 -0.006486 -0.002242 0.000000 -0.002403 0.000000
# 2 -0.006486 0.024911 -0.017578 0.000000 0.008027 0.000000
# 3 -0.002242 -0.017578 0.046203 0.000000 -0.009031 0.000000
# 4 0.000000 0.000000 0.000000 0.039249 0.000000 0.003189
# 5 -0.002403 0.008027 -0.009031 0.000000 0.062629 0.000000
# 6 0.000000 0.000000 0.000000 0.003189 0.000000 0.033845
#
#
# Mechanical properties :
#
#
# Convention : Reuss Voigt Hill
#
# Bulk Modulus (GPa) = 33.86472 49.94827 41.90650
# Shear Modulus (GPa) = 17.83668 23.13406 20.48537
#
# Velocity S-wave (km/s) = 3.31886 3.77971 3.55676
# Velocity P-wave (km/s) = 5.96651 7.06351 6.53806
#
# Compressibility (1/GPa) = 0.02952925
#
# Stress axis : x y z
#
# Youngs Moduli (GPa) = 90.67883 40.14324 21.64347
#
# Poissons Ratio (x) = 0.26037 0.04853
# Poissons Ratio (y) = 0.58816 0.38045
# Poissons Ratio (z) = 0.20334 0.70563
#
# Static dielectric constant tensor:
#      x y z
#    x 3.449640 0.000000 0.049780 
#    y 0.000000 2.959030 0.000000 
#    z 0.049780 0.000000 2.782330 
# 
# 
# High freq. dielectric constant tensor:
#      x y z
#    x 1.641800 0.000000 0.005660 
#    y 0.000000 1.595930 0.000000 
#    z 0.005660 0.000000 1.582350 
# 
# From -- ./inp_files/162795.got.cif
#   From: 2010.06.25/outbox.cif.g09.slc.cpg/sg15_82_cif.got.tgz:162795.got - 2010.06.28 07:06:18.
