data_PCOD8130983
_publ_section_title
;
Structure prediction by ZEFSAII (Michael W. Deem and Ramdas Pophale) SiO2 
 PCOD8130983
Probable space group: C 2/C
;
_chemical_formula_sum "Si O2"
_cell_formula_units_Z 44
_cell_length_a 20.581802
_cell_length_b 13.959382
_cell_length_c 9.697515
_cell_angle_alpha 90.000000
_cell_angle_beta 123.135646
_cell_angle_gamma 90.000000
_cell_volume 2333.092786
_symmetry_space_group_name_H-M "C 2/C"
_symmetry_group_IT_number 15
_symmetry_cell_setting 'monoclinic'
loop_
_space_group_symop_operation_xyz
x,y,z
-x,y,1/2-z
-x,-y,-z
x,-y,1/2+z
1/2+x,1/2+y,z
1/2-x,1/2+y,1/2-z
1/2-x,1/2-y,-z
1/2+x,1/2-y,1/2+z
loop_
_atom_site_type_symbol
_atom_site_label
_atom_site_fract_x
_atom_site_fract_y
_atom_site_fract_z
Si Si1 0.500000 0.686155 0.250000
Si Si2 0.074594 0.093812 0.072800
Si Si3 0.859239 0.780348 0.417299
Si Si4 0.797682 0.968963 0.484000
Si Si5 0.419827 0.591554 0.772026
Si Si6 0.243380 0.894007 0.778880
O O1 0.538498 0.619437 0.179261
O O2 0.564520 0.749771 0.404946
O O3 0.156382 0.149999 0.153792
O O4 0.090918 0.979687 0.107299
O O5 0.014774 0.112676 0.874288
O O6 0.816031 0.864786 0.447304
O O7 0.879635 0.811468 0.282789
O O8 0.805407 0.688813 0.344584
O O9 0.753564 0.953000 0.575519
O O10 0.874912 0.040376 0.591347
O O11 0.738777 0.027162 0.318244
#
# Coordination Sequence:
#
# PCOD8130983 Si02
#       6
#     4   8   8   8   8   8
#     4  10  18  30  56  78 112 130 186 210 270 320
#     4   9  17  30  49  82 108 140 158 225 263 326
#     4  11  20  35  54  83 104 145 177 218 261 329
#     4  11  20  37  53  82 108 146 169 223 263 322
#     4   9  18  30  52  78 112 130 172 210 277 313
#     4  11  23  34  56  78 113 139 182 213 274 311
#
# _framework density 18.859086000000001
#
# number of rings (size 3 to 8) (size 9 to 14) (size 15 to 20)
#    0.000    1.818    7.273    0.545    0.000    1.455 
#    0.000    0.000    0.000    1.091    0.000    0.000 
#    0.000    0.000    0.000    0.000    0.000    0.000 
#
# Total GULP energy -272558.362413 kJ/mol
# GULP energy per Si atom -12389.016473 kJ/mol
# Density = 1.881616 g / cm^3
# Si number density = 18.859086 Si / 1000 Ang^3
#
#
#
# Elastic Constant Matrix: (Units=GPa)
#
#
# Indices 1 2 3 4 5 6 
#
# 1 54.8312 50.1804 19.7667 0.0000 19.5715 0.0000
# 2 50.1804 89.2046 56.4888 0.0000 16.6562 0.0000
# 3 19.7667 56.4888 96.0808 0.0000 5.1404 0.0000
# 4 0.0000 0.0000 0.0000 25.0707 0.0000 8.6154
# 5 19.5715 16.6562 5.1404 0.0000 24.6150 0.0000
# 6 0.0000 0.0000 0.0000 8.6154 0.0000 35.5273
#
#
#
# Elastic Compliance Matrix: (Units=1/GPa)
#
#
# Indices 1 2 3 4 5 6 
#
# 1 0.049382 -0.028787 0.007912 0.000000 -0.021437 0.000000
# 2 -0.028787 0.037461 -0.016151 0.000000 0.000913 0.000000
# 3 0.007912 -0.016151 0.018231 0.000000 0.000831 0.000000
# 4 0.000000 0.000000 0.000000 0.043513 0.000000 -0.010552
# 5 -0.021437 0.000913 0.000831 0.000000 0.056879 0.000000
# 6 0.000000 0.000000 0.000000 -0.010552 0.000000 0.030706
#
#
# Mechanical properties :
#
#
# Convention : Reuss Voigt Hill
#
# Bulk Modulus (GPa) = 32.23376 54.77649 43.50512
# Shear Modulus (GPa) = 15.59745 24.62131 20.10938
#
# Velocity S-wave (km/s) = 2.87897 3.61715 3.26896
# Velocity P-wave (km/s) = 5.30851 6.82299 6.11284
#
# Compressibility (1/GPa) = 0.03102338
#
# Stress axis : x y z
#
# Youngs Moduli (GPa) = 20.25017 26.69469 54.85083
#
# Poissons Ratio (x) = 0.76845 -0.43398
# Poissons Ratio (y) = 0.58293 0.88588
# Poissons Ratio (z) = -0.16022 0.43114
#
# Static dielectric constant tensor:
#      x y z
#    x 3.461890 0.000000 -0.100200 
#    y 0.000000 2.945290 0.000000 
#    z -0.100200 0.000000 3.903810 
# 
# 
# High freq. dielectric constant tensor:
#      x y z
#    x 1.729470 0.000000 -0.025260 
#    y 0.000000 1.669530 0.000000 
#    z -0.025260 0.000000 1.761440 
# 
# From -- ./inp_files/61707.got.cif
#   From: 2010.06.25/outbox.cif.g09.slc.cpg/sg15_31_cif.got.tgz:61707.got - 2010.06.28 07:06:18.
