data_PCOD8130226
_publ_section_title
;
Structure prediction by ZEFSAII (Michael W. Deem and Ramdas Pophale) SiO2 
 PCOD8130226
Probable space group: C 2/C
;
_chemical_formula_sum "Si O2"
_cell_formula_units_Z 48
_cell_length_a 29.512319
_cell_length_b 11.863030
_cell_length_c 14.726188
_cell_angle_alpha 90.000000
_cell_angle_beta 148.888925
_cell_angle_gamma 90.000000
_cell_volume 2663.954392
_symmetry_space_group_name_H-M "C 2/C"
_symmetry_group_IT_number 15
_symmetry_cell_setting 'monoclinic'
loop_
_space_group_symop_operation_xyz
x,y,z
-x,y,1/2-z
-x,-y,-z
x,-y,1/2+z
1/2+x,1/2+y,z
1/2-x,1/2+y,1/2-z
1/2-x,1/2-y,-z
1/2+x,1/2-y,1/2+z
loop_
_atom_site_type_symbol
_atom_site_label
_atom_site_fract_x
_atom_site_fract_y
_atom_site_fract_z
Si Si1 0.045358 0.880806 0.057214
Si Si2 0.592055 0.672001 0.941315
Si Si3 0.592513 0.592574 0.440628
Si Si4 0.232690 0.905375 0.031825
Si Si5 0.193791 0.157970 0.951906
Si Si6 0.372445 0.726484 0.291804
O O1 0.103186 0.858287 0.243758
O O2 0.105086 0.878884 0.068928
O O3 0.970556 0.783912 0.919239
O O4 0.000000 0.000000 0.000000
O O5 0.500000 0.727129 0.750000
O O6 0.585686 0.539458 0.915810
O O7 0.670147 0.711518 0.008885
O O8 0.621074 0.702708 0.091010
O O9 0.500000 0.647217 0.250000
O O10 0.672620 0.635903 0.514615
O O11 0.329414 0.849893 0.205082
O O12 0.188690 0.866393 0.861904
O O13 0.245676 0.039763 0.050441
O O14 0.250000 0.250000 0.000000
#
# Coordination Sequence:
#
# PCOD8130226 Si02
#       6
#     8   8   8   8   8   8
#     4  12  18  35  59  84 110 149 192 236 280 332
#     4  10  18  33  56  80 108 147 190 232 278 329
#     4  10  17  30  55  84 111 140 190 235 274 329
#     4  10  22  36  54  86 120 147 184 237 292 334
#     4  11  23  37  56  87 113 147 190 236 279 337
#     4  11  20  35  57  84 114 150 185 237 290 333
#
# _framework density 18.018326999999999
#
# number of rings (size 3 to 8) (size 9 to 14) (size 15 to 20)
#    0.000    1.333    6.667    1.000    2.333    0.000 
#    0.000    0.833    0.000    0.000    0.000    0.000 
#    0.000    0.000    0.000    0.000    0.000    0.000 
#
# Total GULP energy -297454.449525 kJ/mol
# GULP energy per Si atom -12393.935397 kJ/mol
# Density = 1.797732 g / cm^3
# Si number density = 18.018327 Si / 1000 Ang^3
#
#
#
# Elastic Constant Matrix: (Units=GPa)
#
#
# Indices 1 2 3 4 5 6 
#
# 1 139.4026 45.2037 39.1511 0.0000 -11.3219 0.0000
# 2 45.2037 63.7596 26.0719 0.0000 18.1022 0.0000
# 3 39.1511 26.0719 75.5612 0.0000 -1.6768 0.0000
# 4 0.0000 0.0000 0.0000 21.5547 0.0000 7.3925
# 5 -11.3219 18.1022 -1.6768 0.0000 35.6696 0.0000
# 6 0.0000 0.0000 0.0000 7.3925 0.0000 27.8348
#
#
#
# Elastic Compliance Matrix: (Units=1/GPa)
#
#
# Indices 1 2 3 4 5 6 
#
# 1 0.011721 -0.009689 -0.002541 0.000000 0.008518 0.000000
# 2 -0.009689 0.030247 -0.005831 0.000000 -0.018700 0.000000
# 3 -0.002541 -0.005831 0.016628 0.000000 0.002934 0.000000
# 4 0.000000 0.000000 0.000000 0.051043 0.000000 -0.013556
# 5 0.008518 -0.018700 0.002934 0.000000 0.040367 0.000000
# 6 0.000000 0.000000 0.000000 -0.013556 0.000000 0.039527
#
#
# Mechanical properties :
#
#
# Convention : Reuss Voigt Hill
#
# Bulk Modulus (GPa) = 44.49717 55.50854 50.00286
# Shear Modulus (GPa) = 21.44596 28.23161 24.83878
#
# Velocity S-wave (km/s) = 3.45371 3.96261 3.71688
# Velocity P-wave (km/s) = 6.37599 7.19791 6.79939
#
# Compressibility (1/GPa) = 0.02247334
#
# Stress axis : x y z
#
# Youngs Moduli (GPa) = 85.31923 33.06153 60.13999
#
# Poissons Ratio (x) = 0.32033 0.15280
# Poissons Ratio (y) = 0.82666 0.35068
# Poissons Ratio (z) = 0.21678 0.19279
#
# Static dielectric constant tensor:
#      x y z
#    x 3.822010 0.000000 -0.037990 
#    y 0.000000 3.058920 0.000000 
#    z -0.037990 0.000000 3.280230 
# 
# 
# High freq. dielectric constant tensor:
#      x y z
#    x 1.717400 0.000000 -0.014470 
#    y 0.000000 1.649910 0.000000 
#    z -0.014470 0.000000 1.695920 
# 
# From -- ./inp_files/151831.got.cif
#   From: 2010.06.25/outbox.cif.g09.slc.cpg/sg15_76_cif.got.tgz:151831.got - 2010.06.28 07:06:18.
