data_PCOD8130580
_publ_section_title
;
Structure prediction by ZEFSAII (Michael W. Deem and Ramdas Pophale) SiO2 
 PCOD8130580
Probable space group: C 2/C
;
_chemical_formula_sum "Si O2"
_cell_formula_units_Z 56
_cell_length_a 10.850301
_cell_length_b 18.939025
_cell_length_c 14.789400
_cell_angle_alpha 90.000000
_cell_angle_beta 58.218148
_cell_angle_gamma 90.000000
_cell_volume 2583.445561
_symmetry_space_group_name_H-M "C 2/C"
_symmetry_group_IT_number 15
_symmetry_cell_setting 'monoclinic'
loop_
_space_group_symop_operation_xyz
x,y,z
-x,y,1/2-z
-x,-y,-z
x,-y,1/2+z
1/2+x,1/2+y,z
1/2-x,1/2+y,1/2-z
1/2-x,1/2-y,-z
1/2+x,1/2-y,1/2+z
loop_
_atom_site_type_symbol
_atom_site_label
_atom_site_fract_x
_atom_site_fract_y
_atom_site_fract_z
Si Si1 0.281603 0.437811 0.720367
Si Si2 0.000000 0.367951 0.250000
Si Si3 0.209282 0.329509 0.521426
Si Si4 0.647829 0.044078 0.455942
Si Si5 0.980975 0.320936 0.062335
Si Si6 0.779578 0.052742 0.586531
Si Si7 0.500000 0.120894 0.250000
Si Si8 0.035617 0.843429 0.957615
O O1 0.266364 0.461866 0.830019
O O2 0.352712 0.498102 0.628659
O O3 0.116699 0.428433 0.752580
O O4 0.382345 0.367952 0.667373
O O5 0.037588 0.320315 0.322688
O O6 0.136285 0.417768 0.187236
O O7 0.250000 0.250000 0.500000
O O8 0.157166 0.353460 0.440846
O O9 0.074572 0.332671 0.643280
O O10 0.352895 0.367882 0.505025
O O11 0.615037 0.127773 0.484575
O O12 0.731628 0.013994 0.511595
O O13 0.500000 0.000000 0.500000
O O14 0.003448 0.239550 0.025336
O O15 0.885839 0.117161 0.526739
#
# Coordination Sequence:
#
# PCOD8130580 Si02
#       8
#     8   4   8   8   8   8   4   8
#     4  11  21  39  64  92 122 173 217 256 325 389
#     4  10  23  40  68  90 122 169 210 276 313 384
#     4   9  19  38  61  95 128 164 210 262 318 393
#     4  11  23  39  69  93 120 172 221 274 307 385
#     4  10  21  42  64  98 127 161 222 257 328 394
#     4  11  24  43  61  94 133 161 221 275 323 383
#     4  10  17  34  66  88 118 169 220 256 309 386
#     4  10  24  40  64  94 136 168 200 279 336 383
#
# _framework density 21.676477999999999
#
# number of rings (size 3 to 8) (size 9 to 14) (size 15 to 20)
#    0.000    1.714    1.429    3.429    2.000    5.143 
#    7.714    0.000    0.000    0.000    0.000    0.000 
#    0.000    0.000    0.000    0.000    0.000    0.000 
#
# Total GULP energy -346954.155407 kJ/mol
# GULP energy per Si atom -12391.219836 kJ/mol
# Density = 2.162714 g / cm^3
# Si number density = 21.676478 Si / 1000 Ang^3
#
#
#
# Elastic Constant Matrix: (Units=GPa)
#
#
# Indices 1 2 3 4 5 6 
#
# 1 74.4676 16.2657 47.8266 0.0000 15.5332 0.0000
# 2 16.2657 79.8662 41.6492 0.0000 1.5735 0.0000
# 3 47.8266 41.6492 125.4942 0.0000 22.8664 0.0000
# 4 0.0000 0.0000 0.0000 29.6060 0.0000 -5.9451
# 5 15.5332 1.5735 22.8664 0.0000 44.9696 0.0000
# 6 0.0000 0.0000 0.0000 -5.9451 0.0000 33.0818
#
#
#
# Elastic Compliance Matrix: (Units=1/GPa)
#
#
# Indices 1 2 3 4 5 6 
#
# 1 0.018158 -0.000390 -0.006228 0.000000 -0.003092 0.000000
# 2 -0.000390 0.015356 -0.005372 0.000000 0.002329 0.000000
# 3 -0.006228 -0.005372 0.012893 0.000000 -0.004217 0.000000
# 4 0.000000 0.000000 0.000000 0.035041 0.000000 0.006297
# 5 -0.003092 0.002329 -0.004217 0.000000 0.025368 0.000000
# 6 0.000000 0.000000 0.000000 0.006297 0.000000 0.031360
#
#
# Mechanical properties :
#
#
# Convention : Reuss Voigt Hill
#
# Bulk Modulus (GPa) = 44.58593 54.59012 49.58802
# Shear Modulus (GPa) = 29.47560 33.13724 31.30642
#
# Velocity S-wave (km/s) = 3.69154 3.91413 3.80446
# Velocity P-wave (km/s) = 6.22764 6.75765 6.49805
#
# Compressibility (1/GPa) = 0.02242860
#
# Stress axis : x y z
#
# Youngs Moduli (GPa) = 55.07108 65.12124 77.56037
#
# Poissons Ratio (x) = 0.02537 0.48301
# Poissons Ratio (y) = 0.02146 0.41667
# Poissons Ratio (z) = 0.34296 0.34985
#
# Static dielectric constant tensor:
#      x y z
#    x 4.592730 0.000000 0.267880 
#    y 0.000000 3.815550 0.000000 
#    z 0.267880 0.000000 3.753920 
# 
# 
# High freq. dielectric constant tensor:
#      x y z
#    x 1.852360 0.000000 0.012030 
#    y 0.000000 1.847340 0.000000 
#    z 0.012030 0.000000 1.846240 
# 
# From -- ./inp_files/146017.got.cif
#   From: 2010.06.25/outbox.cif.g09.slc.cpg/sg15_74_cif.got.tgz:146017.got - 2010.06.28 07:06:18.
