data_PCOD8130760
_publ_section_title
;
Structure prediction by ZEFSAII (Michael W. Deem and Ramdas Pophale) SiO2 
 PCOD8130760
Probable space group: C 2/C
;
_chemical_formula_sum "Si O2"
_cell_formula_units_Z 64
_cell_length_a 26.294385
_cell_length_b 18.219425
_cell_length_c 8.939318
_cell_angle_alpha 90.000000
_cell_angle_beta 89.999490
_cell_angle_gamma 90.000000
_cell_volume 4282.546339
_symmetry_space_group_name_H-M "C 2/C"
_symmetry_group_IT_number 15
_symmetry_cell_setting 'monoclinic'
loop_
_space_group_symop_operation_xyz
x,y,z
-x,y,1/2-z
-x,-y,-z
x,-y,1/2+z
1/2+x,1/2+y,z
1/2-x,1/2+y,1/2-z
1/2-x,1/2-y,-z
1/2+x,1/2-y,1/2+z
loop_
_atom_site_type_symbol
_atom_site_label
_atom_site_fract_x
_atom_site_fract_y
_atom_site_fract_z
Si Si1 0.801143 0.296482 0.668496
Si Si2 0.247679 0.078488 0.323958
Si Si3 0.252320 0.421516 0.323959
Si Si4 0.552114 0.577066 0.323210
Si Si5 0.850368 0.169911 0.173905
Si Si6 0.850369 0.169906 0.826089
Si Si7 0.698858 0.796487 0.168497
Si Si8 0.947886 0.922942 0.323218
O O1 0.793393 0.370388 0.763791
O O2 0.845821 0.246735 0.738428
O O3 0.750002 0.249994 0.674481
O O4 0.816130 0.317927 0.500000
O O5 0.253292 0.070241 0.499999
O O6 0.193280 0.112524 0.277545
O O7 0.252874 0.000004 0.249992
O O8 0.306719 0.387481 0.277542
O O9 0.206606 0.370397 0.263784
O O10 0.500000 0.606283 0.250000
O O11 0.595309 0.635901 0.285439
O O12 0.567909 0.500006 0.249988
O O13 0.545221 0.565954 0.499995
O O14 0.845819 0.246742 0.261560
O O15 0.844804 0.187899 0.999996
O O16 0.904691 0.135891 0.785435
O O17 0.000000 0.893728 0.250000
#
# Coordination Sequence:
#
# PCOD8130760 Si02
#       8
#     8   8   8   8   8   8   8   8
#     4   9  17  28  42  60  81 106 137 171 206 246
#     4  10  18  28  42  60  84 111 140 172 206 245
#     4  10  18  28  42  60  84 111 140 172 206 245
#     4  10  19  30  43  60  83 110 142 177 212 246
#     4   9  18  30  43  59  81 111 142 173 209 247
#     4   9  18  30  43  59  81 111 142 173 209 247
#     4   9  17  28  42  60  81 106 137 171 206 246
#     4  10  19  30  43  60  83 110 142 177 212 246
#
# _framework density 14.944381
#
# number of rings (size 3 to 8) (size 9 to 14) (size 15 to 20)
#    0.000    2.500    0.000    3.750    0.000    6.000 
#    0.000    0.000    0.000    0.000    0.000    0.000 
#    0.000    1.000    0.000   10.500    0.000    5.750 
#
# Total GULP energy -396806.965995 kJ/mol
# GULP energy per Si atom -12400.217687 kJ/mol
# Density = 1.491037 g / cm^3
# Si number density = 14.944381 Si / 1000 Ang^3
#
#
#
# Elastic Constant Matrix: (Units=GPa)
#
#
# Indices 1 2 3 4 5 6 
#
# 1 77.6134 53.7887 43.0355 0.0000 0.0047 0.0000
# 2 53.7887 109.2330 59.7255 0.0000 0.0059 0.0000
# 3 43.0355 59.7255 91.9402 0.0000 0.0055 0.0000
# 4 0.0000 0.0000 0.0000 31.0875 0.0000 -0.0001
# 5 0.0047 0.0059 0.0055 0.0000 17.9969 0.0000
# 6 0.0000 0.0000 0.0000 -0.0001 0.0000 24.6320
#
#
#
# Elastic Compliance Matrix: (Units=1/GPa)
#
#
# Indices 1 2 3 4 5 6 
#
# 1 0.020835 -0.007642 -0.004789 0.000000 -0.000001 0.000000
# 2 -0.007642 0.017000 -0.007467 0.000000 -0.000001 0.000000
# 3 -0.004789 -0.007467 0.017969 0.000000 -0.000002 0.000000
# 4 0.000000 0.000000 0.000000 0.032167 0.000000 0.000000
# 5 -0.000001 -0.000001 -0.000002 0.000000 0.055565 0.000000
# 6 0.000000 0.000000 0.000000 0.000000 0.000000 0.040598
#
#
# Mechanical properties :
#
#
# Convention : Reuss Voigt Hill
#
# Bulk Modulus (GPa) = 62.45910 65.76510 64.11210
# Shear Modulus (GPa) = 21.80888 22.89242 22.35065
#
# Velocity S-wave (km/s) = 3.82427 3.91812 3.87148
# Velocity P-wave (km/s) = 7.83487 8.03561 7.93587
#
# Compressibility (1/GPa) = 0.01601048
#
# Stress axis : x y z
#
# Youngs Moduli (GPa) = 47.99512 58.82305 55.65283
#
# Poissons Ratio (x) = 0.44950 0.26650
# Poissons Ratio (y) = 0.36676 0.41554
# Poissons Ratio (z) = 0.22983 0.43921
#
# Static dielectric constant tensor:
#      x y z
#    x 2.728410 0.000000 0.000020 
#    y 0.000000 2.837840 0.000000 
#    z 0.000020 0.000000 3.043680 
# 
# 
# High freq. dielectric constant tensor:
#      x y z
#    x 1.537800 0.000000 0.000000 
#    y 0.000000 1.560660 0.000000 
#    z 0.000000 0.000000 1.589980 
# 
# From -- ./inp_files/51884.got.cif
#   From: 2010.06.25/outbox.cif.g09.slc.cpg/sg15_26_cif.got.tgz:51884.got - 2010.06.28 07:06:18.
