data_PCOD8130257
_publ_section_title
;
Structure prediction by ZEFSAII (Michael W. Deem and Ramdas Pophale) SiO2 
 PCOD8130257
Probable space group: C 2/C
;
_chemical_formula_sum "Si O2"
_cell_formula_units_Z 48
_cell_length_a 20.409982
_cell_length_b 16.897561
_cell_length_c 9.092770
_cell_angle_alpha 90.000000
_cell_angle_beta 57.891339
_cell_angle_gamma 90.000000
_cell_volume 2656.241650
_symmetry_space_group_name_H-M "C 2/C"
_symmetry_group_IT_number 15
_symmetry_cell_setting 'monoclinic'
loop_
_space_group_symop_operation_xyz
x,y,z
-x,y,1/2-z
-x,-y,-z
x,-y,1/2+z
1/2+x,1/2+y,z
1/2-x,1/2+y,1/2-z
1/2-x,1/2-y,-z
1/2+x,1/2-y,1/2+z
loop_
_atom_site_type_symbol
_atom_site_label
_atom_site_fract_x
_atom_site_fract_y
_atom_site_fract_z
Si Si1 0.385889 0.365984 0.748671
Si Si2 0.257451 0.499478 0.146744
Si Si3 0.864200 0.045560 0.775814
Si Si4 0.518056 0.312591 0.385764
Si Si5 0.711855 0.891876 0.944204
Si Si6 0.423962 0.768652 0.416220
O O1 0.401957 0.458742 0.753980
O O2 0.436152 0.334681 0.554010
O O3 0.295496 0.351438 0.821824
O O4 0.408867 0.318186 0.867126
O O5 0.316542 0.450476 0.180117
O O6 0.198965 0.549236 0.320498
O O7 0.306148 0.558842 0.983059
O O8 0.209207 0.438806 0.102524
O O9 0.931274 0.109121 0.696922
O O10 0.500000 0.273766 0.250000
O O11 0.562604 0.245948 0.426756
O O12 0.647079 0.825982 0.025440
O O13 0.500000 0.806918 0.250000
#
# Coordination Sequence:
#
# PCOD8130257 Si02
#       6
#     8   8   8   8   8   8
#     4   9  19  32  52  78 104 139 168 192 247 309
#     4   8  18  32  54  79  99 131 171 206 256 302
#     4  10  17  31  50  79 111 136 163 203 239 297
#     4  11  20  31  47  76 109 138 169 204 242 291
#     4  10  18  37  56  76 101 127 167 218 255 304
#     4  10  22  37  52  72 102 139 173 205 252 307
#
# _framework density 18.070644000000001
#
# number of rings (size 3 to 8) (size 9 to 14) (size 15 to 20)
#    0.000    2.667    0.000    5.000    0.000    2.000 
#    0.000   10.833    0.000    0.000    0.000    0.000 
#    0.000    0.000    0.000    0.000    0.000    0.000 
#
# Total GULP energy -297495.162194 kJ/mol
# GULP energy per Si atom -12395.631758 kJ/mol
# Density = 1.802951 g / cm^3
# Si number density = 18.070644 Si / 1000 Ang^3
#
#
#
# Elastic Constant Matrix: (Units=GPa)
#
#
# Indices 1 2 3 4 5 6 
#
# 1 95.0757 46.5269 49.8483 0.0000 10.2540 0.0000
# 2 46.5269 57.0088 31.5072 0.0000 5.6129 0.0000
# 3 49.8483 31.5072 88.5467 0.0000 29.0647 0.0000
# 4 0.0000 0.0000 0.0000 12.9221 0.0000 -3.0033
# 5 10.2540 5.6129 29.0647 0.0000 36.7351 0.0000
# 6 0.0000 0.0000 0.0000 -3.0033 0.0000 29.8188
#
#
#
# Elastic Compliance Matrix: (Units=1/GPa)
#
#
# Indices 1 2 3 4 5 6 
#
# 1 0.020599 -0.012699 -0.007871 0.000000 0.002418 0.000000
# 2 -0.012699 0.030063 -0.004328 0.000000 0.002376 0.000000
# 3 -0.007871 -0.004328 0.022054 0.000000 -0.014591 0.000000
# 4 0.000000 0.000000 0.000000 0.079241 0.000000 0.007981
# 5 0.002418 0.002376 -0.014591 0.000000 0.037728 0.000000
# 6 0.000000 0.000000 0.000000 0.007981 0.000000 0.034340
#
#
# Mechanical properties :
#
#
# Convention : Reuss Voigt Hill
#
# Bulk Modulus (GPa) = 43.63167 55.15509 49.39338
# Shear Modulus (GPa) = 17.76442 23.41181 20.58811
#
# Velocity S-wave (km/s) = 3.13877 3.60331 3.37903
# Velocity P-wave (km/s) = 6.11010 6.92098 6.52814
#
# Compressibility (1/GPa) = 0.02291913
#
# Stress axis : x y z
#
# Youngs Moduli (GPa) = 48.54721 33.26307 45.34325
#
# Poissons Ratio (x) = 0.42241 0.35691
# Poissons Ratio (y) = 0.61650 0.19625
# Poissons Ratio (z) = 0.38213 0.14396
#
# Static dielectric constant tensor:
#      x y z
#    x 3.305770 0.000000 0.209020 
#    y 0.000000 2.973050 0.000000 
#    z 0.209020 0.000000 3.591480 
# 
# 
# High freq. dielectric constant tensor:
#      x y z
#    x 1.691960 0.000000 0.015560 
#    y 0.000000 1.662700 0.000000 
#    z 0.015560 0.000000 1.713250 
# 
# From -- ./inp_files/48711.got.cif
#   From: 2010.06.25/outbox.cif.g09.slc.cpg/sg15_25_cif.got.tgz:48711.got - 2010.06.28 07:06:18.
