data_PCOD8130547
_publ_section_title
;
Structure prediction by ZEFSAII (Michael W. Deem and Ramdas Pophale) SiO2 
 PCOD8130547
Probable space group: C 2/C
;
_chemical_formula_sum "Si O2"
_cell_formula_units_Z 64
_cell_length_a 17.139553
_cell_length_b 9.613687
_cell_length_c 18.472802
_cell_angle_alpha 90.000000
_cell_angle_beta 82.440649
_cell_angle_gamma 90.000000
_cell_volume 3017.389309
_symmetry_space_group_name_H-M "C 2/C"
_symmetry_group_IT_number 15
_symmetry_cell_setting 'monoclinic'
loop_
_space_group_symop_operation_xyz
x,y,z
-x,y,1/2-z
-x,-y,-z
x,-y,1/2+z
1/2+x,1/2+y,z
1/2-x,1/2+y,1/2-z
1/2-x,1/2-y,-z
1/2+x,1/2-y,1/2+z
loop_
_atom_site_type_symbol
_atom_site_label
_atom_site_fract_x
_atom_site_fract_y
_atom_site_fract_z
Si Si1 0.511168 0.994173 0.376426
Si Si2 0.075248 0.712965 0.198880
Si Si3 0.816268 0.725723 0.049452
Si Si4 0.479468 0.219265 0.997872
Si Si5 0.213461 0.581990 0.965331
Si Si6 0.276779 0.799874 0.714124
Si Si7 0.818608 0.402755 0.185619
Si Si8 0.125452 0.182980 0.547169
O O1 0.482949 0.853152 0.418913
O O2 0.591278 0.958454 0.322464
O O3 0.446750 0.056823 0.328189
O O4 0.523081 0.111946 0.435206
O O5 0.148879 0.715165 0.242811
O O6 0.092770 0.821602 0.132349
O O7 0.000000 0.773983 0.250000
O O8 0.896798 0.802397 0.014173
O O9 0.832567 0.560553 0.041640
O O10 0.793309 0.769084 0.133398
O O11 0.750000 0.750000 0.000000
O O12 0.553160 0.325484 0.998744
O O13 0.203362 0.662735 0.889991
O O14 0.306959 0.565548 0.973702
O O15 0.169265 0.667335 0.032944
O O16 0.200253 0.719408 0.754583
O O17 0.260456 0.964898 0.707544
#
# Coordination Sequence:
#
# PCOD8130547 Si02
#       8
#     8   8   8   8   8   8   8   8
#     4  10  18  32  59  88 121 147 194 262 304 349
#     4  11  19  31  54  92 116 150 203 255 300 356
#     4  11  23  41  57  81 120 165 199 249 317 375
#     4  10  17  34  58  86 116 154 200 250 302 352
#     4  10  19  36  57  87 122 151 202 247 302 356
#     4  11  23  38  60  87 124 163 202 259 307 381
#     4  11  20  39  56  92 128 159 199 255 312 361
#     4  10  19  31  61  89 113 152 193 253 300 348
#
# _framework density 21.210387000000001
#
# number of rings (size 3 to 8) (size 9 to 14) (size 15 to 20)
#    0.000    1.500    6.250    2.250    0.000    2.000 
#    0.000    0.625    0.000    1.500    3.250    0.000 
#    0.000    0.000    0.000    0.000    0.000    0.000 
#
# Total GULP energy -396495.270856 kJ/mol
# GULP energy per Si atom -12390.477214 kJ/mol
# Density = 2.116211 g / cm^3
# Si number density = 21.210387 Si / 1000 Ang^3
#
#
#
# Elastic Constant Matrix: (Units=GPa)
#
#
# Indices 1 2 3 4 5 6 
#
# 1 129.5140 4.2389 28.8885 0.0000 3.9475 0.0000
# 2 4.2389 17.9913 6.1226 0.0000 -7.3076 0.0000
# 3 28.8885 6.1226 70.5505 0.0000 -6.8833 0.0000
# 4 0.0000 0.0000 0.0000 22.3622 0.0000 1.6966
# 5 3.9475 -7.3076 -6.8833 0.0000 41.2601 0.0000
# 6 0.0000 0.0000 0.0000 1.6966 0.0000 30.5045
#
#
#
# Elastic Compliance Matrix: (Units=1/GPa)
#
#
# Indices 1 2 3 4 5 6 
#
# 1 0.008616 -0.001502 -0.003562 0.000000 -0.001685 0.000000
# 2 -0.001502 0.061422 -0.003700 0.000000 0.010405 0.000000
# 3 -0.003562 -0.003700 0.016187 0.000000 0.002386 0.000000
# 4 0.000000 0.000000 0.000000 0.044908 0.000000 -0.002498
# 5 -0.001685 0.010405 0.002386 0.000000 0.026638 0.000000
# 6 0.000000 0.000000 0.000000 -0.002498 0.000000 0.032921
#
#
# Mechanical properties :
#
#
# Convention : Reuss Voigt Hill
#
# Bulk Modulus (GPa) = 14.55691 32.95064 23.75377
# Shear Modulus (GPa) = 21.63386 30.74574 26.18980
#
# Velocity S-wave (km/s) = 3.19715 3.81144 3.51773
# Velocity P-wave (km/s) = 4.52847 5.91086 5.26523
#
# Compressibility (1/GPa) = 0.06869589
#
# Stress axis : x y z
#
# Youngs Moduli (GPa) = 116.06011 16.28091 61.77904
#
# Poissons Ratio (x) = 0.02446 0.22006
# Poissons Ratio (y) = 0.17433 0.22859
# Poissons Ratio (z) = 0.41342 0.06024
#
# Static dielectric constant tensor:
#      x y z
#    x 4.098440 0.000000 0.173670 
#    y 0.000000 3.307020 0.000000 
#    z 0.173670 0.000000 7.055820 
# 
# 
# High freq. dielectric constant tensor:
#      x y z
#    x 1.842250 0.000000 -0.005640 
#    y 0.000000 1.770320 0.000000 
#    z -0.005640 0.000000 1.840600 
# 
# From -- ./inp_files/210301.got.cif
#   From: 2010.06.25/outbox.cif.g09.slc.cpg/sg15_106_cif.got.tgz:210301.got - 2010.06.28 07:06:18.
