data_PCOD8130848
_publ_section_title
;
Structure prediction by ZEFSAII (Michael W. Deem and Ramdas Pophale) SiO2 
 PCOD8130848
Probable space group: C 2/C
;
_chemical_formula_sum "Si O2"
_cell_formula_units_Z 64
_cell_length_a 20.305138
_cell_length_b 8.476391
_cell_length_c 21.357534
_cell_angle_alpha 90.000000
_cell_angle_beta 73.698699
_cell_angle_gamma 90.000000
_cell_volume 3528.160146
_symmetry_space_group_name_H-M "C 2/C"
_symmetry_group_IT_number 15
_symmetry_cell_setting 'monoclinic'
loop_
_space_group_symop_operation_xyz
x,y,z
-x,y,1/2-z
-x,-y,-z
x,-y,1/2+z
1/2+x,1/2+y,z
1/2-x,1/2+y,1/2-z
1/2-x,1/2-y,-z
1/2+x,1/2-y,1/2+z
loop_
_atom_site_type_symbol
_atom_site_label
_atom_site_fract_x
_atom_site_fract_y
_atom_site_fract_z
Si Si1 0.852445 0.212920 0.662964
Si Si2 0.601390 0.555044 0.590412
Si Si3 0.296528 0.707507 0.430574
Si Si4 0.145082 0.806202 0.949934
Si Si5 0.037674 0.010430 0.923898
Si Si6 0.829971 0.206145 0.806460
Si Si7 0.795135 0.483967 0.126559
Si Si8 0.736973 0.991951 0.133617
O O1 0.915114 0.164755 0.600519
O O2 0.871287 0.181477 0.730726
O O3 0.840853 0.400327 0.656894
O O4 0.784699 0.109800 0.667066
O O5 0.634414 0.383112 0.568656
O O6 0.617941 0.673188 0.528227
O O7 0.520157 0.513996 0.614748
O O8 0.625166 0.635831 0.648562
O O9 0.250000 0.750000 0.500000
O O10 0.253567 0.587899 0.401789
O O11 0.312157 0.870285 0.390417
O O12 0.157542 0.622698 0.931597
O O13 0.215683 0.905463 0.926217
O O14 0.090325 0.862966 0.911320
O O15 0.000000 0.000000 0.000000
O O16 0.754802 0.126357 0.818959
O O17 0.815765 0.392666 0.817342
#
# Coordination Sequence:
#
# PCOD8130848 Si02
#       8
#     8   8   8   8   8   8   8   8
#     4  10  19  36  54  74 105 142 178 219 265 324
#     4  10  20  33  51  78 107 140 180 216 267 323
#     4  10  18  29  51  79 111 138 165 219 276 318
#     4   9  17  34  53  77 106 136 175 224 265 311
#     4   9  20  37  55  73 101 141 183 219 258 313
#     4  10  20  32  53  79 108 137 173 221 271 325
#     4   9  20  31  53  84 103 136 177 221 271 320
#     4   9  18  31  52  79 105 137 170 219 272 319
#
# _framework density 18.139766999999999
#
# number of rings (size 3 to 8) (size 9 to 14) (size 15 to 20)
#    0.000    2.500    1.250    0.750    3.500    2.000 
#    0.000    5.000    0.000    0.000    0.000    0.000 
#    0.000    0.000    0.000    0.000    0.000    0.000 
#
# Total GULP energy -396486.205770 kJ/mol
# GULP energy per Si atom -12390.193930 kJ/mol
# Density = 1.809848 g / cm^3
# Si number density = 18.139767 Si / 1000 Ang^3
#
#
#
# Elastic Constant Matrix: (Units=GPa)
#
#
# Indices 1 2 3 4 5 6 
#
# 1 72.6258 26.8737 16.8281 0.0000 4.4764 0.0000
# 2 26.8737 107.0767 30.9002 0.0000 -0.5750 0.0001
# 3 16.8281 30.9002 87.9459 0.0000 0.4263 0.0000
# 4 0.0000 0.0000 0.0000 18.7089 0.0000 0.5889
# 5 4.4764 -0.5750 0.4263 0.0000 20.9267 0.0000
# 6 0.0000 0.0001 0.0000 0.5889 0.0000 14.6910
#
#
#
# Elastic Compliance Matrix: (Units=1/GPa)
#
#
# Indices 1 2 3 4 5 6 
#
# 1 0.015662 -0.003438 -0.001773 0.000000 -0.003409 0.000000
# 2 -0.003438 0.011150 -0.003265 0.000000 0.001108 0.000000
# 3 -0.001773 -0.003265 0.012857 0.000000 0.000028 0.000000
# 4 0.000000 0.000000 0.000000 0.053518 0.000000 -0.002145
# 5 -0.003409 0.001108 0.000028 0.000000 0.048545 0.000000
# 6 0.000000 0.000000 0.000000 -0.002145 0.000000 0.068155
#
#
# Mechanical properties :
#
#
# Convention : Reuss Voigt Hill
#
# Bulk Modulus (GPa) = 44.01732 46.31691 45.16711
# Shear Modulus (GPa) = 21.33013 23.73508 22.53261
#
# Velocity S-wave (km/s) = 3.43283 3.62118 3.52826
# Velocity P-wave (km/s) = 6.32698 6.56298 6.44606
#
# Compressibility (1/GPa) = 0.02271833
#
# Stress axis : x y z
#
# Youngs Moduli (GPa) = 63.84865 89.68545 77.77918
#
# Poissons Ratio (x) = 0.30830 0.13787
# Poissons Ratio (y) = 0.21949 0.25397
# Poissons Ratio (z) = 0.11317 0.29284
#
# Static dielectric constant tensor:
#      x y z
#    x 3.506520 0.000000 0.114860 
#    y 0.000000 3.587840 0.000000 
#    z 0.114860 0.000000 3.915310 
# 
# 
# High freq. dielectric constant tensor:
#      x y z
#    x 1.680550 0.000000 0.006210 
#    y 0.000000 1.704710 0.000000 
#    z 0.006210 0.000000 1.692940 
# 
# From -- ./inp_files/251587.got.cif
#   From: 2010.06.25/outbox.cif.g09.slc.cpg/sg15_126_cif.got.tgz:251587.got - 2010.06.28 07:06:18.
