data_PCOD8130953
_publ_section_title
;
Structure prediction by ZEFSAII (Michael W. Deem and Ramdas Pophale) SiO2 
 PCOD8130953
Probable space group: C 2/C
;
_chemical_formula_sum "Si O2"
_cell_formula_units_Z 44
_cell_length_a 9.636409
_cell_length_b 30.607604
_cell_length_c 10.656956
_cell_angle_alpha 90.000000
_cell_angle_beta 42.839494
_cell_angle_gamma 90.000000
_cell_volume 2137.237231
_symmetry_space_group_name_H-M "C 2/C"
_symmetry_group_IT_number 15
_symmetry_cell_setting 'monoclinic'
loop_
_space_group_symop_operation_xyz
x,y,z
-x,y,1/2-z
-x,-y,-z
x,-y,1/2+z
1/2+x,1/2+y,z
1/2-x,1/2+y,1/2-z
1/2-x,1/2-y,-z
1/2+x,1/2-y,1/2+z
loop_
_atom_site_type_symbol
_atom_site_label
_atom_site_fract_x
_atom_site_fract_y
_atom_site_fract_z
Si Si1 0.500000 0.581630 0.750000
Si Si2 0.844687 0.140508 0.638728
Si Si3 0.393926 0.197389 0.520188
Si Si4 0.237717 0.530103 0.088905
Si Si5 0.306672 0.703681 0.111088
Si Si6 0.067917 0.060859 0.063004
O O1 0.466776 0.612003 0.655528
O O2 0.689151 0.549699 0.593204
O O3 0.651960 0.162880 0.837214
O O4 0.990238 0.178019 0.485950
O O5 0.802872 0.105304 0.556154
O O6 0.351486 0.245448 0.600869
O O7 0.626418 0.190202 0.324822
O O8 0.246987 0.191391 0.497271
O O9 0.360489 0.553803 0.120064
O O10 0.000000 0.540628 0.250000
O O11 0.276091 0.478405 0.066857
O O12 0.000000 0.064035 0.250000
#
# Coordination Sequence:
#
# PCOD8130953 Si02
#       6
#     4   8   8   8   8   8
#     4  10  20  36  58  90 128 152 206 258 314 372
#     4  11  20  35  56  85 126 161 199 260 307 373
#     4  10  18  30  53  84 121 156 203 253 321 357
#     4  10  22  43  70  89 120 170 208 264 319 371
#     4  10  18  30  53  84 119 159 197 258 314 366
#     4  10  23  44  62  93 130 165 213 262 311 378
#
# _framework density 20.587326999999998
#
# number of rings (size 3 to 8) (size 9 to 14) (size 15 to 20)
#    0.000    1.818    4.545    0.000    0.000    3.636 
#    3.273    0.000    0.000    1.091    0.000    0.000 
#    0.000    0.000    0.000    0.000    0.000    0.000 
#
# Total GULP energy -272641.452613 kJ/mol
# GULP energy per Si atom -12392.793301 kJ/mol
# Density = 2.054047 g / cm^3
# Si number density = 20.587327 Si / 1000 Ang^3
#
#
#
# Elastic Constant Matrix: (Units=GPa)
#
#
# Indices 1 2 3 4 5 6 
#
# 1 21.4560 19.2984 28.3119 0.0000 0.3248 0.0000
# 2 19.2984 119.8477 76.5211 0.0000 2.0079 0.0000
# 3 28.3119 76.5211 159.7701 0.0000 -9.3352 0.0000
# 4 0.0000 0.0000 0.0000 41.6900 0.0000 5.3075
# 5 0.3248 2.0079 -9.3352 0.0000 32.1354 0.0000
# 6 0.0000 0.0000 0.0000 5.3075 0.0000 11.2325
#
#
#
# Elastic Compliance Matrix: (Units=1/GPa)
#
#
# Indices 1 2 3 4 5 6 
#
# 1 0.062626 -0.004079 -0.009324 0.000000 -0.003087 0.000000
# 2 -0.004079 0.012480 -0.005389 0.000000 -0.002304 0.000000
# 3 -0.009324 -0.005389 0.010699 0.000000 0.003539 0.000000
# 4 0.000000 0.000000 0.000000 0.025522 0.000000 -0.012059
# 5 -0.003087 -0.002304 0.003539 0.000000 0.032322 0.000000
# 6 0.000000 0.000000 0.000000 -0.012059 0.000000 0.094725
#
#
# Mechanical properties :
#
#
# Convention : Reuss Voigt Hill
#
# Bulk Modulus (GPa) = 20.73804 61.03739 40.88771
# Shear Modulus (GPa) = 17.12133 28.80776 22.96454
#
# Velocity S-wave (km/s) = 2.88695 3.74477 3.34349
# Velocity P-wave (km/s) = 4.60519 6.95774 5.89991
#
# Compressibility (1/GPa) = 0.04822057
#
# Stress axis : x y z
#
# Youngs Moduli (GPa) = 15.96770 80.12652 93.46512
#
# Poissons Ratio (x) = 0.32685 0.87150
# Poissons Ratio (y) = 0.06514 0.50370
# Poissons Ratio (z) = 0.14889 0.43181
#
# Static dielectric constant tensor:
#      x y z
#    x 3.873170 0.000000 1.025190 
#    y 0.000000 4.081100 0.000000 
#    z 1.025190 0.000000 5.131550 
# 
# 
# High freq. dielectric constant tensor:
#      x y z
#    x 1.743140 0.000000 0.002310 
#    y 0.000000 1.824820 0.000000 
#    z 0.002310 0.000000 1.818900 
# 
# From -- ./inp_files/92403.got.cif
#   From: 2010.06.25/outbox.cif.g09.slc.cpg/sg15_47_cif.got.tgz:92403.got - 2010.06.28 07:06:18.
