data_PCOD8130414
_publ_section_title
;
Structure prediction by ZEFSAII (Michael W. Deem and Ramdas Pophale) SiO2 
 PCOD8130414
Probable space group: C 2/C
;
_chemical_formula_sum "Si O2"
_cell_formula_units_Z 60
_cell_length_a 12.099088
_cell_length_b 31.049169
_cell_length_c 12.271012
_cell_angle_alpha 90.000000
_cell_angle_beta 44.850122
_cell_angle_gamma 90.000000
_cell_volume 3251.089812
_symmetry_space_group_name_H-M "C 2/C"
_symmetry_group_IT_number 15
_symmetry_cell_setting 'monoclinic'
loop_
_space_group_symop_operation_xyz
x,y,z
-x,y,1/2-z
-x,-y,-z
x,-y,1/2+z
1/2+x,1/2+y,z
1/2-x,1/2+y,1/2-z
1/2-x,1/2-y,-z
1/2+x,1/2-y,1/2+z
loop_
_atom_site_type_symbol
_atom_site_label
_atom_site_fract_x
_atom_site_fract_y
_atom_site_fract_z
Si Si1 0.109393 0.709218 0.005998
Si Si2 0.058946 0.465188 0.370133
Si Si3 0.743774 0.022464 0.537393
Si Si4 0.267211 0.792530 0.842504
Si Si5 0.576365 0.118611 0.978782
Si Si6 0.280691 0.619648 0.226253
Si Si7 0.825147 0.567511 0.395065
Si Si8 0.000000 0.920980 0.750000
O O1 0.212878 0.702615 0.041845
O O2 0.929643 0.714266 0.166430
O O3 0.160913 0.750145 0.898302
O O4 0.136675 0.666857 0.909931
O O5 0.203255 0.482258 0.195321
O O6 0.131378 0.420456 0.364598
O O7 0.000000 0.500000 0.500000
O O8 0.902418 0.452935 0.414084
O O9 0.898018 0.048853 0.400729
O O10 0.763549 0.972574 0.484035
O O11 0.177281 0.834152 0.856865
O O12 0.390281 0.120634 0.103454
O O13 0.645409 0.109062 0.050712
O O14 0.277079 0.582358 0.136970
O O15 0.401577 0.609179 0.237998
O O16 0.000000 0.548198 0.250000
#
# Coordination Sequence:
#
# PCOD8130414 Si02
#       8
#     8   8   8   8   8   8   8   4
#     4   9  17  31  57  88 110 138 172 234 293 345
#     4  11  19  37  61  84 108 149 200 243 276 328
#     4  11  23  36  56  82 114 155 195 237 284 333
#     4   9  17  33  56  83 113 138 178 227 293 343
#     4  10  17  32  61  85 108 140 196 238 278 331
#     4  10  20  35  56  81 113 156 190 226 284 353
#     4  10  17  32  59  85 105 141 197 244 272 327
#     4  12  26  40  52  78 126 164 186 230 292 348
#
# _framework density 18.455351
#
# number of rings (size 3 to 8) (size 9 to 14) (size 15 to 20)
#    0.000    1.867    5.333    0.800    0.000    0.533 
#    2.400    0.000    0.000    4.800    0.000    0.000 
#    0.000    0.000    0.000    0.000    0.000    0.000 
#
# Total GULP energy -371676.649833 kJ/mol
# GULP energy per Si atom -12389.221661 kJ/mol
# Density = 1.841335 g / cm^3
# Si number density = 18.455351 Si / 1000 Ang^3
#
#
#
# Elastic Constant Matrix: (Units=GPa)
#
#
# Indices 1 2 3 4 5 6 
#
# 1 98.2898 50.2293 21.5086 0.0000 5.6590 0.0000
# 2 50.2293 163.1332 41.1571 0.0000 0.1060 0.0000
# 3 21.5086 41.1571 68.7205 0.0000 3.2421 0.0000
# 4 0.0000 0.0000 0.0000 29.0699 0.0000 3.9458
# 5 5.6590 0.1060 3.2421 0.0000 14.4579 0.0000
# 6 0.0000 0.0000 0.0000 3.9458 0.0000 3.4768
#
#
#
# Elastic Compliance Matrix: (Units=1/GPa)
#
#
# Indices 1 2 3 4 5 6 
#
# 1 0.012557 -0.003446 -0.001653 0.000000 -0.004519 0.000000
# 2 -0.003446 0.008179 -0.003922 0.000000 0.002169 0.000000
# 3 -0.001653 -0.003922 0.017572 0.000000 -0.003265 0.000000
# 4 0.000000 0.000000 0.000000 0.040664 0.000000 -0.046149
# 5 -0.004519 0.002169 -0.003265 0.000000 0.071651 0.000000
# 6 0.000000 0.000000 0.000000 -0.046149 0.000000 0.339993
#
#
# Mechanical properties :
#
#
# Convention : Reuss Voigt Hill
#
# Bulk Modulus (GPa) = 49.34537 61.77039 55.55788
# Shear Modulus (GPa) = 9.70092 23.88416 16.79254
#
# Velocity S-wave (km/s) = 2.29518 3.60134 3.01973
# Velocity P-wave (km/s) = 5.81546 7.12992 6.50597
#
# Compressibility (1/GPa) = 0.02026533
#
# Stress axis : x y z
#
# Youngs Moduli (GPa) = 79.63605 122.26048 56.90841
#
# Poissons Ratio (x) = 0.42136 0.09407
# Poissons Ratio (y) = 0.27446 0.22321
# Poissons Ratio (z) = 0.13163 0.47953
#
# Static dielectric constant tensor:
#      x y z
#    x 3.129360 0.000000 1.410470 
#    y 0.000000 3.627430 0.000000 
#    z 1.410470 0.000000 -8.463090 
# 
# 
# High freq. dielectric constant tensor:
#      x y z
#    x 1.692690 0.000000 0.005600 
#    y 0.000000 1.729410 0.000000 
#    z 0.005600 0.000000 1.679180 
# 
# From -- ./inp_files/92606.got.cif
#   From: 2010.06.25/outbox.cif.g09.slc.cpg/sg15_47_cif.got.tgz:92606.got - 2010.06.28 07:06:18.
