data_PCOD8130484
_publ_section_title
;
Structure prediction by ZEFSAII (Michael W. Deem and Ramdas Pophale) SiO2 
 PCOD8130484
Probable space group: C 2/C
;
_chemical_formula_sum "Si O2"
_cell_formula_units_Z 60
_cell_length_a 12.550824
_cell_length_b 14.255254
_cell_length_c 18.793658
_cell_angle_alpha 90.000000
_cell_angle_beta 63.521757
_cell_angle_gamma 90.000000
_cell_volume 3009.760145
_symmetry_space_group_name_H-M "C 2/C"
_symmetry_group_IT_number 15
_symmetry_cell_setting 'monoclinic'
loop_
_space_group_symop_operation_xyz
x,y,z
-x,y,1/2-z
-x,-y,-z
x,-y,1/2+z
1/2+x,1/2+y,z
1/2-x,1/2+y,1/2-z
1/2-x,1/2-y,-z
1/2+x,1/2-y,1/2+z
loop_
_atom_site_type_symbol
_atom_site_label
_atom_site_fract_x
_atom_site_fract_y
_atom_site_fract_z
Si Si1 0.973221 0.389733 0.175134
Si Si2 0.050880 0.582964 0.156408
Si Si3 0.303632 0.737818 0.267628
Si Si4 0.500000 0.413318 0.750000
Si Si5 0.949313 0.235052 0.689161
Si Si6 0.316664 0.513514 0.058151
Si Si7 0.216570 0.314658 0.073809
Si Si8 0.503408 0.462464 0.113390
O O1 0.855839 0.326395 0.206426
O O2 0.000000 0.403452 0.250000
O O3 0.973148 0.496862 0.144543
O O4 0.077183 0.334576 0.104849
O O5 0.191611 0.562649 0.113163
O O6 0.000000 0.602449 0.250000
O O7 0.027179 0.683461 0.125509
O O8 0.394608 0.651418 0.249176
O O9 0.182037 0.717375 0.262101
O O10 0.260922 0.765003 0.358541
O O11 0.458182 0.479854 0.827348
O O12 0.947138 0.139246 0.645410
O O13 0.000000 0.205774 0.750000
O O14 0.297556 0.405596 0.045330
O O15 0.404183 0.522743 0.100069
O O16 0.379557 0.556594 0.969545
O O17 0.250000 0.250000 0.000000
#
# Coordination Sequence:
#
# PCOD8130484 Si02
#       8
#     8   8   8   4   8   8   8   8
#     4   8  16  33  57  87 112 146 200 254 302 350
#     4   9  20  37  64  90 116 166 218 249 308 380
#     4  11  21  37  62  91 125 155 208 264 311 370
#     4  12  24  38  66 100 126 164 210 272 326 360
#     4  11  24  41  60  92 124 173 210 253 315 385
#     4  10  22  40  65  90 128 171 210 263 316 382
#     4  10  17  33  61  90 121 151 203 257 312 368
#     4  11  24  41  62  95 130 167 209 265 326 371
#
# _framework density 19.935143
#
# number of rings (size 3 to 8) (size 9 to 14) (size 15 to 20)
#    0.000    1.867    4.000    1.600    3.733    0.533 
#    0.000    0.000    2.933    2.400    0.000    0.000 
#    0.000    0.000    0.000    0.000    0.000    0.000 
#
# Total GULP energy -371652.669209 kJ/mol
# GULP energy per Si atom -12388.422307 kJ/mol
# Density = 1.988977 g / cm^3
# Si number density = 19.935143 Si / 1000 Ang^3
#
#
#
# Elastic Constant Matrix: (Units=GPa)
#
#
# Indices 1 2 3 4 5 6 
#
# 1 93.3981 35.3047 36.6441 0.0000 -13.5021 0.0000
# 2 35.3047 103.1967 32.9328 0.0000 -7.1208 0.0000
# 3 36.6441 32.9328 91.6479 0.0000 -13.5211 0.0000
# 4 0.0000 0.0000 0.0000 17.8514 0.0000 -2.2607
# 5 -13.5021 -7.1208 -13.5211 0.0000 25.5132 0.0000
# 6 0.0000 0.0000 0.0000 -2.2607 0.0000 25.3834
#
#
#
# Elastic Compliance Matrix: (Units=1/GPa)
#
#
# Indices 1 2 3 4 5 6 
#
# 1 0.014094 -0.003303 -0.003779 0.000000 0.004534 0.000000
# 2 -0.003303 0.011745 -0.002901 0.000000 -0.000007 0.000000
# 3 -0.003779 -0.002901 0.014157 0.000000 0.004693 0.000000
# 4 0.000000 0.000000 0.000000 0.056657 0.000000 0.005046
# 5 0.004534 -0.000007 0.004693 0.000000 0.044080 0.000000
# 6 0.000000 0.000000 0.000000 0.005046 0.000000 0.039845
#
#
# Mechanical properties :
#
#
# Convention : Reuss Voigt Hill
#
# Bulk Modulus (GPa) = 49.92532 55.33400 52.62966
# Shear Modulus (GPa) = 24.12877 25.97368 25.05122
#
# Velocity S-wave (km/s) = 3.48280 3.61350 3.54875
# Velocity P-wave (km/s) = 6.42429 6.72511 6.57642
#
# Compressibility (1/GPa) = 0.02002992
#
# Stress axis : x y z
#
# Youngs Moduli (GPa) = 70.95464 85.13956 70.63457
#
# Poissons Ratio (x) = 0.28118 0.26696
# Poissons Ratio (y) = 0.23433 0.20492
# Poissons Ratio (z) = 0.26817 0.24700
#
# Static dielectric constant tensor:
#      x y z
#    x 4.554130 0.000000 -1.924260 
#    y 0.000000 3.584520 0.000000 
#    z -1.924260 0.000000 6.278920 
# 
# 
# High freq. dielectric constant tensor:
#      x y z
#    x 1.763420 0.000000 -0.022590 
#    y 0.000000 1.792120 0.000000 
#    z -0.022590 0.000000 1.758120 
# 
# From -- ./inp_files/198281.got.cif
#   From: 2010.06.25/outbox.cif.g09.slc.cpg/sg15_100_cif.got.tgz:198281.got - 2010.06.28 07:06:18.
