data_PCOD8130381
_publ_section_title
;
Structure prediction by ZEFSAII (Michael W. Deem and Ramdas Pophale) SiO2 
 PCOD8130381
Probable space group: C 2/C
;
_chemical_formula_sum "Si O2"
_cell_formula_units_Z 64
_cell_length_a 21.147200
_cell_length_b 19.528414
_cell_length_c 18.403928
_cell_angle_alpha 90.000000
_cell_angle_beta 152.774272
_cell_angle_gamma 90.000000
_cell_volume 3477.113538
_symmetry_space_group_name_H-M "C 2/C"
_symmetry_group_IT_number 15
_symmetry_cell_setting 'monoclinic'
loop_
_space_group_symop_operation_xyz
x,y,z
-x,y,1/2-z
-x,-y,-z
x,-y,1/2+z
1/2+x,1/2+y,z
1/2-x,1/2+y,1/2-z
1/2-x,1/2-y,-z
1/2+x,1/2-y,1/2+z
loop_
_atom_site_type_symbol
_atom_site_label
_atom_site_fract_x
_atom_site_fract_y
_atom_site_fract_z
Si Si1 0.967068 0.341319 0.493644
Si Si2 0.469347 0.034631 0.797687
Si Si3 0.969923 0.203300 0.887738
Si Si4 0.768553 0.422631 0.206796
Si Si5 0.767040 0.231166 0.434341
Si Si6 0.981464 0.921786 0.960974
Si Si7 0.055357 0.621081 0.230934
Si Si8 0.822213 0.445051 0.862769
O O1 0.825084 0.356131 0.306794
O O2 0.003525 0.260847 0.522758
O O3 0.943554 0.362492 0.554049
O O4 0.090727 0.386869 0.587721
O O5 0.500000 0.068056 0.750000
O O6 0.341882 0.075023 0.703582
O O7 0.414348 0.958457 0.728510
O O8 0.605268 0.034286 0.987517
O O9 0.814584 0.211897 0.697684
O O10 0.075392 0.221223 0.929607
O O11 0.994396 0.127730 0.944892
O O12 0.809501 0.490176 0.295643
O O13 0.604853 0.409311 0.028849
O O14 0.750000 0.250000 0.500000
O O15 0.696436 0.157229 0.350086
O O16 0.828221 0.912729 0.771883
O O17 0.000000 0.000000 0.000000
O O18 0.000000 0.652665 0.250000
#
# Coordination Sequence:
#
# PCOD8130381 Si02
#       8
#     8   8   8   8   8   8   8   8
#     4  10  17  32  55  77 103 137 187 231 262 323
#     4  10  19  33  56  81 100 137 192 227 267 337
#     4  11  22  35  55  80 109 150 199 227 279 335
#     4  10  18  33  54  80 109 137 177 228 290 326
#     4  11  22  36  51  76 120 156 193 227 276 336
#     4  10  22  34  52  75 113 144 179 234 291 327
#     4  10  18  29  50  74 104 144 186 224 262 313
#     4  10  18  35  54  78 108 141 177 232 288 328
#
# _framework density 18.406072000000002
#
# number of rings (size 3 to 8) (size 9 to 14) (size 15 to 20)
#    0.000    1.750    2.500    4.875    1.750    0.000 
#    2.250    0.625    0.000    0.000    0.000   14.000 
#    0.000    0.000    0.000    0.000    0.000    0.000 
#
# Total GULP energy -396585.438661 kJ/mol
# GULP energy per Si atom -12393.294958 kJ/mol
# Density = 1.836418 g / cm^3
# Si number density = 18.406072 Si / 1000 Ang^3
#
#
#
# Elastic Constant Matrix: (Units=GPa)
#
#
# Indices 1 2 3 4 5 6 
#
# 1 109.1761 20.6217 40.2077 0.0027 -2.2762 0.0027
# 2 20.6217 83.3841 14.5999 0.0087 -9.4608 0.0088
# 3 40.2077 14.5999 74.5495 0.0014 12.5262 0.0054
# 4 0.0027 0.0087 0.0014 20.0887 0.0026 -2.2396
# 5 -2.2762 -9.4608 12.5262 0.0026 31.2607 0.0037
# 6 0.0027 0.0088 0.0054 -2.2396 0.0037 16.0882
#
#
#
# Elastic Compliance Matrix: (Units=1/GPa)
#
#
# Indices 1 2 3 4 5 6 
#
# 1 0.011961 -0.001432 -0.006695 -0.000001 0.003120 0.000000
# 2 -0.001432 0.013389 -0.002695 -0.000007 0.005028 -0.000008
# 3 -0.006695 -0.002695 0.019054 0.000002 -0.008938 -0.000002
# 4 -0.000001 -0.000007 0.000002 0.050564 -0.000008 0.007039
# 5 0.003120 0.005028 -0.008938 -0.000008 0.037319 -0.000010
# 6 0.000000 -0.000008 -0.000002 0.007039 -0.000010 0.063137
#
#
# Mechanical properties :
#
#
# Convention : Reuss Voigt Hill
#
# Bulk Modulus (GPa) = 43.93383 46.44090 45.18737
# Shear Modulus (GPa) = 22.25647 26.26620 24.26134
#
# Velocity S-wave (km/s) = 3.48112 3.78172 3.63453
# Velocity P-wave (km/s) = 6.33076 6.65992 6.49743
#
# Compressibility (1/GPa) = 0.02276150
#
# Stress axis : x y z
#
# Youngs Moduli (GPa) = 83.60832 74.68797 52.48197
#
# Poissons Ratio (x) = 0.10694 0.35135
# Poissons Ratio (y) = 0.11971 0.14142
# Poissons Ratio (z) = 0.55973 0.20126
#
# Static dielectric constant tensor:
#      x y z
#    x 3.559640 -0.000020 0.206400 
#    y -0.000020 3.490510 0.000010 
#    z 0.206400 0.000010 3.717100 
# 
# 
# High freq. dielectric constant tensor:
#      x y z
#    x 1.702930 0.000000 0.022660 
#    y 0.000000 1.704320 0.000000 
#    z 0.022660 0.000000 1.705130 
# 
# From -- ./inp_files/216507.got.cif
#   From: 2010.06.25/outbox.cif.g09.slc.cpg/sg15_109_cif.got.tgz:216507.got - 2010.06.28 07:06:18.
