data_PCOD8130722
_publ_section_title
;
Structure prediction by ZEFSAII (Michael W. Deem and Ramdas Pophale) SiO2 
 PCOD8130722
Probable space group: C 2/C
;
_chemical_formula_sum "Si O2"
_cell_formula_units_Z 40
_cell_length_a 14.706084
_cell_length_b 12.308926
_cell_length_c 8.297532
_cell_angle_alpha 90.000000
_cell_angle_beta 106.938098
_cell_angle_gamma 90.000000
_cell_volume 1436.830801
_symmetry_space_group_name_H-M "C 2/C"
_symmetry_group_IT_number 15
_symmetry_cell_setting 'monoclinic'
loop_
_space_group_symop_operation_xyz
x,y,z
-x,y,1/2-z
-x,-y,-z
x,-y,1/2+z
1/2+x,1/2+y,z
1/2-x,1/2+y,1/2-z
1/2-x,1/2-y,-z
1/2+x,1/2-y,1/2+z
loop_
_atom_site_type_symbol
_atom_site_label
_atom_site_fract_x
_atom_site_fract_y
_atom_site_fract_z
Si Si1 0.721948 0.698587 0.157208
Si Si2 0.890214 0.001294 0.506680
Si Si3 0.559342 0.141017 0.602157
Si Si4 0.000000 0.552229 0.250000
Si Si5 0.500000 0.643930 0.750000
Si Si6 0.111278 0.237822 0.532623
O O1 0.685101 0.573660 0.132447
O O2 0.806204 0.699778 0.331448
O O3 0.750000 0.750000 0.000000
O O4 0.640829 0.773944 0.194744
O O5 0.903812 0.068926 0.681114
O O6 0.853086 0.878261 0.520955
O O7 0.000000 0.000000 0.500000
O O8 0.574879 0.022210 0.687832
O O9 0.451260 0.181132 0.611479
O O10 0.560637 0.124896 0.406851
O O11 0.521716 0.715189 0.606375
#
# Coordination Sequence:
#
# PCOD8130722 Si02
#       6
#     8   8   8   4   4   8
#     4  12  22  39  71 101 135 188 242 288 358 434
#     4  10  21  38  63  97 132 179 233 283 346 427
#     4  11  23  46  67  99 138 192 235 300 363 428
#     4  10  25  43  70  92 140 184 231 297 372 424
#     4  10  17  39  62  92 132 184 221 289 344 420
#     4  11  22  39  66  96 133 176 239 285 352 423
#
# _framework density 27.839048999999999
#
# number of rings (size 3 to 8) (size 9 to 14) (size 15 to 20)
#    0.000    1.200    6.000    1.800    0.000    5.600 
#    0.000    1.000    0.000    0.000    0.000    0.000 
#    0.000    0.000    0.000    0.000    0.000    0.000 
#
# Total GULP energy -247768.080959 kJ/mol
# GULP energy per Si atom -12388.404048 kJ/mol
# Density = 2.777569 g / cm^3
# Si number density = 27.839049 Si / 1000 Ang^3
#
#
#
# Elastic Constant Matrix: (Units=GPa)
#
#
# Indices 1 2 3 4 5 6 
#
# 1 77.1041 25.6896 15.7211 0.0000 24.6269 0.0000
# 2 25.6896 157.9418 33.3113 0.0000 40.2202 0.0000
# 3 15.7211 33.3113 80.0622 0.0000 56.8291 0.0000
# 4 0.0000 0.0000 0.0000 41.2643 0.0000 18.6564
# 5 24.6269 40.2202 56.8291 0.0000 52.2637 0.0000
# 6 0.0000 0.0000 0.0000 18.6564 0.0000 42.4100
#
#
#
# Elastic Compliance Matrix: (Units=1/GPa)
#
#
# Indices 1 2 3 4 5 6 
#
# 1 0.017005 -0.000060 0.010258 0.000000 -0.019120 0.000000
# 2 -0.000060 0.008262 0.004677 0.000000 -0.011415 0.000000
# 3 0.010258 0.004677 0.063614 0.000000 -0.077603 0.000000
# 4 0.000000 0.000000 0.000000 0.030251 0.000000 -0.013307
# 5 -0.019120 -0.011415 -0.077603 0.000000 0.121309 0.000000
# 6 0.000000 0.000000 0.000000 -0.013307 0.000000 0.029433
#
#
# Mechanical properties :
#
#
# Convention : Reuss Voigt Hill
#
# Bulk Modulus (GPa) = 8.42970 51.61688 30.02329
# Shear Modulus (GPa) = 17.87830 43.21334 30.54582
#
# Velocity S-wave (km/s) = 2.53692 3.94414 3.31604
# Velocity P-wave (km/s) = 3.40821 6.27081 5.04673
#
# Compressibility (1/GPa) = 0.11862825
#
# Stress axis : x y z
#
# Youngs Moduli (GPa) = 58.80616 121.04099 15.71985
#
# Poissons Ratio (x) = 0.00731 -0.16125
# Poissons Ratio (y) = 0.00355 -0.07352
# Poissons Ratio (z) = -0.60321 -0.56606
#
# Static dielectric constant tensor:
#      x y z
#    x 4.791190 0.000000 -0.177430 
#    y 0.000000 5.757000 0.000000 
#    z -0.177430 0.000000 5.633280 
# 
# 
# High freq. dielectric constant tensor:
#      x y z
#    x 2.090090 0.000000 -0.014430 
#    y 0.000000 2.152540 0.000000 
#    z -0.014430 0.000000 2.147730 
# 
# From -- ./inp_files/103957.got.cif
#   From: 2010.06.25/outbox.cif.g09.slc.cpg/sg15_52_cif.got.tgz:103957.got - 2010.06.28 07:06:18.
