data_PCOD8130291
_publ_section_title
;
Structure prediction by ZEFSAII (Michael W. Deem and Ramdas Pophale) SiO2 
 PCOD8130291
Probable space group: C 2/C
;
_chemical_formula_sum "Si O2"
_cell_formula_units_Z 64
_cell_length_a 29.526120
_cell_length_b 13.547303
_cell_length_c 17.631113
_cell_angle_alpha 90.000000
_cell_angle_beta 31.162472
_cell_angle_gamma 90.000000
_cell_volume 3649.398721
_symmetry_space_group_name_H-M "C 2/C"
_symmetry_group_IT_number 15
_symmetry_cell_setting 'monoclinic'
loop_
_space_group_symop_operation_xyz
x,y,z
-x,y,1/2-z
-x,-y,-z
x,-y,1/2+z
1/2+x,1/2+y,z
1/2-x,1/2+y,1/2-z
1/2-x,1/2-y,-z
1/2+x,1/2-y,1/2+z
loop_
_atom_site_type_symbol
_atom_site_label
_atom_site_fract_x
_atom_site_fract_y
_atom_site_fract_z
Si Si1 0.150567 0.056795 0.915878
Si Si2 0.650689 0.638549 0.328566
Si Si3 0.594247 0.354081 0.637718
Si Si4 0.323566 0.150909 0.992036
Si Si5 0.948354 0.496644 0.397786
Si Si6 0.520129 0.655778 0.394783
Si Si7 0.917854 0.623886 0.705087
Si Si8 0.659470 0.138880 0.847566
O O1 0.241429 0.111811 0.777076
O O2 0.162180 0.944197 0.875177
O O3 0.119837 0.053769 0.047756
O O4 0.079415 0.118288 0.968687
O O5 0.556876 0.621592 0.423153
O O6 0.651615 0.743801 0.368350
O O7 0.723836 0.630517 0.157920
O O8 0.500000 0.308214 0.750000
O O9 0.664035 0.268557 0.520176
O O10 0.584617 0.390820 0.737887
O O11 0.341875 0.122264 0.878296
O O12 0.385852 0.092998 0.961279
O O13 0.896976 0.588931 0.505487
O O14 0.000000 0.535547 0.250000
O O15 0.012642 0.459972 0.372499
O O16 0.528431 0.773914 0.374175
O O17 0.871894 0.601841 0.690575
#
# Coordination Sequence:
#
# PCOD8130291 Si02
#       8
#     8   8   8   8   8   8   8   8
#     4  11  20  34  51  75 110 138 170 208 257 316
#     4  11  22  33  51  80 108 136 179 208 257 309
#     4   9  17  31  53  77 102 134 169 211 266 304
#     4  10  17  31  55  82 105 131 166 221 265 309
#     4  10  19  36  54  77 105 141 173 209 262 311
#     4   9  20  34  53  78 106 139 167 216 264 304
#     4   9  20  33  58  83 104 127 171 221 273 303
#     4  11  22  34  53  82 105 137 174 217 258 306
#
# _framework density 17.537134999999999
#
# number of rings (size 3 to 8) (size 9 to 14) (size 15 to 20)
#    0.000    2.000    2.500    3.375    1.750    1.500 
#    0.000    1.875    0.000    0.000    0.000    6.125 
#    0.000    0.000    0.000    0.000    0.000    0.000 
#
# Total GULP energy -396659.069571 kJ/mol
# GULP energy per Si atom -12395.595924 kJ/mol
# Density = 1.749722 g / cm^3
# Si number density = 17.537135 Si / 1000 Ang^3
#
#
#
# Elastic Constant Matrix: (Units=GPa)
#
#
# Indices 1 2 3 4 5 6 
#
# 1 91.0355 42.8799 35.9671 0.0000 -6.1827 0.0000
# 2 42.8799 70.0924 35.5179 0.0000 -1.5537 0.0000
# 3 35.9671 35.5179 84.7548 0.0000 -8.2844 0.0000
# 4 0.0000 0.0000 0.0000 30.1141 0.0000 5.4531
# 5 -6.1827 -1.5537 -8.2844 0.0000 23.9556 0.0000
# 6 0.0000 0.0000 0.0000 5.4531 0.0000 22.4088
#
#
#
# Elastic Compliance Matrix: (Units=1/GPa)
#
#
# Indices 1 2 3 4 5 6 
#
# 1 0.016341 -0.008320 -0.003197 0.000000 0.002572 0.000000
# 2 -0.008320 0.022402 -0.006132 0.000000 -0.002815 0.000000
# 3 -0.003197 -0.006132 0.016152 0.000000 0.004363 0.000000
# 4 0.000000 0.000000 0.000000 0.034738 0.000000 -0.008453
# 5 0.002572 -0.002815 0.004363 0.000000 0.043734 0.000000
# 6 0.000000 0.000000 0.000000 -0.008453 0.000000 0.046682
#
#
# Mechanical properties :
#
#
# Convention : Reuss Voigt Hill
#
# Bulk Modulus (GPa) = 51.02887 52.73473 51.88180
# Shear Modulus (GPa) = 22.53479 24.06355 23.29917
#
# Velocity S-wave (km/s) = 3.58854 3.70827 3.64890
# Velocity P-wave (km/s) = 6.80669 6.96209 6.88482
#
# Compressibility (1/GPa) = 0.01959675
#
# Stress axis : x y z
#
# Youngs Moduli (GPa) = 61.19433 44.63915 61.91370
#
# Poissons Ratio (x) = 0.37141 0.19791
# Poissons Ratio (y) = 0.50915 0.37967
# Poissons Ratio (z) = 0.19561 0.27374
#
# Static dielectric constant tensor:
#      x y z
#    x 3.392000 0.000000 -0.023940 
#    y 0.000000 3.032530 0.000000 
#    z -0.023940 0.000000 3.286310 
# 
# 
# High freq. dielectric constant tensor:
#      x y z
#    x 1.684120 0.000000 -0.009550 
#    y 0.000000 1.650770 0.000000 
#    z -0.009550 0.000000 1.677470 
# 
# From -- ./inp_files/225170.got.cif
#   From: 2010.06.25/outbox.cif.g09.slc.cpg/sg15_113_cif.got.tgz:225170.got - 2010.06.28 07:06:18.
