data_PCOD8130044
_publ_section_title
;
Structure prediction by ZEFSAII (Michael W. Deem and Ramdas Pophale) SiO2 
 PCOD8130044
Probable space group: C 2/C
;
_chemical_formula_sum "Si O2"
_cell_formula_units_Z 40
_cell_length_a 17.399372
_cell_length_b 27.514076
_cell_length_c 5.081330
_cell_angle_alpha 90.000000
_cell_angle_beta 85.953789
_cell_angle_gamma 90.000000
_cell_volume 2426.509863
_symmetry_space_group_name_H-M "C 2/C"
_symmetry_group_IT_number 15
_symmetry_cell_setting 'monoclinic'
loop_
_space_group_symop_operation_xyz
x,y,z
-x,y,1/2-z
-x,-y,-z
x,-y,1/2+z
1/2+x,1/2+y,z
1/2-x,1/2+y,1/2-z
1/2-x,1/2-y,-z
1/2+x,1/2-y,1/2+z
loop_
_atom_site_type_symbol
_atom_site_label
_atom_site_fract_x
_atom_site_fract_y
_atom_site_fract_z
Si Si1 0.372854 0.886607 0.729281
Si Si2 0.799449 0.353989 0.249404
Si Si3 0.500000 0.806453 0.750000
Si Si4 0.180789 0.781225 0.395066
Si Si5 0.000000 0.533720 0.250000
Si Si6 0.107985 0.258770 0.379413
O O1 0.327498 0.891467 0.466855
O O2 0.426131 0.838733 0.699377
O O3 0.423659 0.933768 0.770765
O O4 0.308014 0.881744 0.970679
O O5 0.711890 0.335940 0.328236
O O6 0.854875 0.307720 0.239221
O O7 0.520514 0.771700 0.494246
O O8 0.250000 0.750000 0.500000
O O9 0.113753 0.780671 0.638372
O O10 0.153336 0.759017 0.127557
O O11 0.000000 0.500000 0.500000
#
# Coordination Sequence:
#
# PCOD8130044 Si02
#       6
#     8   8   4   8   4   8
#     4  10  20  30  46  60  75 106 135 174 216 243
#     4  10  17  29  42  58  76  97 137 173 205 249
#     4   9  18  28  38  56  80 104 142 170 198 244
#     4  10  17  26  38  55  76 101 129 169 213 235
#     4  11  22  36  48  64  86 104 132 174 220 268
#     4  10  18  25  38  55  78 106 130 170 210 233
#
# _framework density 16.484582
#
# number of rings (size 3 to 8) (size 9 to 14) (size 15 to 20)
#    0.000    2.000    0.000    9.600    0.000   10.400 
#    0.000    0.000    0.000    0.000    0.000    0.000 
#    0.000    0.000    0.000    0.000    0.000    0.000 
#
# Total GULP energy -247805.229561 kJ/mol
# GULP energy per Si atom -12390.261478 kJ/mol
# Density = 1.644706 g / cm^3
# Si number density = 16.484582 Si / 1000 Ang^3
#
#
#
# Elastic Constant Matrix: (Units=GPa)
#
#
# Indices 1 2 3 4 5 6 
#
# 1 31.4166 32.0857 28.4295 0.0000 -18.5641 0.0000
# 2 32.0857 64.1198 41.8426 0.0000 -10.1445 0.0000
# 3 28.4295 41.8426 141.9950 0.0000 -13.2046 0.0000
# 4 0.0000 0.0000 0.0000 27.0861 0.0000 2.2678
# 5 -18.5641 -10.1445 -13.2046 0.0000 33.4840 0.0000
# 6 0.0000 0.0000 0.0000 2.2678 0.0000 19.5012
#
#
#
# Elastic Compliance Matrix: (Units=1/GPa)
#
#
# Indices 1 2 3 4 5 6 
#
# 1 0.105720 -0.043105 -0.004389 0.000000 0.043822 0.000000
# 2 -0.043105 0.037347 -0.003680 0.000000 -0.014034 0.000000
# 3 -0.004389 -0.003680 0.009006 0.000000 0.000003 0.000000
# 4 0.000000 0.000000 0.000000 0.037282 0.000000 -0.004336
# 5 0.043822 -0.014034 0.000003 0.000000 0.049910 0.000000
# 6 0.000000 0.000000 0.000000 -0.004336 0.000000 0.051783
#
#
# Mechanical properties :
#
#
# Convention : Reuss Voigt Hill
#
# Bulk Modulus (GPa) = 20.11105 49.13853 34.62479
# Shear Modulus (GPa) = 12.19597 25.02584 18.61090
#
# Velocity S-wave (km/s) = 2.72295 3.90055 3.36369
# Velocity P-wave (km/s) = 4.70238 7.08232 6.01131
#
# Compressibility (1/GPa) = 0.04972392
#
# Stress axis : x y z
#
# Youngs Moduli (GPa) = 9.45895 26.77618 111.03637
#
# Poissons Ratio (x) = 1.15418 0.48739
# Poissons Ratio (y) = 0.40773 0.40862
# Poissons Ratio (z) = 0.04152 0.09854
#
# Static dielectric constant tensor:
#      x y z
#    x 3.368200 0.000000 -0.550260 
#    y 0.000000 3.041150 0.000000 
#    z -0.550260 0.000000 3.754400 
# 
# 
# High freq. dielectric constant tensor:
#      x y z
#    x 1.605900 0.000000 -0.009570 
#    y 0.000000 1.569490 0.000000 
#    z -0.009570 0.000000 1.672370 
# 
# From -- ./inp_files/10192.got.cif
#   From: 2010.06.25/outbox.cif.g09.slc.cpg/sg15_6_cif.got.tgz:10192.got - 2010.06.28 07:06:18.
