data_PCOD8130679
_publ_section_title
;
Structure prediction by ZEFSAII (Michael W. Deem and Ramdas Pophale) SiO2 
 PCOD8130679
Probable space group: C 2/C
;
_chemical_formula_sum "Si O2"
_cell_formula_units_Z 48
_cell_length_a 12.118331
_cell_length_b 13.864839
_cell_length_c 19.130743
_cell_angle_alpha 90.000000
_cell_angle_beta 49.671030
_cell_angle_gamma 90.000000
_cell_volume 2450.410649
_symmetry_space_group_name_H-M "C 2/C"
_symmetry_group_IT_number 15
_symmetry_cell_setting 'monoclinic'
loop_
_space_group_symop_operation_xyz
x,y,z
-x,y,1/2-z
-x,-y,-z
x,-y,1/2+z
1/2+x,1/2+y,z
1/2-x,1/2+y,1/2-z
1/2-x,1/2-y,-z
1/2+x,1/2-y,1/2+z
loop_
_atom_site_type_symbol
_atom_site_label
_atom_site_fract_x
_atom_site_fract_y
_atom_site_fract_z
Si Si1 0.296046 0.966152 0.881022
Si Si2 0.630822 0.713799 0.495466
Si Si3 0.106665 0.537119 0.310753
Si Si4 0.386091 0.823238 0.140784
Si Si5 0.677265 0.234971 0.335801
Si Si6 0.623960 0.169608 0.643877
O O1 0.167618 0.895455 0.957399
O O2 0.292017 0.968441 0.798642
O O3 0.446834 0.930119 0.852124
O O4 0.275762 0.076861 0.915591
O O5 0.750000 0.750000 0.500000
O O6 0.624177 0.789578 0.434381
O O7 0.475040 0.710168 0.595589
O O8 0.114117 0.439170 0.352524
O O9 0.163047 0.620415 0.338307
O O10 0.250273 0.778095 0.236742
O O11 0.539604 0.787314 0.111366
O O12 0.776791 0.248727 0.363397
O O13 0.500000 0.131467 0.750000
#
# Coordination Sequence:
#
# PCOD8130679 Si02
#       6
#     8   8   8   8   8   8
#     4  10  17  36  61  88 113 158 206 234 297 367
#     4  12  25  36  61  97 124 159 201 253 305 360
#     4  10  18  37  66  83 114 169 195 243 302 359
#     4  10  22  41  64  85 120 159 211 245 293 372
#     4  11  21  37  64  90 123 154 205 252 305 348
#     4   9  18  38  63  85 110 162 207 242 297 362
#
# _framework density 19.588554999999999
#
# number of rings (size 3 to 8) (size 9 to 14) (size 15 to 20)
#    0.000    1.667    8.333    0.000    0.000    2.667 
#    0.000    0.000   14.667    0.000    0.000    0.000 
#    0.000    0.000    0.000    0.000    0.000    0.000 
#
# Total GULP energy -297539.916812 kJ/mol
# GULP energy per Si atom -12397.496534 kJ/mol
# Density = 1.954397 g / cm^3
# Si number density = 19.588555 Si / 1000 Ang^3
#
#
#
# Elastic Constant Matrix: (Units=GPa)
#
#
# Indices 1 2 3 4 5 6 
#
# 1 133.2594 55.4857 36.3782 0.0000 11.4015 0.0000
# 2 55.4857 102.1954 19.5619 0.0000 4.6095 0.0000
# 3 36.3782 19.5619 54.3566 0.0000 -1.0446 0.0000
# 4 0.0000 0.0000 0.0000 20.4622 0.0000 0.8334
# 5 11.4015 4.6095 -1.0446 0.0000 25.5814 0.0000
# 6 0.0000 0.0000 0.0000 0.8334 0.0000 37.6171
#
#
#
# Elastic Compliance Matrix: (Units=1/GPa)
#
#
# Indices 1 2 3 4 5 6 
#
# 1 0.011605 -0.004933 -0.006079 0.000000 -0.004532 0.000000
# 2 -0.004933 0.012714 -0.001277 0.000000 -0.000145 0.000000
# 3 -0.006079 -0.001277 0.022999 0.000000 0.003879 0.000000
# 4 0.000000 0.000000 0.000000 0.048915 0.000000 -0.001084
# 5 -0.004532 -0.000145 0.003879 0.000000 0.041295 0.000000
# 6 0.000000 0.000000 0.000000 -0.001084 0.000000 0.026608
#
#
# Mechanical properties :
#
#
# Convention : Reuss Voigt Hill
#
# Bulk Modulus (GPa) = 43.97221 56.96257 50.46739
# Shear Modulus (GPa) = 25.47193 28.62449 27.04821
#
# Velocity S-wave (km/s) = 3.60995 3.82682 3.71997
# Velocity P-wave (km/s) = 6.31445 6.97630 6.65361
#
# Compressibility (1/GPa) = 0.02274164
#
# Stress axis : x y z
#
# Youngs Moduli (GPa) = 86.16792 78.65069 43.47959
#
# Poissons Ratio (x) = 0.38798 0.26430
# Poissons Ratio (y) = 0.42506 0.05553
# Poissons Ratio (z) = 0.52378 0.10044
#
# Static dielectric constant tensor:
#      x y z
#    x 3.665020 0.000000 -0.047130 
#    y 0.000000 3.517410 0.000000 
#    z -0.047130 0.000000 3.426370 
# 
# 
# High freq. dielectric constant tensor:
#      x y z
#    x 1.763410 0.000000 0.000400 
#    y 0.000000 1.763340 0.000000 
#    z 0.000400 0.000000 1.742110 
# 
# From -- ./inp_files/143750.got.cif
#   From: 2010.06.25/outbox.cif.g09.slc.cpg/sg15_72_cif.got.tgz:143750.got - 2010.06.28 07:06:18.
