data_PCOD8130923
_publ_section_title
;
Structure prediction by ZEFSAII (Michael W. Deem and Ramdas Pophale) SiO2 
 PCOD8130923
Probable space group: C 2/C
;
_chemical_formula_sum "Si O2"
_cell_formula_units_Z 60
_cell_length_a 16.381039
_cell_length_b 9.586025
_cell_length_c 22.113028
_cell_angle_alpha 90.000000
_cell_angle_beta 103.611320
_cell_angle_gamma 90.000000
_cell_volume 3374.864103
_symmetry_space_group_name_H-M "C 2/C"
_symmetry_group_IT_number 15
_symmetry_cell_setting 'monoclinic'
loop_
_space_group_symop_operation_xyz
x,y,z
-x,y,1/2-z
-x,-y,-z
x,-y,1/2+z
1/2+x,1/2+y,z
1/2-x,1/2+y,1/2-z
1/2-x,1/2-y,-z
1/2+x,1/2-y,1/2+z
loop_
_atom_site_type_symbol
_atom_site_label
_atom_site_fract_x
_atom_site_fract_y
_atom_site_fract_z
Si Si1 0.796265 0.501675 0.349509
Si Si2 0.253944 0.970109 0.206167
Si Si3 0.500000 0.335532 0.250000
Si Si4 0.859329 0.795885 0.848205
Si Si5 0.514000 0.500596 0.573057
Si Si6 0.091701 0.298792 0.274472
Si Si7 0.886880 0.967883 0.649918
Si Si8 0.606934 0.265015 0.158197
O O1 0.763755 0.518172 0.276171
O O2 0.837580 0.353383 0.372980
O O3 0.713511 0.518543 0.376056
O O4 0.868043 0.619911 0.370178
O O5 0.220760 0.100118 0.160981
O O6 0.344442 0.922443 0.196672
O O7 0.191744 0.839049 0.194870
O O8 0.572303 0.430643 0.292701
O O9 0.545705 0.242852 0.205993
O O10 0.881488 0.781585 0.781670
O O11 0.935606 0.862420 0.898438
O O12 0.500000 0.500000 0.500000
O O13 0.424302 0.499493 0.590538
O O14 0.562779 0.640605 0.600007
O O15 0.089441 0.189446 0.328402
O O16 0.000000 0.366994 0.250000
#
# Coordination Sequence:
#
# PCOD8130923 Si02
#       8
#     8   8   4   8   8   8   8   8
#     4  11  19  32  53  84 110 142 165 216 273 318
#     4  10  18  30  52  80 118 139 165 207 259 328
#     4  10  18  30  50  84 112 148 170 206 266 330
#     4  10  20  34  54  78 111 140 171 213 268 321
#     4  10  22  40  57  72  98 143 190 230 261 309
#     4  11  17  30  52  85 111 138 171 214 267 322
#     4  11  17  31  56  76 107 139 179 211 271 320
#     4  10  19  34  55  80 110 140 180 212 258 329
#
# _framework density 17.778494999999999
#
# number of rings (size 3 to 8) (size 9 to 14) (size 15 to 20)
#    0.000    1.600    6.000    1.600    0.000    0.000 
#    4.800    2.000    0.000    0.000    0.000    0.000 
#    0.000    0.000    0.000    0.000    0.000    0.000 
#
# Total GULP energy -371934.509169 kJ/mol
# GULP energy per Si atom -12397.816972 kJ/mol
# Density = 1.773803 g / cm^3
# Si number density = 17.778495 Si / 1000 Ang^3
#
#
#
# Elastic Constant Matrix: (Units=GPa)
#
#
# Indices 1 2 3 4 5 6 
#
# 1 132.3910 63.6493 25.1305 0.0000 -3.0640 0.0000
# 2 63.6493 114.5611 24.1984 0.0000 2.5779 0.0000
# 3 25.1305 24.1984 67.4673 0.0000 -8.1611 0.0000
# 4 0.0000 0.0000 0.0000 7.2756 0.0000 2.3243
# 5 -3.0640 2.5779 -8.1611 0.0000 15.2569 0.0000
# 6 0.0000 0.0000 0.0000 2.3243 0.0000 29.3738
#
#
#
# Elastic Compliance Matrix: (Units=1/GPa)
#
#
# Indices 1 2 3 4 5 6 
#
# 1 0.010610 -0.005588 -0.001685 0.000000 0.002174 0.000000
# 2 -0.005588 0.012581 -0.003019 0.000000 -0.004863 0.000000
# 3 -0.001685 -0.003019 0.017698 0.000000 0.009639 0.000000
# 4 0.000000 0.000000 0.000000 0.141010 0.000000 -0.011158
# 5 0.002174 -0.004863 0.009639 0.000000 0.071958 0.000000
# 6 0.000000 0.000000 0.000000 -0.011158 0.000000 0.034927
#
#
# Mechanical properties :
#
#
# Convention : Reuss Voigt Hill
#
# Bulk Modulus (GPa) = 49.24835 60.04179 54.64507
# Shear Modulus (GPa) = 15.81595 23.81068 19.81331
#
# Velocity S-wave (km/s) = 2.98587 3.66361 3.34197
# Velocity P-wave (km/s) = 6.29670 7.19316 6.75981
#
# Compressibility (1/GPa) = 0.02030525
#
# Stress axis : x y z
#
# Youngs Moduli (GPa) = 94.25097 79.48698 56.50215
#
# Poissons Ratio (x) = 0.44416 0.09520
# Poissons Ratio (y) = 0.52666 0.17059
# Poissons Ratio (z) = 0.15881 0.23998
#
# Static dielectric constant tensor:
#      x y z
#    x 3.791890 0.000000 0.054600 
#    y 0.000000 3.311650 0.000000 
#    z 0.054600 0.000000 2.754290 
# 
# 
# High freq. dielectric constant tensor:
#      x y z
#    x 1.704150 0.000000 0.006450 
#    y 0.000000 1.686880 0.000000 
#    z 0.006450 0.000000 1.626260 
# 
# From -- ./inp_files/247543.got.cif
#   From: 2010.06.25/outbox.cif.g09.slc.cpg/sg15_124_cif.got.tgz:247543.got - 2010.06.28 07:06:18.
