data_PCOD8130174
_publ_section_title
;
Structure prediction by ZEFSAII (Michael W. Deem and Ramdas Pophale) SiO2 
 PCOD8130174
Probable space group: C 2/C
;
_chemical_formula_sum "Si O2"
_cell_formula_units_Z 48
_cell_length_a 15.601279
_cell_length_b 16.932321
_cell_length_c 11.601590
_cell_angle_alpha 90.000000
_cell_angle_beta 102.889186
_cell_angle_gamma 90.000000
_cell_volume 2987.522650
_symmetry_space_group_name_H-M "C 2/C"
_symmetry_group_IT_number 15
_symmetry_cell_setting 'monoclinic'
loop_
_space_group_symop_operation_xyz
x,y,z
-x,y,1/2-z
-x,-y,-z
x,-y,1/2+z
1/2+x,1/2+y,z
1/2-x,1/2+y,1/2-z
1/2-x,1/2-y,-z
1/2+x,1/2-y,1/2+z
loop_
_atom_site_type_symbol
_atom_site_label
_atom_site_fract_x
_atom_site_fract_y
_atom_site_fract_z
Si Si1 0.141525 0.854212 0.446072
Si Si2 0.761506 0.873034 0.789941
Si Si3 0.403804 0.774812 0.738288
Si Si4 0.410447 0.637321 0.174245
Si Si5 0.651636 0.518846 0.762319
Si Si6 0.440682 0.635751 0.924591
O O1 0.208162 0.853162 0.571796
O O2 0.134084 0.766947 0.388286
O O3 0.180459 0.915275 0.363274
O O4 0.044972 0.880163 0.460404
O O5 0.662488 0.843181 0.741507
O O6 0.826810 0.827377 0.719736
O O7 0.765675 0.967587 0.763715
O O8 0.500000 0.814155 0.750000
O O9 0.415254 0.708718 0.837988
O O10 0.500000 0.675876 0.250000
O O11 0.414236 0.542517 0.195056
O O12 0.401200 0.655759 0.037125
O O13 0.603152 0.556981 0.638557
#
# Coordination Sequence:
#
# PCOD8130174 Si02
#       6
#     8   8   8   8   8   8
#     4  10  17  30  50  71  96 118 153 192 233 278
#     4  10  20  29  47  72  97 122 155 187 230 281
#     4   9  20  34  49  65  89 129 163 195 223 256
#     4  10  18  26  43  72 101 122 140 183 237 282
#     4   9  19  26  46  72  98 123 145 180 235 282
#     4  10  17  31  47  70  99 123 148 186 235 287
#
# _framework density 16.066822999999999
#
# number of rings (size 3 to 8) (size 9 to 14) (size 15 to 20)
#    1.000    1.333    1.667    4.000    0.000    2.667 
#    0.000    0.000    0.000    1.000    0.000    2.333 
#    0.000    0.000    0.000    0.000    0.000    0.000 
#
# Total GULP energy -297387.371440 kJ/mol
# GULP energy per Si atom -12391.140477 kJ/mol
# Density = 1.603025 g / cm^3
# Si number density = 16.066823 Si / 1000 Ang^3
#
#
#
# Elastic Constant Matrix: (Units=GPa)
#
#
# Indices 1 2 3 4 5 6 
#
# 1 108.3550 43.2917 31.7153 0.0000 3.0180 0.0000
# 2 43.2917 43.3710 4.9836 0.0000 6.3344 0.0000
# 3 31.7153 4.9836 83.1910 0.0000 -10.3955 0.0000
# 4 0.0000 0.0000 0.0000 2.4088 0.0000 -1.5496
# 5 3.0180 6.3344 -10.3955 0.0000 21.3864 0.0000
# 6 0.0000 0.0000 0.0000 -1.5496 0.0000 33.2099
#
#
#
# Elastic Compliance Matrix: (Units=1/GPa)
#
#
# Indices 1 2 3 4 5 6 
#
# 1 0.017705 -0.016969 -0.005767 0.000000 -0.000276 0.000000
# 2 -0.016969 0.040857 0.002990 0.000000 -0.008253 0.000000
# 3 -0.005767 0.002990 0.014939 0.000000 0.007190 0.000000
# 4 0.000000 0.000000 0.000000 0.427984 0.000000 0.019970
# 5 -0.000276 -0.008253 0.007190 0.000000 0.052737 0.000000
# 6 0.000000 0.000000 0.000000 0.019970 0.000000 0.031043
#
#
# Mechanical properties :
#
#
# Convention : Reuss Voigt Hill
#
# Bulk Modulus (GPa) = 29.40544 43.87757 36.64150
# Shear Modulus (GPa) = 7.86049 21.72945 14.79497
#
# Velocity S-wave (km/s) = 2.21427 3.68155 3.03783
# Velocity P-wave (km/s) = 4.98789 6.74095 5.92956
#
# Compressibility (1/GPa) = 0.03400732
#
# Stress axis : x y z
#
# Youngs Moduli (GPa) = 56.48271 24.47572 66.94080
#
# Poissons Ratio (x) = 0.41533 0.38608
# Poissons Ratio (y) = 0.95846 -0.20018
# Poissons Ratio (z) = 0.32576 -0.07319
#
# Static dielectric constant tensor:
#      x y z
#    x 2.891360 0.000000 -0.126950 
#    y 0.000000 2.720540 0.000000 
#    z -0.126950 0.000000 3.015100 
# 
# 
# High freq. dielectric constant tensor:
#      x y z
#    x 1.595420 0.000000 -0.012010 
#    y 0.000000 1.582370 0.000000 
#    z -0.012010 0.000000 1.626560 
# 
# From -- ./inp_files/97877.got.cif
#   From: 2010.06.25/outbox.cif.g09.slc.cpg/sg15_49_cif.got.tgz:97877.got - 2010.06.28 07:06:18.
