data_PCOD8130042
_publ_section_title
;
Structure prediction by ZEFSAII (Michael W. Deem and Ramdas Pophale) SiO2 
 PCOD8130042
Probable space group: C 2/C
;
_chemical_formula_sum "Si O2"
_cell_formula_units_Z 48
_cell_length_a 22.168651
_cell_length_b 16.688785
_cell_length_c 14.779186
_cell_angle_alpha 90.000000
_cell_angle_beta 37.831448
_cell_angle_gamma 90.000000
_cell_volume 3353.638551
_symmetry_space_group_name_H-M "C 2/C"
_symmetry_group_IT_number 15
_symmetry_cell_setting 'monoclinic'
loop_
_space_group_symop_operation_xyz
x,y,z
-x,y,1/2-z
-x,-y,-z
x,-y,1/2+z
1/2+x,1/2+y,z
1/2-x,1/2+y,1/2-z
1/2-x,1/2-y,-z
1/2+x,1/2-y,1/2+z
loop_
_atom_site_type_symbol
_atom_site_label
_atom_site_fract_x
_atom_site_fract_y
_atom_site_fract_z
Si Si1 0.089124 0.245764 0.211418
Si Si2 0.004437 0.410284 0.844615
Si Si3 0.152624 0.544928 0.422726
Si Si4 0.989597 0.348313 0.047278
Si Si5 0.244982 0.620333 0.479597
Si Si6 0.833715 0.518225 0.778503
O O1 0.046881 0.267184 0.361193
O O2 0.151766 0.165373 0.147060
O O3 0.000000 0.228588 0.250000
O O4 0.153892 0.318516 0.095901
O O5 0.000000 0.371271 0.750000
O O6 0.113309 0.446733 0.729945
O O7 0.921560 0.479068 0.948992
O O8 0.989840 0.340249 0.937372
O O9 0.232133 0.568422 0.404103
O O10 0.210684 0.512218 0.264839
O O11 0.095448 0.625795 0.460895
O O12 0.918841 0.420790 0.153457
O O13 0.248473 0.560566 0.561907
#
# Coordination Sequence:
#
# PCOD8130042 Si02
#       6
#     8   8   8   8   8   8
#     4  10  18  27  38  57  86 110 137 163 184 244
#     4   9  13  20  38  60  83 105 120 158 211 244
#     4   9  14  23  37  57  84 103 125 165 201 242
#     4   8  15  23  34  55  84 109 127 159 199 236
#     4  10  17  25  42  59  79 116 131 155 211 231
#     4   8  15  22  35  59  81 103 132 159 202 243
#
# _framework density 14.312813
#
# number of rings (size 3 to 8) (size 9 to 14) (size 15 to 20)
#    0.000    3.000    3.333    2.000    0.000    0.000 
#    0.000    0.000    0.000    1.000    0.000    7.000 
#    0.000    0.000    0.000    0.000    0.000    0.000 
#
# Total GULP energy -297362.116938 kJ/mol
# GULP energy per Si atom -12390.088206 kJ/mol
# Density = 1.428024 g / cm^3
# Si number density = 14.312813 Si / 1000 Ang^3
#
#
#
# Elastic Constant Matrix: (Units=GPa)
#
#
# Indices 1 2 3 4 5 6 
#
# 1 101.3086 38.0952 56.4301 0.0000 25.7487 0.0000
# 2 38.0952 45.1426 39.4543 0.0000 8.1722 0.0000
# 3 56.4301 39.4543 67.5605 0.0000 20.2612 0.0000
# 4 0.0000 0.0000 0.0000 25.0424 0.0000 1.7438
# 5 25.7487 8.1722 20.2612 0.0000 29.1847 0.0000
# 6 0.0000 0.0000 0.0000 1.7438 0.0000 14.8753
#
#
#
# Elastic Compliance Matrix: (Units=1/GPa)
#
#
# Indices 1 2 3 4 5 6 
#
# 1 0.020484 -0.006223 -0.010833 0.000000 -0.008809 0.000000
# 2 -0.006223 0.048354 -0.026050 0.000000 0.010035 0.000000
# 3 -0.010833 -0.026050 0.042951 0.000000 -0.012966 0.000000
# 4 0.000000 0.000000 0.000000 0.040261 0.000000 -0.004720
# 5 -0.008809 0.010035 -0.012966 0.000000 0.048228 0.000000
# 6 0.000000 0.000000 0.000000 -0.004720 0.000000 0.067779
#
#
# Mechanical properties :
#
#
# Convention : Reuss Voigt Hill
#
# Bulk Modulus (GPa) = 39.09763 53.55232 46.32497
# Shear Modulus (GPa) = 13.78187 19.15597 16.46892
#
# Velocity S-wave (km/s) = 3.10644 3.66236 3.39579
# Velocity P-wave (km/s) = 6.34369 7.44182 6.91459
#
# Compressibility (1/GPa) = 0.02557700
#
# Stress axis : x y z
#
# Youngs Moduli (GPa) = 48.81806 20.68068 23.28226
#
# Poissons Ratio (x) = 0.12870 0.25223
# Poissons Ratio (y) = 0.30381 0.60649
# Poissons Ratio (z) = 0.52886 0.53872
#
# Static dielectric constant tensor:
#      x y z
#    x 2.806550 0.000000 0.373740 
#    y 0.000000 2.541790 0.000000 
#    z 0.373740 0.000000 2.804340 
# 
# 
# High freq. dielectric constant tensor:
#      x y z
#    x 1.544670 0.000000 0.029930 
#    y 0.000000 1.499620 0.000000 
#    z 0.029930 0.000000 1.518470 
# 
# From -- ./inp_files/97890.got.cif
#   From: 2010.06.25/outbox.cif.g09.slc.cpg/sg15_49_cif.got.tgz:97890.got - 2010.06.28 07:06:18.
