data_PCOD8130756
_publ_section_title
;
Structure prediction by ZEFSAII (Michael W. Deem and Ramdas Pophale) SiO2 
 PCOD8130756
Probable space group: C 2/C
;
_chemical_formula_sum "Si O2"
_cell_formula_units_Z 56
_cell_length_a 14.748768
_cell_length_b 30.772439
_cell_length_c 14.356422
_cell_angle_alpha 90.000000
_cell_angle_beta 148.462727
_cell_angle_gamma 90.000000
_cell_volume 3408.079232
_symmetry_space_group_name_H-M "C 2/C"
_symmetry_group_IT_number 15
_symmetry_cell_setting 'monoclinic'
loop_
_space_group_symop_operation_xyz
x,y,z
-x,y,1/2-z
-x,-y,-z
x,-y,1/2+z
1/2+x,1/2+y,z
1/2-x,1/2+y,1/2-z
1/2-x,1/2-y,-z
1/2+x,1/2-y,1/2+z
loop_
_atom_site_type_symbol
_atom_site_label
_atom_site_fract_x
_atom_site_fract_y
_atom_site_fract_z
Si Si1 0.103886 0.937002 0.101208
Si Si2 0.551858 0.498502 0.892663
Si Si3 0.650013 0.296439 0.511641
Si Si4 0.765061 0.880772 0.824371
Si Si5 0.744787 0.298275 0.389082
Si Si6 0.884084 0.615073 0.941177
Si Si7 0.813027 0.570464 0.066220
O O1 0.271867 0.905461 0.258346
O O2 0.135342 0.962787 0.033056
O O3 0.087851 0.972306 0.171468
O O4 0.928322 0.908813 0.932206
O O5 0.500000 0.474778 0.750000
O O6 0.689387 0.530785 0.970599
O O7 0.699213 0.329121 0.639429
O O8 0.765804 0.303189 0.519480
O O9 0.451936 0.304133 0.313008
O O10 0.681779 0.248250 0.578663
O O11 0.592134 0.892591 0.612263
O O12 0.729978 0.890832 0.901225
O O13 0.857342 0.333656 0.431903
O O14 0.796395 0.590491 0.950332
O O15 0.000000 0.550829 0.250000
#
# Coordination Sequence:
#
# PCOD8130756 Si02
#       7
#     8   8   8   8   8   8   8
#     4  10  21  34  50  73  93 130 167 200 247 295
#     4  10  19  35  52  69  98 123 163 209 248 289
#     4  10  18  28  40  66  98 131 169 200 232 281
#     4  10  19  30  47  67  97 129 168 198 237 287
#     4  10  19  26  43  65  97 134 167 201 232 280
#     4  11  18  31  49  67  95 133 164 199 241 286
#     4   9  18  30  47  69  90 129 165 198 241 290
#
# _framework density 16.431543000000001
#
# number of rings (size 3 to 8) (size 9 to 14) (size 15 to 20)
#    0.000    2.000    4.286    0.857    0.000    1.143 
#    2.571    2.857    0.000    0.000    0.000    0.000 
#    0.000    1.143    0.000    0.000    0.000    0.000 
#
# Total GULP energy -346942.209947 kJ/mol
# GULP energy per Si atom -12390.793212 kJ/mol
# Density = 1.639414 g / cm^3
# Si number density = 16.431543 Si / 1000 Ang^3
#
#
#
# Elastic Constant Matrix: (Units=GPa)
#
#
# Indices 1 2 3 4 5 6 
#
# 1 30.4565 14.7599 17.8774 0.0000 -12.2213 0.0001
# 2 14.7599 75.8603 35.8163 0.0000 -15.3197 -0.0001
# 3 17.8774 35.8163 86.6819 0.0001 0.7433 0.0005
# 4 0.0000 0.0000 0.0001 25.7567 0.0000 -36.3662
# 5 -12.2213 -15.3197 0.7433 0.0000 16.6375 0.0002
# 6 0.0001 -0.0001 0.0005 -36.3662 0.0002 -128.4130
#
#
#
# Elastic Compliance Matrix: (Units=1/GPa)
#
#
# Indices 1 2 3 4 5 6 
#
# 1 0.058235 0.005342 -0.014632 0.000000 0.048350 0.000000
# 2 0.005342 0.022052 -0.010425 0.000000 0.024695 0.000000
# 3 -0.014632 -0.010425 0.019044 0.000000 -0.021199 0.000000
# 4 0.000000 0.000000 0.000000 0.027735 0.000000 -0.007854
# 5 0.048350 0.024695 -0.021199 0.000000 0.119308 0.000000
# 6 0.000000 0.000000 0.000000 -0.007854 0.000000 -0.005563
#
#
# Mechanical properties :
#
#
# Convention : Reuss Voigt Hill
#
# Bulk Modulus (GPa) = 16.69457 36.65623 26.67540
# Shear Modulus (GPa) = 16.65504 -8.90076 3.87714
#
# Velocity S-wave (km/s) = 3.18717 -2.32994 1.53776
# Velocity P-wave (km/s) = 4.87095 3.88828 4.40709
#
# Compressibility (1/GPa) = 0.05989972
#
# Stress axis : x y z
#
# Youngs Moduli (GPa) = 17.17167 45.34739 52.51086
#
# Poissons Ratio (x) = -0.24225 0.76836
# Poissons Ratio (y) = -0.09173 0.54744
# Poissons Ratio (z) = 0.25126 0.47276
#
# Static dielectric constant tensor:
#      x y z
#    x 2.683280 0.000000 0.018460 
#    y 0.000000 3.128620 0.000000 
#    z 0.018460 0.000000 3.541550 
# 
# 
# High freq. dielectric constant tensor:
#      x y z
#    x 1.564610 0.000000 0.015680 
#    y 0.000000 1.635850 0.000000 
#    z 0.015680 0.000000 1.640920 
# 
# From -- ./inp_files/44143.got.cif
#   From: 2010.06.25/outbox.cif.g09.slc.cpg/sg15_23_cif.got.tgz:44143.got - 2010.06.28 07:06:18.
