data_PCOD8130528
_publ_section_title
;
Structure prediction by ZEFSAII (Michael W. Deem and Ramdas Pophale) SiO2 
 PCOD8130528
Probable space group: C 2/C
;
_chemical_formula_sum "Si O2"
_cell_formula_units_Z 56
_cell_length_a 21.746004
_cell_length_b 25.872132
_cell_length_c 11.185783
_cell_angle_alpha 90.000000
_cell_angle_beta 154.256189
_cell_angle_gamma 90.000000
_cell_volume 2733.479749
_symmetry_space_group_name_H-M "C 2/C"
_symmetry_group_IT_number 15
_symmetry_cell_setting 'monoclinic'
loop_
_space_group_symop_operation_xyz
x,y,z
-x,y,1/2-z
-x,-y,-z
x,-y,1/2+z
1/2+x,1/2+y,z
1/2-x,1/2+y,1/2-z
1/2-x,1/2-y,-z
1/2+x,1/2-y,1/2+z
loop_
_atom_site_type_symbol
_atom_site_label
_atom_site_fract_x
_atom_site_fract_y
_atom_site_fract_z
Si Si1 0.139857 0.558865 0.053689
Si Si2 0.187154 0.903223 0.859435
Si Si3 0.649569 0.182878 0.749162
Si Si4 0.649141 0.158023 0.216100
Si Si5 0.062600 0.882523 0.228469
Si Si6 0.866881 0.996761 0.091469
Si Si7 0.342557 0.236377 0.483330
O O1 0.226834 0.591995 0.111534
O O2 0.097532 0.602376 0.076425
O O3 0.229939 0.511994 0.266997
O O4 0.000000 0.533958 0.750000
O O5 0.164130 0.961238 0.863139
O O6 0.044694 0.872216 0.569178
O O7 0.268089 0.871933 0.105244
O O8 0.480996 0.177233 0.427479
O O9 0.670865 0.203440 0.920254
O O10 0.722317 0.219068 0.776554
O O11 0.794835 0.150733 0.545628
O O12 0.684385 0.199518 0.175750
O O13 0.000000 0.868847 0.250000
O O14 0.096045 0.943223 0.279755
O O15 0.000000 0.017494 0.250000
O O16 0.500000 0.261076 0.750000
#
# Coordination Sequence:
#
# PCOD8130528 Si02
#       7
#     8   8   8   8   8   8   8
#     4  11  19  35  56  83 112 148 195 236 278 327
#     4  12  20  34  57  81 116 149 191 235 281 344
#     4  10  19  31  55  84 106 145 187 231 292 329
#     4  10  17  34  56  84 111 141 191 245 271 333
#     4  10  18  33  56  80 107 152 196 234 279 328
#     4  10  22  35  50  81 114 151 190 236 283 335
#     4   9  17  32  56  81 109 142 186 236 280 344
#
# _framework density 20.486706000000002
#
# number of rings (size 3 to 8) (size 9 to 14) (size 15 to 20)
#    0.000    1.714    7.143    0.857    0.000    1.143 
#    0.000    0.000    0.000   17.143    0.000    7.000 
#    0.000    0.000    0.000    0.000    0.000    0.000 
#
# Total GULP energy -347065.997535 kJ/mol
# GULP energy per Si atom -12395.214198 kJ/mol
# Density = 2.044008 g / cm^3
# Si number density = 20.486706 Si / 1000 Ang^3
#
#
#
# Elastic Constant Matrix: (Units=GPa)
#
#
# Indices 1 2 3 4 5 6 
#
# 1 30.7512 24.9520 31.6046 0.0000 12.0465 0.0000
# 2 24.9520 52.8695 36.8390 0.0000 14.3394 0.0000
# 3 31.6046 36.8390 166.8879 0.0000 12.7888 0.0000
# 4 0.0000 0.0000 0.0000 22.5975 0.0000 -0.6446
# 5 12.0465 14.3394 12.7888 0.0000 27.1937 0.0000
# 6 0.0000 0.0000 0.0000 -0.6446 0.0000 17.9888
#
#
#
# Elastic Compliance Matrix: (Units=1/GPa)
#
#
# Indices 1 2 3 4 5 6 
#
# 1 0.060719 -0.021037 -0.005855 0.000000 -0.013051 0.000000
# 2 -0.021037 0.032492 -0.002686 0.000000 -0.006550 0.000000
# 3 -0.005855 -0.002686 0.007663 0.000000 0.000406 0.000000
# 4 0.000000 0.000000 0.000000 0.044298 0.000000 0.001587
# 5 -0.013051 -0.006550 0.000406 0.000000 0.045818 0.000000
# 6 0.000000 0.000000 0.000000 0.001587 0.000000 0.055647
#
#
# Mechanical properties :
#
#
# Convention : Reuss Voigt Hill
#
# Bulk Modulus (GPa) = 23.97133 48.58886 36.28009
# Shear Modulus (GPa) = 15.63975 24.03020 19.83497
#
# Velocity S-wave (km/s) = 2.76598 3.42857 3.11495
# Velocity P-wave (km/s) = 4.68265 6.28031 5.53938
#
# Compressibility (1/GPa) = 0.04171650
#
# Stress axis : x y z
#
# Youngs Moduli (GPa) = 16.46928 30.77720 130.50347
#
# Poissons Ratio (x) = 0.64747 0.76407
# Poissons Ratio (y) = 0.34647 0.35057
# Poissons Ratio (z) = 0.09642 0.08268
#
# Static dielectric constant tensor:
#      x y z
#    x 3.319030 0.000000 0.278820 
#    y 0.000000 3.501930 0.000000 
#    z 0.278820 0.000000 4.192600 
# 
# 
# High freq. dielectric constant tensor:
#      x y z
#    x 1.756870 0.000000 0.021210 
#    y 0.000000 1.781440 0.000000 
#    z 0.021210 0.000000 1.814420 
# 
# From -- ./inp_files/179232.got.cif
#   From: 2010.06.25/outbox.cif.g09.slc.cpg/sg15_90_cif.got.tgz:179232.got - 2010.06.28 07:06:18.
