data_PCOD8130336
_publ_section_title
;
Structure prediction by ZEFSAII (Michael W. Deem and Ramdas Pophale) SiO2 
 PCOD8130336
Probable space group: C 2/C
;
_chemical_formula_sum "Si O2"
_cell_formula_units_Z 56
_cell_length_a 17.007167
_cell_length_b 21.880177
_cell_length_c 13.444468
_cell_angle_alpha 90.000000
_cell_angle_beta 38.407665
_cell_angle_gamma 90.000000
_cell_volume 3108.097686
_symmetry_space_group_name_H-M "C 2/C"
_symmetry_group_IT_number 15
_symmetry_cell_setting 'monoclinic'
loop_
_space_group_symop_operation_xyz
x,y,z
-x,y,1/2-z
-x,-y,-z
x,-y,1/2+z
1/2+x,1/2+y,z
1/2-x,1/2+y,1/2-z
1/2-x,1/2-y,-z
1/2+x,1/2-y,1/2+z
loop_
_atom_site_type_symbol
_atom_site_label
_atom_site_fract_x
_atom_site_fract_y
_atom_site_fract_z
Si Si1 0.176514 0.157380 0.018690
Si Si2 0.088048 0.732888 0.741502
Si Si3 0.772771 0.215037 0.876602
Si Si4 0.866838 0.045977 0.325824
Si Si5 0.487280 0.611762 0.037726
Si Si6 0.969418 0.238642 0.990112
Si Si7 0.611246 0.586755 0.718076
O O1 0.119557 0.200426 0.162529
O O2 0.221837 0.094296 0.027629
O O3 0.082225 0.142345 0.022859
O O4 0.291104 0.192313 0.853351
O O5 0.005746 0.738730 0.922503
O O6 0.000000 0.697111 0.750000
O O7 0.644013 0.221489 0.942237
O O8 0.791741 0.143067 0.878809
O O9 0.750000 0.250000 0.000000
O O10 0.102063 0.243463 0.799557
O O11 0.885873 0.068425 0.192778
O O12 0.000000 0.047811 0.250000
O O13 0.814657 0.976515 0.382399
O O14 0.421639 0.668170 0.043416
O O15 0.558371 0.573661 0.881557
O O16 0.500000 0.600847 0.750000
#
# Coordination Sequence:
#
# PCOD8130336 Si02
#       7
#     8   8   8   8   8   8   8
#     4  10  19  31  51  78 116 141 177 215 280 336
#     4  11  19  30  50  81 114 143 170 222 276 340
#     4  11  23  39  56  80 110 145 191 235 267 318
#     4   9  17  31  51  77 108 142 174 221 279 325
#     4  10  17  32  50  81 109 140 172 226 276 331
#     4  11  21  34  57  82 112 143 180 223 284 327
#     4  10  20  33  52  77 106 142 187 230 272 316
#
# _framework density 18.017451000000001
#
# number of rings (size 3 to 8) (size 9 to 14) (size 15 to 20)
#    0.000    1.714    2.857    4.714    2.000    0.000 
#    0.000    0.000    0.000    1.714    0.000    4.000 
#    0.000    0.000    0.000    0.000    0.000    0.000 
#
# Total GULP energy -346904.381549 kJ/mol
# GULP energy per Si atom -12389.442198 kJ/mol
# Density = 1.797644 g / cm^3
# Si number density = 18.017451 Si / 1000 Ang^3
#
#
#
# Elastic Constant Matrix: (Units=GPa)
#
#
# Indices 1 2 3 4 5 6 
#
# 1 68.0335 29.5057 28.0731 -0.0080 3.8173 0.0065
# 2 29.5057 112.3102 35.8307 -0.0027 -0.2996 0.0021
# 3 28.0731 35.8307 109.6419 -0.0041 11.7157 0.0045
# 4 -0.0080 -0.0027 -0.0041 19.3893 0.0058 3.0532
# 5 3.8173 -0.2996 11.7157 0.0058 29.6177 -0.0053
# 6 0.0065 0.0021 0.0045 3.0532 -0.0053 20.1418
#
#
#
# Elastic Compliance Matrix: (Units=1/GPa)
#
#
# Indices 1 2 3 4 5 6 
#
# 1 0.017655 -0.003611 -0.003230 0.000007 -0.001034 -0.000006
# 2 -0.003611 0.010738 -0.002763 -0.000001 0.001667 0.000001
# 3 -0.003230 -0.002763 0.011286 0.000002 -0.004076 -0.000003
# 4 0.000007 -0.000001 0.000002 0.052836 -0.000014 -0.008009
# 5 -0.001034 0.001667 -0.004076 -0.000014 0.035526 0.000012
# 6 -0.000006 0.000001 -0.000003 -0.008009 0.000012 0.050862
#
#
# Mechanical properties :
#
#
# Convention : Reuss Voigt Hill
#
# Bulk Modulus (GPa) = 48.84564 52.97830 50.91197
# Shear Modulus (GPa) = 24.39790 26.93483 25.66636
#
# Velocity S-wave (km/s) = 3.68384 3.87063 3.77839
# Velocity P-wave (km/s) = 6.72780 7.03160 6.88137
#
# Compressibility (1/GPa) = 0.02047266
#
# Stress axis : x y z
#
# Youngs Moduli (GPa) = 56.63977 93.12386 88.60452
#
# Poissons Ratio (x) = 0.33623 0.28620
# Poissons Ratio (y) = 0.20450 0.24481
# Poissons Ratio (z) = 0.18295 0.25729
#
# Static dielectric constant tensor:
#      x y z
#    x 3.548550 -0.000010 0.286020 
#    y -0.000010 3.621690 0.000000 
#    z 0.286020 0.000000 3.409700 
# 
# 
# High freq. dielectric constant tensor:
#      x y z
#    x 1.677200 0.000000 0.037320 
#    y 0.000000 1.694750 0.000000 
#    z 0.037320 0.000000 1.690420 
# 
# From -- ./inp_files/98691.got.cif
#   From: 2010.06.25/outbox.cif.g09.slc.cpg/sg15_50_cif.got.tgz:98691.got - 2010.06.28 07:06:18.
