data_PCOD8130151
_publ_section_title
;
Structure prediction by ZEFSAII (Michael W. Deem and Ramdas Pophale) SiO2 
 PCOD8130151
Probable space group: C 2/C
;
_chemical_formula_sum "Si O2"
_cell_formula_units_Z 40
_cell_length_a 15.825624
_cell_length_b 10.838883
_cell_length_c 11.541623
_cell_angle_alpha 90.000000
_cell_angle_beta 119.997540
_cell_angle_gamma 90.000000
_cell_volume 1714.563809
_symmetry_space_group_name_H-M "C 2/C"
_symmetry_group_IT_number 15
_symmetry_cell_setting 'monoclinic'
loop_
_space_group_symop_operation_xyz
x,y,z
-x,y,1/2-z
-x,-y,-z
x,-y,1/2+z
1/2+x,1/2+y,z
1/2-x,1/2+y,1/2-z
1/2-x,1/2-y,-z
1/2+x,1/2-y,1/2+z
loop_
_atom_site_type_symbol
_atom_site_label
_atom_site_fract_x
_atom_site_fract_y
_atom_site_fract_z
Si Si1 0.843344 0.777715 0.424300
Si Si2 0.484072 0.752153 0.611302
Si Si3 0.228407 0.546866 0.996165
Si Si4 0.692758 0.834244 0.127382
Si Si5 0.427686 0.983015 0.287442
O O1 0.947053 0.812667 0.437879
O O2 0.840905 0.644462 0.483622
O O3 0.821831 0.883040 0.505771
O O4 0.760767 0.767543 0.266905
O O5 0.500000 0.692711 0.750000
O O6 0.367976 0.740605 0.498673
O O7 0.517907 0.893989 0.636371
O O8 0.257461 0.435562 0.102299
O O9 0.170626 0.483813 0.850662
O O10 0.599591 0.899377 0.123368
O O11 0.500000 0.908530 0.250000
#
# Coordination Sequence:
#
# PCOD8130151 Si02
#       5
#     8   8   8   8   8
#     4  10  23  35  58  91 125 158 201 250 301 368
#     4  11  20  35  57  93 122 151 195 254 304 350
#     4  10  19  37  54  88 124 157 195 247 306 355
#     4  11  20  35  61  86 124 159 200 250 305 351
#     4  10  17  29  57  87 116 149 185 254 303 340
#
# _framework density 23.329547999999999
#
# number of rings (size 3 to 8) (size 9 to 14) (size 15 to 20)
#    0.000    1.600    6.000    1.800    0.000    0.800 
#    0.000    0.000    0.000    4.800    0.000    0.000 
#    0.000    0.000    0.000    0.000    0.000    0.000 
#
# Total GULP energy -247844.385839 kJ/mol
# GULP energy per Si atom -12392.219292 kJ/mol
# Density = 2.327645 g / cm^3
# Si number density = 23.329548 Si / 1000 Ang^3
#
#
#
# Elastic Constant Matrix: (Units=GPa)
#
#
# Indices 1 2 3 4 5 6 
#
# 1 96.5689 22.2913 14.2451 0.0000 -21.0353 0.0000
# 2 22.2913 16.9503 16.1751 0.0000 -2.2660 0.0000
# 3 14.2451 16.1751 97.5831 0.0000 -4.0119 0.0000
# 4 0.0000 0.0000 0.0000 23.6978 0.0000 -4.5362
# 5 -21.0353 -2.2660 -4.0119 0.0000 40.1299 0.0000
# 6 0.0000 0.0000 0.0000 -4.5362 0.0000 28.2536
#
#
#
# Elastic Compliance Matrix: (Units=1/GPa)
#
#
# Indices 1 2 3 4 5 6 
#
# 1 0.017148 -0.023071 0.001644 0.000000 0.007850 0.000000
# 2 -0.023071 0.101436 -0.013764 0.000000 -0.007742 0.000000
# 3 0.001644 -0.013764 0.012343 0.000000 0.001318 0.000000
# 4 0.000000 0.000000 0.000000 0.043536 0.000000 0.006990
# 5 0.007850 -0.007742 0.001318 0.000000 0.028729 0.000000
# 6 0.000000 0.000000 0.000000 0.006990 0.000000 0.036516
#
#
# Mechanical properties :
#
#
# Convention : Reuss Voigt Hill
#
# Bulk Modulus (GPa) = 16.51658 35.16947 25.84303
# Shear Modulus (GPa) = 15.13902 28.97565 22.05733
#
# Velocity S-wave (km/s) = 2.55015 3.52805 3.07818
# Velocity P-wave (km/s) = 3.97066 5.63063 4.87186
#
# Compressibility (1/GPa) = 0.06054522
#
# Stress axis : x y z
#
# Youngs Moduli (GPa) = 58.31464 9.85845 81.01463
#
# Poissons Ratio (x) = 0.22744 -0.13315
# Poissons Ratio (y) = 1.34536 1.11510
# Poissons Ratio (z) = -0.09584 0.13569
#
# Static dielectric constant tensor:
#      x y z
#    x 4.600790 0.000000 -0.570970 
#    y 0.000000 3.651830 0.000000 
#    z -0.570970 0.000000 4.370600 
# 
# 
# High freq. dielectric constant tensor:
#      x y z
#    x 1.923980 0.000000 -0.026960 
#    y 0.000000 1.863230 0.000000 
#    z -0.026960 0.000000 1.936530 
# 
# From -- ./inp_files/96006.got.cif
#   From: 2010.06.25/outbox.cif.g09.slc.cpg/sg15_49_cif.got.tgz:96006.got - 2010.06.28 07:06:18.
