data_PCOD8130260
_publ_section_title
;
Structure prediction by ZEFSAII (Michael W. Deem and Ramdas Pophale) SiO2 
 PCOD8130260
Probable space group: C 2/C
;
_chemical_formula_sum "Si O2"
_cell_formula_units_Z 56
_cell_length_a 16.957947
_cell_length_b 29.841440
_cell_length_c 20.696283
_cell_angle_alpha 90.000000
_cell_angle_beta 160.615150
_cell_angle_gamma 90.000000
_cell_volume 3476.225864
_symmetry_space_group_name_H-M "C 2/C"
_symmetry_group_IT_number 15
_symmetry_cell_setting 'monoclinic'
loop_
_space_group_symop_operation_xyz
x,y,z
-x,y,1/2-z
-x,-y,-z
x,-y,1/2+z
1/2+x,1/2+y,z
1/2-x,1/2+y,1/2-z
1/2-x,1/2-y,-z
1/2+x,1/2-y,1/2+z
loop_
_atom_site_type_symbol
_atom_site_label
_atom_site_fract_x
_atom_site_fract_y
_atom_site_fract_z
Si Si1 0.781250 0.291422 0.628603
Si Si2 0.515151 0.133548 0.388205
Si Si3 0.131716 0.805855 0.283569
Si Si4 0.872196 0.933895 0.928872
Si Si5 0.764673 0.466396 0.149824
Si Si6 0.253981 0.070666 0.031163
Si Si7 0.302182 0.475155 0.549016
O O1 0.854559 0.325289 0.740911
O O2 0.730111 0.241661 0.616647
O O3 0.550198 0.311450 0.415505
O O4 0.000000 0.286311 0.750000
O O5 0.679179 0.152734 0.572872
O O6 0.332251 0.094501 0.267019
O O7 0.696998 0.115014 0.473183
O O8 0.000000 0.807630 0.250000
O O9 0.905464 0.916507 0.029052
O O10 0.781719 0.984515 0.858224
O O11 0.121788 0.930545 0.083713
O O12 0.045227 0.457350 0.373207
O O13 0.663209 0.460754 0.998722
O O14 0.500000 0.050944 0.250000
O O15 0.157693 0.029191 0.915025
O O16 0.500000 0.453807 0.750000
#
# Coordination Sequence:
#
# PCOD8130260 Si02
#       7
#     8   8   8   8   8   8   8
#     4  11  18  32  41  58  84 117 160 196 223 252
#     4  11  19  31  45  65  89 120 161 195 223 251
#     4  11  20  28  44  59  82 119 159 196 223 252
#     4   9  17  31  50  60  92 121 146 192 234 266
#     4   9  17  35  47  64  89 118 147 189 236 270
#     4   9  16  31  43  62  88 116 150 191 222 256
#     4  10  17  31  51  66  84 114 153 186 230 280
#
# _framework density 16.109425999999999
#
# number of rings (size 3 to 8) (size 9 to 14) (size 15 to 20)
#    0.000    2.000    7.143    2.143    0.000    0.571 
#    2.571    7.857    0.000    0.000    0.000    0.000 
#    0.000    0.000    0.000    5.143    0.000    1.714 
#
# Total GULP energy -346915.878518 kJ/mol
# GULP energy per Si atom -12389.852804 kJ/mol
# Density = 1.607276 g / cm^3
# Si number density = 16.109426 Si / 1000 Ang^3
#
#
#
# Elastic Constant Matrix: (Units=GPa)
#
#
# Indices 1 2 3 4 5 6 
#
# 1 66.8959 28.2921 42.6080 -0.0016 15.4717 -0.0037
# 2 28.2921 51.7558 30.3257 -0.0031 9.2260 -0.0021
# 3 42.6080 30.3257 118.5950 -0.0003 -3.6229 -0.0068
# 4 -0.0016 -0.0031 -0.0003 24.7373 -0.0001 2.4004
# 5 15.4717 9.2260 -3.6229 -0.0001 17.7028 -0.0050
# 6 -0.0037 -0.0021 -0.0068 2.4004 -0.0050 10.1973
#
#
#
# Elastic Compliance Matrix: (Units=1/GPa)
#
#
# Indices 1 2 3 4 5 6 
#
# 1 0.029382 -0.005945 -0.009787 0.000002 -0.024584 -0.000010
# 2 -0.005945 0.027420 -0.005186 0.000004 -0.010156 -0.000006
# 3 -0.009787 -0.005186 0.013704 -0.000002 0.014061 0.000012
# 4 0.000002 0.000004 -0.000002 0.041370 -0.000007 -0.009738
# 5 -0.024584 -0.010156 0.014061 -0.000007 0.086145 0.000043
# 6 -0.000010 -0.000006 0.000012 -0.009738 0.000043 0.100358
#
#
# Mechanical properties :
#
#
# Convention : Reuss Voigt Hill
#
# Bulk Modulus (GPa) = 34.87875 48.85537 41.86706
# Shear Modulus (GPa) = 14.29502 19.59553 16.94528
#
# Velocity S-wave (km/s) = 2.98211 3.49148 3.24680
# Velocity P-wave (km/s) = 5.79271 6.82986 6.33255
#
# Compressibility (1/GPa) = 0.02867075
#
# Stress axis : x y z
#
# Youngs Moduli (GPa) = 34.03399 36.46927 72.97122
#
# Poissons Ratio (x) = 0.21680 0.71419
# Poissons Ratio (y) = 0.20232 0.37844
# Poissons Ratio (z) = 0.33310 0.18913
#
# Static dielectric constant tensor:
#      x y z
#    x 3.056410 0.000000 0.134950 
#    y 0.000000 3.072400 -0.000020 
#    z 0.134950 -0.000020 3.116870 
# 
# 
# High freq. dielectric constant tensor:
#      x y z
#    x 1.559990 0.000000 -0.009100 
#    y 0.000000 1.600890 0.000000 
#    z -0.009100 0.000000 1.623170 
# 
# From -- ./inp_files/250477.got.cif
#   From: 2010.06.25/outbox.cif.g09.slc.cpg/sg15_126_cif.got.tgz:250477.got - 2010.06.28 07:06:18.
