data_PCOD8130540
_publ_section_title
;
Structure prediction by ZEFSAII (Michael W. Deem and Ramdas Pophale) SiO2 
 PCOD8130540
Probable space group: C 2/C
;
_chemical_formula_sum "Si O2"
_cell_formula_units_Z 64
_cell_length_a 9.433998
_cell_length_b 29.518612
_cell_length_c 14.901710
_cell_angle_alpha 90.000000
_cell_angle_beta 128.161113
_cell_angle_gamma 90.000000
_cell_volume 3262.894838
_symmetry_space_group_name_H-M "C 2/C"
_symmetry_group_IT_number 15
_symmetry_cell_setting 'monoclinic'
loop_
_space_group_symop_operation_xyz
x,y,z
-x,y,1/2-z
-x,-y,-z
x,-y,1/2+z
1/2+x,1/2+y,z
1/2-x,1/2+y,1/2-z
1/2-x,1/2-y,-z
1/2+x,1/2-y,1/2+z
loop_
_atom_site_type_symbol
_atom_site_label
_atom_site_fract_x
_atom_site_fract_y
_atom_site_fract_z
Si Si1 0.655131 0.609917 0.379351
Si Si2 0.519301 0.625706 0.523433
Si Si3 0.051648 0.783176 0.124512
Si Si4 0.261162 0.683616 0.642109
Si Si5 0.658804 0.412187 0.259653
Si Si6 0.911404 0.318865 0.914013
Si Si7 0.900258 0.609196 0.123827
Si Si8 0.515311 0.053189 0.512543
O O1 0.500000 0.593326 0.250000
O O2 0.582037 0.610502 0.450835
O O3 0.722006 0.659702 0.371666
O O4 0.818193 0.574534 0.445105
O O5 0.574800 0.678233 0.558249
O O6 0.616224 0.594279 0.637052
O O7 0.304945 0.621933 0.439618
O O8 0.210749 0.786085 0.259485
O O9 0.088804 0.734627 0.097705
O O10 0.855453 0.790766 0.094524
O O11 0.351756 0.635287 0.691342
O O12 0.051507 0.673542 0.549311
O O13 0.500000 0.440392 0.250000
O O14 0.853935 0.435347 0.351424
O O15 0.987014 0.345350 0.856703
O O16 0.000000 0.588512 0.250000
O O17 0.898552 0.571978 0.045190
O O18 0.500000 0.000000 0.500000
#
# Coordination Sequence:
#
# PCOD8130540 Si02
#       8
#     8   8   8   8   8   8   8   8
#     4  11  26  46  61  89 137 180 207 251 337 397
#     4  11  21  39  66  93 128 175 214 259 318 377
#     4  10  20  31  60  97 123 161 222 276 297 358
#     4  10  17  34  57  91 123 155 216 269 312 357
#     4  11  17  40  70  95 124 158 211 269 319 374
#     4  11  21  37  59  87 130 173 217 262 315 367
#     4  11  22  39  65  93 126 172 215 262 320 384
#     4  11  24  46  70  95 126 163 209 271 334 387
#
# _framework density 19.614484000000001
#
# number of rings (size 3 to 8) (size 9 to 14) (size 15 to 20)
#    0.000    1.250    7.500    1.875    1.750    2.500 
#    2.250    0.625    0.000    0.000    0.000    0.000 
#    0.000    0.000    0.000    0.000    0.000    0.000 
#
# Total GULP energy -396560.966113 kJ/mol
# GULP energy per Si atom -12392.530191 kJ/mol
# Density = 1.956984 g / cm^3
# Si number density = 19.614484 Si / 1000 Ang^3
#
#
#
# Elastic Constant Matrix: (Units=GPa)
#
#
# Indices 1 2 3 4 5 6 
#
# 1 105.0545 30.1187 50.8994 0.0000 -7.5971 0.0000
# 2 30.1187 65.7423 26.5800 0.0000 -14.9912 0.0000
# 3 50.8994 26.5800 149.0495 0.0000 0.2158 0.0000
# 4 0.0000 0.0000 0.0000 26.6759 0.0000 0.5898
# 5 -7.5971 -14.9912 0.2158 0.0000 29.1993 0.0000
# 6 0.0000 0.0000 0.0000 0.5898 0.0000 7.1098
#
#
#
# Elastic Compliance Matrix: (Units=1/GPa)
#
#
# Indices 1 2 3 4 5 6 
#
# 1 0.012473 -0.004003 -0.003547 0.000000 0.001216 0.000000
# 2 -0.004003 0.020058 -0.002223 0.000000 0.009273 0.000000
# 3 -0.003547 -0.002223 0.008320 0.000000 -0.002126 0.000000
# 4 0.000000 0.000000 0.000000 0.037556 0.000000 -0.003116
# 5 0.001216 0.009273 -0.002126 0.000000 0.039340 0.000000
# 6 0.000000 0.000000 0.000000 -0.003116 0.000000 0.140908
#
#
# Mechanical properties :
#
#
# Convention : Reuss Voigt Hill
#
# Bulk Modulus (GPa) = 46.93910 59.44917 53.19414
# Shear Modulus (GPa) = 17.52510 26.74690 22.13600
#
# Velocity S-wave (km/s) = 2.99235 3.69674 3.36304
# Velocity P-wave (km/s) = 5.99347 6.97107 6.50067
#
# Compressibility (1/GPa) = 0.02130420
#
# Stress axis : x y z
#
# Youngs Moduli (GPa) = 80.17215 49.85497 120.18936
#
# Poissons Ratio (x) = 0.19956 0.42637
# Poissons Ratio (y) = 0.32091 0.26724
# Poissons Ratio (z) = 0.28441 0.11085
#
# Static dielectric constant tensor:
#      x y z
#    x 3.682290 0.000000 0.985900 
#    y 0.000000 3.475210 0.000000 
#    z 0.985900 0.000000 9.820410 
# 
# 
# High freq. dielectric constant tensor:
#      x y z
#    x 1.745550 0.000000 0.010080 
#    y 0.000000 1.739080 0.000000 
#    z 0.010080 0.000000 1.786360 
# 
# From -- ./inp_files/139849.got.cif
#   From: 2010.06.25/outbox.cif.g09.slc.cpg/sg15_70_cif.got.tgz:139849.got - 2010.06.28 07:06:18.
