data_PCOD8130551
_publ_section_title
;
Structure prediction by ZEFSAII (Michael W. Deem and Ramdas Pophale) SiO2 
 PCOD8130551
Probable space group: C 2/C
;
_chemical_formula_sum "Si O2"
_cell_formula_units_Z 44
_cell_length_a 18.721771
_cell_length_b 6.499948
_cell_length_c 22.700244
_cell_angle_alpha 90.000000
_cell_angle_beta 125.412342
_cell_angle_gamma 90.000000
_cell_volume 2251.368270
_symmetry_space_group_name_H-M "C 2/C"
_symmetry_group_IT_number 15
_symmetry_cell_setting 'monoclinic'
loop_
_space_group_symop_operation_xyz
x,y,z
-x,y,1/2-z
-x,-y,-z
x,-y,1/2+z
1/2+x,1/2+y,z
1/2-x,1/2+y,1/2-z
1/2-x,1/2-y,-z
1/2+x,1/2-y,1/2+z
loop_
_atom_site_type_symbol
_atom_site_label
_atom_site_fract_x
_atom_site_fract_y
_atom_site_fract_z
Si Si1 0.000000 0.286674 0.750000
Si Si2 0.646100 0.999094 0.754133
Si Si3 0.739938 0.702716 0.382046
Si Si4 0.799958 0.325563 0.337506
Si Si5 0.650495 0.357258 0.401998
Si Si6 0.682708 0.405450 0.544474
O O1 0.049747 0.418617 0.724033
O O2 0.066789 0.147695 0.819458
O O3 0.714595 0.810067 0.779887
O O4 0.670321 0.147333 0.819048
O O5 0.641276 0.133814 0.691950
O O6 0.774577 0.549089 0.349049
O O7 0.697166 0.577106 0.415153
O O8 0.816860 0.848108 0.445384
O O9 0.855449 0.206081 0.415000
O O10 0.625559 0.346016 0.459559
O O11 0.716684 0.173614 0.416393
#
# Coordination Sequence:
#
# PCOD8130551 Si02
#       6
#     4   8   8   8   8   8
#     4  12  22  38  54  94 124 144 190 260 298 328
#     4  11  21  35  57  90 117 149 199 242 288 347
#     4  10  17  34  59  82 107 153 199 234 284 337
#     4  10  19  35  59  82 113 157 201 235 276 358
#     4  10  20  35  55  84 122 149 191 248 292 346
#     4   9  19  36  57  84 112 157 203 230 282 364
#
# _framework density 19.543671
#
# number of rings (size 3 to 8) (size 9 to 14) (size 15 to 20)
#    0.000    1.818    7.273    0.545    0.000    0.727 
#    0.000    0.909    0.000    1.091    0.000    0.000 
#    0.000    0.000    0.000    0.000    0.000    0.000 
#
# Total GULP energy -272640.538936 kJ/mol
# GULP energy per Si atom -12392.751770 kJ/mol
# Density = 1.949919 g / cm^3
# Si number density = 19.543671 Si / 1000 Ang^3
#
#
#
# Elastic Constant Matrix: (Units=GPa)
#
#
# Indices 1 2 3 4 5 6 
#
# 1 77.8132 25.0633 33.6213 0.0000 -24.6870 0.0000
# 2 25.0633 107.7693 26.2929 -0.0001 -11.2228 0.0000
# 3 33.6213 26.2929 120.6256 0.0000 -24.6710 0.0000
# 4 0.0000 -0.0001 0.0000 16.9333 0.0000 -8.1875
# 5 -24.6870 -11.2228 -24.6710 0.0000 33.1878 0.0000
# 6 0.0000 0.0000 0.0000 -8.1875 0.0000 18.3527
#
#
#
# Elastic Compliance Matrix: (Units=1/GPa)
#
#
# Indices 1 2 3 4 5 6 
#
# 1 0.018111 -0.002521 -0.002261 0.000000 0.010938 0.000000
# 2 -0.002521 0.010269 -0.001426 0.000000 0.000537 0.000000
# 3 -0.002261 -0.001426 0.010364 0.000000 0.005540 0.000000
# 4 0.000000 0.000000 0.000000 0.075297 0.000000 0.033592
# 5 0.010938 0.000537 0.005540 0.000000 0.042568 0.000000
# 6 0.000000 0.000000 0.000000 0.033592 0.000000 0.069474
#
#
# Mechanical properties :
#
#
# Convention : Reuss Voigt Hill
#
# Bulk Modulus (GPa) = 37.98250 52.90701 45.44475
# Shear Modulus (GPa) = 20.22033 28.44347 24.33190
#
# Velocity S-wave (km/s) = 3.22004 3.81908 3.53229
# Velocity P-wave (km/s) = 5.77077 6.82474 6.31977
#
# Compressibility (1/GPa) = 0.02632791
#
# Stress axis : x y z
#
# Youngs Moduli (GPa) = 55.21632 97.37842 96.48508
#
# Poissons Ratio (x) = 0.24550 0.21817
# Poissons Ratio (y) = 0.13921 0.13757
# Poissons Ratio (z) = 0.12485 0.13884
#
# Static dielectric constant tensor:
#      x y z
#    x 3.246120 0.000000 -0.470660 
#    y 0.000000 3.782610 0.000000 
#    z -0.470660 0.000000 3.645770 
# 
# 
# High freq. dielectric constant tensor:
#      x y z
#    x 1.713630 0.000000 -0.045460 
#    y 0.000000 1.775040 0.000000 
#    z -0.045460 0.000000 1.757690 
# 
# From -- ./inp_files/212894.got.cif
#   From: 2010.06.25/outbox.cif.g09.slc.cpg/sg15_107_cif.got.tgz:212894.got - 2010.06.28 07:06:18.
