data_PCOD8130385
_publ_section_title
;
Structure prediction by ZEFSAII (Michael W. Deem and Ramdas Pophale) SiO2 
 PCOD8130385
Probable space group: C 2/C
;
_chemical_formula_sum "Si O2"
_cell_formula_units_Z 56
_cell_length_a 24.916111
_cell_length_b 9.374728
_cell_length_c 15.021715
_cell_angle_alpha 90.000000
_cell_angle_beta 57.649891
_cell_angle_gamma 90.000000
_cell_volume 2964.212714
_symmetry_space_group_name_H-M "C 2/C"
_symmetry_group_IT_number 15
_symmetry_cell_setting 'monoclinic'
loop_
_space_group_symop_operation_xyz
x,y,z
-x,y,1/2-z
-x,-y,-z
x,-y,1/2+z
1/2+x,1/2+y,z
1/2-x,1/2+y,1/2-z
1/2-x,1/2-y,-z
1/2+x,1/2-y,1/2+z
loop_
_atom_site_type_symbol
_atom_site_label
_atom_site_fract_x
_atom_site_fract_y
_atom_site_fract_z
Si Si1 0.457477 0.661681 0.867307
Si Si2 0.678927 0.349759 0.991048
Si Si3 0.965930 0.851135 0.039169
Si Si4 0.447117 0.319038 0.866102
Si Si5 0.748404 0.433271 0.097210
Si Si6 0.192053 0.282299 0.985742
Si Si7 0.175004 0.921197 0.343764
O O1 0.500000 0.717794 0.750000
O O2 0.494404 0.727092 0.919458
O O3 0.446819 0.490351 0.872117
O O4 0.387335 0.727970 0.925182
O O5 0.729150 0.228873 0.924174
O O6 0.668540 0.439876 0.910956
O O7 0.700800 0.449652 0.054600
O O8 0.893362 0.874919 0.133275
O O9 0.968039 0.762216 0.945118
O O10 0.000000 0.000000 0.000000
O O11 0.500000 0.262673 0.750000
O O12 0.376010 0.260075 0.908996
O O13 0.805146 0.547882 0.036507
O O14 0.716181 0.458741 0.221204
O O15 0.203711 0.202877 0.881142
O O16 0.250000 0.250000 0.000000
#
# Coordination Sequence:
#
# PCOD8130385 Si02
#       7
#     8   8   8   8   8   8   8
#     4  10  17  32  55  81 103 142 185 230 278 321
#     4  11  21  39  54  84 116 143 192 230 280 337
#     4   9  16  29  51  82 106 126 178 237 266 321
#     4   9  18  32  53  80 109 140 179 235 277 318
#     4  11  24  36  56  80 118 154 178 236 283 330
#     4  11  20  38  59  84 112 147 196 232 274 339
#     4  11  20  38  58  85 111 146 187 233 284 331
#
# _framework density 18.892032
#
# number of rings (size 3 to 8) (size 9 to 14) (size 15 to 20)
#    0.000    1.714    5.714    1.714    0.000    2.286 
#    2.571    0.714    0.000    3.429    0.000    0.000 
#    0.000    0.000    0.000    0.000    0.000    0.000 
#
# Total GULP energy -346947.396208 kJ/mol
# GULP energy per Si atom -12390.978436 kJ/mol
# Density = 1.884903 g / cm^3
# Si number density = 18.892032 Si / 1000 Ang^3
#
#
#
# Elastic Constant Matrix: (Units=GPa)
#
#
# Indices 1 2 3 4 5 6 
#
# 1 127.7922 10.7727 52.8908 0.0000 -7.1717 0.0000
# 2 10.7727 36.5315 13.4587 0.0000 -3.3438 -0.0001
# 3 52.8908 13.4587 141.6322 0.0000 -9.2667 0.0000
# 4 0.0000 0.0000 0.0000 16.2326 0.0000 -1.0901
# 5 -7.1717 -3.3438 -9.2667 0.0000 26.7318 0.0000
# 6 0.0000 -0.0001 0.0000 -1.0901 0.0000 19.4116
#
#
#
# Elastic Compliance Matrix: (Units=1/GPa)
#
#
# Indices 1 2 3 4 5 6 
#
# 1 0.009374 -0.001445 -0.003285 0.000000 0.001195 0.000000
# 2 -0.001445 0.028777 -0.002031 0.000000 0.002508 0.000000
# 3 -0.003285 -0.002031 0.008601 0.000000 0.001846 0.000000
# 4 0.000000 0.000000 0.000000 0.061838 0.000000 0.003473
# 5 0.001195 0.002508 0.001846 0.000000 0.038683 0.000000
# 6 0.000000 0.000000 0.000000 0.003473 0.000000 0.051711
#
#
# Mechanical properties :
#
#
# Convention : Reuss Voigt Hill
#
# Bulk Modulus (GPa) = 30.09238 51.13337 40.61287
# Shear Modulus (GPa) = 22.36320 27.73078 25.04699
#
# Velocity S-wave (km/s) = 3.44428 3.83542 3.64510
# Velocity P-wave (km/s) = 5.63743 6.83658 6.26576
#
# Compressibility (1/GPa) = 0.03323101
#
# Stress axis : x y z
#
# Youngs Moduli (GPa) = 106.68191 34.74942 116.26452
#
# Poissons Ratio (x) = 0.05020 0.38193
# Poissons Ratio (y) = 0.15411 0.23614
# Poissons Ratio (z) = 0.35045 0.07058
#
# Static dielectric constant tensor:
#      x y z
#    x 4.121560 0.000000 0.193610 
#    y 0.000000 3.075820 0.000000 
#    z 0.193610 0.000000 3.633670 
# 
# 
# High freq. dielectric constant tensor:
#      x y z
#    x 1.750610 0.000000 0.004900 
#    y 0.000000 1.685400 0.000000 
#    z 0.004900 0.000000 1.739620 
# 
# From -- ./inp_files/171973.got.cif
#   From: 2010.06.25/outbox.cif.g09.slc.cpg/sg15_86_cif.got.tgz:171973.got - 2010.06.28 07:06:18.
