data_PCOD8130354
_publ_section_title
;
Structure prediction by ZEFSAII (Michael W. Deem and Ramdas Pophale) SiO2 
 PCOD8130354
Probable space group: C 2/C
;
_chemical_formula_sum "Si O2"
_cell_formula_units_Z 56
_cell_length_a 22.316460
_cell_length_b 21.333201
_cell_length_c 11.901621
_cell_angle_alpha 90.000000
_cell_angle_beta 146.653748
_cell_angle_gamma 90.000000
_cell_volume 3114.663153
_symmetry_space_group_name_H-M "C 2/C"
_symmetry_group_IT_number 15
_symmetry_cell_setting 'monoclinic'
loop_
_space_group_symop_operation_xyz
x,y,z
-x,y,1/2-z
-x,-y,-z
x,-y,1/2+z
1/2+x,1/2+y,z
1/2-x,1/2+y,1/2-z
1/2-x,1/2-y,-z
1/2+x,1/2-y,1/2+z
loop_
_atom_site_type_symbol
_atom_site_label
_atom_site_fract_x
_atom_site_fract_y
_atom_site_fract_z
Si Si1 0.640912 0.291602 0.695027
Si Si2 0.592404 0.926368 0.069017
Si Si3 0.184055 0.332290 0.377713
Si Si4 0.265965 0.674696 0.393695
Si Si5 0.907898 0.757684 0.285456
Si Si6 0.500000 0.858145 0.250000
Si Si7 0.500000 0.839089 0.750000
Si Si8 0.119286 0.434762 0.622628
O O1 0.691592 0.223262 0.798895
O O2 0.660477 0.310646 0.598029
O O3 0.510567 0.289984 0.507512
O O4 0.702033 0.339297 0.875671
O O5 0.664312 0.896469 0.280949
O O6 0.647140 0.993772 0.131438
O O7 0.589396 0.883084 0.952817
O O8 0.467260 0.934175 0.911751
O O9 0.082553 0.317013 0.303231
O O10 0.161360 0.721329 0.228032
O O11 0.337175 0.687631 0.616537
O O12 0.227250 0.602287 0.332914
O O13 0.940664 0.704724 0.246904
O O14 0.575953 0.901852 0.443719
#
# Coordination Sequence:
#
# PCOD8130354 Si02
#       8
#     8   8   8   8   8   4   4   8
#     4  11  20  34  52  81 110 146 174 224 277 327
#     4  10  20  32  50  75 111 139 175 226 265 327
#     4  10  20  32  53  77 113 143 174 223 276 324
#     4  11  20  35  53  78 110 146 180 221 273 329
#     4  11  21  33  55  80 111 139 182 226 271 328
#     4  10  17  32  52  78 108 139 178 212 266 336
#     4  12  17  34  52  78 110 139 174 226 282 312
#     4  10  19  32  49  78 105 141 180 215 270 325
#
# _framework density 17.979472999999999
#
# number of rings (size 3 to 8) (size 9 to 14) (size 15 to 20)
#    0.000    1.429    5.714    1.286    0.000    0.000 
#    0.000    0.000    0.000    0.857    0.000    6.000 
#    0.000    0.000    0.000    0.000    0.000    0.000 
#
# Total GULP energy -347150.069158 kJ/mol
# GULP energy per Si atom -12398.216756 kJ/mol
# Density = 1.793855 g / cm^3
# Si number density = 17.979473 Si / 1000 Ang^3
#
#
#
# Elastic Constant Matrix: (Units=GPa)
#
#
# Indices 1 2 3 4 5 6 
#
# 1 29.3411 11.6950 13.3545 0.0000 1.6797 0.0000
# 2 11.6950 90.1324 39.6750 0.0000 0.7105 0.0000
# 3 13.3545 39.6750 113.6355 0.0000 10.4222 0.0000
# 4 0.0000 0.0000 0.0000 22.8340 0.0000 1.8263
# 5 1.6797 0.7105 10.4222 0.0000 22.4172 0.0000
# 6 0.0000 0.0000 0.0000 1.8263 0.0000 16.3265
#
#
#
# Elastic Compliance Matrix: (Units=1/GPa)
#
#
# Indices 1 2 3 4 5 6 
#
# 1 0.036902 -0.003450 -0.003017 0.000000 -0.001253 0.000000
# 2 -0.003450 0.013501 -0.004484 0.000000 0.001915 0.000000
# 3 -0.003017 -0.004484 0.011162 0.000000 -0.004821 0.000000
# 4 0.000000 0.000000 0.000000 0.044190 0.000000 -0.004943
# 5 -0.001253 0.001915 -0.004821 0.000000 0.046883 0.000000
# 6 0.000000 0.000000 0.000000 -0.004943 0.000000 0.061803
#
#
# Mechanical properties :
#
#
# Convention : Reuss Voigt Hill
#
# Bulk Modulus (GPa) = 25.21252 40.28423 32.74838
# Shear Modulus (GPa) = 20.03481 23.54117 21.78799
#
# Velocity S-wave (km/s) = 3.34176 3.62240 3.48491
# Velocity P-wave (km/s) = 5.37989 6.32060 5.86912
#
# Compressibility (1/GPa) = 0.03966283
#
# Stress axis : x y z
#
# Youngs Moduli (GPa) = 27.09871 74.06770 89.58628
#
# Poissons Ratio (x) = 0.25555 0.27030
# Poissons Ratio (y) = 0.09349 0.40171
# Poissons Ratio (z) = 0.08176 0.33212
#
# Static dielectric constant tensor:
#      x y z
#    x 3.282460 0.000000 -0.070050 
#    y 0.000000 3.318150 0.000000 
#    z -0.070050 0.000000 3.519870 
# 
# 
# High freq. dielectric constant tensor:
#      x y z
#    x 1.681660 0.000000 -0.018890 
#    y 0.000000 1.673370 0.000000 
#    z -0.018890 0.000000 1.695390 
# 
# From -- ./inp_files/120192.got.cif
#   From: 2010.06.25/outbox.cif.g09.slc.cpg/sg15_61_cif.got.tgz:120192.got - 2010.06.28 07:06:18.
