data_PCOD8130989
_publ_section_title
;
Structure prediction by ZEFSAII (Michael W. Deem and Ramdas Pophale) SiO2 
 PCOD8130989
Probable space group: C 2/C
;
_chemical_formula_sum "Si O2"
_cell_formula_units_Z 36
_cell_length_a 28.092830
_cell_length_b 11.190030
_cell_length_c 20.332485
_cell_angle_alpha 90.000000
_cell_angle_beta 161.938322
_cell_angle_gamma 90.000000
_cell_volume 1981.690323
_symmetry_space_group_name_H-M "C 2/C"
_symmetry_group_IT_number 15
_symmetry_cell_setting 'monoclinic'
loop_
_space_group_symop_operation_xyz
x,y,z
-x,y,1/2-z
-x,-y,-z
x,-y,1/2+z
1/2+x,1/2+y,z
1/2-x,1/2+y,1/2-z
1/2-x,1/2-y,-z
1/2+x,1/2-y,1/2+z
loop_
_atom_site_type_symbol
_atom_site_label
_atom_site_fract_x
_atom_site_fract_y
_atom_site_fract_z
Si Si1 0.000000 0.966491 0.750000
Si Si2 0.087064 0.785395 0.756539
Si Si3 0.262843 0.391270 0.012443
Si Si4 0.971781 0.453062 0.138398
Si Si5 0.859355 0.980467 0.767693
O O1 0.989344 0.878828 0.672843
O O2 0.854704 0.056175 0.569797
O O3 0.122340 0.844395 0.732707
O O4 0.994223 0.663276 0.622167
O O5 0.250000 0.750000 0.000000
O O6 0.090296 0.440929 0.779269
O O7 0.250000 0.250000 0.000000
O O8 0.353455 0.432207 0.196974
O O9 0.000000 0.408478 0.250000
O O10 0.798939 0.499032 0.900024
O O11 0.000000 0.000000 0.000000
#
# Coordination Sequence:
#
# PCOD8130989 Si02
#       5
#     4   8   8   8   8
#     4  10  18  30  56  86 106 132 200 234 266 318
#     4  11  16  34  61  86 105 143 194 239 268 332
#     4  10  22  36  59  81 111 155 191 226 276 346
#     4  10  18  34  60  82 106 148 194 228 271 338
#     4  10  22  38  55  84 118 145 180 239 294 321
#
# _framework density 18.166309999999999
#
# number of rings (size 3 to 8) (size 9 to 14) (size 15 to 20)
#    0.000    1.778    7.778    0.000    4.667    0.000 
#    4.000    0.000    0.000    6.667    0.000    0.000 
#    0.000    0.000    0.000    0.000    0.000    0.000 
#
# Total GULP energy -223037.214123 kJ/mol
# GULP energy per Si atom -12390.956340 kJ/mol
# Density = 1.812496 g / cm^3
# Si number density = 18.166310 Si / 1000 Ang^3
#
#
#
# Elastic Constant Matrix: (Units=GPa)
#
#
# Indices 1 2 3 4 5 6 
#
# 1 78.6445 47.5981 54.4218 0.0000 28.4094 0.0000
# 2 47.5981 154.2875 49.0228 0.0000 18.4269 0.0000
# 3 54.4218 49.0228 145.3635 0.0000 17.9189 0.0000
# 4 0.0000 0.0000 0.0000 21.8813 0.0000 6.5016
# 5 28.4094 18.4269 17.9189 0.0000 29.5217 0.0000
# 6 0.0000 0.0000 0.0000 6.5016 0.0000 31.6425
#
#
#
# Elastic Compliance Matrix: (Units=1/GPa)
#
#
# Indices 1 2 3 4 5 6 
#
# 1 0.026193 -0.003847 -0.006159 0.000000 -0.019067 0.000000
# 2 -0.003847 0.008133 -0.001225 0.000000 -0.000631 0.000000
# 3 -0.006159 -0.001225 0.009483 0.000000 0.000935 0.000000
# 4 0.000000 0.000000 0.000000 0.048673 0.000000 -0.010001
# 5 -0.019067 -0.000631 0.000935 0.000000 0.052048 0.000000
# 6 0.000000 0.000000 0.000000 -0.010001 0.000000 0.033658
#
#
# Mechanical properties :
#
#
# Convention : Reuss Voigt Hill
#
# Bulk Modulus (GPa) = 46.84184 75.59788 61.21986
# Shear Modulus (GPa) = 24.06583 31.75929 27.91256
#
# Velocity S-wave (km/s) = 3.64366 4.18575 3.92408
# Velocity P-wave (km/s) = 6.59869 8.06631 7.36912
#
# Compressibility (1/GPa) = 0.02134844
#
# Stress axis : x y z
#
# Youngs Moduli (GPa) = 38.17810 122.96158 105.45460
#
# Poissons Ratio (x) = 0.47298 0.64946
# Poissons Ratio (y) = 0.14686 0.12916
# Poissons Ratio (z) = 0.23513 0.15060
#
# Static dielectric constant tensor:
#      x y z
#    x 3.569840 0.000000 0.545400 
#    y 0.000000 3.142600 0.000000 
#    z 0.545400 0.000000 3.088060 
# 
# 
# High freq. dielectric constant tensor:
#      x y z
#    x 1.697600 0.000000 0.042450 
#    y 0.000000 1.712030 0.000000 
#    z 0.042450 0.000000 1.668080 
# 
# From -- ./inp_files/94079.got.cif
#   From: 2010.06.25/outbox.cif.g09.slc.cpg/sg15_48_cif.got.tgz:94079.got - 2010.06.28 07:06:18.
