data_PCOD8130293
_publ_section_title
;
Structure prediction by ZEFSAII (Michael W. Deem and Ramdas Pophale) SiO2 
 PCOD8130293
Probable space group: C 2/C
;
_chemical_formula_sum "Si O2"
_cell_formula_units_Z 60
_cell_length_a 14.114443
_cell_length_b 19.198159
_cell_length_c 22.548998
_cell_angle_alpha 90.000000
_cell_angle_beta 28.471238
_cell_angle_gamma 90.000000
_cell_volume 2912.806996
_symmetry_space_group_name_H-M "C 2/C"
_symmetry_group_IT_number 15
_symmetry_cell_setting 'monoclinic'
loop_
_space_group_symop_operation_xyz
x,y,z
-x,y,1/2-z
-x,-y,-z
x,-y,1/2+z
1/2+x,1/2+y,z
1/2-x,1/2+y,1/2-z
1/2-x,1/2-y,-z
1/2+x,1/2-y,1/2+z
loop_
_atom_site_type_symbol
_atom_site_label
_atom_site_fract_x
_atom_site_fract_y
_atom_site_fract_z
Si Si1 0.818124 0.176490 0.681889
Si Si2 0.503516 0.811787 0.878560
Si Si3 0.275713 0.949925 0.750051
Si Si4 0.885593 0.007076 0.435491
Si Si5 0.000000 0.673522 0.250000
Si Si6 0.992550 0.581140 0.825566
Si Si7 0.093663 0.868095 0.134378
Si Si8 0.118245 0.091084 0.456404
O O1 0.859603 0.259428 0.658099
O O2 0.587198 0.153092 0.800234
O O3 0.913761 0.143303 0.687972
O O4 0.931521 0.142747 0.563895
O O5 0.575052 0.890101 0.853387
O O6 0.541148 0.785180 0.788982
O O7 0.270769 0.811113 0.026446
O O8 0.137044 0.918540 0.877069
O O9 0.108082 0.968068 0.792681
O O10 0.386319 0.016342 0.715068
O O11 0.728128 0.070699 0.525665
O O12 0.821043 0.946170 0.424950
O O13 0.908198 0.978568 0.490701
O O14 0.181387 0.625861 0.128182
O O15 0.000000 0.580315 0.750000
O O16 0.000000 0.858903 0.250000
#
# Coordination Sequence:
#
# PCOD8130293 Si02
#       8
#     8   8   8   8   4   8   8   8
#     4  11  24  38  55  93 130 165 210 246 318 392
#     4  11  23  39  58  90 130 163 207 260 325 383
#     4  11  20  35  63  93 120 157 202 262 326 371
#     4  11  19  36  57  93 124 151 207 260 314 370
#     4  10  18  32  60  88 116 156 186 260 330 356
#     4  12  21  36  66  97 131 158 200 272 323 373
#     4  11  23  38  61  89 126 167 210 264 314 373
#     4  10  17  31  55  89 124 142 188 257 320 367
#
# _framework density 20.598687999999999
#
# number of rings (size 3 to 8) (size 9 to 14) (size 15 to 20)
#    0.000    1.067    8.000    2.400    1.867    1.067 
#    0.000    3.333    0.000    0.800    0.000    0.000 
#    0.000    0.000    0.000    0.000    0.000    0.000 
#
# Total GULP energy -371670.291572 kJ/mol
# GULP energy per Si atom -12389.009719 kJ/mol
# Density = 2.055180 g / cm^3
# Si number density = 20.598688 Si / 1000 Ang^3
#
#
#
# Elastic Constant Matrix: (Units=GPa)
#
#
# Indices 1 2 3 4 5 6 
#
# 1 53.1948 37.0801 30.8790 -0.0850 -19.4278 -0.0401
# 2 37.0801 77.2538 20.1764 -0.0458 -11.0629 -0.0101
# 3 30.8790 20.1764 75.3352 -0.3284 -9.1955 -0.3190
# 4 -0.0850 -0.0458 -0.3284 2.6276 0.1382 -45.0712
# 5 -19.4278 -11.0629 -9.1955 0.1382 32.4990 0.1676
# 6 -0.0401 -0.0101 -0.3190 -45.0712 0.1676 -13.3411
#
#
#
# Elastic Compliance Matrix: (Units=1/GPa)
#
#
# Indices 1 2 3 4 5 6 
#
# 1 0.041540 -0.014656 -0.011061 0.000085 0.016713 0.000073
# 2 -0.014656 0.019561 0.000530 -0.000002 -0.001953 -0.000002
# 3 -0.011061 0.000530 0.017484 -0.000085 -0.001484 -0.000117
# 4 0.000085 -0.000002 -0.000085 0.006457 0.000111 -0.021810
# 5 0.016713 -0.001953 -0.001484 0.000111 0.039676 0.000109
# 6 0.000073 -0.000002 -0.000117 -0.021810 0.000109 -0.001270
#
#
# Mechanical properties :
#
#
# Convention : Reuss Voigt Hill
#
# Bulk Modulus (GPa) = 35.44711 42.45054 38.94883
# Shear Modulus (GPa) = 27.28915 12.20032 19.74474
#
# Velocity S-wave (km/s) = 3.64373 2.43633 3.09939
# Velocity P-wave (km/s) = 5.91170 5.34485 5.63540
#
# Compressibility (1/GPa) = 0.02821104
#
# Stress axis : x y z
#
# Youngs Moduli (GPa) = 24.07334 51.12268 57.19595
#
# Poissons Ratio (x) = 0.74925 0.63263
# Poissons Ratio (y) = 0.35282 -0.03032
# Poissons Ratio (z) = 0.26627 -0.02710
#
# Static dielectric constant tensor:
#      x y z
#    x 3.685280 -0.000030 -0.262950 
#    y -0.000030 3.902400 0.000290 
#    z -0.262950 0.000290 3.864000 
# 
# 
# High freq. dielectric constant tensor:
#      x y z
#    x 1.769520 0.000000 -0.019100 
#    y 0.000000 1.794060 0.000020 
#    z -0.019100 0.000020 1.802520 
# 
# From -- ./inp_files/274717.got.cif
#   From: 2010.06.25/outbox.cif.g09.slc.cpg/sg15_138_cif.got.tgz:274717.got - 2010.06.28 07:06:18.
