data_PCOD8130905
_publ_section_title
;
Structure prediction by ZEFSAII (Michael W. Deem and Ramdas Pophale) SiO2 
 PCOD8130905
Probable space group: C 2/C
;
_chemical_formula_sum "Si O2"
_cell_formula_units_Z 52
_cell_length_a 11.106453
_cell_length_b 16.327756
_cell_length_c 24.979674
_cell_angle_alpha 90.000000
_cell_angle_beta 35.957992
_cell_angle_gamma 90.000000
_cell_volume 2659.920995
_symmetry_space_group_name_H-M "C 2/C"
_symmetry_group_IT_number 15
_symmetry_cell_setting 'monoclinic'
loop_
_space_group_symop_operation_xyz
x,y,z
-x,y,1/2-z
-x,-y,-z
x,-y,1/2+z
1/2+x,1/2+y,z
1/2-x,1/2+y,1/2-z
1/2-x,1/2-y,-z
1/2+x,1/2-y,1/2+z
loop_
_atom_site_type_symbol
_atom_site_label
_atom_site_fract_x
_atom_site_fract_y
_atom_site_fract_z
Si Si1 0.938812 0.204970 0.597344
Si Si2 0.539075 0.959425 0.858699
Si Si3 0.195702 0.520668 0.465094
Si Si4 0.109097 0.078005 0.801808
Si Si5 0.500000 0.303851 0.250000
Si Si6 0.216239 0.144773 0.146736
Si Si7 0.832487 0.691188 0.394886
O O1 0.840482 0.125623 0.661189
O O2 0.761247 0.258317 0.632712
O O3 0.053536 0.256679 0.601150
O O4 0.095884 0.177484 0.494864
O O5 0.616016 0.903031 0.879277
O O6 0.435438 0.899007 0.852303
O O7 0.720257 0.008211 0.764784
O O8 0.368927 0.018686 0.948685
O O9 0.377995 0.456379 0.387513
O O10 0.274561 0.610874 0.417825
O O11 0.000000 0.500000 0.500000
O O12 0.127731 0.138954 0.744501
O O13 0.341256 0.243362 0.337138
O O14 0.000000 0.123747 0.250000
#
# Coordination Sequence:
#
# PCOD8130905 Si02
#       7
#     8   8   8   8   4   8   8
#     4   9  19  31  51  73 111 139 174 214 271 321
#     4  10  19  31  52  75 111 140 172 221 266 314
#     4  10  19  28  48  82 109 135 173 224 267 309
#     4  11  19  33  51  84 105 137 184 221 259 312
#     4  10  20  28  52  78 108 130 186 214 254 310
#     4  10  18  30  49  78 107 138 170 218 273 313
#     4   9  18  33  48  76 105 146 169 216 267 317
#
# _framework density 19.549451999999999
#
# number of rings (size 3 to 8) (size 9 to 14) (size 15 to 20)
#    0.000    2.154    3.077    1.846    8.615    0.000 
#    0.000    0.000    1.692    3.692    0.000    0.000 
#    0.000    0.000    0.000    0.000    0.000    0.000 
#
# Total GULP energy -322210.329720 kJ/mol
# GULP energy per Si atom -12392.704989 kJ/mol
# Density = 1.950496 g / cm^3
# Si number density = 19.549452 Si / 1000 Ang^3
#
#
#
# Elastic Constant Matrix: (Units=GPa)
#
#
# Indices 1 2 3 4 5 6 
#
# 1 20.8230 29.8629 16.8339 -0.0010 2.9709 0.0013
# 2 29.8629 104.7270 50.3033 -0.0043 2.7265 0.0013
# 3 16.8339 50.3033 117.8193 -0.0130 2.9279 0.0109
# 4 -0.0010 -0.0043 -0.0130 25.6634 0.0039 -4.6512
# 5 2.9709 2.7265 2.9279 0.0039 13.6555 -0.0053
# 6 0.0013 0.0013 0.0109 -4.6512 -0.0053 23.2881
#
#
#
# Elastic Compliance Matrix: (Units=1/GPa)
#
#
# Indices 1 2 3 4 5 6 
#
# 1 0.084032 -0.022652 -0.002004 0.000000 -0.013330 -0.000006
# 2 -0.022652 0.018142 -0.004566 0.000000 0.002285 0.000003
# 3 -0.002004 -0.004566 0.010747 0.000004 -0.000957 -0.000004
# 4 0.000000 0.000000 0.000004 0.040430 -0.000009 0.008075
# 5 -0.013330 0.002285 -0.000957 -0.000009 0.075879 0.000017
# 6 -0.000006 0.000003 -0.000004 0.008075 0.000017 0.044553
#
#
# Mechanical properties :
#
#
# Convention : Reuss Voigt Hill
#
# Bulk Modulus (GPa) = 18.35642 48.59663 33.47652
# Shear Modulus (GPa) = 14.27002 22.27934 18.27468
#
# Velocity S-wave (km/s) = 2.70468 3.37952 3.06075
# Velocity P-wave (km/s) = 4.37765 6.33565 5.44538
#
# Compressibility (1/GPa) = 0.05447684
#
# Stress axis : x y z
#
# Youngs Moduli (GPa) = 11.90026 55.12221 93.04891
#
# Poissons Ratio (x) = 1.24864 0.18645
# Poissons Ratio (y) = 0.26957 0.42485
# Poissons Ratio (z) = 0.02384 0.25168
#
# Static dielectric constant tensor:
#      x y z
#    x 3.141570 0.000000 0.212830 
#    y 0.000000 3.818780 0.000020 
#    z 0.212830 0.000020 3.755680 
# 
# 
# High freq. dielectric constant tensor:
#      x y z
#    x 1.697010 0.000000 0.007570 
#    y 0.000000 1.757480 0.000000 
#    z 0.007570 0.000000 1.776530 
# 
# From -- ./inp_files/204886.got.cif
#   From: 2010.06.25/outbox.cif.g09.slc.cpg/sg15_103_cif.got.tgz:204886.got - 2010.06.28 07:06:18.
