data_PCOD8130020
_publ_section_title
;
Structure prediction by ZEFSAII (Michael W. Deem and Ramdas Pophale) SiO2 
 PCOD8130020
Probable space group: C 2/C
;
_chemical_formula_sum "Si O2"
_cell_formula_units_Z 44
_cell_length_a 27.688896
_cell_length_b 13.732882
_cell_length_c 13.538322
_cell_angle_alpha 90.000000
_cell_angle_beta 20.815557
_cell_angle_gamma 90.000000
_cell_volume 1829.370430
_symmetry_space_group_name_H-M "C 2/C"
_symmetry_group_IT_number 15
_symmetry_cell_setting 'monoclinic'
loop_
_space_group_symop_operation_xyz
x,y,z
-x,y,1/2-z
-x,-y,-z
x,-y,1/2+z
1/2+x,1/2+y,z
1/2-x,1/2+y,1/2-z
1/2-x,1/2-y,-z
1/2+x,1/2-y,1/2+z
loop_
_atom_site_type_symbol
_atom_site_label
_atom_site_fract_x
_atom_site_fract_y
_atom_site_fract_z
Si Si1 0.190605 0.865715 0.030251
Si Si2 0.510341 0.887913 0.016482
Si Si3 0.229197 0.430764 0.151718
Si Si4 0.920272 0.820076 0.635309
Si Si5 0.000000 0.651131 0.750000
Si Si6 0.217422 0.754072 0.791096
O O1 0.335765 0.856951 0.810534
O O2 0.159373 0.779735 0.010900
O O3 0.201187 0.968105 0.948777
O O4 0.071936 0.865794 0.338585
O O5 0.417431 0.960759 0.122867
O O6 0.420131 0.789799 0.176157
O O7 0.503678 0.916962 0.145617
O O8 0.198417 0.361115 0.303612
O O9 0.330497 0.382605 0.880287
O O10 0.856575 0.821548 0.647814
O O11 0.124246 0.724939 0.510207
#
# Coordination Sequence:
#
# PCOD8130020 Si02
#       6
#     8   8   8   8   4   8
#     4  11  24  37  64 101 131 160 213 269 313 372
#     4  10  20  38  67  88 127 170 213 251 318 379
#     4  11  21  42  67  93 125 175 213 255 319 384
#     4  11  20  41  64  93 128 166 204 268 324 370
#     4  10  16  36  64  88 110 168 218 244 296 382
#     4  10  21  40  63  90 128 169 209 255 315 379
#
# _framework density 24.051991000000001
#
# number of rings (size 3 to 8) (size 9 to 14) (size 15 to 20)
#    0.000    1.455    3.636    3.273    0.000    0.000 
#    3.273    3.636   24.000    0.000    0.000    0.000 
#    0.000    0.000    0.000    0.000    0.000    0.000 
#
# Total GULP energy -272771.477365 kJ/mol
# GULP energy per Si atom -12398.703517 kJ/mol
# Density = 2.399725 g / cm^3
# Si number density = 24.051991 Si / 1000 Ang^3
#
#
#
# Elastic Constant Matrix: (Units=GPa)
#
#
# Indices 1 2 3 4 5 6 
#
# 1 103.1173 45.9642 41.0064 0.0000 -7.0200 0.0000
# 2 45.9642 92.8406 19.1101 0.0000 5.1354 0.0000
# 3 41.0064 19.1101 122.5752 0.0000 1.1532 0.0000
# 4 0.0000 0.0000 0.0000 28.3904 0.0000 -2.3432
# 5 -7.0200 5.1354 1.1532 0.0000 22.2161 0.0000
# 6 0.0000 0.0000 0.0000 -2.3432 0.0000 37.6021
#
#
#
# Elastic Compliance Matrix: (Units=1/GPa)
#
#
# Indices 1 2 3 4 5 6 
#
# 1 0.014753 -0.006852 -0.003928 0.000000 0.006450 0.000000
# 2 -0.006852 0.014450 0.000091 0.000000 -0.005510 0.000000
# 3 -0.003928 0.000091 0.009475 0.000000 -0.001754 0.000000
# 4 0.000000 0.000000 0.000000 0.035405 0.000000 0.002206
# 5 0.006450 -0.005510 -0.001754 0.000000 0.048415 0.000000
# 6 0.000000 0.000000 0.000000 0.002206 0.000000 0.026732
#
#
# Mechanical properties :
#
#
# Convention : Reuss Voigt Hill
#
# Bulk Modulus (GPa) = 57.80427 58.96604 58.38515
# Shear Modulus (GPa) = 28.34890 31.80523 30.07707
#
# Velocity S-wave (km/s) = 3.43687 3.64036 3.54008
# Velocity P-wave (km/s) = 6.31147 6.49915 6.40600
#
# Compressibility (1/GPa) = 0.01729976
#
# Stress axis : x y z
#
# Youngs Moduli (GPa) = 67.78190 69.20592 105.54603
#
# Poissons Ratio (x) = 0.47422 0.41457
# Poissons Ratio (y) = 0.46447 -0.00965
# Poissons Ratio (z) = 0.26624 -0.00633
#
# Static dielectric constant tensor:
#      x y z
#    x 4.449790 0.000000 -0.310690 
#    y 0.000000 4.576910 0.000000 
#    z -0.310690 0.000000 4.565980 
# 
# 
# High freq. dielectric constant tensor:
#      x y z
#    x 1.937980 0.000000 -0.019380 
#    y 0.000000 1.960550 0.000000 
#    z -0.019380 0.000000 1.977550 
# 
# From -- ./inp_files/182235.got.cif
#   From: 2010.06.25/outbox.cif.g09.slc.cpg/sg15_92_cif.got.tgz:182235.got - 2010.06.28 07:06:18.
