data_PCOD8130789
_publ_section_title
;
Structure prediction by ZEFSAII (Michael W. Deem and Ramdas Pophale) SiO2 
 PCOD8130789
Probable space group: C 2/C
;
_chemical_formula_sum "Si O2"
_cell_formula_units_Z 48
_cell_length_a 20.760608
_cell_length_b 17.017405
_cell_length_c 14.322648
_cell_angle_alpha 90.000000
_cell_angle_beta 24.949876
_cell_angle_gamma 90.000000
_cell_volume 2134.466189
_symmetry_space_group_name_H-M "C 2/C"
_symmetry_group_IT_number 15
_symmetry_cell_setting 'monoclinic'
loop_
_space_group_symop_operation_xyz
x,y,z
-x,y,1/2-z
-x,-y,-z
x,-y,1/2+z
1/2+x,1/2+y,z
1/2-x,1/2+y,1/2-z
1/2-x,1/2-y,-z
1/2+x,1/2-y,1/2+z
loop_
_atom_site_type_symbol
_atom_site_label
_atom_site_fract_x
_atom_site_fract_y
_atom_site_fract_z
Si Si1 0.684258 0.659324 0.870799
Si Si2 0.484060 0.796949 0.073342
Si Si3 0.266690 0.336398 0.578885
Si Si4 0.750426 0.495829 0.830820
Si Si5 0.662882 0.832060 0.514481
Si Si6 0.992327 0.542897 0.868320
O O1 0.534779 0.713357 0.052257
O O2 0.645435 0.574985 0.970733
O O3 0.753896 0.628532 0.681761
O O4 0.810744 0.708819 0.762916
O O5 0.593112 0.823227 0.844515
O O6 0.492329 0.862887 0.142335
O O7 0.342101 0.414976 0.525594
O O8 0.363784 0.259980 0.479722
O O9 0.270612 0.341954 0.462101
O O10 0.833566 0.486878 0.621557
O O11 0.871925 0.499726 0.755359
O O12 0.500000 0.872060 0.750000
O O13 0.000000 0.519491 0.750000
#
# Coordination Sequence:
#
# PCOD8130789 Si02
#       6
#     8   8   8   8   8   8
#     4  10  19  32  53  77 107 137 173 216 263 313
#     4   9  18  34  49  74 105 138 173 214 258 311
#     4   9  18  31  46  74 108 135 171 218 261 314
#     4   9  19  31  48  77 104 133 174 224 260 302
#     4  10  18  28  50  77 102 138 170 209 271 324
#     4   9  18  31  50  73 100 134 171 222 261 295
#
# _framework density 22.488059
#
# number of rings (size 3 to 8) (size 9 to 14) (size 15 to 20)
#    0.000    2.667    1.667    1.000    2.333    0.000 
#    0.000    3.333    0.000   12.000    0.000    0.000 
#    0.000    0.000    0.000    0.000    0.000    0.000 
#
# Total GULP energy -297382.997943 kJ/mol
# GULP energy per Si atom -12390.958248 kJ/mol
# Density = 2.243687 g / cm^3
# Si number density = 22.488059 Si / 1000 Ang^3
#
#
#
# Elastic Constant Matrix: (Units=GPa)
#
#
# Indices 1 2 3 4 5 6 
#
# 1 90.1687 32.7940 13.4078 -0.0007 19.5017 0.0007
# 2 32.7940 140.1764 3.4207 -0.0002 6.0496 0.0001
# 3 13.4078 3.4207 23.0967 -0.0005 8.0279 0.0012
# 4 -0.0007 -0.0002 -0.0005 13.6808 0.0009 -1.6405
# 5 19.5017 6.0496 8.0279 0.0009 18.2235 -0.0011
# 6 0.0007 0.0001 0.0012 -1.6405 -0.0011 30.6589
#
#
#
# Elastic Compliance Matrix: (Units=1/GPa)
#
#
# Indices 1 2 3 4 5 6 
#
# 1 0.015831 -0.002995 -0.003783 0.000002 -0.014280 -0.000001
# 2 -0.002995 0.007806 0.000436 0.000000 0.000422 0.000000
# 3 -0.003783 0.000436 0.052039 0.000003 -0.019021 -0.000002
# 4 0.000002 0.000000 0.000003 0.073567 -0.000006 0.003936
# 5 -0.014280 0.000422 -0.019021 -0.000006 0.078395 0.000003
# 6 -0.000001 0.000000 -0.000002 0.003936 0.000003 0.032828
#
#
# Mechanical properties :
#
#
# Convention : Reuss Voigt Hill
#
# Bulk Modulus (GPa) = 15.87510 39.18741 27.53125
# Shear Modulus (GPa) = 16.99839 26.10062 21.54950
#
# Velocity S-wave (km/s) = 2.75232 3.41052 3.09894
# Velocity P-wave (km/s) = 4.14428 5.74217 5.00737
#
# Compressibility (1/GPa) = 0.06299172
#
# Stress axis : x y z
#
# Youngs Moduli (GPa) = 63.16893 128.11175 19.21645
#
# Poissons Ratio (x) = 0.38369 0.07269
# Poissons Ratio (y) = 0.18919 -0.00838
# Poissons Ratio (z) = 0.23895 -0.05585
#
# Static dielectric constant tensor:
#      x y z
#    x 3.791770 0.000000 0.244110 
#    y 0.000000 4.255170 0.000000 
#    z 0.244110 0.000000 3.513400 
# 
# 
# High freq. dielectric constant tensor:
#      x y z
#    x 1.870870 0.000000 0.020520 
#    y 0.000000 1.904450 0.000000 
#    z 0.020520 0.000000 1.826870 
# 
# From -- ./inp_files/168816.got.cif
#   From: 2010.06.25/outbox.cif.g09.slc.cpg/sg15_85_cif.got.tgz:168816.got - 2010.06.28 07:06:18.
