data_PCOD8130098
_publ_section_title
;
Structure prediction by ZEFSAII (Michael W. Deem and Ramdas Pophale) SiO2 
 PCOD8130098
Probable space group: C 2/C
;
_chemical_formula_sum "Si O2"
_cell_formula_units_Z 56
_cell_length_a 17.915335
_cell_length_b 14.571765
_cell_length_c 18.599376
_cell_angle_alpha 90.000000
_cell_angle_beta 143.348193
_cell_angle_gamma 90.000000
_cell_volume 2898.503415
_symmetry_space_group_name_H-M "C 2/C"
_symmetry_group_IT_number 15
_symmetry_cell_setting 'monoclinic'
loop_
_space_group_symop_operation_xyz
x,y,z
-x,y,1/2-z
-x,-y,-z
x,-y,1/2+z
1/2+x,1/2+y,z
1/2-x,1/2+y,1/2-z
1/2-x,1/2-y,-z
1/2+x,1/2-y,1/2+z
loop_
_atom_site_type_symbol
_atom_site_label
_atom_site_fract_x
_atom_site_fract_y
_atom_site_fract_z
Si Si1 0.152394 0.742661 0.741062
Si Si2 0.995848 0.795724 0.429640
Si Si3 0.788144 0.109757 0.329033
Si Si4 0.735173 0.583158 0.757393
Si Si5 0.481376 0.137397 0.319549
Si Si6 0.405621 0.004574 0.493643
Si Si7 0.393163 0.213729 0.495293
O O1 0.200000 0.831839 0.734794
O O2 0.164115 0.648145 0.705008
O O3 0.251535 0.739430 0.886307
O O4 0.999656 0.750149 0.636284
O O5 0.884313 0.857755 0.314623
O O6 0.043518 0.726523 0.404912
O O7 0.954722 0.734931 0.465875
O O8 0.103605 0.866799 0.531815
O O9 0.663061 0.137946 0.272256
O O10 0.795195 0.001946 0.318157
O O11 0.782824 0.547775 0.871078
O O12 0.500000 0.143627 0.250000
O O13 0.543031 0.044178 0.395816
O O14 0.500000 0.000000 0.500000
O O15 0.371680 0.106693 0.490820
#
# Coordination Sequence:
#
# PCOD8130098 Si02
#       7
#     8   8   8   8   8   8   8
#     4  10  17  28  48  78 109 137 178 236 296 325
#     4  10  21  34  50  81 115 144 184 239 301 337
#     4  11  19  35  52  78 114 146 193 234 283 348
#     4  11  18  31  57  80 107 142 192 246 284 333
#     4  12  24  36  54  82 119 160 193 225 285 364
#     4  12  17  34  56  75 105 151 193 247 272 326
#     4  10  17  29  52  76 108 137 180 240 288 326
#
# _framework density 19.320315000000001
#
# number of rings (size 3 to 8) (size 9 to 14) (size 15 to 20)
#    0.000    1.143    8.571    1.286    0.000    0.571 
#    0.000    0.000    0.000    0.000    0.000    9.000 
#    0.000    1.429    0.000    0.000    0.000    0.000 
#
# Total GULP energy -346956.791562 kJ/mol
# GULP energy per Si atom -12391.313984 kJ/mol
# Density = 1.927634 g / cm^3
# Si number density = 19.320315 Si / 1000 Ang^3
#
#
#
# Elastic Constant Matrix: (Units=GPa)
#
#
# Indices 1 2 3 4 5 6 
#
# 1 11.1234 1.3695 14.6346 0.0001 -0.9516 0.0000
# 2 1.3695 89.2290 20.5202 0.0000 4.6631 0.0000
# 3 14.6346 20.5202 136.6606 -0.0001 26.9298 0.0000
# 4 0.0001 0.0000 -0.0001 39.5421 0.0000 2.8417
# 5 -0.9516 4.6631 26.9298 0.0000 25.6441 0.0000
# 6 0.0000 0.0000 0.0000 2.8417 0.0000 9.6880
#
#
#
# Elastic Compliance Matrix: (Units=1/GPa)
#
#
# Indices 1 2 3 4 5 6 
#
# 1 0.113288 0.000935 -0.016476 0.000000 0.021336 -0.000001
# 2 0.000935 0.011618 -0.001810 0.000000 -0.000177 0.000000
# 3 -0.016476 -0.001810 0.011864 0.000000 -0.012741 0.000000
# 4 0.000000 0.000000 0.000000 0.025834 0.000000 -0.007578
# 5 0.021336 -0.000177 -0.012741 0.000000 0.053199 0.000000
# 6 -0.000001 0.000000 0.000000 -0.007578 0.000000 0.105443
#
#
# Mechanical properties :
#
#
# Convention : Reuss Voigt Hill
#
# Bulk Modulus (GPa) = 9.79734 34.45128 22.12431
# Shear Modulus (GPa) = 12.82145 28.34076 20.58111
#
# Velocity S-wave (km/s) = 2.57889 3.83415 3.26737
# Velocity P-wave (km/s) = 3.73491 6.12138 5.07055
#
# Compressibility (1/GPa) = 0.10206854
#
# Stress axis : x y z
#
# Youngs Moduli (GPa) = 8.82708 86.07164 84.28626
#
# Poissons Ratio (x) = -0.08050 1.38874
# Poissons Ratio (y) = -0.00826 0.15253
# Poissons Ratio (z) = 0.14544 0.15577
#
# Static dielectric constant tensor:
#      x y z
#    x 2.902130 0.000000 0.311050 
#    y 0.000000 3.716240 0.000000 
#    z 0.311050 0.000000 4.245490 
# 
# 
# High freq. dielectric constant tensor:
#      x y z
#    x 1.665440 0.000000 0.029530 
#    y 0.000000 1.768590 0.000000 
#    z 0.029530 0.000000 1.779620 
# 
# From -- ./inp_files/123293.got.cif
#   From: 2010.06.25/outbox.cif.g09.slc.cpg/sg15_62_cif.got.tgz:123293.got - 2010.06.28 07:06:18.
