data_PCOD8130431
_publ_section_title
;
Structure prediction by ZEFSAII (Michael W. Deem and Ramdas Pophale) SiO2 
 PCOD8130431
Probable space group: C 2/C
;
_chemical_formula_sum "Si O2"
_cell_formula_units_Z 44
_cell_length_a 14.833207
_cell_length_b 13.535989
_cell_length_c 13.319801
_cell_angle_alpha 90.000000
_cell_angle_beta 97.489079
_cell_angle_gamma 90.000000
_cell_volume 2651.564787
_symmetry_space_group_name_H-M "C 2/C"
_symmetry_group_IT_number 15
_symmetry_cell_setting 'monoclinic'
loop_
_space_group_symop_operation_xyz
x,y,z
-x,y,1/2-z
-x,-y,-z
x,-y,1/2+z
1/2+x,1/2+y,z
1/2-x,1/2+y,1/2-z
1/2-x,1/2-y,-z
1/2+x,1/2-y,1/2+z
loop_
_atom_site_type_symbol
_atom_site_label
_atom_site_fract_x
_atom_site_fract_y
_atom_site_fract_z
Si Si1 0.500000 0.761496 0.250000
Si Si2 0.228724 0.535122 0.269500
Si Si3 0.916384 0.424611 0.371036
Si Si4 0.752085 0.615236 0.572520
Si Si5 0.826944 0.177707 0.138129
Si Si6 0.597166 0.032096 0.413819
O O1 0.434856 0.825531 0.312024
O O2 0.433856 0.695735 0.171302
O O3 0.178094 0.471343 0.177574
O O4 0.288079 0.458606 0.347212
O O5 0.291579 0.616727 0.228841
O O6 0.152205 0.586198 0.331628
O O7 0.907647 0.399259 0.488138
O O8 0.996486 0.503709 0.363250
O O9 0.767001 0.723370 0.621329
O O10 0.683963 0.617794 0.467748
O O11 0.850707 0.571748 0.552416
#
# Coordination Sequence:
#
# PCOD8130431 Si02
#       6
#     4   8   8   8   8   8
#     4  12  20  34  54  82 102 140 188 212 262 312
#     4  10  17  33  50  78 109 140 170 212 273 308
#     4  11  16  31  52  81 110 127 172 226 259 310
#     4   9  19  32  50  83 104 134 179 212 263 311
#     4  11  20  33  55  79 105 141 177 222 256 321
#     4   9  18  28  52  79 107 133 165 221 265 305
#
# _framework density 16.593973999999999
#
# number of rings (size 3 to 8) (size 9 to 14) (size 15 to 20)
#    1.091    0.727    7.273    0.000    0.000    0.000 
#    0.000    1.818    0.000    0.000    4.727    0.000 
#    0.000    0.000    0.000    0.000    0.000    0.000 
#
# Total GULP energy -272587.093699 kJ/mol
# GULP energy per Si atom -12390.322441 kJ/mol
# Density = 1.655621 g / cm^3
# Si number density = 16.593974 Si / 1000 Ang^3
#
#
#
# Elastic Constant Matrix: (Units=GPa)
#
#
# Indices 1 2 3 4 5 6 
#
# 1 37.8277 19.0839 23.5747 0.0000 2.1871 0.0000
# 2 19.0839 54.2914 31.1979 0.0000 -6.1025 0.0000
# 3 23.5747 31.1979 102.7121 0.0000 0.2941 0.0000
# 4 0.0000 0.0000 0.0000 29.5109 0.0000 -2.3141
# 5 2.1871 -6.1025 0.2941 0.0000 22.2142 0.0000
# 6 0.0000 0.0000 0.0000 -2.3141 0.0000 18.5756
#
#
#
# Elastic Compliance Matrix: (Units=1/GPa)
#
#
# Indices 1 2 3 4 5 6 
#
# 1 0.034989 -0.010162 -0.004927 0.000000 -0.006171 0.000000
# 2 -0.010162 0.026159 -0.005637 0.000000 0.008261 0.000000
# 3 -0.004927 -0.005637 0.012582 0.000000 -0.001230 0.000000
# 4 0.000000 0.000000 0.000000 0.034220 0.000000 0.004263
# 5 -0.006171 0.008261 -0.001230 0.000000 0.047910 0.000000
# 6 0.000000 0.000000 0.000000 0.004263 0.000000 0.054365
#
#
# Mechanical properties :
#
#
# Convention : Reuss Voigt Hill
#
# Bulk Modulus (GPa) = 30.97876 38.06046 34.51961
# Shear Modulus (GPa) = 19.05227 22.12511 20.58869
#
# Velocity S-wave (km/s) = 3.39210 3.65543 3.52623
# Velocity P-wave (km/s) = 5.83533 6.38767 6.11773
#
# Compressibility (1/GPa) = 0.03228019
#
# Stress axis : x y z
#
# Youngs Moduli (GPa) = 28.58009 38.22804 79.47625
#
# Poissons Ratio (x) = 0.38846 0.39155
# Poissons Ratio (y) = 0.29042 0.44799
# Poissons Ratio (z) = 0.14080 0.21548
#
# Static dielectric constant tensor:
#      x y z
#    x 2.805620 0.000000 0.031880 
#    y 0.000000 2.809800 0.000000 
#    z 0.031880 0.000000 3.368800 
# 
# 
# High freq. dielectric constant tensor:
#      x y z
#    x 1.604760 0.000000 0.004600 
#    y 0.000000 1.598590 0.000000 
#    z 0.004600 0.000000 1.663840 
# 
# From -- ./inp_files/153095.got.cif
#   From: 2010.06.25/outbox.cif.g09.slc.cpg/sg15_77_cif.got.tgz:153095.got - 2010.06.28 07:06:18.
