data_PCOD8130249
_publ_section_title
;
Structure prediction by ZEFSAII (Michael W. Deem and Ramdas Pophale) SiO2 
 PCOD8130249
Probable space group: C 2/C
;
_chemical_formula_sum "Si O2"
_cell_formula_units_Z 56
_cell_length_a 27.591032
_cell_length_b 17.216664
_cell_length_c 18.154044
_cell_angle_alpha 90.000000
_cell_angle_beta 160.732669
_cell_angle_gamma 90.000000
_cell_volume 2845.594094
_symmetry_space_group_name_H-M "C 2/C"
_symmetry_group_IT_number 15
_symmetry_cell_setting 'monoclinic'
loop_
_space_group_symop_operation_xyz
x,y,z
-x,y,1/2-z
-x,-y,-z
x,-y,1/2+z
1/2+x,1/2+y,z
1/2-x,1/2+y,1/2-z
1/2-x,1/2-y,-z
1/2+x,1/2-y,1/2+z
loop_
_atom_site_type_symbol
_atom_site_label
_atom_site_fract_x
_atom_site_fract_y
_atom_site_fract_z
Si Si1 0.895618 0.873677 0.432039
Si Si2 0.857714 0.458347 0.503041
Si Si3 0.643490 0.748286 0.505224
Si Si4 0.689774 0.135288 0.852460
Si Si5 0.857255 0.993382 0.507086
Si Si6 0.282403 0.387536 0.645845
Si Si7 0.419594 0.952410 0.947038
O O1 0.881384 0.788796 0.449719
O O2 0.907394 0.938420 0.512296
O O3 0.042234 0.880638 0.593030
O O4 0.755895 0.888799 0.178454
O O5 0.771753 0.523961 0.426747
O O6 0.922012 0.493558 0.521369
O O7 0.000000 0.425020 0.750000
O O8 0.775678 0.705233 0.652486
O O9 0.697789 0.838027 0.588522
O O10 0.500000 0.737586 0.250000
O O11 0.511833 0.125826 0.594752
O O12 0.773008 0.057359 0.947053
O O13 0.736166 0.152508 0.002546
O O14 0.000000 0.031711 0.750000
O O15 0.749939 0.061480 0.322187
O O16 0.500000 0.000000 0.000000
#
# Coordination Sequence:
#
# PCOD8130249 Si02
#       7
#     8   8   8   8   8   8   8
#     4  10  21  37  51  79 117 151 180 229 289 334
#     4  11  22  36  56  84 113 145 192 235 276 326
#     4  11  22  34  54  82 115 151 179 218 289 354
#     4  10  17  31  49  77 113 147 174 221 278 335
#     4   9  15  30  51  73 111 153 183 218 273 338
#     4  12  21  33  55  84 115 144 179 234 284 333
#     4   9  19  31  50  77 110 149 184 221 271 330
#
# _framework density 19.679546999999999
#
# number of rings (size 3 to 8) (size 9 to 14) (size 15 to 20)
#    0.000    1.714    4.286    3.000    0.000    0.000 
#    0.000    0.000    0.000    0.857    0.000    6.000 
#    0.000    0.000    0.000    0.000    0.000    0.000 
#
# Total GULP energy -347078.431340 kJ/mol
# GULP energy per Si atom -12395.658262 kJ/mol
# Density = 1.963476 g / cm^3
# Si number density = 19.679547 Si / 1000 Ang^3
#
#
#
# Elastic Constant Matrix: (Units=GPa)
#
#
# Indices 1 2 3 4 5 6 
#
# 1 56.1525 -2.1564 20.4728 0.0001 6.1800 0.0000
# 2 -2.1564 44.7105 36.4303 0.0000 1.5125 0.0000
# 3 20.4728 36.4303 182.1025 0.0001 -7.3890 0.0000
# 4 0.0001 0.0000 0.0001 21.7889 0.0001 5.4032
# 5 6.1800 1.5125 -7.3890 0.0001 29.1756 0.0000
# 6 0.0000 0.0000 0.0000 5.4032 0.0000 17.5733
#
#
#
# Elastic Compliance Matrix: (Units=1/GPa)
#
#
# Indices 1 2 3 4 5 6 
#
# 1 0.019671 0.003699 -0.003161 0.000000 -0.005159 0.000000
# 2 0.003699 0.027640 -0.006098 0.000000 -0.003761 0.000000
# 3 -0.003161 -0.006098 0.007180 0.000000 0.002804 0.000000
# 4 0.000000 0.000000 0.000000 0.049683 0.000000 -0.015276
# 5 -0.005159 -0.003761 0.002804 0.000000 0.036273 0.000000
# 6 0.000000 0.000000 0.000000 -0.015276 0.000000 0.061601
#
#
# Mechanical properties :
#
#
# Convention : Reuss Voigt Hill
#
# Bulk Modulus (GPa) = 23.05662 43.60653 33.33157
# Shear Modulus (GPa) = 21.96583 28.92216 25.44399
#
# Velocity S-wave (km/s) = 3.34455 3.83777 3.59961
# Velocity P-wave (km/s) = 5.16296 6.46872 5.85237
#
# Compressibility (1/GPa) = 0.04337150
#
# Stress axis : x y z
#
# Youngs Moduli (GPa) = 50.83669 36.17898 139.26682
#
# Poissons Ratio (x) = -0.13381 0.44019
# Poissons Ratio (y) = -0.18803 0.84924
# Poissons Ratio (z) = 0.16068 0.22062
#
# Static dielectric constant tensor:
#      x y z
#    x 3.634540 0.000000 0.141460 
#    y 0.000000 3.356830 0.000000 
#    z 0.141460 0.000000 4.059840 
# 
# 
# High freq. dielectric constant tensor:
#      x y z
#    x 1.770610 0.000000 0.022100 
#    y 0.000000 1.716440 0.000000 
#    z 0.022100 0.000000 1.773990 
# 
# From -- ./inp_files/223100.got.cif
#   From: 2010.06.25/outbox.cif.g09.slc.cpg/sg15_112_cif.got.tgz:223100.got - 2010.06.28 07:06:18.
