data_PCOD8130062
_publ_section_title
;
Structure prediction by ZEFSAII (Michael W. Deem and Ramdas Pophale) SiO2 
 PCOD8130062
Probable space group: C 2/C
;
_chemical_formula_sum "Si O2"
_cell_formula_units_Z 60
_cell_length_a 31.375192
_cell_length_b 5.481999
_cell_length_c 16.391278
_cell_angle_alpha 90.000000
_cell_angle_beta 107.403907
_cell_angle_gamma 90.000000
_cell_volume 2690.212866
_symmetry_space_group_name_H-M "C 2/C"
_symmetry_group_IT_number 15
_symmetry_cell_setting 'monoclinic'
loop_
_space_group_symop_operation_xyz
x,y,z
-x,y,1/2-z
-x,-y,-z
x,-y,1/2+z
1/2+x,1/2+y,z
1/2-x,1/2+y,1/2-z
1/2-x,1/2-y,-z
1/2+x,1/2-y,1/2+z
loop_
_atom_site_type_symbol
_atom_site_label
_atom_site_fract_x
_atom_site_fract_y
_atom_site_fract_z
Si Si1 0.671078 0.440776 0.079923
Si Si2 0.697531 0.427974 0.283253
Si Si3 0.003683 0.760016 0.593978
Si Si4 0.842494 0.574692 0.740022
Si Si5 0.427919 0.405080 0.445977
Si Si6 0.500000 0.413884 0.250000
Si Si7 0.565087 0.112110 0.202982
Si Si8 0.799525 0.437869 0.388616
O O1 0.687669 0.425418 0.182264
O O2 0.618133 0.471345 0.035994
O O3 0.693303 0.687647 0.054318
O O4 0.688595 0.182411 0.051565
O O5 0.675821 0.673463 0.310698
O O6 0.750038 0.448397 0.325615
O O7 0.679046 0.173305 0.311237
O O8 0.957166 0.721500 0.519085
O O9 0.021018 0.504827 0.637347
O O10 0.994482 0.934145 0.664968
O O11 0.041487 0.859334 0.553465
O O12 0.895764 0.576015 0.750630
O O13 0.834166 0.579971 0.832609
O O14 0.413148 0.291703 0.351038
O O15 0.545691 0.255006 0.269954
#
# Coordination Sequence:
#
# PCOD8130062 Si02
#       8
#     8   8   8   8   8   4   8   8
#     4  10  17  28  43  73 105 148 172 220 260 344
#     4  10  17  28  43  74 108 149 174 219 274 341
#     4  10  21  37  56  75 110 146 186 243 279 339
#     4  10  18  27  48  70 105 142 181 220 271 336
#     4  10  20  33  54  83 107 145 192 224 293 336
#     4  10  24  38  54  78 104 150 194 238 284 332
#     4  11  20  36  54  79 108 151 187 236 289 331
#     4  10  17  27  45  69 114 146 176 211 282 336
#
# _framework density 22.303066999999999
#
# number of rings (size 3 to 8) (size 9 to 14) (size 15 to 20)
#    0.000    1.867    2.667    6.400    1.867    0.000 
#    0.000    0.000    0.000    0.000    0.000    0.000 
#    0.000   11.733    0.000    0.000    0.000    0.000 
#
# Total GULP energy -371739.489047 kJ/mol
# GULP energy per Si atom -12391.316302 kJ/mol
# Density = 2.225230 g / cm^3
# Si number density = 22.303067 Si / 1000 Ang^3
#
#
#
# Elastic Constant Matrix: (Units=GPa)
#
#
# Indices 1 2 3 4 5 6 
#
# 1 68.8720 18.2075 22.4018 0.0000 24.2608 0.0000
# 2 18.2075 165.0720 5.3574 0.0000 8.3932 0.0000
# 3 22.4018 5.3574 22.5347 0.0000 12.6248 0.0000
# 4 0.0000 0.0000 0.0000 13.5883 0.0000 10.7017
# 5 24.2608 8.3932 12.6248 0.0000 28.3826 0.0000
# 6 0.0000 0.0000 0.0000 10.7017 0.0000 23.5009
#
#
#
# Elastic Compliance Matrix: (Units=1/GPa)
#
#
# Indices 1 2 3 4 5 6 
#
# 1 0.025277 -0.001544 -0.017198 0.000000 -0.013500 0.000000
# 2 -0.001544 0.006251 0.000459 0.000000 -0.000733 0.000000
# 3 -0.017198 0.000459 0.070862 0.000000 -0.016956 0.000000
# 4 0.000000 0.000000 0.000000 0.114743 0.000000 -0.052251
# 5 -0.013500 -0.000733 -0.016956 0.000000 0.054531 0.000000
# 6 0.000000 0.000000 0.000000 -0.052251 0.000000 0.066345
#
#
# Mechanical properties :
#
#
# Convention : Reuss Voigt Hill
#
# Bulk Modulus (GPa) = 15.19159 38.71245 26.95202
# Shear Modulus (GPa) = 12.60983 27.12852 19.86917
#
# Velocity S-wave (km/s) = 2.38036 3.49142 2.98799
# Velocity P-wave (km/s) = 3.79224 5.80073 4.90049
#
# Compressibility (1/GPa) = 0.06582591
#
# Stress axis : x y z
#
# Youngs Moduli (GPa) = 39.56136 159.98484 14.11187
#
# Poissons Ratio (x) = 0.24694 0.24269
# Poissons Ratio (y) = 0.06106 -0.00648
# Poissons Ratio (z) = 0.68037 -0.07347
#
# Static dielectric constant tensor:
#      x y z
#    x 3.881100 0.000000 0.281480 
#    y 0.000000 5.223650 0.000000 
#    z 0.281480 0.000000 3.406120 
# 
# 
# High freq. dielectric constant tensor:
#      x y z
#    x 1.869220 0.000000 0.040510 
#    y 0.000000 1.902860 0.000000 
#    z 0.040510 0.000000 1.806840 
# 
# From -- ./inp_files/256592.got.cif
#   From: 2010.06.25/outbox.cif.g09.slc.cpg/sg15_129_cif.got.tgz:256592.got - 2010.06.28 07:06:18.
