data_PCOD8130973
_publ_section_title
;
Structure prediction by ZEFSAII (Michael W. Deem and Ramdas Pophale) SiO2 
 PCOD8130973
Probable space group: C 2/C
;
_chemical_formula_sum "Si O2"
_cell_formula_units_Z 48
_cell_length_a 14.234216
_cell_length_b 36.110913
_cell_length_c 5.734916
_cell_angle_alpha 90.000000
_cell_angle_beta 126.891380
_cell_angle_gamma 90.000000
_cell_volume 2357.582483
_symmetry_space_group_name_H-M "C 2/C"
_symmetry_group_IT_number 15
_symmetry_cell_setting 'monoclinic'
loop_
_space_group_symop_operation_xyz
x,y,z
-x,y,1/2-z
-x,-y,-z
x,-y,1/2+z
1/2+x,1/2+y,z
1/2-x,1/2+y,1/2-z
1/2-x,1/2-y,-z
1/2+x,1/2-y,1/2+z
loop_
_atom_site_type_symbol
_atom_site_label
_atom_site_fract_x
_atom_site_fract_y
_atom_site_fract_z
Si Si1 0.693938 0.596241 0.357830
Si Si2 0.500000 0.187182 0.250000
Si Si3 0.119592 0.160937 0.559754
Si Si4 0.500000 0.380941 0.250000
Si Si5 0.200657 0.711158 0.845068
Si Si6 0.638031 0.519271 0.438944
Si Si7 0.123867 0.352557 0.553780
O O1 0.688029 0.627408 0.542661
O O2 0.711663 0.557205 0.513527
O O3 0.800719 0.609169 0.346431
O O4 0.569363 0.592986 0.033808
O O5 0.571047 0.213786 0.534374
O O6 0.403608 0.159974 0.223411
O O7 0.095094 0.146933 0.782580
O O8 0.202745 0.196642 0.696235
O O9 0.000000 0.171368 0.250000
O O10 0.250000 0.750000 0.000000
O O11 0.193890 0.682077 0.046295
O O12 0.500000 0.526917 0.250000
O O13 0.672399 0.503168 0.748795
O O14 0.000000 0.360642 0.250000
#
# Coordination Sequence:
#
# PCOD8130973 Si02
#       7
#     8   4   8   4   8   8   8
#     4  10  20  34  55  81 113 151 189 234 289 348
#     4  10  20  38  59  84 104 148 198 238 298 348
#     4   9  19  33  52  79 107 141 183 231 289 339
#     4  10  18  30  55  82 108 138 186 234 278 352
#     4  10  21  37  55  79 114 146 185 239 289 354
#     4  10  22  36  55  87 129 164 197 239 300 369
#     4   9  20  39  59  82 109 145 199 245 287 343
#
# _framework density 20.359836999999999
#
# number of rings (size 3 to 8) (size 9 to 14) (size 15 to 20)
#    0.000    2.333    0.000    2.500    5.833    2.667 
#    0.000    8.333    0.000    1.000    0.000    0.000 
#    0.000    0.000    0.000    0.000    0.000    0.000 
#
# Total GULP energy -297338.860492 kJ/mol
# GULP energy per Si atom -12389.119187 kJ/mol
# Density = 2.031350 g / cm^3
# Si number density = 20.359837 Si / 1000 Ang^3
#
#
#
# Elastic Constant Matrix: (Units=GPa)
#
#
# Indices 1 2 3 4 5 6 
#
# 1 107.9812 59.2943 23.1895 0.0000 -13.2119 0.0000
# 2 59.2943 127.1289 37.8351 0.0000 2.3168 0.0000
# 3 23.1895 37.8351 63.0544 0.0000 -13.8367 0.0000
# 4 0.0000 0.0000 0.0000 11.8612 0.0000 4.7637
# 5 -13.2119 2.3168 -13.8367 0.0000 31.3473 0.0000
# 6 0.0000 0.0000 0.0000 4.7637 0.0000 23.0874
#
#
#
# Elastic Compliance Matrix: (Units=1/GPa)
#
#
# Indices 1 2 3 4 5 6 
#
# 1 0.013555 -0.006535 0.000328 0.000000 0.006341 0.000000
# 2 -0.006535 0.013107 -0.006951 0.000000 -0.006791 0.000000
# 3 0.000328 -0.006951 0.022204 0.000000 0.010453 0.000000
# 4 0.000000 0.000000 0.000000 0.091926 0.000000 -0.018967
# 5 0.006341 -0.006791 0.010453 0.000000 0.039689 0.000000
# 6 0.000000 0.000000 0.000000 -0.018967 0.000000 0.047227
#
#
# Mechanical properties :
#
#
# Convention : Reuss Voigt Hill
#
# Bulk Modulus (GPa) = 44.35102 59.86691 52.10897
# Shear Modulus (GPa) = 19.11746 25.11556 22.11651
#
# Velocity S-wave (km/s) = 3.06760 3.51605 3.29945
# Velocity P-wave (km/s) = 5.86326 6.77877 6.33757
#
# Compressibility (1/GPa) = 0.02254740
#
# Stress axis : x y z
#
# Youngs Moduli (GPa) = 73.77414 76.29675 45.03766
#
# Poissons Ratio (x) = 0.49862 -0.01476
# Poissons Ratio (y) = 0.48213 0.31307
# Poissons Ratio (z) = -0.02418 0.53037
#
# Static dielectric constant tensor:
#      x y z
#    x 4.184870 0.000000 -0.167710 
#    y 0.000000 3.446810 0.000000 
#    z -0.167710 0.000000 3.674760 
# 
# 
# High freq. dielectric constant tensor:
#      x y z
#    x 1.802260 0.000000 -0.013550 
#    y 0.000000 1.766330 0.000000 
#    z -0.013550 0.000000 1.786290 
# 
# From -- ./inp_files/9192.got.cif
#   From: 2010.06.25/outbox.cif.g09.slc.cpg/sg15_5_cif.got.tgz:9192.got - 2010.06.28 07:06:18.
