data_PCOD8130086
_publ_section_title
;
Structure prediction by ZEFSAII (Michael W. Deem and Ramdas Pophale) SiO2 
 PCOD8130086
Probable space group: C 2/C
;
_chemical_formula_sum "Si O2"
_cell_formula_units_Z 40
_cell_length_a 6.279330
_cell_length_b 33.692226
_cell_length_c 11.127403
_cell_angle_alpha 90.000000
_cell_angle_beta 107.966986
_cell_angle_gamma 90.000000
_cell_volume 2239.362410
_symmetry_space_group_name_H-M "C 2/C"
_symmetry_group_IT_number 15
_symmetry_cell_setting 'monoclinic'
loop_
_space_group_symop_operation_xyz
x,y,z
-x,y,1/2-z
-x,-y,-z
x,-y,1/2+z
1/2+x,1/2+y,z
1/2-x,1/2+y,1/2-z
1/2-x,1/2-y,-z
1/2+x,1/2-y,1/2+z
loop_
_atom_site_type_symbol
_atom_site_label
_atom_site_fract_x
_atom_site_fract_y
_atom_site_fract_z
Si Si1 0.188463 0.778749 0.379990
Si Si2 0.500000 0.185675 0.750000
Si Si3 0.087531 0.939470 0.052204
Si Si4 0.500000 0.031210 0.750000
Si Si5 0.944711 0.143370 0.873103
Si Si6 0.305344 0.497069 0.621804
O O1 0.250000 0.750000 0.500000
O O2 0.411944 0.786418 0.342314
O O3 0.000000 0.763514 0.250000
O O4 0.107024 0.819543 0.429121
O O5 0.690321 0.157806 0.838538
O O6 0.280789 0.942167 0.188257
O O7 0.016608 0.893256 0.028330
O O8 0.202904 0.955578 0.951253
O O9 0.869836 0.966003 0.045790
O O10 0.564648 0.003945 0.645010
O O11 0.000000 0.127031 0.750000
O O12 0.500000 0.491308 0.750000
#
# Coordination Sequence:
#
# PCOD8130086 Si02
#       6
#     8   4   8   4   8   8
#     4   9  19  34  55  80 103 131 165 205 252 311
#     4   8  17  32  52  76 102 126 158 210 252 290
#     4  10  18  30  48  70  94 128 162 208 242 286
#     4  10  17  28  46  70  90 122 176 202 240 284
#     4   9  17  29  49  77  99 122 161 207 249 286
#     4   9  19  31  45  65  96 133 168 198 242 287
#
# _framework density 17.862227000000001
#
# number of rings (size 3 to 8) (size 9 to 14) (size 15 to 20)
#    0.000    3.200    0.000    3.000    0.000    4.800 
#    0.000    0.000    6.600    0.000    2.600    0.000 
#    0.000    0.000    0.000    0.000    0.000    0.000 
#
# Total GULP energy -247831.391707 kJ/mol
# GULP energy per Si atom -12391.569585 kJ/mol
# Density = 1.782157 g / cm^3
# Si number density = 17.862227 Si / 1000 Ang^3
#
#
#
# Elastic Constant Matrix: (Units=GPa)
#
#
# Indices 1 2 3 4 5 6 
#
# 1 104.2894 42.5610 27.0513 0.0000 -24.2907 0.0000
# 2 42.5610 136.3798 58.8252 0.0000 -11.7173 0.0000
# 3 27.0513 58.8252 63.9110 0.0000 -13.2641 0.0000
# 4 0.0000 0.0000 0.0000 33.8468 0.0000 -3.1084
# 5 -24.2907 -11.7173 -13.2641 0.0000 26.7167 0.0000
# 6 0.0000 0.0000 0.0000 -3.1084 0.0000 13.0524
#
#
#
# Elastic Compliance Matrix: (Units=1/GPa)
#
#
# Indices 1 2 3 4 5 6 
#
# 1 0.013455 -0.002953 -0.000788 0.000000 0.010547 0.000000
# 2 -0.002953 0.012810 -0.011073 0.000000 -0.002564 0.000000
# 3 -0.000788 -0.011073 0.027889 0.000000 0.008273 0.000000
# 4 0.000000 0.000000 0.000000 0.030205 0.000000 0.007193
# 5 0.010547 -0.002564 0.008273 0.000000 0.050002 0.000000
# 6 0.000000 0.000000 0.000000 0.007193 0.000000 0.078327
#
#
# Mechanical properties :
#
#
# Convention : Reuss Voigt Hill
#
# Bulk Modulus (GPa) = 40.77309 62.38391 51.57850
# Shear Modulus (GPa) = 19.96085 26.46605 23.21345
#
# Velocity S-wave (km/s) = 3.34651 3.85343 3.60888
# Velocity P-wave (km/s) = 6.14884 7.40267 6.80469
#
# Compressibility (1/GPa) = 0.02452598
#
# Stress axis : x y z
#
# Youngs Moduli (GPa) = 74.32365 78.06604 35.85654
#
# Poissons Ratio (x) = 0.23051 0.02826
# Poissons Ratio (y) = 0.21946 0.39703
# Poissons Ratio (z) = 0.05859 0.86440
#
# Static dielectric constant tensor:
#      x y z
#    x 3.492000 0.000000 -0.212380 
#    y 0.000000 3.098420 0.000000 
#    z -0.212380 0.000000 3.152630 
# 
# 
# High freq. dielectric constant tensor:
#      x y z
#    x 1.705960 0.000000 -0.014770 
#    y 0.000000 1.668070 0.000000 
#    z -0.014770 0.000000 1.663150 
# 
# From -- ./inp_files/73643.got.cif
#   From: 2010.06.25/outbox.cif.g09.slc.cpg/sg15_37_cif.got.tgz:73643.got - 2010.06.28 07:06:18.
