data_PCOD8130419
_publ_section_title
;
Structure prediction by ZEFSAII (Michael W. Deem and Ramdas Pophale) SiO2 
 PCOD8130419
Probable space group: C 2/C
;
_chemical_formula_sum "Si O2"
_cell_formula_units_Z 56
_cell_length_a 11.117453
_cell_length_b 19.958657
_cell_length_c 20.004355
_cell_angle_alpha 90.000000
_cell_angle_beta 140.084893
_cell_angle_gamma 90.000000
_cell_volume 2848.135483
_symmetry_space_group_name_H-M "C 2/C"
_symmetry_group_IT_number 15
_symmetry_cell_setting 'monoclinic'
loop_
_space_group_symop_operation_xyz
x,y,z
-x,y,1/2-z
-x,-y,-z
x,-y,1/2+z
1/2+x,1/2+y,z
1/2-x,1/2+y,1/2-z
1/2-x,1/2-y,-z
1/2+x,1/2-y,1/2+z
loop_
_atom_site_type_symbol
_atom_site_label
_atom_site_fract_x
_atom_site_fract_y
_atom_site_fract_z
Si Si1 0.683839 0.945125 0.695702
Si Si2 0.807160 0.050742 0.641558
Si Si3 0.722993 0.968541 0.332014
Si Si4 0.979513 0.634566 0.553545
Si Si5 0.720635 0.687373 0.330180
Si Si6 0.208144 0.495396 0.468022
Si Si7 0.840553 0.327110 0.236940
O O1 0.732202 0.867591 0.706147
O O2 0.462460 0.952580 0.611617
O O3 0.751494 0.984400 0.658756
O O4 0.784594 0.974998 0.804819
O O5 0.641520 0.104846 0.574665
O O6 0.845745 0.026438 0.582135
O O7 0.000000 0.083077 0.750000
O O8 0.500000 0.968161 0.250000
O O9 0.779936 0.895588 0.325358
O O10 0.818036 0.985925 0.444315
O O11 0.837584 0.677529 0.448316
O O12 0.868428 0.576349 0.543174
O O13 0.073947 0.678567 0.652017
O O14 0.500000 0.683875 0.250000
O O15 0.781535 0.759841 0.326508
O O16 0.000000 0.326552 0.250000
#
# Coordination Sequence:
#
# PCOD8130419 Si02
#       7
#     8   8   8   8   8   8   8
#     4  10  17  33  54  85 111 140 180 237 280 328
#     4  11  20  32  58  84 110 144 197 232 270 330
#     4   9  16  32  57  82 110 148 186 220 288 340
#     4  11  19  37  57  78 111 153 185 226 283 333
#     4  11  23  33  56  89 116 142 186 232 279 340
#     4  10  17  32  60  82 109 146 186 229 285 333
#     4  10  19  35  55  83 113 152 181 223 287 350
#
# _framework density 19.661985999999999
#
# number of rings (size 3 to 8) (size 9 to 14) (size 15 to 20)
#    0.000    1.714    8.571    1.286    0.000    2.286 
#    0.000    0.714    6.286    3.429    0.000    0.000 
#    0.000    0.000    0.000    0.000    0.000    0.000 
#
# Total GULP energy -347054.832128 kJ/mol
# GULP energy per Si atom -12394.815433 kJ/mol
# Density = 1.961723 g / cm^3
# Si number density = 19.661986 Si / 1000 Ang^3
#
#
#
# Elastic Constant Matrix: (Units=GPa)
#
#
# Indices 1 2 3 4 5 6 
#
# 1 51.9508 45.7037 52.1452 0.0001 -27.8528 0.0001
# 2 45.7037 108.4529 40.0858 0.0000 -33.3875 0.0000
# 3 52.1452 40.0858 124.4835 0.0006 -40.8973 0.0006
# 4 0.0001 0.0000 0.0006 24.0856 0.0002 -5.0445
# 5 -27.8528 -33.3875 -40.8973 0.0002 38.8897 0.0002
# 6 0.0001 0.0000 0.0006 -5.0445 0.0002 16.3712
#
#
#
# Elastic Compliance Matrix: (Units=1/GPa)
#
#
# Indices 1 2 3 4 5 6 
#
# 1 0.049121 -0.012604 -0.013009 0.000000 0.010678 0.000000
# 2 -0.012604 0.015815 0.002570 0.000000 0.007253 0.000000
# 3 -0.013009 0.002570 0.015766 -0.000001 0.009469 -0.000001
# 4 0.000000 0.000000 -0.000001 0.044383 -0.000001 0.013676
# 5 0.010678 0.007253 0.009469 -0.000001 0.049546 -0.000001
# 6 0.000000 0.000000 -0.000001 0.013676 -0.000001 0.065297
#
#
# Mechanical properties :
#
#
# Convention : Reuss Voigt Hill
#
# Bulk Modulus (GPa) = 28.88954 62.30631 45.59793
# Shear Modulus (GPa) = 16.80370 25.66614 21.23492
#
# Velocity S-wave (km/s) = 2.92658 3.61691 3.28990
# Velocity P-wave (km/s) = 5.11320 7.01429 6.13779
#
# Compressibility (1/GPa) = 0.03461460
#
# Stress axis : x y z
#
# Youngs Moduli (GPa) = 20.35800 63.23003 63.42756
#
# Poissons Ratio (x) = 0.79698 0.82515
# Poissons Ratio (y) = 0.25660 -0.16301
# Poissons Ratio (z) = 0.26484 -0.16250
#
# Static dielectric constant tensor:
#      x y z
#    x 3.552030 0.000000 -0.411060 
#    y 0.000000 3.818210 0.000000 
#    z -0.411060 0.000000 3.805360 
# 
# 
# High freq. dielectric constant tensor:
#      x y z
#    x 1.748930 0.000000 -0.025310 
#    y 0.000000 1.742080 0.000000 
#    z -0.025310 0.000000 1.768220 
# 
# From -- ./inp_files/240300.got.cif
#   From: 2010.06.25/outbox.cif.g09.slc.cpg/sg15_121_cif.got.tgz:240300.got - 2010.06.28 07:06:18.
