data_PCOD8130901
_publ_section_title
;
Structure prediction by ZEFSAII (Michael W. Deem and Ramdas Pophale) SiO2 
 PCOD8130901
Probable space group: C 2/C
;
_chemical_formula_sum "Si O2"
_cell_formula_units_Z 60
_cell_length_a 26.574957
_cell_length_b 6.334043
_cell_length_c 23.599569
_cell_angle_alpha 90.000000
_cell_angle_beta 115.622709
_cell_angle_gamma 90.000000
_cell_volume 3581.797515
_symmetry_space_group_name_H-M "C 2/C"
_symmetry_group_IT_number 15
_symmetry_cell_setting 'monoclinic'
loop_
_space_group_symop_operation_xyz
x,y,z
-x,y,1/2-z
-x,-y,-z
x,-y,1/2+z
1/2+x,1/2+y,z
1/2-x,1/2+y,1/2-z
1/2-x,1/2-y,-z
1/2+x,1/2-y,1/2+z
loop_
_atom_site_type_symbol
_atom_site_label
_atom_site_fract_x
_atom_site_fract_y
_atom_site_fract_z
Si Si1 0.331368 0.846295 0.072436
Si Si2 0.264715 0.957561 0.934402
Si Si3 0.447769 0.766839 0.166611
Si Si4 0.208599 0.663268 0.357576
Si Si5 0.500000 0.854028 0.750000
Si Si6 0.328994 0.543081 0.756471
Si Si7 0.238486 0.215900 0.678104
Si Si8 0.945998 0.026147 0.280067
O O1 0.290928 0.654596 0.069242
O O2 0.394874 0.763085 0.098691
O O3 0.330295 0.025610 0.120357
O O4 0.314461 0.942955 0.003784
O O5 0.285369 0.848130 0.886426
O O6 0.251891 0.203527 0.917250
O O7 0.429653 0.658448 0.216489
O O8 0.499781 0.636978 0.164396
O O9 0.465072 0.006189 0.188628
O O10 0.172136 0.824463 0.302607
O O11 0.243275 0.515521 0.332438
O O12 0.540720 0.712733 0.731392
O O13 0.290027 0.337523 0.732352
O O14 0.310625 0.688419 0.800086
O O15 0.393138 0.470741 0.796745
#
# Coordination Sequence:
#
# PCOD8130901 Si02
#       8
#     8   8   8   8   4   8   8   8
#     4  10  18  32  51  70 101 130 161 200 244 289
#     4   9  20  32  47  74  99 130 162 200 242 290
#     4   9  17  30  44  70  95 125 157 196 240 288
#     4  10  18  30  49  72  97 127 163 196 244 295
#     4   8  16  30  44  70  94 126 158 196 240 292
#     4  11  19  32  48  73  99 131 159 201 246 293
#     4  10  20  32  47  72  99 128 161 197 244 293
#     4   9  18  29  46  69  99 122 158 198 239 287
#
# _framework density 16.751366000000001
#
# number of rings (size 3 to 8) (size 9 to 14) (size 15 to 20)
#    0.000    2.667    1.333    3.600    0.000    2.133 
#    0.000    0.000    0.000    0.800    0.000    1.867 
#    0.000    0.000    0.000    0.000    0.000    0.000 
#
# Total GULP energy -371947.971580 kJ/mol
# GULP energy per Si atom -12398.265719 kJ/mol
# Density = 1.671324 g / cm^3
# Si number density = 16.751366 Si / 1000 Ang^3
#
#
#
# Elastic Constant Matrix: (Units=GPa)
#
#
# Indices 1 2 3 4 5 6 
#
# 1 122.3208 31.5238 44.3415 0.0000 13.8265 0.0000
# 2 31.5238 82.3147 11.0240 -0.0002 3.6855 0.0001
# 3 44.3415 11.0240 69.9685 0.0000 12.9768 0.0001
# 4 0.0000 -0.0002 0.0000 16.3025 0.0001 -2.6658
# 5 13.8265 3.6855 12.9768 0.0001 25.6072 0.0000
# 6 0.0000 0.0001 0.0001 -2.6658 0.0000 18.7224
#
#
#
# Elastic Compliance Matrix: (Units=1/GPa)
#
#
# Indices 1 2 3 4 5 6 
#
# 1 0.011679 -0.003504 -0.006372 0.000000 -0.002573 0.000000
# 2 -0.003504 0.013480 0.000117 0.000000 -0.000107 0.000000
# 3 -0.006372 0.000117 0.019511 0.000000 -0.006464 0.000000
# 4 0.000000 0.000000 0.000000 0.062803 0.000000 0.008942
# 5 -0.002573 -0.000107 -0.006464 0.000000 0.043731 0.000000
# 6 0.000000 0.000000 0.000000 0.008942 0.000000 0.054685
#
#
# Mechanical properties :
#
#
# Convention : Reuss Voigt Hill
#
# Bulk Modulus (GPa) = 39.76090 49.82030 44.79060
# Shear Modulus (GPa) = 21.38662 24.64073 23.01367
#
# Velocity S-wave (km/s) = 3.57698 3.83948 3.71055
# Velocity P-wave (km/s) = 6.39118 7.03286 6.71968
#
# Compressibility (1/GPa) = 0.02515033
#
# Stress axis : x y z
#
# Youngs Moduli (GPa) = 85.62379 74.18606 51.25368
#
# Poissons Ratio (x) = 0.25996 0.32660
# Poissons Ratio (y) = 0.30003 -0.00598
# Poissons Ratio (z) = 0.54561 -0.00866
#
# Static dielectric constant tensor:
#      x y z
#    x 2.960520 0.000000 0.027010 
#    y 0.000000 3.321530 0.000000 
#    z 0.027010 0.000000 3.002590 
# 
# 
# High freq. dielectric constant tensor:
#      x y z
#    x 1.622570 0.000000 0.008170 
#    y 0.000000 1.662760 0.000000 
#    z 0.008170 0.000000 1.615420 
# 
# From -- ./inp_files/282999.got.cif
#   From: 2010.06.25/outbox.cif.g09.slc.cpg/sg15_142_cif.got.tgz:282999.got - 2010.06.28 07:06:18.
