data_PCOD8130180
_publ_section_title
;
Structure prediction by ZEFSAII (Michael W. Deem and Ramdas Pophale) SiO2 
 PCOD8130180
Probable space group: C 2/C
;
_chemical_formula_sum "Si O2"
_cell_formula_units_Z 56
_cell_length_a 13.293507
_cell_length_b 14.549554
_cell_length_c 23.292235
_cell_angle_alpha 90.000000
_cell_angle_beta 137.363365
_cell_angle_gamma 90.000000
_cell_volume 3051.485417
_symmetry_space_group_name_H-M "C 2/C"
_symmetry_group_IT_number 15
_symmetry_cell_setting 'monoclinic'
loop_
_space_group_symop_operation_xyz
x,y,z
-x,y,1/2-z
-x,-y,-z
x,-y,1/2+z
1/2+x,1/2+y,z
1/2-x,1/2+y,1/2-z
1/2-x,1/2-y,-z
1/2+x,1/2-y,1/2+z
loop_
_atom_site_type_symbol
_atom_site_label
_atom_site_fract_x
_atom_site_fract_y
_atom_site_fract_z
Si Si1 0.647206 0.801376 0.278235
Si Si2 0.887752 0.054069 0.873335
Si Si3 0.860361 0.065160 0.731410
Si Si4 0.916188 0.690754 0.874048
Si Si5 0.765150 0.358147 0.999915
Si Si6 0.000974 0.875758 0.967180
Si Si7 0.170792 0.879215 0.835024
O O1 0.500000 0.824922 0.250000
O O2 0.727777 0.899191 0.312094
O O3 0.611809 0.764972 0.199637
O O4 0.746711 0.718357 0.348524
O O5 0.931114 0.064685 0.824787
O O6 0.998308 0.107782 0.963728
O O7 0.884216 0.946668 0.889258
O O8 0.730675 0.138593 0.666531
O O9 0.000000 0.087864 0.750000
O O10 0.783082 0.967476 0.683075
O O11 0.950206 0.772062 0.933249
O O12 0.057680 0.620715 0.926488
O O13 0.666799 0.399575 0.010886
O O14 0.696973 0.398549 0.912776
O O15 0.750000 0.250000 0.000000
O O16 0.000000 0.858315 0.750000
#
# Coordination Sequence:
#
# PCOD8130180 Si02
#       7
#     8   8   8   8   8   8   8
#     4  10  17  30  51  78 104 130 169 218 265 309
#     4  10  20  32  53  74  99 137 171 208 257 312
#     4  10  21  37  52  73 102 139 178 207 247 309
#     4  10  20  32  52  77 104 134 171 217 261 304
#     4  10  18  31  53  81 105 125 161 216 266 306
#     4  10  18  33  52  77 105 130 167 213 265 311
#     4  10  18  31  54  76 103 137 168 210 262 304
#
# _framework density 18.351718000000002
#
# number of rings (size 3 to 8) (size 9 to 14) (size 15 to 20)
#    0.000    2.000    0.000    8.571    0.000    0.571 
#    0.000    1.429    0.000    6.857    0.000    0.000 
#    0.000    0.000    0.000    0.000    0.000    0.000 
#
# Total GULP energy -346894.063628 kJ/mol
# GULP energy per Si atom -12389.073701 kJ/mol
# Density = 1.830995 g / cm^3
# Si number density = 18.351718 Si / 1000 Ang^3
#
#
#
# Elastic Constant Matrix: (Units=GPa)
#
#
# Indices 1 2 3 4 5 6 
#
# 1 102.0178 50.3075 45.1793 0.0000 -8.6046 0.0000
# 2 50.3075 84.0452 33.2027 0.0000 -0.2983 0.0000
# 3 45.1793 33.2027 95.0689 0.0000 -16.6162 0.0000
# 4 0.0000 0.0000 0.0000 26.2257 0.0000 -8.3126
# 5 -8.6046 -0.2983 -16.6162 0.0000 33.2481 0.0000
# 6 0.0000 0.0000 0.0000 -8.3126 0.0000 6.6858
#
#
#
# Elastic Compliance Matrix: (Units=1/GPa)
#
#
# Indices 1 2 3 4 5 6 
#
# 1 0.015694 -0.007612 -0.004494 0.000000 0.001747 0.000000
# 2 -0.007612 0.017688 -0.003152 0.000000 -0.003387 0.000000
# 3 -0.004494 -0.003152 0.014844 0.000000 0.006227 0.000000
# 4 0.000000 0.000000 0.000000 0.062931 0.000000 0.078243
# 5 0.001747 -0.003387 0.006227 0.000000 0.033611 0.000000
# 6 0.000000 0.000000 0.000000 0.078243 0.000000 0.246851
#
#
# Mechanical properties :
#
#
# Convention : Reuss Voigt Hill
#
# Bulk Modulus (GPa) = 56.46916 59.83454 58.15185
# Shear Modulus (GPa) = 11.68123 23.39475 17.53799
#
# Velocity S-wave (km/s) = 2.52567 3.57431 3.09473
# Velocity P-wave (km/s) = 6.27237 7.05048 6.67278
#
# Compressibility (1/GPa) = 0.01770878
#
# Stress axis : x y z
#
# Youngs Moduli (GPa) = 63.72036 56.53551 67.36945
#
# Poissons Ratio (x) = 0.43036 0.30276
# Poissons Ratio (y) = 0.48505 0.21234
# Poissons Ratio (z) = 0.28636 0.17819
#
# Static dielectric constant tensor:
#      x y z
#    x 3.447610 0.000000 -0.081570 
#    y 0.000000 3.496920 0.000000 
#    z -0.081570 0.000000 3.666090 
# 
# 
# High freq. dielectric constant tensor:
#      x y z
#    x 1.690680 0.000000 -0.022080 
#    y 0.000000 1.700010 0.000000 
#    z -0.022080 0.000000 1.721440 
# 
# From -- ./inp_files/274196.got.cif
#   From: 2010.06.25/outbox.cif.g09.slc.cpg/sg15_138_cif.got.tgz:274196.got - 2010.06.28 07:06:18.
