data_PCOD8130132
_publ_section_title
;
Structure prediction by ZEFSAII (Michael W. Deem and Ramdas Pophale) SiO2 
 PCOD8130132
Probable space group: C 2/C
;
_chemical_formula_sum "Si O2"
_cell_formula_units_Z 56
_cell_length_a 10.526756
_cell_length_b 16.714750
_cell_length_c 15.559807
_cell_angle_alpha 90.000000
_cell_angle_beta 115.666154
_cell_angle_gamma 90.000000
_cell_volume 2467.652136
_symmetry_space_group_name_H-M "C 2/C"
_symmetry_group_IT_number 15
_symmetry_cell_setting 'monoclinic'
loop_
_space_group_symop_operation_xyz
x,y,z
-x,y,1/2-z
-x,-y,-z
x,-y,1/2+z
1/2+x,1/2+y,z
1/2-x,1/2+y,1/2-z
1/2-x,1/2-y,-z
1/2+x,1/2-y,1/2+z
loop_
_atom_site_type_symbol
_atom_site_label
_atom_site_fract_x
_atom_site_fract_y
_atom_site_fract_z
Si Si1 0.275375 0.473773 0.400635
Si Si2 0.408595 0.297097 0.855296
Si Si3 0.015875 0.772877 0.431620
Si Si4 0.722724 0.166507 0.773334
Si Si5 0.456609 0.455775 0.611392
Si Si6 0.368344 0.610177 0.659392
Si Si7 0.372124 0.863973 0.650006
O O1 0.181101 0.406360 0.324726
O O2 0.344174 0.435339 0.504789
O O3 0.406072 0.495181 0.377733
O O4 0.183375 0.550396 0.400336
O O5 0.403824 0.229929 0.778710
O O6 0.491899 0.371215 0.836263
O O7 0.247493 0.318073 0.831742
O O8 0.486278 0.270437 0.965805
O O9 0.858877 0.789025 0.352146
O O10 0.123530 0.844603 0.431150
O O11 0.075070 0.688470 0.414917
O O12 0.736158 0.132277 0.679357
O O13 0.378141 0.513364 0.656300
O O14 0.500000 0.646506 0.750000
O O15 0.500000 0.882199 0.750000
#
# Coordination Sequence:
#
# PCOD8130132 Si02
#       7
#     8   8   8   8   8   8   8
#     4  10  20  32  51  78 122 146 186 236 290 346
#     4  11  21  30  56  81 117 149 190 238 289 340
#     4  11  18  33  48  87 116 145 186 238 291 334
#     4  11  20  34  53  88 117 146 189 251 279 332
#     4  10  18  33  49  83 113 156 185 232 296 342
#     4  10  17  29  50  78 122 138 184 237 281 330
#     4  11  20  31  50  83 113 148 184 227 292 348
#
# _framework density 22.693638
#
# number of rings (size 3 to 8) (size 9 to 14) (size 15 to 20)
#    0.000    1.429    7.143    2.571    2.000    0.000 
#    0.000    0.000    0.000    1.714   11.143    2.000 
#    0.000    0.000    0.000    0.000    0.000    0.000 
#
# Total GULP energy -347014.483936 kJ/mol
# GULP energy per Si atom -12393.374426 kJ/mol
# Density = 2.264199 g / cm^3
# Si number density = 22.693638 Si / 1000 Ang^3
#
#
#
# Elastic Constant Matrix: (Units=GPa)
#
#
# Indices 1 2 3 4 5 6 
#
# 1 23.1126 30.7429 11.3203 0.0000 0.7773 0.0000
# 2 30.7429 165.4471 52.7397 0.0000 5.7113 0.0000
# 3 11.3203 52.7397 92.1305 0.0000 3.9727 0.0000
# 4 0.0000 0.0000 0.0000 47.6904 0.0000 -0.7720
# 5 0.7773 5.7113 3.9727 0.0000 7.2558 0.0000
# 6 0.0000 0.0000 0.0000 -0.7720 0.0000 33.7765
#
#
#
# Elastic Compliance Matrix: (Units=1/GPa)
#
#
# Indices 1 2 3 4 5 6 
#
# 1 0.057624 -0.010405 -0.001240 0.000000 0.002696 0.000000
# 2 -0.010405 0.009365 -0.003905 0.000000 -0.004119 0.000000
# 3 -0.001240 -0.003905 0.013420 0.000000 -0.004141 0.000000
# 4 0.000000 0.000000 0.000000 0.020976 0.000000 0.000479
# 5 0.002696 -0.004119 -0.004141 0.000000 0.143040 0.000000
# 6 0.000000 0.000000 0.000000 0.000479 0.000000 0.029617
#
#
# Mechanical properties :
#
#
# Convention : Reuss Voigt Hill
#
# Bulk Modulus (GPa) = 20.28050 52.25511 36.26780
# Shear Modulus (GPa) = 15.54831 30.13703 22.84267
#
# Velocity S-wave (km/s) = 2.62036 3.64812 3.17609
# Velocity P-wave (km/s) = 4.25571 6.38916 5.42828
#
# Compressibility (1/GPa) = 0.04930846
#
# Stress axis : x y z
#
# Youngs Moduli (GPa) = 17.35402 106.78609 74.51401
#
# Poissons Ratio (x) = 1.11112 0.09241
# Poissons Ratio (y) = 0.18057 0.29095
# Poissons Ratio (z) = 0.02152 0.41695
#
# Static dielectric constant tensor:
#      x y z
#    x 3.532730 0.000000 -0.028000 
#    y 0.000000 4.222490 0.000000 
#    z -0.028000 0.000000 4.120850 
# 
# 
# High freq. dielectric constant tensor:
#      x y z
#    x 1.834940 0.000000 -0.002660 
#    y 0.000000 1.899880 0.000000 
#    z -0.002660 0.000000 1.902750 
# 
# From -- ./inp_files/199570.got.cif
#   From: 2010.06.25/outbox.cif.g09.slc.cpg/sg15_100_cif.got.tgz:199570.got - 2010.06.28 07:06:18.
