data_PCOD8130263
_publ_section_title
;
Structure prediction by ZEFSAII (Michael W. Deem and Ramdas Pophale) SiO2 
 PCOD8130263
Probable space group: C 2/C
;
_chemical_formula_sum "Si O2"
_cell_formula_units_Z 56
_cell_length_a 17.844707
_cell_length_b 13.350879
_cell_length_c 19.102036
_cell_angle_alpha 90.000000
_cell_angle_beta 42.522980
_cell_angle_gamma 90.000000
_cell_volume 3075.900623
_symmetry_space_group_name_H-M "C 2/C"
_symmetry_group_IT_number 15
_symmetry_cell_setting 'monoclinic'
loop_
_space_group_symop_operation_xyz
x,y,z
-x,y,1/2-z
-x,-y,-z
x,-y,1/2+z
1/2+x,1/2+y,z
1/2-x,1/2+y,1/2-z
1/2-x,1/2-y,-z
1/2+x,1/2-y,1/2+z
loop_
_atom_site_type_symbol
_atom_site_label
_atom_site_fract_x
_atom_site_fract_y
_atom_site_fract_z
Si Si1 0.803322 0.414036 0.590200
Si Si2 0.269840 0.118492 0.828378
Si Si3 0.049620 0.420422 0.521505
Si Si4 0.422368 0.277948 0.977910
Si Si5 0.319077 0.087617 0.237089
Si Si6 0.376130 0.721283 0.351417
Si Si7 0.156645 0.260717 0.353198
O O1 0.849922 0.511152 0.515671
O O2 0.899023 0.328205 0.532569
O O3 0.772205 0.440820 0.692168
O O4 0.697592 0.371709 0.622998
O O5 0.346077 0.175365 0.832798
O O6 0.290590 0.162864 0.737569
O O7 0.297583 0.001457 0.807082
O O8 0.140513 0.133377 0.937456
O O9 0.106603 0.319701 0.453591
O O10 0.000000 0.500000 0.500000
O O11 0.952506 0.392183 0.643368
O O12 0.363970 0.264593 0.942737
O O13 0.553883 0.298243 0.886236
O O14 0.251458 0.183533 0.312510
O O15 0.500000 0.689028 0.250000
#
# Coordination Sequence:
#
# PCOD8130263 Si02
#       7
#     8   8   8   8   8   8   8
#     4  10  17  31  51  76 105 142 176 219 267 325
#     4  11  20  32  50  77 112 144 178 220 271 329
#     4  10  18  32  52  75 108 142 185 221 266 333
#     4  11  20  34  51  81 115 139 178 223 274 328
#     4  11  20  32  51  77 109 145 184 221 268 328
#     4  11  21  33  54  82 115 144 173 224 280 326
#     4  12  18  33  54  77 112 143 180 225 272 322
#
# _framework density 18.206049
#
# number of rings (size 3 to 8) (size 9 to 14) (size 15 to 20)
#    0.000    1.143   10.000    1.714    0.000    0.571 
#    0.000    0.000    0.000    0.000    0.000    5.000 
#    0.000    0.000    0.000    0.000    0.000    0.000 
#
# Total GULP energy -347032.329406 kJ/mol
# GULP energy per Si atom -12394.011765 kJ/mol
# Density = 1.816461 g / cm^3
# Si number density = 18.206049 Si / 1000 Ang^3
#
#
#
# Elastic Constant Matrix: (Units=GPa)
#
#
# Indices 1 2 3 4 5 6 
#
# 1 51.2143 39.1810 20.8441 0.0000 -14.4139 0.0000
# 2 39.1810 115.5850 60.7676 0.0000 -14.8604 0.0000
# 3 20.8441 60.7676 83.0220 0.0000 -14.4942 0.0000
# 4 0.0000 0.0000 0.0000 37.5953 0.0000 -6.3716
# 5 -14.4139 -14.8604 -14.4942 0.0000 28.4391 0.0000
# 6 0.0000 0.0000 0.0000 -6.3716 0.0000 19.8150
#
#
#
# Elastic Compliance Matrix: (Units=1/GPa)
#
#
# Indices 1 2 3 4 5 6 
#
# 1 0.028962 -0.009114 0.001241 0.000000 0.010549 0.000000
# 2 -0.009114 0.017071 -0.010379 0.000000 -0.000989 0.000000
# 3 0.001241 -0.010379 0.020300 0.000000 0.005551 0.000000
# 4 0.000000 0.000000 0.000000 0.028132 0.000000 0.009046
# 5 0.010549 -0.000989 0.005551 0.000000 0.042822 0.000000
# 6 0.000000 0.000000 0.000000 0.009046 0.000000 0.053376
#
#
# Mechanical properties :
#
#
# Convention : Reuss Voigt Hill
#
# Bulk Modulus (GPa) = 33.52511 54.60074 44.06293
# Shear Modulus (GPa) = 21.08735 25.77178 23.42956
#
# Velocity S-wave (km/s) = 3.40701 3.76648 3.59125
# Velocity P-wave (km/s) = 5.82505 6.99791 6.43824
#
# Compressibility (1/GPa) = 0.02982839
#
# Stress axis : x y z
#
# Youngs Moduli (GPa) = 34.52790 58.58003 49.26198
#
# Poissons Ratio (x) = 0.53388 -0.06114
# Poissons Ratio (y) = 0.31468 0.51130
# Poissons Ratio (z) = -0.04285 0.60802
#
# Static dielectric constant tensor:
#      x y z
#    x 3.206390 0.000000 -0.324550 
#    y 0.000000 3.366340 0.000000 
#    z -0.324550 0.000000 3.604590 
# 
# 
# High freq. dielectric constant tensor:
#      x y z
#    x 1.667620 0.000000 -0.029230 
#    y 0.000000 1.684010 0.000000 
#    z -0.029230 0.000000 1.718110 
# 
# From -- ./inp_files/181534.got.cif
#   From: 2010.06.25/outbox.cif.g09.slc.cpg/sg15_91_cif.got.tgz:181534.got - 2010.06.28 07:06:18.
