data_PCOD8130890
_publ_section_title
;
Structure prediction by ZEFSAII (Michael W. Deem and Ramdas Pophale) SiO2 
 PCOD8130890
Probable space group: C 2/C
;
_chemical_formula_sum "Si O2"
_cell_formula_units_Z 40
_cell_length_a 16.039652
_cell_length_b 20.196794
_cell_length_c 9.010326
_cell_angle_alpha 90.000000
_cell_angle_beta 46.973063
_cell_angle_gamma 90.000000
_cell_volume 2133.805626
_symmetry_space_group_name_H-M "C 2/C"
_symmetry_group_IT_number 15
_symmetry_cell_setting 'monoclinic'
loop_
_space_group_symop_operation_xyz
x,y,z
-x,y,1/2-z
-x,-y,-z
x,-y,1/2+z
1/2+x,1/2+y,z
1/2-x,1/2+y,1/2-z
1/2-x,1/2-y,-z
1/2+x,1/2-y,1/2+z
loop_
_atom_site_type_symbol
_atom_site_label
_atom_site_fract_x
_atom_site_fract_y
_atom_site_fract_z
Si Si1 0.415573 0.916763 0.971787
Si Si2 0.749424 0.472640 0.626049
Si Si3 0.295039 0.821591 0.906838
Si Si4 0.428700 0.864640 0.470128
Si Si5 0.369777 0.560717 0.952186
O O1 0.479950 0.906751 0.047787
O O2 0.312211 0.966013 0.130250
O O3 0.500000 0.951718 0.750000
O O4 0.374751 0.847725 0.944031
O O5 0.837576 0.412261 0.499639
O O6 0.695083 0.497564 0.539446
O O7 0.643483 0.449178 0.856104
O O8 0.364247 0.816691 0.665563
O O9 0.250000 0.750000 0.000000
O O10 0.188329 0.870722 0.024257
O O11 0.500000 0.827942 0.250000
O O12 0.500000 0.563821 0.750000
#
# Coordination Sequence:
#
# PCOD8130890 Si02
#       5
#     8   8   8   8   8
#     4   9  17  30  51  76 101 132 162 202 257 303
#     4  10  18  30  48  75 105 128 162 205 251 305
#     4   9  20  36  52  72 100 137 177 207 242 301
#     4  10  18  30  52  79 101 125 160 214 263 296
#     4  10  20  32  50  72 100 138 169 202 246 297
#
# _framework density 18.745850000000001
#
# number of rings (size 3 to 8) (size 9 to 14) (size 15 to 20)
#    0.000    2.400    0.000    4.200    0.000    2.400 
#    0.000    1.000    0.000    9.600    0.000    0.000 
#    0.000    0.000    0.000    0.000    0.000    0.000 
#
# Total GULP energy -247826.029575 kJ/mol
# GULP energy per Si atom -12391.301479 kJ/mol
# Density = 1.870318 g / cm^3
# Si number density = 18.745850 Si / 1000 Ang^3
#
#
#
# Elastic Constant Matrix: (Units=GPa)
#
#
# Indices 1 2 3 4 5 6 
#
# 1 48.1623 3.0781 31.0162 0.0000 -9.7672 0.0000
# 2 3.0781 72.9387 42.4468 0.0000 -3.1306 0.0000
# 3 31.0162 42.4468 140.9672 0.0000 -7.8615 0.0000
# 4 0.0000 0.0000 0.0000 23.6549 0.0000 0.3787
# 5 -9.7672 -3.1306 -7.8615 0.0000 27.3762 0.0000
# 6 0.0000 0.0000 0.0000 0.3787 0.0000 9.1194
#
#
#
# Elastic Compliance Matrix: (Units=1/GPa)
#
#
# Indices 1 2 3 4 5 6 
#
# 1 0.026151 0.002822 -0.006164 0.000000 0.007883 0.000000
# 2 0.002822 0.016934 -0.005646 0.000000 0.001322 0.000000
# 3 -0.006164 -0.005646 0.010154 0.000000 0.000071 0.000000
# 4 0.000000 0.000000 0.000000 0.042303 0.000000 -0.001757
# 5 0.007883 0.001322 0.000071 0.000000 0.039512 0.000000
# 6 0.000000 0.000000 0.000000 -0.001757 0.000000 0.109729
#
#
# Mechanical properties :
#
#
# Convention : Reuss Voigt Hill
#
# Bulk Modulus (GPa) = 28.35890 46.12783 37.24337
# Shear Modulus (GPa) = 18.21411 24.39858 21.30635
#
# Velocity S-wave (km/s) = 3.12049 3.61161 3.37499
# Velocity P-wave (km/s) = 5.30511 6.48475 5.92436
#
# Compressibility (1/GPa) = 0.03526229
#
# Stress axis : x y z
#
# Youngs Moduli (GPa) = 38.23962 59.05447 98.48224
#
# Poissons Ratio (x) = -0.16664 0.60704
# Poissons Ratio (y) = -0.10791 0.55603
# Poissons Ratio (z) = 0.23571 0.33342
#
# Static dielectric constant tensor:
#      x y z
#    x 3.456260 0.000000 0.017290 
#    y 0.000000 2.981810 0.000000 
#    z 0.017290 0.000000 3.627080 
# 
# 
# High freq. dielectric constant tensor:
#      x y z
#    x 1.724070 0.000000 -0.002520 
#    y 0.000000 1.682120 0.000000 
#    z -0.002520 0.000000 1.744400 
# 
# From -- ./inp_files/30150.got.cif
#   From: 2010.06.25/outbox.cif.g09.slc.cpg/sg15_16_cif.got.tgz:30150.got - 2010.06.28 07:06:18.
