data_PCOD8130052
_publ_section_title
;
Structure prediction by ZEFSAII (Michael W. Deem and Ramdas Pophale) SiO2 
 PCOD8130052
Probable space group: C 2/C
;
_chemical_formula_sum "Si O2"
_cell_formula_units_Z 64
_cell_length_a 18.550792
_cell_length_b 20.746395
_cell_length_c 13.653987
_cell_angle_alpha 90.000000
_cell_angle_beta 119.676222
_cell_angle_gamma 90.000000
_cell_volume 4565.653191
_symmetry_space_group_name_H-M "C 2/C"
_symmetry_group_IT_number 15
_symmetry_cell_setting 'monoclinic'
loop_
_space_group_symop_operation_xyz
x,y,z
-x,y,1/2-z
-x,-y,-z
x,-y,1/2+z
1/2+x,1/2+y,z
1/2-x,1/2+y,1/2-z
1/2-x,1/2-y,-z
1/2+x,1/2-y,1/2+z
loop_
_atom_site_type_symbol
_atom_site_label
_atom_site_fract_x
_atom_site_fract_y
_atom_site_fract_z
Si Si1 0.555465 0.096409 0.067850
Si Si2 0.730365 0.626935 0.472079
Si Si3 0.212962 0.692859 0.804348
Si Si4 0.092316 0.218198 0.347094
Si Si5 0.415297 0.998354 0.740713
Si Si6 0.669890 0.010479 0.011385
Si Si7 0.369572 0.906776 0.373543
Si Si8 0.149415 0.284868 0.569032
O O1 0.572591 0.064639 0.184401
O O2 0.594048 0.052452 0.007035
O O3 0.595871 0.167368 0.100525
O O4 0.457633 0.103678 0.985546
O O5 0.751510 0.636415 0.600919
O O6 0.636814 0.648017 0.382383
O O7 0.747980 0.554533 0.445747
O O8 0.789453 0.676680 0.458739
O O9 0.139388 0.733565 0.805098
O O10 0.176409 0.660442 0.680857
O O11 0.291874 0.737565 0.827120
O O12 0.088807 0.246249 0.455095
O O13 0.000000 0.206163 0.250000
O O14 0.500000 0.021906 0.750000
O O15 0.352878 0.982595 0.610291
O O16 0.380820 0.058331 0.777680
O O17 0.688659 0.950200 0.094870
#
# Coordination Sequence:
#
# PCOD8130052 Si02
#       8
#     8   8   8   8   8   8   8   8
#     4  10  18  25  38  59  81 109 135 157 196 229
#     4   8  15  26  38  53  82 110 125 158 201 233
#     4   9  16  25  38  56  81 109 129 155 196 233
#     4   9  15  24  40  60  80 104 130 159 196 234
#     4  11  17  26  37  57  87 110 127 160 189 231
#     4  10  17  27  37  57  87 106 131 158 192 240
#     4  11  18  23  40  62  80 110 134 153 192 237
#     4   8  16  27  36  54  82 106 132 161 192 234
#
# _framework density 14.017709999999999
#
# number of rings (size 3 to 8) (size 9 to 14) (size 15 to 20)
#    0.000    2.500    3.750    3.000    0.000    0.500 
#    0.000    0.000    0.000    0.750    0.000    3.500 
#    3.750    0.000    0.000    0.000    0.000    0.000 
#
# Total GULP energy -396559.560465 kJ/mol
# GULP energy per Si atom -12392.486265 kJ/mol
# Density = 1.398580 g / cm^3
# Si number density = 14.017710 Si / 1000 Ang^3
#
#
#
# Elastic Constant Matrix: (Units=GPa)
#
#
# Indices 1 2 3 4 5 6 
#
# 1 42.4999 32.2757 36.1829 0.0000 12.0287 0.0000
# 2 32.2757 76.9300 51.1411 0.0000 7.9418 0.0000
# 3 36.1829 51.1411 86.5662 0.0000 9.1762 0.0000
# 4 0.0000 0.0000 0.0000 26.2674 0.0000 1.2175
# 5 12.0287 7.9418 9.1762 0.0000 23.0436 0.0000
# 6 0.0000 0.0000 0.0000 1.2175 0.0000 17.0655
#
#
#
# Elastic Compliance Matrix: (Units=1/GPa)
#
#
# Indices 1 2 3 4 5 6 
#
# 1 0.045053 -0.009669 -0.011463 0.000000 -0.015620 0.000000
# 2 -0.009669 0.023613 -0.010003 0.000000 0.000892 0.000000
# 3 -0.011463 -0.010003 0.022190 0.000000 0.000595 0.000000
# 4 0.000000 0.000000 0.000000 0.038196 0.000000 -0.002725
# 5 -0.015620 0.000892 0.000595 0.000000 0.051005 0.000000
# 6 0.000000 0.000000 0.000000 -0.002725 0.000000 0.058792
#
#
# Mechanical properties :
#
#
# Convention : Reuss Voigt Hill
#
# Bulk Modulus (GPa) = 34.98325 49.46617 42.22471
# Shear Modulus (GPa) = 16.09539 19.03506 17.56523
#
# Velocity S-wave (km/s) = 3.39221 3.68901 3.54372
# Velocity P-wave (km/s) = 6.35244 7.31505 6.85067
#
# Compressibility (1/GPa) = 0.02858511
#
# Stress axis : x y z
#
# Youngs Moduli (GPa) = 22.19631 42.34941 45.06546
#
# Poissons Ratio (x) = 0.40946 0.51660
# Poissons Ratio (y) = 0.21461 0.45081
# Poissons Ratio (z) = 0.25444 0.42364
#
# Static dielectric constant tensor:
#      x y z
#    x 2.615240 0.000000 0.046360 
#    y 0.000000 2.863290 0.000000 
#    z 0.046360 0.000000 2.710560 
# 
# 
# High freq. dielectric constant tensor:
#      x y z
#    x 1.499140 0.000000 0.007120 
#    y 0.000000 1.518140 0.000000 
#    z 0.007120 0.000000 1.527390 
# 
# From -- ./inp_files/107300.got.cif
#   From: 2010.06.25/outbox.cif.g09.slc.cpg/sg15_54_cif.got.tgz:107300.got - 2010.06.28 07:06:18.
