data_PCOD8130534
_publ_section_title
;
Structure prediction by ZEFSAII (Michael W. Deem and Ramdas Pophale) SiO2 
 PCOD8130534
Probable space group: C 2/C
;
_chemical_formula_sum "Si O2"
_cell_formula_units_Z 60
_cell_length_a 17.320993
_cell_length_b 9.033956
_cell_length_c 20.067547
_cell_angle_alpha 90.000000
_cell_angle_beta 62.644162
_cell_angle_gamma 90.000000
_cell_volume 2788.952149
_symmetry_space_group_name_H-M "C 2/C"
_symmetry_group_IT_number 15
_symmetry_cell_setting 'monoclinic'
loop_
_space_group_symop_operation_xyz
x,y,z
-x,y,1/2-z
-x,-y,-z
x,-y,1/2+z
1/2+x,1/2+y,z
1/2-x,1/2+y,1/2-z
1/2-x,1/2-y,-z
1/2+x,1/2-y,1/2+z
loop_
_atom_site_type_symbol
_atom_site_label
_atom_site_fract_x
_atom_site_fract_y
_atom_site_fract_z
Si Si1 0.098014 0.787336 0.986362
Si Si2 0.424472 0.224179 0.996884
Si Si3 0.154724 0.048481 0.872259
Si Si4 0.877079 0.880497 0.881358
Si Si5 0.302175 0.020998 0.503002
Si Si6 0.500000 0.875228 0.750000
Si Si7 0.502822 0.387036 0.347457
Si Si8 0.663664 0.926349 0.158910
O O1 0.051580 0.881731 0.062350
O O2 0.138684 0.896390 0.916700
O O3 0.176493 0.691179 0.987090
O O4 0.024236 0.693318 0.977356
O O5 0.419065 0.316187 0.931431
O O6 0.373388 0.309615 0.074420
O O7 0.381111 0.066041 0.005033
O O8 0.100569 0.054640 0.824269
O O9 0.258335 0.060556 0.818075
O O10 0.862157 0.746276 0.836129
O O11 0.788308 0.968777 0.930278
O O12 0.948322 0.996508 0.823246
O O13 0.299844 0.990961 0.425135
O O14 0.495261 0.774218 0.686344
O O15 0.416514 0.979255 0.783208
#
# Coordination Sequence:
#
# PCOD8130534 Si02
#       8
#     8   8   8   8   8   4   8   8
#     4  11  20  33  63 103 133 152 198 265 338 361
#     4  10  17  34  56  98 133 160 183 250 338 380
#     4  11  20  40  67  95 128 157 200 272 326 363
#     4  11  20  39  65  95 125 160 204 259 329 369
#     4  11  20  33  62 103 131 157 196 261 327 382
#     4  12  28  46  62  86 122 180 222 254 294 380
#     4  11  23  42  63  91 127 167 210 256 310 385
#     4  11  23  42  63  91 128 168 209 256 309 379
#
# _framework density 21.513456000000001
#
# number of rings (size 3 to 8) (size 9 to 14) (size 15 to 20)
#    0.000    1.067    6.667    2.000    1.867    1.600 
#    0.000    2.667    0.000    0.000    0.000    0.000 
#    0.000    0.000    0.000    0.000    0.000    0.000 
#
# Total GULP energy -371973.483120 kJ/mol
# GULP energy per Si atom -12399.116104 kJ/mol
# Density = 2.146449 g / cm^3
# Si number density = 21.513456 Si / 1000 Ang^3
#
#
#
# Elastic Constant Matrix: (Units=GPa)
#
#
# Indices 1 2 3 4 5 6 
#
# 1 174.6363 61.9259 28.3380 0.0000 -27.2203 0.0001
# 2 61.9259 86.1004 21.6785 0.0000 -20.0307 0.0003
# 3 28.3380 21.6785 33.5392 0.0000 -21.0411 0.0000
# 4 0.0000 0.0000 0.0000 22.6223 0.0000 -4.8010
# 5 -27.2203 -20.0307 -21.0411 0.0000 22.1681 0.0000
# 6 0.0001 0.0003 0.0000 -4.8010 0.0000 28.6130
#
#
#
# Elastic Compliance Matrix: (Units=1/GPa)
#
#
# Indices 1 2 3 4 5 6 
#
# 1 0.008289 -0.004525 -0.000639 0.000000 0.005483 0.000000
# 2 -0.004525 0.017290 -0.002563 0.000000 0.007634 0.000000
# 3 -0.000639 -0.002563 0.074326 0.000000 0.067446 0.000000
# 4 0.000000 0.000000 0.000000 0.045836 0.000000 0.007691
# 5 0.005483 0.007634 0.067446 0.000000 0.122757 0.000000
# 6 0.000000 0.000000 0.000000 0.007691 0.000000 0.036240
#
#
# Mechanical properties :
#
#
# Convention : Reuss Voigt Hill
#
# Bulk Modulus (GPa) = 11.84131 57.57339 34.70735
# Shear Modulus (GPa) = 14.35362 26.83624 20.59493
#
# Velocity S-wave (km/s) = 2.58581 3.53571 3.09739
# Velocity P-wave (km/s) = 3.79886 6.59454 5.38142
#
# Compressibility (1/GPa) = 0.08445011
#
# Stress axis : x y z
#
# Youngs Moduli (GPa) = 120.63953 57.83546 13.45427
#
# Poissons Ratio (x) = 0.26173 0.00860
# Poissons Ratio (y) = 0.54594 0.03449
# Poissons Ratio (z) = 0.07709 0.14824
#
# Static dielectric constant tensor:
#      x y z
#    x 4.348840 0.000000 -0.015590 
#    y 0.000000 3.971870 0.000000 
#    z -0.015590 0.000000 3.375750 
# 
# 
# High freq. dielectric constant tensor:
#      x y z
#    x 1.870600 0.000000 -0.008370 
#    y 0.000000 1.854780 0.000000 
#    z -0.008370 0.000000 1.792930 
# 
# From -- ./inp_files/247801.got.cif
#   From: 2010.06.25/outbox.cif.g09.slc.cpg/sg15_124_cif.got.tgz:247801.got - 2010.06.28 07:06:18.
