data_PCOD8130000
_publ_section_title
;
Structure prediction by ZEFSAII (Michael W. Deem and Ramdas Pophale) SiO2 
 PCOD8130000
Probable space group: C 2/C
;
_chemical_formula_sum "Si O2"
_cell_formula_units_Z 48
_cell_length_a 21.169068
_cell_length_b 16.670391
_cell_length_c 16.067557
_cell_angle_alpha 90.000000
_cell_angle_beta 25.539121
_cell_angle_gamma 90.000000
_cell_volume 2444.572210
_symmetry_space_group_name_H-M "C 2/C"
_symmetry_group_IT_number 15
_symmetry_cell_setting 'monoclinic'
loop_
_space_group_symop_operation_xyz
x,y,z
-x,y,1/2-z
-x,-y,-z
x,-y,1/2+z
1/2+x,1/2+y,z
1/2-x,1/2+y,1/2-z
1/2-x,1/2-y,-z
1/2+x,1/2-y,1/2+z
loop_
_atom_site_type_symbol
_atom_site_label
_atom_site_fract_x
_atom_site_fract_y
_atom_site_fract_z
Si Si1 0.500000 0.708159 0.250000
Si Si2 0.462496 0.289605 0.160797
Si Si3 0.275908 0.175597 0.286566
Si Si4 0.500000 0.156964 0.250000
Si Si5 0.778980 0.912666 0.478267
Si Si6 0.238410 0.591927 0.511855
Si Si7 0.937343 0.644129 0.932253
O O1 0.359184 0.657119 0.392064
O O2 0.543926 0.763831 0.119551
O O3 0.339225 0.262418 0.241296
O O4 0.500024 0.211502 0.169135
O O5 0.411849 0.361602 0.281344
O O6 0.615671 0.313359 0.934952
O O7 0.257955 0.115264 0.384786
O O8 0.384505 0.138193 0.089823
O O9 0.359505 0.099788 0.417416
O O10 0.816727 0.006411 0.432606
O O11 0.184760 0.601877 0.480576
O O12 0.094654 0.599962 0.741184
#
# Coordination Sequence:
#
# PCOD8130000 Si02
#       7
#     4   8   8   4   8   8   8
#     4  10  22  40  66  84 110 160 212 252 290 354
#     4  11  20  37  57  94 120 164 192 245 290 362
#     4  11  23  35  66  90 125 150 208 244 297 351
#     4  10  16  36  56  84 118 164 198 224 292 356
#     4  11  21  38  62  89 126 159 197 243 306 371
#     4  10  23  41  64  84 120 161 199 249 312 345
#     4  10  22  44  61  86 114 159 208 252 292 360
#
# _framework density 19.635338000000001
#
# number of rings (size 3 to 8) (size 9 to 14) (size 15 to 20)
#    0.000    1.667    3.333    4.000    7.000    0.667 
#    0.000    2.500    0.000    0.000    0.000    0.000 
#    0.000    0.000    0.000    0.000    0.000    0.000 
#
# Total GULP energy -297517.326234 kJ/mol
# GULP energy per Si atom -12396.555260 kJ/mol
# Density = 1.959065 g / cm^3
# Si number density = 19.635338 Si / 1000 Ang^3
#
#
#
# Elastic Constant Matrix: (Units=GPa)
#
#
# Indices 1 2 3 4 5 6 
#
# 1 63.9659 27.1166 55.2885 0.0005 3.9519 -0.0004
# 2 27.1166 109.9520 29.5631 0.0004 1.7685 -0.0003
# 3 55.2885 29.5631 107.2079 0.0008 4.9245 -0.0007
# 4 0.0005 0.0004 0.0008 16.4921 -0.0006 -5.4561
# 5 3.9519 1.7685 4.9245 -0.0006 42.5377 0.0004
# 6 -0.0004 -0.0003 -0.0007 -5.4561 0.0004 12.7845
#
#
#
# Elastic Compliance Matrix: (Units=1/GPa)
#
#
# Indices 1 2 3 4 5 6 
#
# 1 0.029390 -0.003423 -0.014170 0.000000 -0.000948 0.000000
# 2 -0.003423 0.010222 -0.001054 0.000000 0.000015 0.000000
# 3 -0.014170 -0.001054 0.016953 0.000000 -0.000602 0.000000
# 4 0.000000 0.000000 0.000000 0.070604 0.000001 0.030132
# 5 -0.000948 0.000015 -0.000602 0.000001 0.023666 -0.000001
# 6 0.000000 0.000000 0.000000 0.030132 -0.000001 0.091080
#
#
# Mechanical properties :
#
#
# Convention : Reuss Voigt Hill
#
# Bulk Modulus (GPa) = 51.88780 56.11801 54.00291
# Shear Modulus (GPa) = 17.50497 25.64003 21.57250
#
# Velocity S-wave (km/s) = 2.98904 3.61752 3.31819
# Velocity P-wave (km/s) = 6.19642 6.78902 6.49948
#
# Compressibility (1/GPa) = 0.01927235
#
# Stress axis : x y z
#
# Youngs Moduli (GPa) = 34.02470 97.82526 58.98511
#
# Poissons Ratio (x) = 0.33488 0.83579
# Poissons Ratio (y) = 0.11648 0.06218
# Poissons Ratio (z) = 0.48211 0.10312
#
# Static dielectric constant tensor:
#      x y z
#    x 3.585440 0.000000 -0.354400 
#    y 0.000000 3.474040 0.000000 
#    z -0.354400 0.000000 3.695450 
# 
# 
# High freq. dielectric constant tensor:
#      x y z
#    x 1.752870 0.000000 -0.024580 
#    y 0.000000 1.753140 0.000000 
#    z -0.024580 0.000000 1.771340 
# 
# From -- ./inp_files/219964.got.cif
#   From: 2010.06.25/outbox.cif.g09.slc.cpg/sg15_110_cif.got.tgz:219964.got - 2010.06.28 07:06:18.
