data_PCOD8130059
_publ_section_title
;
Structure prediction by ZEFSAII (Michael W. Deem and Ramdas Pophale) SiO2 
 PCOD8130059
Probable space group: C 2/C
;
_chemical_formula_sum "Si O2"
_cell_formula_units_Z 64
_cell_length_a 14.652248
_cell_length_b 14.652263
_cell_length_c 19.395981
_cell_angle_alpha 90.000000
_cell_angle_beta 67.807804
_cell_angle_gamma 90.000000
_cell_volume 3855.628113
_symmetry_space_group_name_H-M "C 2/C"
_symmetry_group_IT_number 15
_symmetry_cell_setting 'monoclinic'
loop_
_space_group_symop_operation_xyz
x,y,z
-x,y,1/2-z
-x,-y,-z
x,-y,1/2+z
1/2+x,1/2+y,z
1/2-x,1/2+y,1/2-z
1/2-x,1/2-y,-z
1/2+x,1/2-y,1/2+z
loop_
_atom_site_type_symbol
_atom_site_label
_atom_site_fract_x
_atom_site_fract_y
_atom_site_fract_z
Si Si1 0.248297 0.451518 0.406436
Si Si2 0.595262 0.798484 0.406438
Si Si3 0.011943 0.298447 0.573011
Si Si4 0.264670 0.832248 0.828511
Si Si5 0.417991 0.321071 0.328510
Si Si6 0.996507 0.428930 0.171489
Si Si7 0.834951 0.451552 0.926991
Si Si8 0.656814 0.917750 0.828509
O O1 0.168891 0.374999 0.412218
O O2 0.356832 0.412018 0.362683
O O3 0.236068 0.480955 0.489773
O O4 0.230668 0.538177 0.362687
O O5 0.524156 0.769046 0.489776
O O6 0.656638 0.711825 0.362684
O O7 0.530476 0.837987 0.362689
O O8 0.029904 0.210920 0.615947
O O9 0.090797 0.375004 0.568399
O O10 0.902945 0.337866 0.615954
O O11 0.350970 0.759192 0.816439
O O12 0.268890 0.912123 0.884056
O O13 0.276710 0.875004 0.750003
O O14 0.500000 0.348286 0.250000
O O15 0.917417 0.509195 0.183560
O O16 0.000000 0.401710 0.250000
O O17 0.104159 0.460921 0.115952
#
# Coordination Sequence:
#
# PCOD8130059 Si02
#       8
#     8   8   8   8   8   8   8   8
#     4   9  18  28  40  67  98 122 155 192 233 277
#     4   9  18  28  40  67  98 122 155 192 233 277
#     4   9  16  26  44  65  94 124 153 192 237 275
#     4  10  17  27  44  67  94 126 154 190 233 275
#     4  10  17  27  44  67  94 126 154 190 233 275
#     4  10  17  27  44  67  94 126 154 190 233 275
#     4   9  16  26  44  65  94 124 153 192 237 275
#     4  10  17  27  44  67  94 126 154 190 233 275
#
# _framework density 16.599111000000001
#
# number of rings (size 3 to 8) (size 9 to 14) (size 15 to 20)
#    0.000    2.500    2.500    1.500    0.000    6.000 
#    0.000    0.000    0.000    0.750    0.000   10.500 
#    0.000    0.000    0.000    0.000    0.000    0.000 
#
# Total GULP energy -396787.413684 kJ/mol
# GULP energy per Si atom -12399.606678 kJ/mol
# Density = 1.656133 g / cm^3
# Si number density = 16.599111 Si / 1000 Ang^3
#
#
#
# Elastic Constant Matrix: (Units=GPa)
#
#
# Indices 1 2 3 4 5 6 
#
# 1 65.3900 52.3424 64.5713 0.0000 0.6779 0.0000
# 2 52.3424 65.3311 64.3579 0.0000 0.5351 0.0000
# 3 64.5713 64.3579 192.8615 0.0000 4.9695 0.0000
# 4 0.0000 0.0000 0.0000 8.0928 0.0000 -1.1376
# 5 0.6779 0.5351 4.9695 0.0000 8.2326 0.0000
# 6 0.0000 0.0000 0.0000 -1.1376 0.0000 33.8553
#
#
#
# Elastic Compliance Matrix: (Units=1/GPa)
#
#
# Indices 1 2 3 4 5 6 
#
# 1 0.045163 -0.031685 -0.004576 0.000000 0.001103 0.000000
# 2 -0.031685 0.045113 -0.004508 0.000000 0.002398 0.000000
# 3 -0.004576 -0.004508 0.008334 0.000000 -0.004361 0.000000
# 4 0.000000 0.000000 0.000000 0.124153 0.000000 0.004172
# 5 0.001103 0.002398 -0.004361 0.000000 0.123855 0.000000
# 6 0.000000 0.000000 0.000000 0.004172 0.000000 0.029678
#
#
# Mechanical properties :
#
#
# Convention : Reuss Voigt Hill
#
# Bulk Modulus (GPa) = 58.57434 76.23621 67.40527
# Shear Modulus (GPa) = 10.78693 19.52353 15.15523
#
# Velocity S-wave (km/s) = 2.55198 3.43327 3.02489
# Velocity P-wave (km/s) = 6.63685 7.85774 7.27295
#
# Compressibility (1/GPa) = 0.01707232
#
# Stress axis : x y z
#
# Youngs Moduli (GPa) = 22.14202 22.16636 119.99478
#
# Poissons Ratio (x) = 0.70235 0.54908
# Poissons Ratio (y) = 0.70158 0.54090
# Poissons Ratio (z) = 0.10132 0.09992
#
# Static dielectric constant tensor:
#      x y z
#    x 2.846340 0.000000 0.021440 
#    y 0.000000 2.845400 0.000000 
#    z 0.021440 0.000000 3.331240 
# 
# 
# High freq. dielectric constant tensor:
#      x y z
#    x 1.599660 0.000000 0.002740 
#    y 0.000000 1.599540 0.000000 
#    z 0.002740 0.000000 1.661600 
# 
# From -- ./inp_files/205084.got.cif
#   From: 2010.06.25/outbox.cif.g09.slc.cpg/sg15_103_cif.got.tgz:205084.got - 2010.06.28 07:06:18.
