data_PCOD8130736
_publ_section_title
;
Structure prediction by ZEFSAII (Michael W. Deem and Ramdas Pophale) SiO2 
 PCOD8130736
Probable space group: C 2/C
;
_chemical_formula_sum "Si O2"
_cell_formula_units_Z 60
_cell_length_a 12.645674
_cell_length_b 28.369803
_cell_length_c 13.402520
_cell_angle_alpha 90.000000
_cell_angle_beta 135.548669
_cell_angle_gamma 90.000000
_cell_volume 3367.214996
_symmetry_space_group_name_H-M "C 2/C"
_symmetry_group_IT_number 15
_symmetry_cell_setting 'monoclinic'
loop_
_space_group_symop_operation_xyz
x,y,z
-x,y,1/2-z
-x,-y,-z
x,-y,1/2+z
1/2+x,1/2+y,z
1/2-x,1/2+y,1/2-z
1/2-x,1/2-y,-z
1/2+x,1/2-y,1/2+z
loop_
_atom_site_type_symbol
_atom_site_label
_atom_site_fract_x
_atom_site_fract_y
_atom_site_fract_z
Si Si1 0.238742 0.568469 0.495058
Si Si2 0.722808 0.159783 0.387519
Si Si3 0.281023 0.132971 0.827602
Si Si4 0.502106 0.809753 0.911841
Si Si5 0.223463 0.044530 0.665379
Si Si6 0.500000 0.006110 0.250000
Si Si7 0.479028 0.293392 0.351978
Si Si8 0.490807 0.506353 0.134691
O O1 0.212511 0.603451 0.384817
O O2 0.262790 0.599754 0.609281
O O3 0.390369 0.540386 0.575795
O O4 0.089628 0.535795 0.395135
O O5 0.660030 0.172551 0.236216
O O6 0.628301 0.184990 0.411140
O O7 0.894531 0.173879 0.516082
O O8 0.267703 0.098129 0.724219
O O9 0.174029 0.177640 0.739945
O O10 0.444889 0.158040 0.957659
O O11 0.481175 0.754244 0.920025
O O12 0.157065 0.011256 0.710080
O O13 0.379383 0.024111 0.729760
O O14 0.088945 0.044152 0.492164
O O15 0.500000 0.280208 0.250000
O O16 0.500000 0.530328 0.250000
#
# Coordination Sequence:
#
# PCOD8130736 Si02
#       8
#     8   8   8   8   8   4   8   8
#     4  10  18  30  51  74 107 147 178 212 264 318
#     4  10  18  26  42  68 106 143 180 203 250 331
#     4  11  21  32  52  76 106 145 181 217 265 332
#     4  10  19  28  42  70 109 143 174 215 266 324
#     4  10  22  36  56  80 107 146 190 226 270 320
#     4  10  22  38  50  76 110 144 186 232 268 316
#     4  12  18  28  47  73 106 149 179 211 265 334
#     4  10  19  36  56  80 110 145 185 225 266 323
#
# _framework density 17.818881000000001
#
# number of rings (size 3 to 8) (size 9 to 14) (size 15 to 20)
#    0.000    1.600    5.333    3.600    0.000    0.533 
#    0.000    0.000    0.000    0.000    0.000    0.933 
#    0.000    0.000    0.000    0.000    0.000    0.000 
#
# Total GULP energy -371722.424820 kJ/mol
# GULP energy per Si atom -12390.747494 kJ/mol
# Density = 1.777832 g / cm^3
# Si number density = 17.818881 Si / 1000 Ang^3
#
#
#
# Elastic Constant Matrix: (Units=GPa)
#
#
# Indices 1 2 3 4 5 6 
#
# 1 53.2440 20.4022 27.6059 0.0000 3.9647 0.0000
# 2 20.4022 111.0413 46.2562 0.0000 -2.6289 0.0000
# 3 27.6059 46.2562 97.9607 0.0000 4.7667 0.0000
# 4 0.0000 0.0000 0.0000 13.1445 0.0000 -16.5591
# 5 3.9647 -2.6289 4.7667 0.0000 24.7912 0.0000
# 6 0.0000 0.0000 0.0000 -16.5591 0.0000 -1.2371
#
#
#
# Elastic Compliance Matrix: (Units=1/GPa)
#
#
# Indices 1 2 3 4 5 6 
#
# 1 0.022482 -0.002010 -0.005250 0.000000 -0.002799 0.000000
# 2 -0.002010 0.011514 -0.004992 0.000000 0.002502 0.000000
# 3 -0.005250 -0.004992 0.014162 0.000000 -0.002413 0.000000
# 4 0.000000 0.000000 0.000000 0.004259 0.000000 -0.057009
# 5 -0.002799 0.002502 -0.002413 0.000000 0.041514 0.000000
# 6 0.000000 0.000000 0.000000 -0.057009 0.000000 -0.045254
#
#
# Mechanical properties :
#
#
# Convention : Reuss Voigt Hill
#
# Bulk Modulus (GPa) = 42.27670 50.08608 46.18139
# Shear Modulus (GPa) = 61.67768 18.53851 40.10809
#
# Velocity S-wave (km/s) = 5.88972 3.22900 4.74949
# Velocity P-wave (km/s) = 8.36834 6.48625 7.48667
#
# Compressibility (1/GPa) = 0.02365369
#
# Stress axis : x y z
#
# Youngs Moduli (GPa) = 44.47952 86.85304 70.60966
#
# Poissons Ratio (x) = 0.17457 0.37073
# Poissons Ratio (y) = 0.08940 0.35249
# Poissons Ratio (z) = 0.23353 0.43357
#
# Static dielectric constant tensor:
#      x y z
#    x 2.822650 0.000000 0.084210 
#    y 0.000000 3.434510 0.000000 
#    z 0.084210 0.000000 3.792640 
# 
# 
# High freq. dielectric constant tensor:
#      x y z
#    x 1.617410 0.000000 0.025550 
#    y 0.000000 1.690870 0.000000 
#    z 0.025550 0.000000 1.709780 
# 
# From -- ./inp_files/157389.got.cif
#   From: 2010.06.25/outbox.cif.g09.slc.cpg/sg15_79_cif.got.tgz:157389.got - 2010.06.28 07:06:18.
