data_PCOD8130370
_publ_section_title
;
Structure prediction by ZEFSAII (Michael W. Deem and Ramdas Pophale) SiO2 
 PCOD8130370
Probable space group: C 2/C
;
_chemical_formula_sum "Si O2"
_cell_formula_units_Z 44
_cell_length_a 9.262086
_cell_length_b 27.113253
_cell_length_c 20.333194
_cell_angle_alpha 90.000000
_cell_angle_beta 150.187216
_cell_angle_gamma 90.000000
_cell_volume 2538.626619
_symmetry_space_group_name_H-M "C 2/C"
_symmetry_group_IT_number 15
_symmetry_cell_setting 'monoclinic'
loop_
_space_group_symop_operation_xyz
x,y,z
-x,y,1/2-z
-x,-y,-z
x,-y,1/2+z
1/2+x,1/2+y,z
1/2-x,1/2+y,1/2-z
1/2-x,1/2-y,-z
1/2+x,1/2-y,1/2+z
loop_
_atom_site_type_symbol
_atom_site_label
_atom_site_fract_x
_atom_site_fract_y
_atom_site_fract_z
Si Si1 0.321406 0.224108 0.870388
Si Si2 0.321078 0.783187 0.113198
Si Si3 0.339752 0.476477 0.874714
Si Si4 0.164877 0.926195 0.189231
Si Si5 0.814691 0.893074 0.446195
Si Si6 0.500000 0.629461 0.750000
O O1 0.453279 0.237294 0.851348
O O2 0.000000 0.248894 0.750000
O O3 0.286638 0.164724 0.864658
O O4 0.547912 0.245839 0.013696
O O5 0.500000 0.789704 0.250000
O O6 0.190798 0.835530 0.038637
O O7 0.396826 0.514744 0.837238
O O8 0.000000 0.470996 0.750000
O O9 0.500000 0.500000 0.000000
O O10 0.472697 0.421526 0.918244
O O11 0.504575 0.918075 0.333574
O O12 0.072037 0.899740 0.084291
O O13 0.986843 0.903727 0.179619
#
# Coordination Sequence:
#
# PCOD8130370 Si02
#       6
#     8   8   8   8   8   4
#     4   9  21  35  53  82 111 138 178 231 262 318
#     4  11  19  35  58  78 106 148 180 215 275 326
#     4  10  18  31  55  79 103 128 179 227 251 300
#     4  10  17  32  54  76  98 144 171 211 263 317
#     4  10  17  32  55  74 101 134 185 209 257 310
#     4  10  18  36  54  74 112 142 174 214 270 326
#
# _framework density 17.332205999999999
#
# number of rings (size 3 to 8) (size 9 to 14) (size 15 to 20)
#    0.545    1.455    7.273    0.000    0.000    1.455 
#    0.000    0.909    4.000    0.000    2.364    0.000 
#    0.000    0.000    0.000    0.000    0.000    0.000 
#
# Total GULP energy -272564.966410 kJ/mol
# GULP energy per Si atom -12389.316655 kJ/mol
# Density = 1.729276 g / cm^3
# Si number density = 17.332206 Si / 1000 Ang^3
#
#
#
# Elastic Constant Matrix: (Units=GPa)
#
#
# Indices 1 2 3 4 5 6 
#
# 1 76.1971 29.6260 28.0147 0.0006 7.2752 -0.0059
# 2 29.6260 105.1604 55.3322 -0.0004 2.3121 -0.0019
# 3 28.0147 55.3322 82.6431 0.0221 16.0080 0.0434
# 4 0.0006 -0.0004 0.0221 35.3601 0.0043 -0.7449
# 5 7.2752 2.3121 16.0080 0.0043 17.0937 0.0061
# 6 -0.0059 -0.0019 0.0434 -0.7449 0.0061 18.6289
#
#
#
# Elastic Compliance Matrix: (Units=1/GPa)
#
#
# Indices 1 2 3 4 5 6 
#
# 1 0.015581 -0.002960 -0.002557 0.000002 -0.003837 0.000012
# 2 -0.002960 0.016419 -0.011976 0.000007 0.010254 0.000026
# 3 -0.002557 -0.011976 0.024995 -0.000014 -0.020699 -0.000054
# 4 0.000002 0.000007 -0.000014 0.028304 0.000004 0.001132
# 5 -0.003837 0.010254 -0.020699 0.000004 0.078131 0.000022
# 6 0.000012 0.000026 -0.000054 0.001132 0.000022 0.053726
#
#
# Mechanical properties :
#
#
# Convention : Reuss Voigt Hill
#
# Bulk Modulus (GPa) = 45.43518 54.43850 49.93684
# Shear Modulus (GPa) = 19.26945 24.28504 21.77724
#
# Velocity S-wave (km/s) = 3.33794 3.74726 3.54851
# Velocity P-wave (km/s) = 6.41303 7.08517 6.75746
#
# Compressibility (1/GPa) = 0.02200938
#
# Stress axis : x y z
#
# Youngs Moduli (GPa) = 64.18058 60.90464 40.00834
#
# Poissons Ratio (x) = 0.18027 0.10230
# Poissons Ratio (y) = 0.18996 0.47914
# Poissons Ratio (z) = 0.16410 0.72940
#
# Static dielectric constant tensor:
#      x y z
#    x 3.060920 0.000040 0.054990 
#    y 0.000040 3.555440 0.000080 
#    z 0.054990 0.000080 3.165360 
# 
# 
# High freq. dielectric constant tensor:
#      x y z
#    x 1.644980 0.000000 0.012050 
#    y 0.000000 1.671120 0.000000 
#    z 0.012050 0.000000 1.652680 
# 
# From -- ./inp_files/139202.got.cif
#   From: 2010.06.25/outbox.cif.g09.slc.cpg/sg15_70_cif.got.tgz:139202.got - 2010.06.28 07:06:18.
