data_PCOD8130351
_publ_section_title
;
Structure prediction by ZEFSAII (Michael W. Deem and Ramdas Pophale) SiO2 
 PCOD8130351
Probable space group: C 2/C
;
_chemical_formula_sum "Si O2"
_cell_formula_units_Z 64
_cell_length_a 10.878563
_cell_length_b 21.721324
_cell_length_c 17.832526
_cell_angle_alpha 90.000000
_cell_angle_beta 59.055819
_cell_angle_gamma 90.000000
_cell_volume 3614.017324
_symmetry_space_group_name_H-M "C 2/C"
_symmetry_group_IT_number 15
_symmetry_cell_setting 'monoclinic'
loop_
_space_group_symop_operation_xyz
x,y,z
-x,y,1/2-z
-x,-y,-z
x,-y,1/2+z
1/2+x,1/2+y,z
1/2-x,1/2+y,1/2-z
1/2-x,1/2-y,-z
1/2+x,1/2-y,1/2+z
loop_
_atom_site_type_symbol
_atom_site_label
_atom_site_fract_x
_atom_site_fract_y
_atom_site_fract_z
Si Si1 0.010352 0.404792 0.025356
Si Si2 0.707879 0.646145 0.111717
Si Si3 0.552953 0.796011 0.356071
Si Si4 0.898759 0.946929 0.563562
Si Si5 0.688546 0.018358 0.013951
Si Si6 0.712526 0.776409 0.161981
Si Si7 0.954699 0.027552 0.339937
Si Si8 0.545914 0.318054 0.518750
O O1 0.124877 0.368937 0.939544
O O2 0.091228 0.457189 0.049535
O O3 0.923968 0.358477 0.105241
O O4 0.898660 0.429722 0.000656
O O5 0.685760 0.703333 0.172999
O O6 0.613056 0.590443 0.171423
O O7 0.667937 0.661329 0.038329
O O8 0.687524 0.794958 0.256404
O O9 0.405839 0.804450 0.356450
O O10 0.548040 0.736745 0.413715
O O11 0.738093 0.958342 0.581335
O O12 0.907417 0.956472 0.650970
O O13 0.949602 0.877354 0.526840
O O14 0.000000 0.000000 0.500000
O O15 0.834808 0.009501 0.922010
O O16 0.870859 0.794691 0.082357
O O17 0.000000 0.990816 0.250000
#
# Coordination Sequence:
#
# PCOD8130351 Si02
#       8
#     8   8   8   8   8   8   8   8
#     4  10  17  35  54  71 102 135 183 215 262 311
#     4   9  16  28  52  74 103 130 165 214 259 311
#     4  10  19  29  49  81 104 135 172 221 267 315
#     4   9  19  34  53  76 102 136 174 207 260 320
#     4   9  20  35  54  73  98 146 179 212 259 321
#     4  10  18  28  48  81 110 129 167 218 274 311
#     4   9  18  31  52  80 101 131 170 218 262 304
#     4  10  17  32  52  76 104 136 168 214 268 309
#
# _framework density 17.708824
#
# number of rings (size 3 to 8) (size 9 to 14) (size 15 to 20)
#    0.000    2.500    2.500    1.500    5.250    0.000 
#    4.500    0.625    0.000    6.000    0.000    0.000 
#    0.000    0.000    0.000    0.000    0.000    0.000 
#
# Total GULP energy -396509.786571 kJ/mol
# GULP energy per Si atom -12390.930830 kJ/mol
# Density = 1.766852 g / cm^3
# Si number density = 17.708824 Si / 1000 Ang^3
#
#
#
# Elastic Constant Matrix: (Units=GPa)
#
#
# Indices 1 2 3 4 5 6 
#
# 1 80.9095 19.1888 21.3012 0.0000 14.1784 0.0000
# 2 19.1888 70.1365 14.6505 0.0000 5.6880 0.0000
# 3 21.3012 14.6505 87.0173 0.0000 -2.4242 0.0000
# 4 0.0000 0.0000 0.0000 15.3887 0.0000 5.0519
# 5 14.1784 5.6880 -2.4242 0.0000 14.9155 0.0000
# 6 0.0000 0.0000 0.0000 5.0519 0.0000 21.3538
#
#
#
# Elastic Compliance Matrix: (Units=1/GPa)
#
#
# Indices 1 2 3 4 5 6 
#
# 1 0.016778 -0.002456 -0.004131 0.000000 -0.015683 0.000000
# 2 -0.002456 0.015705 -0.002155 0.000000 -0.004005 0.000000
# 3 -0.004131 -0.002155 0.013057 0.000000 0.006870 0.000000
# 4 0.000000 0.000000 0.000000 0.070455 0.000000 -0.016668
# 5 -0.015683 -0.004005 0.006870 0.000000 0.084597 0.000000
# 6 0.000000 0.000000 0.000000 -0.016668 0.000000 0.050773
#
#
# Mechanical properties :
#
#
# Convention : Reuss Voigt Hill
#
# Bulk Modulus (GPa) = 35.64017 38.70492 37.17254
# Shear Modulus (GPa) = 17.97281 22.52646 20.24964
#
# Velocity S-wave (km/s) = 3.18922 3.57045 3.38520
# Velocity P-wave (km/s) = 5.80782 6.23708 6.02628
#
# Compressibility (1/GPa) = 0.02805823
#
# Stress axis : x y z
#
# Youngs Moduli (GPa) = 59.60321 63.67568 76.58587
#
# Poissons Ratio (x) = 0.15636 0.31634
# Poissons Ratio (y) = 0.14636 0.16501
# Poissons Ratio (z) = 0.24619 0.13719
#
# Static dielectric constant tensor:
#      x y z
#    x 3.233090 0.000000 0.141960 
#    y 0.000000 3.419540 0.000000 
#    z 0.141960 0.000000 3.227590 
# 
# 
# High freq. dielectric constant tensor:
#      x y z
#    x 1.648510 0.000000 -0.002290 
#    y 0.000000 1.689260 0.000000 
#    z -0.002290 0.000000 1.671170 
# 
# From -- ./inp_files/147859.got.cif
#   From: 2010.06.25/outbox.cif.g09.slc.cpg/sg15_74_cif.got.tgz:147859.got - 2010.06.28 07:06:18.
