data_PCOD8130160
_publ_section_title
;
Structure prediction by ZEFSAII (Michael W. Deem and Ramdas Pophale) SiO2 
 PCOD8130160
Probable space group: C 2/C
;
_chemical_formula_sum "Si O2"
_cell_formula_units_Z 64
_cell_length_a 20.217298
_cell_length_b 19.844329
_cell_length_c 9.355142
_cell_angle_alpha 90.000000
_cell_angle_beta 98.792678
_cell_angle_gamma 90.000000
_cell_volume 3709.162205
_symmetry_space_group_name_H-M "C 2/C"
_symmetry_group_IT_number 15
_symmetry_cell_setting 'monoclinic'
loop_
_space_group_symop_operation_xyz
x,y,z
-x,y,1/2-z
-x,-y,-z
x,-y,1/2+z
1/2+x,1/2+y,z
1/2-x,1/2+y,1/2-z
1/2-x,1/2-y,-z
1/2+x,1/2-y,1/2+z
loop_
_atom_site_type_symbol
_atom_site_label
_atom_site_fract_x
_atom_site_fract_y
_atom_site_fract_z
Si Si1 0.295987 0.385499 0.638950
Si Si2 0.737367 0.475087 0.442303
Si Si3 0.328169 0.017994 0.712043
Si Si4 0.355401 0.868998 0.014584
Si Si5 0.423680 0.896537 0.763978
Si Si6 0.836910 0.273924 0.650088
Si Si7 0.821590 0.231148 0.963740
Si Si8 0.802202 0.841240 0.952744
O O1 0.311866 0.464908 0.626603
O O2 0.214697 0.376709 0.599254
O O3 0.336367 0.343661 0.529562
O O4 0.324503 0.360363 0.800197
O O5 0.761523 0.493904 0.609143
O O6 0.804885 0.470702 0.367243
O O7 0.696570 0.405532 0.439304
O O8 0.354234 0.089814 0.660946
O O9 0.384985 0.963085 0.700776
O O10 0.415014 0.894329 0.932532
O O11 0.369169 0.789496 0.047269
O O12 0.500000 0.906105 0.750000
O O13 0.397421 0.827118 0.682767
O O14 0.823935 0.233414 0.793206
O O15 0.851170 0.216050 0.535384
O O16 0.773314 0.315388 0.577240
O O17 0.750000 0.250000 0.000000
#
# Coordination Sequence:
#
# PCOD8130160 Si02
#       8
#     8   8   8   8   8   8   8   8
#     4  10  17  30  46  69  98 128 151 193 246 297
#     4  11  19  30  48  69 106 127 158 193 247 295
#     4  11  19  33  45  67  95 134 167 203 236 277
#     4   9  18  31  45  67  93 121 177 196 233 287
#     4  11  20  36  50  64  97 136 175 211 235 270
#     4  10  20  31  45  73  89 122 170 200 244 288
#     4   9  16  29  45  63  93 125 157 192 243 296
#     4  11  19  29  47  69 102 117 157 203 246 300
#
# _framework density 17.254570000000001
#
# number of rings (size 3 to 8) (size 9 to 14) (size 15 to 20)
#    0.000    1.750    8.750    0.000    5.250    0.500 
#    0.000    0.000    0.000    0.000    0.000    0.000 
#    0.000    9.000    0.000    0.000    0.000    0.000 
#
# Total GULP energy -396481.480370 kJ/mol
# GULP energy per Si atom -12390.046262 kJ/mol
# Density = 1.721530 g / cm^3
# Si number density = 17.254570 Si / 1000 Ang^3
#
#
#
# Elastic Constant Matrix: (Units=GPa)
#
#
# Indices 1 2 3 4 5 6 
#
# 1 19.4141 11.2254 10.4128 0.0000 -3.7003 0.0000
# 2 11.2254 125.4951 47.3724 0.0000 -1.5092 0.0000
# 3 10.4128 47.3724 75.9361 0.0000 -5.7637 0.0000
# 4 0.0000 0.0000 0.0000 36.2294 0.0000 0.2575
# 5 -3.7003 -1.5092 -5.7637 0.0000 11.5084 0.0000
# 6 0.0000 0.0000 0.0000 0.2575 0.0000 12.2957
#
#
#
# Elastic Compliance Matrix: (Units=1/GPa)
#
#
# Indices 1 2 3 4 5 6 
#
# 1 0.059067 -0.003263 -0.004839 0.000000 0.016141 0.000000
# 2 -0.003263 0.010646 -0.006411 0.000000 -0.002864 0.000000
# 3 -0.004839 -0.006411 0.018348 0.000000 0.006792 0.000000
# 4 0.000000 0.000000 0.000000 0.027606 0.000000 -0.000578
# 5 0.016141 -0.002864 0.006792 0.000000 0.095109 0.000000
# 6 0.000000 0.000000 0.000000 -0.000578 0.000000 0.081341
#
#
# Mechanical properties :
#
#
# Convention : Reuss Voigt Hill
#
# Bulk Modulus (GPa) = 16.93922 39.87406 28.40664
# Shear Modulus (GPa) = 14.67038 22.12901 18.39970
#
# Velocity S-wave (km/s) = 2.91904 3.58509 3.26907
# Velocity P-wave (km/s) = 4.60430 6.34796 5.54510
#
# Compressibility (1/GPa) = 0.05903460
#
# Stress axis : x y z
#
# Youngs Moduli (GPa) = 16.92984 93.93131 54.50221
#
# Poissons Ratio (x) = 0.30647 0.26374
# Poissons Ratio (y) = 0.05524 0.34944
# Poissons Ratio (z) = 0.08193 0.60224
#
# Static dielectric constant tensor:
#      x y z
#    x 2.302700 0.000000 -0.300790 
#    y 0.000000 3.995240 0.000000 
#    z -0.300790 0.000000 3.266640 
# 
# 
# High freq. dielectric constant tensor:
#      x y z
#    x 1.569650 0.000000 -0.018780 
#    y 0.000000 1.691840 0.000000 
#    z -0.018780 0.000000 1.671790 
# 
# From -- ./inp_files/57521.got.cif
#   From: 2010.06.25/outbox.cif.g09.slc.cpg/sg15_29_cif.got.tgz:57521.got - 2010.06.28 07:06:18.
