data_PCOD8130520
_publ_section_title
;
Structure prediction by ZEFSAII (Michael W. Deem and Ramdas Pophale) SiO2 
 PCOD8130520
Probable space group: C 2/C
;
_chemical_formula_sum "Si O2"
_cell_formula_units_Z 40
_cell_length_a 21.265918
_cell_length_b 20.150032
_cell_length_c 14.871925
_cell_angle_alpha 90.000000
_cell_angle_beta 19.873487
_cell_angle_gamma 90.000000
_cell_volume 2166.381609
_symmetry_space_group_name_H-M "C 2/C"
_symmetry_group_IT_number 15
_symmetry_cell_setting 'monoclinic'
loop_
_space_group_symop_operation_xyz
x,y,z
-x,y,1/2-z
-x,-y,-z
x,-y,1/2+z
1/2+x,1/2+y,z
1/2-x,1/2+y,1/2-z
1/2-x,1/2-y,-z
1/2+x,1/2-y,1/2+z
loop_
_atom_site_type_symbol
_atom_site_label
_atom_site_fract_x
_atom_site_fract_y
_atom_site_fract_z
Si Si1 0.098929 0.951377 0.299486
Si Si2 0.000000 0.982085 0.750000
Si Si3 0.810383 0.599990 0.894260
Si Si4 0.545942 0.224349 0.584981
Si Si5 0.000000 0.500085 0.250000
Si Si6 0.093406 0.840006 0.845905
O O1 0.040775 0.876755 0.403753
O O2 0.027716 0.969348 0.296256
O O3 0.321232 0.954331 0.007092
O O4 0.000000 0.000000 0.500000
O O5 0.177167 0.932670 0.498217
O O6 0.898323 0.669815 0.746158
O O7 0.971517 0.547471 0.701271
O O8 0.690158 0.608147 0.147641
O O9 0.500000 0.242359 0.750000
O O10 0.753167 0.197150 0.300255
O O11 0.528710 0.288678 0.547130
#
# Coordination Sequence:
#
# PCOD8130520 Si02
#       6
#     8   4   8   8   4   8
#     4  11  21  39  59  84 121 159 195 243 294 352
#     4  10  22  32  61  87 116 154 196 236 296 354
#     4  10  17  34  55  87 118 143 186 245 306 350
#     4  10  20  33  56  90 117 147 191 247 305 352
#     4  10  18  36  61  85 118 156 190 242 296 348
#     4  11  21  34  57  81 121 150 185 238 300 355
#
# _framework density 18.463968000000001
#
# number of rings (size 3 to 8) (size 9 to 14) (size 15 to 20)
#    0.000    1.600    7.000    2.400    4.200    0.000 
#    0.000   13.000    0.000    3.600    0.000    0.000 
#    0.000    0.000    0.000    0.000    0.000    0.000 
#
# Total GULP energy -247959.303750 kJ/mol
# GULP energy per Si atom -12397.965187 kJ/mol
# Density = 1.842194 g / cm^3
# Si number density = 18.463968 Si / 1000 Ang^3
#
#
#
# Elastic Constant Matrix: (Units=GPa)
#
#
# Indices 1 2 3 4 5 6 
#
# 1 98.0747 65.7580 57.6341 0.0129 -19.9268 0.0016
# 2 65.7580 113.3068 58.3409 0.0108 -7.0427 -0.0035
# 3 57.6341 58.3409 106.2554 -0.0004 -18.0706 0.0557
# 4 0.0129 0.0108 -0.0004 30.0993 -0.0021 5.6088
# 5 -19.9268 -7.0427 -18.0706 -0.0021 29.4181 -0.0245
# 6 0.0016 -0.0035 0.0557 5.6088 -0.0245 29.4255
#
#
#
# Elastic Compliance Matrix: (Units=1/GPa)
#
#
# Indices 1 2 3 4 5 6 
#
# 1 0.021008 -0.009139 -0.004834 -0.000008 0.009073 0.000016
# 2 -0.009139 0.016328 -0.004909 -0.000004 -0.005297 0.000008
# 3 -0.004834 -0.004909 0.015602 0.000009 0.005134 -0.000027
# 4 -0.000008 -0.000004 0.000009 0.034447 -0.000004 -0.006566
# 5 0.009073 -0.005297 0.005134 -0.000004 0.042024 0.000025
# 6 0.000016 0.000008 -0.000027 -0.006566 0.000025 0.035236
#
#
# Mechanical properties :
#
#
# Convention : Reuss Voigt Hill
#
# Bulk Modulus (GPa) = 65.90301 75.67809 70.79055
# Shear Modulus (GPa) = 24.10031 26.84883 25.47457
#
# Velocity S-wave (km/s) = 3.61676 3.81743 3.71845
# Velocity P-wave (km/s) = 7.29462 7.77858 7.54048
#
# Compressibility (1/GPa) = 0.01517381
#
# Stress axis : x y z
#
# Youngs Moduli (GPa) = 47.60022 61.24540 64.09598
#
# Poissons Ratio (x) = 0.55974 0.30985
# Poissons Ratio (y) = 0.43503 0.31462
# Poissons Ratio (z) = 0.23010 0.30063
#
# Static dielectric constant tensor:
#      x y z
#    x 3.230960 0.000040 -0.344280 
#    y 0.000040 3.472780 0.000090 
#    z -0.344280 0.000090 3.411160 
# 
# 
# High freq. dielectric constant tensor:
#      x y z
#    x 1.697810 0.000000 -0.043990 
#    y 0.000000 1.714000 0.000010 
#    z -0.043990 0.000010 1.695800 
# 
# From -- ./inp_files/29136.got.cif
#   From: 2010.06.25/outbox.cif.g09.slc.cpg/sg15_15_cif.got.tgz:29136.got - 2010.06.28 07:06:18.
