data_PCOD8130228
_publ_section_title
;
Structure prediction by ZEFSAII (Michael W. Deem and Ramdas Pophale) SiO2 
 PCOD8130228
Probable space group: C 2/C
;
_chemical_formula_sum "Si O2"
_cell_formula_units_Z 56
_cell_length_a 10.193002
_cell_length_b 21.249484
_cell_length_c 21.982184
_cell_angle_alpha 90.000000
_cell_angle_beta 144.074683
_cell_angle_gamma 90.000000
_cell_volume 2793.571559
_symmetry_space_group_name_H-M "C 2/C"
_symmetry_group_IT_number 15
_symmetry_cell_setting 'monoclinic'
loop_
_space_group_symop_operation_xyz
x,y,z
-x,y,1/2-z
-x,-y,-z
x,-y,1/2+z
1/2+x,1/2+y,z
1/2-x,1/2+y,1/2-z
1/2-x,1/2-y,-z
1/2+x,1/2-y,1/2+z
loop_
_atom_site_type_symbol
_atom_site_label
_atom_site_fract_x
_atom_site_fract_y
_atom_site_fract_z
Si Si1 0.463906 0.516379 0.917115
Si Si2 0.500000 0.852144 0.750000
Si Si3 0.692968 0.059630 0.228349
Si Si4 0.395069 0.955869 0.064615
Si Si5 0.694461 0.835881 0.536095
Si Si6 0.521984 0.291853 0.557569
Si Si7 0.725477 0.128531 0.865352
Si Si8 0.000000 0.872392 0.750000
O O1 0.284316 0.467376 0.825630
O O2 0.372102 0.587231 0.872811
O O3 0.500000 0.500000 0.000000
O O4 0.696945 0.503720 0.970338
O O5 0.480879 0.890266 0.807398
O O6 0.717287 0.808615 0.842633
O O7 0.893356 0.087947 0.264444
O O8 0.600725 0.002936 0.151804
O O9 0.346568 0.918144 0.108038
O O10 0.423313 0.903631 0.021886
O O11 0.503717 0.783649 0.453342
O O12 0.906524 0.823507 0.572341
O O13 0.796434 0.833005 0.642836
O O14 0.386893 0.315789 0.447582
O O15 0.500000 0.156511 0.750000
#
# Coordination Sequence:
#
# PCOD8130228 Si02
#       8
#     8   4   8   8   8   8   8   4
#     4  10  18  32  55  93 130 156 197 263 323 372
#     4  12  20  42  67 103 120 166 220 272 330 362
#     4  12  22  37  65  95 127 169 206 266 330 390
#     4  10  19  35  58  84 122 166 206 249 312 386
#     4  10  22  43  60  89 127 175 212 257 321 397
#     4  10  22  39  68  89 122 170 218 267 314 382
#     4  10  17  30  55  98 122 149 207 267 320 357
#     4  12  24  42  61  93 130 168 212 250 346 400
#
# _framework density 20.046023999999999
#
# number of rings (size 3 to 8) (size 9 to 14) (size 15 to 20)
#    0.000    1.429    4.286    4.286    1.000    0.571 
#    0.000    1.429    0.000    0.000    0.000    0.000 
#    0.000    0.000    0.000    0.000    0.000    0.000 
#
# Total GULP energy -346914.913545 kJ/mol
# GULP energy per Si atom -12389.818341 kJ/mol
# Density = 2.000040 g / cm^3
# Si number density = 20.046024 Si / 1000 Ang^3
#
#
#
# Elastic Constant Matrix: (Units=GPa)
#
#
# Indices 1 2 3 4 5 6 
#
# 1 58.0365 40.1585 28.9077 -0.0012 6.7089 -0.0004
# 2 40.1585 93.4865 55.6099 -0.0008 3.4439 0.0000
# 3 28.9077 55.6099 147.7268 -0.0020 5.1514 -0.0015
# 4 -0.0012 -0.0008 -0.0020 27.5777 -0.0018 -1.2468
# 5 6.7089 3.4439 5.1514 -0.0018 26.8383 -0.0009
# 6 -0.0004 0.0000 -0.0015 -1.2468 -0.0009 19.2382
#
#
#
# Elastic Compliance Matrix: (Units=1/GPa)
#
#
# Indices 1 2 3 4 5 6 
#
# 1 0.025258 -0.010092 -0.000975 0.000000 -0.004832 0.000000
# 2 -0.010092 0.017831 -0.004778 0.000000 0.001152 0.000000
# 3 -0.000975 -0.004778 0.008788 0.000000 -0.000830 0.000001
# 4 0.000000 0.000000 0.000000 0.036368 0.000002 0.002357
# 5 -0.004832 0.001152 -0.000830 0.000002 0.038480 0.000002
# 6 0.000000 0.000000 0.000001 0.002357 0.000002 0.052133
#
#
# Mechanical properties :
#
#
# Convention : Reuss Voigt Hill
#
# Bulk Modulus (GPa) = 49.53594 60.95578 55.24586
# Shear Modulus (GPa) = 23.01227 26.36907 24.69067
#
# Velocity S-wave (km/s) = 3.39185 3.63082 3.51336
# Velocity P-wave (km/s) = 6.33279 6.93188 6.63910
#
# Compressibility (1/GPa) = 0.02018736
#
# Stress axis : x y z
#
# Youngs Moduli (GPa) = 39.59162 56.08063 113.79751
#
# Poissons Ratio (x) = 0.56596 0.11096
# Poissons Ratio (y) = 0.39955 0.54370
# Poissons Ratio (z) = 0.03861 0.26794
#
# Static dielectric constant tensor:
#      x y z
#    x 3.511650 0.000000 0.048080 
#    y 0.000000 3.741810 0.000000 
#    z 0.048080 0.000000 3.822710 
# 
# 
# High freq. dielectric constant tensor:
#      x y z
#    x 1.739260 0.000000 -0.000130 
#    y 0.000000 1.773540 0.000000 
#    z -0.000130 0.000000 1.796640 
# 
# From -- ./inp_files/200764.got.cif
#   From: 2010.06.25/outbox.cif.g09.slc.cpg/sg15_101_cif.got.tgz:200764.got - 2010.06.28 07:06:18.
