data_PCOD8130710
_publ_section_title
;
Structure prediction by ZEFSAII (Michael W. Deem and Ramdas Pophale) SiO2 
 PCOD8130710
Probable space group: C 2/C
;
_chemical_formula_sum "Si O2"
_cell_formula_units_Z 60
_cell_length_a 11.817325
_cell_length_b 15.423282
_cell_length_c 17.834051
_cell_angle_alpha 90.000000
_cell_angle_beta 67.839728
_cell_angle_gamma 90.000000
_cell_volume 3010.364184
_symmetry_space_group_name_H-M "C 2/C"
_symmetry_group_IT_number 15
_symmetry_cell_setting 'monoclinic'
loop_
_space_group_symop_operation_xyz
x,y,z
-x,y,1/2-z
-x,-y,-z
x,-y,1/2+z
1/2+x,1/2+y,z
1/2-x,1/2+y,1/2-z
1/2-x,1/2-y,-z
1/2+x,1/2-y,1/2+z
loop_
_atom_site_type_symbol
_atom_site_label
_atom_site_fract_x
_atom_site_fract_y
_atom_site_fract_z
Si Si1 0.180918 0.363248 0.702611
Si Si2 0.890048 0.657180 0.673285
Si Si3 0.563184 0.427934 0.898260
Si Si4 0.801449 0.247304 0.670809
Si Si5 0.496297 0.616213 0.921644
Si Si6 0.570424 0.695161 0.157230
Si Si7 0.500000 0.987216 0.250000
Si Si8 0.781320 0.791212 0.411654
O O1 0.324017 0.384221 0.672432
O O2 0.140392 0.325173 0.793927
O O3 0.159628 0.287507 0.648683
O O4 0.108215 0.448970 0.695699
O O5 0.783012 0.685888 0.756411
O O6 0.947800 0.567795 0.692054
O O7 0.830557 0.659260 0.604068
O O8 0.005035 0.720571 0.639490
O O9 0.567070 0.529677 0.879882
O O10 0.439604 0.386188 0.896242
O O11 0.569436 0.402312 0.983307
O O12 0.906741 0.194451 0.602022
O O13 0.714303 0.288000 0.629381
O O14 0.387151 0.636932 0.891890
O O15 0.500000 0.668933 0.250000
O O16 0.750000 0.750000 0.500000
#
# Coordination Sequence:
#
# PCOD8130710 Si02
#       8
#     8   8   8   8   8   8   4   8
#     4  11  22  39  63  88 124 166 205 263 320 362
#     4  10  20  37  63  89 118 164 201 254 318 368
#     4  11  22  40  60  89 123 168 198 258 321 362
#     4  10  20  39  62  91 119 157 211 253 306 378
#     4  11  24  38  61  92 124 157 212 253 309 379
#     4  10  17  38  61  85 117 158 206 246 306 375
#     4  12  22  36  60  96 124 152 218 272 310 366
#     4  11  21  43  64  83 127 173 206 241 319 390
#
# _framework density 19.931144
#
# number of rings (size 3 to 8) (size 9 to 14) (size 15 to 20)
#    0.000    1.333    7.333    1.600    0.000    3.200 
#    4.800    0.667    0.000    0.000    0.000    0.000 
#    0.000    0.000    0.000    0.000    0.000    0.000 
#
# Total GULP energy -371789.654705 kJ/mol
# GULP energy per Si atom -12392.988490 kJ/mol
# Density = 1.988578 g / cm^3
# Si number density = 19.931144 Si / 1000 Ang^3
#
#
#
# Elastic Constant Matrix: (Units=GPa)
#
#
# Indices 1 2 3 4 5 6 
#
# 1 104.8878 49.8068 37.6419 0.0000 27.4040 0.0000
# 2 49.8068 116.4944 37.0479 0.0000 16.3307 0.0000
# 3 37.6419 37.0479 38.0518 0.0000 13.2558 0.0000
# 4 0.0000 0.0000 0.0000 26.4596 0.0000 6.1580
# 5 27.4040 16.3307 13.2558 0.0000 31.8832 0.0000
# 6 0.0000 0.0000 0.0000 6.1580 0.0000 34.4037
#
#
#
# Elastic Compliance Matrix: (Units=1/GPa)
#
#
# Indices 1 2 3 4 5 6 
#
# 1 0.017080 -0.002426 -0.011522 0.000000 -0.008648 0.000000
# 2 -0.002426 0.012846 -0.009988 0.000000 -0.000342 0.000000
# 3 -0.011522 -0.009988 0.049312 0.000000 -0.005483 0.000000
# 4 0.000000 0.000000 0.000000 0.039436 0.000000 -0.007059
# 5 -0.008648 -0.000342 -0.005483 0.000000 0.041252 0.000000
# 6 0.000000 0.000000 0.000000 -0.007059 0.000000 0.030330
#
#
# Mechanical properties :
#
#
# Convention : Reuss Voigt Hill
#
# Bulk Modulus (GPa) = 31.88079 56.49191 44.18635
# Shear Modulus (GPa) = 20.11405 27.54513 23.82959
#
# Velocity S-wave (km/s) = 3.18020 3.72158 3.46149
# Velocity P-wave (km/s) = 5.43278 6.84631 6.18009
#
# Compressibility (1/GPa) = 0.03136685
#
# Stress axis : x y z
#
# Youngs Moduli (GPa) = 58.54675 77.84752 20.27922
#
# Poissons Ratio (x) = 0.18888 0.23365
# Poissons Ratio (y) = 0.14205 0.20254
# Poissons Ratio (z) = 0.67455 0.77751
#
# Static dielectric constant tensor:
#      x y z
#    x 3.893360 0.000000 0.264560 
#    y 0.000000 3.751840 0.000000 
#    z 0.264560 0.000000 3.384590 
# 
# 
# High freq. dielectric constant tensor:
#      x y z
#    x 1.791340 0.000000 0.013590 
#    y 0.000000 1.777180 0.000000 
#    z 0.013590 0.000000 1.747340 
# 
# From -- ./inp_files/198288.got.cif
#   From: 2010.06.25/outbox.cif.g09.slc.cpg/sg15_100_cif.got.tgz:198288.got - 2010.06.28 07:06:18.
