data_PCOD8130544
_publ_section_title
;
Structure prediction by ZEFSAII (Michael W. Deem and Ramdas Pophale) SiO2 
 PCOD8130544
Probable space group: C 2/C
;
_chemical_formula_sum "Si O2"
_cell_formula_units_Z 48
_cell_length_a 28.808983
_cell_length_b 9.480269
_cell_length_c 15.729052
_cell_angle_alpha 90.000000
_cell_angle_beta 145.925998
_cell_angle_gamma 90.000000
_cell_volume 2406.817921
_symmetry_space_group_name_H-M "C 2/C"
_symmetry_group_IT_number 15
_symmetry_cell_setting 'monoclinic'
loop_
_space_group_symop_operation_xyz
x,y,z
-x,y,1/2-z
-x,-y,-z
x,-y,1/2+z
1/2+x,1/2+y,z
1/2-x,1/2+y,1/2-z
1/2-x,1/2-y,-z
1/2+x,1/2-y,1/2+z
loop_
_atom_site_type_symbol
_atom_site_label
_atom_site_fract_x
_atom_site_fract_y
_atom_site_fract_z
Si Si1 0.185591 0.959988 0.920118
Si Si2 0.239235 0.899265 0.669820
Si Si3 0.346272 0.154579 0.862973
Si Si4 0.832679 0.765602 0.182468
Si Si5 0.860219 0.664718 0.682182
Si Si6 0.980061 0.559105 0.377093
O O1 0.129399 0.820233 0.841184
O O2 0.147725 0.066889 0.791666
O O3 0.276573 0.913591 0.025691
O O4 0.185226 0.034742 0.011472
O O5 0.181568 0.805055 0.642376
O O6 0.311614 0.796388 0.743340
O O7 0.281730 0.028048 0.786076
O O8 0.356531 0.173590 0.778354
O O9 0.435460 0.112469 0.039121
O O10 0.913526 0.684982 0.272455
O O11 0.750000 0.750000 0.000000
O O12 0.937729 0.573896 0.764892
O O13 0.000000 0.500000 0.500000
#
# Coordination Sequence:
#
# PCOD8130544 Si02
#       6
#     8   8   8   8   8   8
#     4   9  18  33  57  85 106 150 194 234 272 356
#     4  10  20  36  53  85 115 150 187 238 295 345
#     4  10  21  35  57  83 118 150 186 245 294 341
#     4  10  17  34  58  82 110 149 196 230 280 350
#     4   9  17  34  59  84 109 147 201 230 278 341
#     4  10  17  36  57  85 111 146 197 240 280 346
#
# _framework density 19.943345000000001
#
# number of rings (size 3 to 8) (size 9 to 14) (size 15 to 20)
#    0.000    2.333    6.667    0.000    2.333    0.000 
#    0.000    8.333    0.000    2.000    0.000    0.000 
#    0.000    0.000    0.000    0.000    0.000    0.000 
#
# Total GULP energy -297331.671833 kJ/mol
# GULP energy per Si atom -12388.819660 kJ/mol
# Density = 1.989795 g / cm^3
# Si number density = 19.943345 Si / 1000 Ang^3
#
#
#
# Elastic Constant Matrix: (Units=GPa)
#
#
# Indices 1 2 3 4 5 6 
#
# 1 41.3251 40.3804 16.2970 0.0000 14.8354 0.0000
# 2 40.3804 184.5918 68.1278 0.0000 12.9648 0.0000
# 3 16.2970 68.1278 83.9707 0.0000 22.0806 0.0000
# 4 0.0000 0.0000 0.0000 38.6867 0.0000 -2.1519
# 5 14.8354 12.9648 22.0806 0.0000 19.3447 0.0000
# 6 0.0000 0.0000 0.0000 -2.1519 0.0000 36.1525
#
#
#
# Elastic Compliance Matrix: (Units=1/GPa)
#
#
# Indices 1 2 3 4 5 6 
#
# 1 0.044649 -0.010861 0.010339 0.000000 -0.038764 0.000000
# 2 -0.010861 0.010484 -0.009632 0.000000 0.012296 0.000000
# 3 0.010339 -0.009632 0.025869 0.000000 -0.031001 0.000000
# 4 0.000000 0.000000 0.000000 0.025935 0.000000 0.001544
# 5 -0.038764 0.012296 -0.031001 0.000000 0.108567 0.000000
# 6 0.000000 0.000000 0.000000 0.001544 0.000000 0.027753
#
#
# Mechanical properties :
#
#
# Convention : Reuss Voigt Hill
#
# Bulk Modulus (GPa) = 16.47551 62.16645 39.32098
# Shear Modulus (GPa) = 17.61836 31.17561 24.39699
#
# Velocity S-wave (km/s) = 2.97546 3.95803 3.50139
# Velocity P-wave (km/s) = 4.48147 7.21992 6.00878
#
# Compressibility (1/GPa) = 0.06069614
#
# Stress axis : x y z
#
# Youngs Moduli (GPa) = 22.39680 95.37985 38.65641
#
# Poissons Ratio (x) = 1.03588 -0.39968
# Poissons Ratio (y) = 0.24324 0.37233
# Poissons Ratio (z) = -0.23157 0.91869
#
# Static dielectric constant tensor:
#      x y z
#    x 3.166720 0.000000 0.120680 
#    y 0.000000 4.274000 0.000000 
#    z 0.120680 0.000000 3.902720 
# 
# 
# High freq. dielectric constant tensor:
#      x y z
#    x 1.724620 0.000000 0.003100 
#    y 0.000000 1.801900 0.000000 
#    z 0.003100 0.000000 1.763460 
# 
# From -- ./inp_files/224711.got.cif
#   From: 2010.06.25/outbox.cif.g09.slc.cpg/sg15_113_cif.got.tgz:224711.got - 2010.06.28 07:06:18.
