data_PCOD8130389
_publ_section_title
;
Structure prediction by ZEFSAII (Michael W. Deem and Ramdas Pophale) SiO2 
 PCOD8130389
Probable space group: C 2/C
;
_chemical_formula_sum "Si O2"
_cell_formula_units_Z 48
_cell_length_a 8.946646
_cell_length_b 21.124753
_cell_length_c 14.859478
_cell_angle_alpha 90.000000
_cell_angle_beta 59.163202
_cell_angle_gamma 90.000000
_cell_volume 2411.359381
_symmetry_space_group_name_H-M "C 2/C"
_symmetry_group_IT_number 15
_symmetry_cell_setting 'monoclinic'
loop_
_space_group_symop_operation_xyz
x,y,z
-x,y,1/2-z
-x,-y,-z
x,-y,1/2+z
1/2+x,1/2+y,z
1/2-x,1/2+y,1/2-z
1/2-x,1/2-y,-z
1/2+x,1/2-y,1/2+z
loop_
_atom_site_type_symbol
_atom_site_label
_atom_site_fract_x
_atom_site_fract_y
_atom_site_fract_z
Si Si1 0.877126 0.189006 0.558627
Si Si2 0.000000 0.573698 0.250000
Si Si3 0.000000 0.067919 0.250000
Si Si4 0.649906 0.212305 0.778097
Si Si5 0.879249 0.540964 0.102293
Si Si6 0.667172 0.652254 0.351500
Si Si7 0.596333 0.168656 0.504979
O O1 0.812516 0.175629 0.680726
O O2 0.751987 0.154706 0.525800
O O3 0.868389 0.264845 0.553388
O O4 0.066758 0.161815 0.477798
O O5 0.049553 0.529315 0.318966
O O6 0.158739 0.618030 0.172753
O O7 0.169865 0.025987 0.166378
O O8 0.055185 0.111089 0.316596
O O9 0.500000 0.222839 0.750000
O O10 0.709971 0.280337 0.794855
O O11 0.583157 0.170079 0.882231
O O12 0.906545 0.614878 0.069915
O O13 0.000000 0.500000 0.000000
#
# Coordination Sequence:
#
# PCOD8130389 Si02
#       7
#     8   4   4   8   8   8   8
#     4   9  15  28  54  90 114 143 187 226 283 344
#     4  10  24  38  58  82 110 148 194 236 284 346
#     4  10  18  36  64  78  98 154 192 232 288 338
#     4   9  16  27  51  90 118 143 183 233 284 335
#     4  11  23  43  59  82 114 151 201 244 282 336
#     4  10  17  32  55  83 112 147 189 228 283 355
#     4   9  17  30  55  84 115 146 184 238 276 332
#
# _framework density 19.905785000000002
#
# number of rings (size 3 to 8) (size 9 to 14) (size 15 to 20)
#    0.000    2.333    2.500    3.000    0.000    0.000 
#    4.500   12.500    0.000    1.000    0.000    0.000 
#    0.000    0.000    0.000    0.000    0.000    0.000 
#
# Total GULP energy -297402.186835 kJ/mol
# GULP energy per Si atom -12391.757785 kJ/mol
# Density = 1.986048 g / cm^3
# Si number density = 19.905785 Si / 1000 Ang^3
#
#
#
# Elastic Constant Matrix: (Units=GPa)
#
#
# Indices 1 2 3 4 5 6 
#
# 1 78.5986 20.8477 42.4013 0.0000 -13.5155 0.0000
# 2 20.8477 37.0666 19.9345 0.0000 -8.2817 0.0000
# 3 42.4013 19.9345 161.4914 0.0000 -23.5840 0.0000
# 4 0.0000 0.0000 0.0000 32.4163 0.0000 -2.0786
# 5 -13.5155 -8.2817 -23.5840 0.0000 30.5943 0.0000
# 6 0.0000 0.0000 0.0000 -2.0786 0.0000 10.9031
#
#
#
# Elastic Compliance Matrix: (Units=1/GPa)
#
#
# Indices 1 2 3 4 5 6 
#
# 1 0.016804 -0.007096 -0.003079 0.000000 0.003129 0.000000
# 2 -0.007096 0.032809 -0.001518 0.000000 0.004576 0.000000
# 3 -0.003079 -0.001518 0.007809 0.000000 0.004248 0.000000
# 4 0.000000 0.000000 0.000000 0.031230 0.000000 0.005954
# 5 0.003129 0.004576 0.004248 0.000000 0.038581 0.000000
# 6 0.000000 0.000000 0.000000 0.005954 0.000000 0.092853
#
#
# Mechanical properties :
#
#
# Convention : Reuss Voigt Hill
#
# Bulk Modulus (GPa) = 29.38272 49.28039 39.33156
# Shear Modulus (GPa) = 19.62181 27.71427 23.66804
#
# Velocity S-wave (km/s) = 3.14305 3.73536 3.45193
# Velocity P-wave (km/s) = 5.28816 6.58897 5.97407
#
# Compressibility (1/GPa) = 0.03403361
#
# Stress axis : x y z
#
# Youngs Moduli (GPa) = 59.50854 30.47969 128.06430
#
# Poissons Ratio (x) = 0.21629 0.39434
# Poissons Ratio (y) = 0.42229 0.19446
# Poissons Ratio (z) = 0.18324 0.04628
#
# Static dielectric constant tensor:
#      x y z
#    x 3.458120 0.000000 -0.277310 
#    y 0.000000 3.132540 0.000000 
#    z -0.277310 0.000000 4.267430 
# 
# 
# High freq. dielectric constant tensor:
#      x y z
#    x 1.744020 0.000000 -0.008900 
#    y 0.000000 1.724850 0.000000 
#    z -0.008900 0.000000 1.810570 
# 
# From -- ./inp_files/192860.got.cif
#   From: 2010.06.25/outbox.cif.g09.slc.cpg/sg15_97_cif.got.tgz:192860.got - 2010.06.28 07:06:18.
