data_PCOD8130329
_publ_section_title
;
Structure prediction by ZEFSAII (Michael W. Deem and Ramdas Pophale) SiO2 
 PCOD8130329
Probable space group: C 2/C
;
_chemical_formula_sum "Si O2"
_cell_formula_units_Z 56
_cell_length_a 27.837619
_cell_length_b 12.290511
_cell_length_c 13.795419
_cell_angle_alpha 90.000000
_cell_angle_beta 134.489584
_cell_angle_gamma 90.000000
_cell_volume 3367.104131
_symmetry_space_group_name_H-M "C 2/C"
_symmetry_group_IT_number 15
_symmetry_cell_setting 'monoclinic'
loop_
_space_group_symop_operation_xyz
x,y,z
-x,y,1/2-z
-x,-y,-z
x,-y,1/2+z
1/2+x,1/2+y,z
1/2-x,1/2+y,1/2-z
1/2-x,1/2-y,-z
1/2+x,1/2-y,1/2+z
loop_
_atom_site_type_symbol
_atom_site_label
_atom_site_fract_x
_atom_site_fract_y
_atom_site_fract_z
Si Si1 0.686081 0.102777 0.105512
Si Si2 0.645765 0.516577 0.420939
Si Si3 0.662933 0.644820 0.113441
Si Si4 0.348196 0.334944 0.398641
Si Si5 0.222931 0.370889 0.450022
Si Si6 0.691223 0.877536 0.193218
Si Si7 0.921404 0.995892 0.372443
O O1 0.763723 0.118616 0.241648
O O2 0.644156 0.204306 0.090190
O O3 0.658538 0.988883 0.107447
O O4 0.676900 0.099550 0.976582
O O5 0.652428 0.405688 0.492293
O O6 0.623380 0.615029 0.460456
O O7 0.716767 0.542132 0.470475
O O8 0.590358 0.502088 0.259403
O O9 0.653419 0.774974 0.091365
O O10 0.610115 0.598132 0.115904
O O11 0.270692 0.373650 0.281274
O O12 0.389718 0.382868 0.367217
O O13 0.250000 0.250000 0.500000
O O14 0.178346 0.375640 0.290202
O O15 0.000000 0.000000 0.500000
#
# Coordination Sequence:
#
# PCOD8130329 Si02
#       7
#     8   8   8   8   8   8   8
#     4  11  17  31  49  75 107 130 167 203 249 308
#     4  10  17  32  49  73 100 131 168 209 251 297
#     4  10  19  31  48  75 104 133 166 205 249 305
#     4   9  19  31  49  75 102 132 165 208 244 299
#     4  11  15  26  51  71 100 139 160 198 256 307
#     4  10  18  31  49  75 107 137 157 206 256 305
#     4  11  21  35  53  72 100 134 173 214 252 295
#
# _framework density 16.631502000000001
#
# number of rings (size 3 to 8) (size 9 to 14) (size 15 to 20)
#    0.000    1.714   10.000    0.000    0.000    2.286 
#    2.571    2.143    0.000    0.857    0.000    2.000 
#    0.000    0.000    0.000    0.000    0.000    0.000 
#
# Total GULP energy -347138.648798 kJ/mol
# GULP energy per Si atom -12397.808886 kJ/mol
# Density = 1.659365 g / cm^3
# Si number density = 16.631502 Si / 1000 Ang^3
#
#
#
# Elastic Constant Matrix: (Units=GPa)
#
#
# Indices 1 2 3 4 5 6 
#
# 1 57.5530 46.6052 42.3473 0.0000 -14.3277 0.0000
# 2 46.6052 171.9022 49.0442 0.0000 -18.8159 0.0000
# 3 42.3473 49.0442 81.5798 0.0000 -16.1842 0.0000
# 4 0.0000 0.0000 0.0000 13.4691 0.0000 -6.7290
# 5 -14.3277 -18.8159 -16.1842 0.0000 26.0951 0.0000
# 6 0.0000 0.0000 0.0000 -6.7290 0.0000 22.6212
#
#
#
# Elastic Compliance Matrix: (Units=1/GPa)
#
#
# Indices 1 2 3 4 5 6 
#
# 1 0.031755 -0.004299 -0.012606 0.000000 0.006517 0.000000
# 2 -0.004299 0.007786 -0.002057 0.000000 0.001978 0.000000
# 3 -0.012606 -0.002057 0.020948 0.000000 0.004588 0.000000
# 4 0.000000 0.000000 0.000000 0.087203 0.000000 0.025940
# 5 0.006517 0.001978 0.004588 0.000000 0.046171 0.000000
# 6 0.000000 0.000000 0.000000 0.025940 0.000000 0.051922
#
#
# Mechanical properties :
#
#
# Convention : Reuss Voigt Hill
#
# Bulk Modulus (GPa) = 44.31681 65.22537 54.77109
# Shear Modulus (GPa) = 17.16848 23.97298 20.57073
#
# Velocity S-wave (km/s) = 3.21641 3.80072 3.52071
# Velocity P-wave (km/s) = 6.36379 7.65270 7.03781
#
# Compressibility (1/GPa) = 0.02256480
#
# Stress axis : x y z
#
# Youngs Moduli (GPa) = 31.49156 128.43291 47.73680
#
# Poissons Ratio (x) = 0.55217 0.60177
# Poissons Ratio (y) = 0.13539 0.09818
# Poissons Ratio (z) = 0.39698 0.26416
#
# Static dielectric constant tensor:
#      x y z
#    x 2.244570 0.000000 0.298440 
#    y 0.000000 3.447560 0.000000 
#    z 0.298440 0.000000 2.389130 
# 
# 
# High freq. dielectric constant tensor:
#      x y z
#    x 1.616750 0.000000 -0.038370 
#    y 0.000000 1.646660 0.000000 
#    z -0.038370 0.000000 1.607520 
# 
# From -- ./inp_files/181590.got.cif
#   From: 2010.06.25/outbox.cif.g09.slc.cpg/sg15_91_cif.got.tgz:181590.got - 2010.06.28 07:06:18.
