data_PCOD8130465
_publ_section_title
;
Structure prediction by ZEFSAII (Michael W. Deem and Ramdas Pophale) SiO2 
 PCOD8130465
Probable space group: C 2/C
;
_chemical_formula_sum "Si O2"
_cell_formula_units_Z 48
_cell_length_a 29.098708
_cell_length_b 13.162958
_cell_length_c 12.584969
_cell_angle_alpha 90.000000
_cell_angle_beta 152.111996
_cell_angle_gamma 90.000000
_cell_volume 2254.697548
_symmetry_space_group_name_H-M "C 2/C"
_symmetry_group_IT_number 15
_symmetry_cell_setting 'monoclinic'
loop_
_space_group_symop_operation_xyz
x,y,z
-x,y,1/2-z
-x,-y,-z
x,-y,1/2+z
1/2+x,1/2+y,z
1/2-x,1/2+y,1/2-z
1/2-x,1/2-y,-z
1/2+x,1/2-y,1/2+z
loop_
_atom_site_type_symbol
_atom_site_label
_atom_site_fract_x
_atom_site_fract_y
_atom_site_fract_z
Si Si1 0.099633 0.221141 0.186054
Si Si2 0.401096 0.881449 0.491844
Si Si3 0.232012 0.626311 0.079861
Si Si4 0.231352 0.241862 0.141131
Si Si5 0.887403 0.526054 0.285717
Si Si6 0.613020 0.734170 0.700563
O O1 0.166457 0.279133 0.407099
O O2 0.162777 0.127387 0.267335
O O3 0.065724 0.293222 0.020750
O O4 0.997192 0.188777 0.032696
O O5 0.500000 0.921412 0.750000
O O6 0.322555 0.836256 0.412898
O O7 0.352509 0.973567 0.325239
O O8 0.246314 0.647832 0.233975
O O9 0.176971 0.520065 0.944119
O O10 0.329851 0.292273 0.291581
O O11 0.166373 0.190343 0.914548
O O12 0.876167 0.644737 0.266842
O O13 0.000000 0.500000 0.500000
#
# Coordination Sequence:
#
# PCOD8130465 Si02
#       6
#     8   8   8   8   8   8
#     4   9  17  34  55  80 117 157 195 240 289 374
#     4  10  17  33  57  82 114 156 194 237 310 360
#     4   9  19  34  55  83 117 158 195 232 312 373
#     4  10  22  35  53  83 118 164 206 245 295 379
#     4  11  20  35  58  91 124 144 189 266 315 340
#     4  11  21  36  55  86 121 154 204 258 298 342
#
# _framework density 21.288886999999999
#
# number of rings (size 3 to 8) (size 9 to 14) (size 15 to 20)
#    0.000    2.000    5.000    1.000    0.000    3.333 
#    0.000    0.000    0.000    4.000    4.333    4.667 
#    0.000    0.000    0.000    0.000    0.000    0.000 
#
# Total GULP energy -297468.811321 kJ/mol
# GULP energy per Si atom -12394.533805 kJ/mol
# Density = 2.124043 g / cm^3
# Si number density = 21.288887 Si / 1000 Ang^3
#
#
#
# Elastic Constant Matrix: (Units=GPa)
#
#
# Indices 1 2 3 4 5 6 
#
# 1 135.7372 22.9535 55.1515 0.0000 19.2520 0.0000
# 2 22.9535 42.7403 27.7264 0.0000 -5.4942 0.0000
# 3 55.1515 27.7264 111.0027 0.0000 15.0398 0.0000
# 4 0.0000 0.0000 0.0000 28.1547 0.0000 -0.0529
# 5 19.2520 -5.4942 15.0398 0.0000 47.1728 0.0000
# 6 0.0000 0.0000 0.0000 -0.0529 0.0000 20.2938
#
#
#
# Elastic Compliance Matrix: (Units=1/GPa)
#
#
# Indices 1 2 3 4 5 6 
#
# 1 0.009872 -0.003374 -0.003619 0.000000 -0.003268 0.000000
# 2 -0.003374 0.030635 -0.006946 0.000000 0.007159 0.000000
# 3 -0.003619 -0.006946 0.013014 0.000000 -0.003481 0.000000
# 4 0.000000 0.000000 0.000000 0.035518 0.000000 0.000093
# 5 -0.003268 0.007159 -0.003481 0.000000 0.024476 0.000000
# 6 0.000000 0.000000 0.000000 0.000093 0.000000 0.049276
#
#
# Mechanical properties :
#
#
# Convention : Reuss Voigt Hill
#
# Bulk Modulus (GPa) = 38.99746 55.68255 47.34000
# Shear Modulus (GPa) = 25.09833 31.36754 28.23293
#
# Velocity S-wave (km/s) = 3.43729 3.84268 3.64563
# Velocity P-wave (km/s) = 5.84049 6.77501 6.32503
#
# Compressibility (1/GPa) = 0.02564270
#
# Stress axis : x y z
#
# Youngs Moduli (GPa) = 101.29942 32.64215 76.84259
#
# Poissons Ratio (x) = 0.11013 0.27812
# Poissons Ratio (y) = 0.34176 0.53374
# Poissons Ratio (z) = 0.36663 0.22673
#
# Static dielectric constant tensor:
#      x y z
#    x 4.424780 0.000000 0.005350 
#    y 0.000000 3.867590 0.000000 
#    z 0.005350 0.000000 4.168950 
# 
# 
# High freq. dielectric constant tensor:
#      x y z
#    x 1.849650 0.000000 -0.000040 
#    y 0.000000 1.780650 0.000000 
#    z -0.000040 0.000000 1.837850 
# 
# From -- ./inp_files/123820.got.cif
#   From: 2010.06.25/outbox.cif.g09.slc.cpg/sg15_62_cif.got.tgz:123820.got - 2010.06.28 07:06:18.
