data_PCOD8130376
_publ_section_title
;
Structure prediction by ZEFSAII (Michael W. Deem and Ramdas Pophale) SiO2 
 PCOD8130376
Probable space group: C 2/C
;
_chemical_formula_sum "Si O2"
_cell_formula_units_Z 44
_cell_length_a 14.908370
_cell_length_b 16.678885
_cell_length_c 11.366636
_cell_angle_alpha 90.000000
_cell_angle_beta 54.797007
_cell_angle_gamma 90.000000
_cell_volume 2309.469327
_symmetry_space_group_name_H-M "C 2/C"
_symmetry_group_IT_number 15
_symmetry_cell_setting 'monoclinic'
loop_
_space_group_symop_operation_xyz
x,y,z
-x,y,1/2-z
-x,-y,-z
x,-y,1/2+z
1/2+x,1/2+y,z
1/2-x,1/2+y,1/2-z
1/2-x,1/2-y,-z
1/2+x,1/2-y,1/2+z
loop_
_atom_site_type_symbol
_atom_site_label
_atom_site_fract_x
_atom_site_fract_y
_atom_site_fract_z
Si Si1 0.616143 0.720037 0.674124
Si Si2 0.118339 0.201372 0.177614
Si Si3 0.333667 0.779286 0.109498
Si Si4 0.659342 0.136003 0.525538
Si Si5 0.042492 0.370268 0.879043
Si Si6 0.000000 0.513110 0.750000
O O1 0.500000 0.671075 0.750000
O O2 0.662774 0.720861 0.506310
O O3 0.708595 0.683096 0.693413
O O4 0.583341 0.808795 0.748160
O O5 0.149896 0.228032 0.285668
O O6 0.111101 0.278521 0.099546
O O7 0.000000 0.158948 0.250000
O O8 0.208420 0.138398 0.061234
O O9 0.427245 0.846231 0.028136
O O10 0.634099 0.122570 0.408576
O O11 0.607557 0.067075 0.645526
O O12 0.028279 0.458992 0.839944
#
# Coordination Sequence:
#
# PCOD8130376 Si02
#       6
#     8   8   8   8   8   4
#     4   9  18  30  51  82 113 148 188 233 285 334
#     4  11  21  36  59  84 116 146 194 248 287 336
#     4  10  17  32  54  81 114 145 191 237 287 331
#     4  11  23  35  55  86 113 151 191 239 292 338
#     4  11  19  35  56  85 115 149 187 237 292 344
#     4  12  22  38  54  84 122 154 190 230 290 354
#
# _framework density 19.051995000000002
#
# number of rings (size 3 to 8) (size 9 to 14) (size 15 to 20)
#    0.000    1.455    7.273    0.545    0.000    0.000 
#    0.000    0.000    0.000    2.182    0.000    0.000 
#    0.000    0.000    0.000    0.000    0.000    0.000 
#
# Total GULP energy -272572.728235 kJ/mol
# GULP energy per Si atom -12389.669465 kJ/mol
# Density = 1.900863 g / cm^3
# Si number density = 19.051995 Si / 1000 Ang^3
#
#
#
# Elastic Constant Matrix: (Units=GPa)
#
#
# Indices 1 2 3 4 5 6 
#
# 1 136.5826 24.3740 43.4396 0.0000 -21.0260 0.0000
# 2 24.3740 67.4363 31.7837 0.0000 -11.0160 0.0000
# 3 43.4396 31.7837 89.6277 0.0000 -9.5553 0.0000
# 4 0.0000 0.0000 0.0000 19.8131 0.0000 -5.9873
# 5 -21.0260 -11.0160 -9.5553 0.0000 43.0181 0.0000
# 6 0.0000 0.0000 0.0000 -5.9873 0.0000 17.1765
#
#
#
# Elastic Compliance Matrix: (Units=1/GPa)
#
#
# Indices 1 2 3 4 5 6 
#
# 1 0.009219 -0.001008 -0.003746 0.000000 0.003416 0.000000
# 2 -0.001008 0.018365 -0.005710 0.000000 0.002942 0.000000
# 3 -0.003746 -0.005710 0.015002 0.000000 0.000039 0.000000
# 4 0.000000 0.000000 0.000000 0.056414 0.000000 0.019665
# 5 0.003416 0.002942 0.000039 0.000000 0.025677 0.000000
# 6 0.000000 0.000000 0.000000 0.019665 0.000000 0.065074
#
#
# Mechanical properties :
#
#
# Convention : Reuss Voigt Hill
#
# Bulk Modulus (GPa) = 46.17640 54.76014 50.46827
# Shear Modulus (GPa) = 22.94630 28.93816 25.94223
#
# Velocity S-wave (km/s) = 3.47422 3.90154 3.69406
# Velocity P-wave (km/s) = 6.35478 7.00720 6.68895
#
# Compressibility (1/GPa) = 0.02165608
#
# Stress axis : x y z
#
# Youngs Moduli (GPa) = 108.47352 54.45093 66.65721
#
# Poissons Ratio (x) = 0.05491 0.24972
# Poissons Ratio (y) = 0.10938 0.38063
# Poissons Ratio (z) = 0.40638 0.31093
#
# Static dielectric constant tensor:
#      x y z
#    x 4.022520 0.000000 -0.198500 
#    y 0.000000 2.934330 0.000000 
#    z -0.198500 0.000000 3.727650 
# 
# 
# High freq. dielectric constant tensor:
#      x y z
#    x 1.768790 0.000000 0.000250 
#    y 0.000000 1.663850 0.000000 
#    z 0.000250 0.000000 1.757530 
# 
# From -- ./inp_files/96121.got.cif
#   From: 2010.06.25/outbox.cif.g09.slc.cpg/sg15_49_cif.got.tgz:96121.got - 2010.06.28 07:06:18.
