data_PCOD8130931
_publ_section_title
;
Structure prediction by ZEFSAII (Michael W. Deem and Ramdas Pophale) SiO2 
 PCOD8130931
Probable space group: C 2/C
;
_chemical_formula_sum "Si O2"
_cell_formula_units_Z 40
_cell_length_a 15.031028
_cell_length_b 16.260236
_cell_length_c 27.209301
_cell_angle_alpha 90.000000
_cell_angle_beta 161.145120
_cell_angle_gamma 90.000000
_cell_volume 2149.151441
_symmetry_space_group_name_H-M "C 2/C"
_symmetry_group_IT_number 15
_symmetry_cell_setting 'monoclinic'
loop_
_space_group_symop_operation_xyz
x,y,z
-x,y,1/2-z
-x,-y,-z
x,-y,1/2+z
1/2+x,1/2+y,z
1/2-x,1/2+y,1/2-z
1/2-x,1/2-y,-z
1/2+x,1/2-y,1/2+z
loop_
_atom_site_type_symbol
_atom_site_label
_atom_site_fract_x
_atom_site_fract_y
_atom_site_fract_z
Si Si1 0.369842 0.757728 0.630319
Si Si2 0.515461 0.310311 0.703423
Si Si3 0.563859 0.904904 0.991290
Si Si4 0.993078 0.579948 0.927035
Si Si5 0.163794 0.805216 0.195543
O O1 0.500000 0.786528 0.750000
O O2 0.261469 0.664390 0.573584
O O3 0.598783 0.757579 0.707105
O O4 0.110501 0.816542 0.481496
O O5 0.500000 0.272385 0.750000
O O6 0.228320 0.352811 0.540460
O O7 0.586598 0.235827 0.704168
O O8 0.745238 0.380881 0.821062
O O9 0.606461 0.987058 0.980512
O O10 0.642434 0.916894 0.089531
O O11 0.758871 0.605194 0.765007
#
# Coordination Sequence:
#
# PCOD8130931 Si02
#       5
#     8   8   8   8   8
#     4  10  19  34  53  78 114 140 184 227 264 326
#     4   9  19  33  48  77 111 143 182 222 268 319
#     4   9  19  30  50  79 111 143 167 219 284 325
#     4  10  18  30  51  77 115 141 171 219 277 336
#     4  10  20  32  52  80 107 149 184 216 276 320
#
# _framework density 18.611996999999999
#
# number of rings (size 3 to 8) (size 9 to 14) (size 15 to 20)
#    0.000    2.400    2.000    0.600    2.800    0.800 
#    0.000    0.000    0.000    0.000    0.000   26.600 
#    0.000    0.000    0.000    0.000    0.000    0.000 
#
# Total GULP energy -247905.273980 kJ/mol
# GULP energy per Si atom -12395.263699 kJ/mol
# Density = 1.856964 g / cm^3
# Si number density = 18.611997 Si / 1000 Ang^3
#
#
#
# Elastic Constant Matrix: (Units=GPa)
#
#
# Indices 1 2 3 4 5 6 
#
# 1 92.5702 31.9867 40.5417 0.0109 -4.8972 0.0118
# 2 31.9867 78.6867 37.9929 -0.0261 -13.6105 0.0016
# 3 40.5417 37.9929 95.5928 -0.0313 -25.1677 -0.0175
# 4 0.0109 -0.0261 -0.0313 21.6447 0.0053 -8.5514
# 5 -4.8972 -13.6105 -25.1677 0.0053 35.3193 0.0078
# 6 0.0118 0.0016 -0.0175 -8.5514 0.0078 27.1005
#
#
#
# Elastic Compliance Matrix: (Units=1/GPa)
#
#
# Indices 1 2 3 4 5 6 
#
# 1 0.014317 -0.003764 -0.005459 -0.000025 -0.003356 -0.000017
# 2 -0.003764 0.016829 -0.004336 0.000016 0.002874 0.000002
# 3 -0.005459 -0.004336 0.017061 0.000027 0.009730 0.000020
# 4 -0.000025 0.000016 0.000027 0.052781 0.000011 0.016655
# 5 -0.003356 0.002874 0.009730 0.000011 0.035888 0.000001
# 6 -0.000017 0.000002 0.000020 0.016655 0.000001 0.042155
#
#
# Mechanical properties :
#
#
# Convention : Reuss Voigt Hill
#
# Bulk Modulus (GPa) = 47.41838 54.21028 50.81433
# Shear Modulus (GPa) = 23.45442 27.23478 25.34460
#
# Velocity S-wave (km/s) = 3.55375 3.82945 3.69417
# Velocity P-wave (km/s) = 6.50934 6.98160 6.74960
#
# Compressibility (1/GPa) = 0.02108887
#
# Stress axis : x y z
#
# Youngs Moduli (GPa) = 69.84831 59.41996 58.61282
#
# Poissons Ratio (x) = 0.22368 0.31998
# Poissons Ratio (y) = 0.26294 0.25412
# Poissons Ratio (z) = 0.38132 0.25762
#
# Static dielectric constant tensor:
#      x y z
#    x 3.485440 0.000020 0.021320 
#    y 0.000020 3.165190 -0.000070 
#    z 0.021320 -0.000070 3.566420 
# 
# 
# High freq. dielectric constant tensor:
#      x y z
#    x 1.716620 0.000000 0.009590 
#    y 0.000000 1.678190 -0.000010 
#    z 0.009590 -0.000010 1.731970 
# 
# From -- ./inp_files/38029.got.cif
#   From: 2010.06.25/outbox.cif.g09.slc.cpg/sg15_20_cif.got.tgz:38029.got - 2010.06.28 07:06:18.
