data_PCOD8130628
_publ_section_title
;
Structure prediction by ZEFSAII (Michael W. Deem and Ramdas Pophale) SiO2 
 PCOD8130628
Probable space group: C 2/C
;
_chemical_formula_sum "Si O2"
_cell_formula_units_Z 56
_cell_length_a 13.547192
_cell_length_b 20.384048
_cell_length_c 12.109814
_cell_angle_alpha 90.000000
_cell_angle_beta 121.448501
_cell_angle_gamma 90.000000
_cell_volume 2852.869773
_symmetry_space_group_name_H-M "C 2/C"
_symmetry_group_IT_number 15
_symmetry_cell_setting 'monoclinic'
loop_
_space_group_symop_operation_xyz
x,y,z
-x,y,1/2-z
-x,-y,-z
x,-y,1/2+z
1/2+x,1/2+y,z
1/2-x,1/2+y,1/2-z
1/2-x,1/2-y,-z
1/2+x,1/2-y,1/2+z
loop_
_atom_site_type_symbol
_atom_site_label
_atom_site_fract_x
_atom_site_fract_y
_atom_site_fract_z
Si Si1 0.645715 0.888862 0.652288
Si Si2 0.295214 0.973005 0.020449
Si Si3 0.500000 0.951899 0.750000
Si Si4 0.134742 0.886414 0.078224
Si Si5 0.619626 0.540012 0.783795
Si Si6 0.144617 0.255291 0.520934
Si Si7 0.896909 0.899232 0.822749
Si Si8 0.500000 0.708926 0.250000
O O1 0.646686 0.941225 0.553652
O O2 0.539150 0.905497 0.671210
O O3 0.630803 0.816579 0.593168
O O4 0.765642 0.894545 0.793278
O O5 0.216975 0.917616 0.033080
O O6 0.394418 0.000498 0.157115
O O7 0.213827 0.034510 0.936761
O O8 0.172683 0.918987 0.214529
O O9 0.154151 0.809061 0.102612
O O10 0.997610 0.895783 0.972913
O O11 0.500000 0.575096 0.750000
O O12 0.585507 0.467340 0.727497
O O13 0.250000 0.250000 0.500000
O O14 0.034538 0.253546 0.374131
O O15 0.899460 0.840595 0.733158
#
# Coordination Sequence:
#
# PCOD8130628 Si02
#       8
#     8   8   4   8   8   8   8   4
#     4  11  23  41  64  84 129 168 207 252 302 382
#     4  11  22  42  64  91 121 159 209 259 304 371
#     4  12  28  43  58  91 130 178 202 238 324 388
#     4  11  22  36  64  96 121 152 207 265 309 361
#     4  11  20  33  59  94 124 148 188 254 320 362
#     4  11  20  41  61  91 118 157 206 252 303 354
#     4  10  17  35  62  91 119 150 192 262 318 344
#     4  10  18  33  64  95 112 146 210 258 298 350
#
# _framework density 19.629356999999999
#
# number of rings (size 3 to 8) (size 9 to 14) (size 15 to 20)
#    0.000    1.143    5.000    4.286    2.000    0.571 
#    3.857    0.000    0.000    4.286    0.000    0.000 
#    0.000    0.000    0.000    0.000    0.000    0.000 
#
# Total GULP energy -347030.636382 kJ/mol
# GULP energy per Si atom -12393.951299 kJ/mol
# Density = 1.958468 g / cm^3
# Si number density = 19.629357 Si / 1000 Ang^3
#
#
#
# Elastic Constant Matrix: (Units=GPa)
#
#
# Indices 1 2 3 4 5 6 
#
# 1 87.6811 39.5212 29.5140 0.0000 -8.1906 0.0000
# 2 39.5212 88.8775 55.8737 0.0000 4.3206 0.0000
# 3 29.5140 55.8737 81.8459 0.0000 6.3520 0.0000
# 4 0.0000 0.0000 0.0000 -0.8281 0.0000 1.3619
# 5 -8.1906 4.3206 6.3520 0.0000 32.5726 0.0000
# 6 0.0000 0.0000 0.0000 1.3619 0.0000 21.3224
#
#
#
# Elastic Compliance Matrix: (Units=1/GPa)
#
#
# Indices 1 2 3 4 5 6 
#
# 1 0.015101 -0.005765 -0.001893 0.000000 0.004931 0.000000
# 2 -0.005765 0.021911 -0.012734 0.000000 -0.001873 0.000000
# 3 -0.001893 -0.012734 0.021830 0.000000 -0.003044 0.000000
# 4 0.000000 0.000000 0.000000 -1.092822 0.000000 0.069801
# 5 0.004931 -0.001873 -0.003044 0.000000 0.032783 0.000000
# 6 0.000000 0.000000 0.000000 0.069801 0.000000 0.042441
#
#
# Mechanical properties :
#
#
# Convention : Reuss Voigt Hill
#
# Bulk Modulus (GPa) = 55.37341 56.46913 55.92127
# Shear Modulus (GPa) = -5.48273 19.51309 7.01518
#
# Velocity S-wave (km/s) = -1.67308 3.15632 1.89251
# Velocity P-wave (km/s) = 4.95363 6.48947 5.77286
#
# Compressibility (1/GPa) = 0.01805921
#
# Stress axis : x y z
#
# Youngs Moduli (GPa) = 66.22015 45.63862 45.80866
#
# Poissons Ratio (x) = 0.26310 0.08670
# Poissons Ratio (y) = 0.38175 0.58333
# Poissons Ratio (z) = 0.12534 0.58116
#
# Static dielectric constant tensor:
#      x y z
#    x 3.617730 0.000000 0.203920 
#    y 0.000000 2.688770 0.000000 
#    z 0.203920 0.000000 3.540580 
# 
# 
# High freq. dielectric constant tensor:
#      x y z
#    x 1.761190 0.000000 0.010490 
#    y 0.000000 1.750970 0.000000 
#    z 0.010490 0.000000 1.758030 
# 
# From -- ./inp_files/89579.got.cif
#   From: 2010.06.25/outbox.cif.g09.slc.cpg/sg15_45_cif.got.tgz:89579.got - 2010.06.28 07:06:18.
