data_PCOD8130971
_publ_section_title
;
Structure prediction by ZEFSAII (Michael W. Deem and Ramdas Pophale) SiO2 
 PCOD8130971
Probable space group: C 2/C
;
_chemical_formula_sum "Si O2"
_cell_formula_units_Z 48
_cell_length_a 13.906914
_cell_length_b 22.150538
_cell_length_c 13.933972
_cell_angle_alpha 90.000000
_cell_angle_beta 37.938583
_cell_angle_gamma 90.000000
_cell_volume 2638.976036
_symmetry_space_group_name_H-M "C 2/C"
_symmetry_group_IT_number 15
_symmetry_cell_setting 'monoclinic'
loop_
_space_group_symop_operation_xyz
x,y,z
-x,y,1/2-z
-x,-y,-z
x,-y,1/2+z
1/2+x,1/2+y,z
1/2-x,1/2+y,1/2-z
1/2-x,1/2-y,-z
1/2+x,1/2-y,1/2+z
loop_
_atom_site_type_symbol
_atom_site_label
_atom_site_fract_x
_atom_site_fract_y
_atom_site_fract_z
Si Si1 0.500000 0.486688 0.750000
Si Si2 0.063943 0.406060 0.495899
Si Si3 0.322222 0.548085 0.056612
Si Si4 0.872988 0.816812 0.483665
Si Si5 0.000000 0.568529 0.250000
Si Si6 0.735737 0.030817 0.331577
Si Si7 0.281776 0.698612 0.837510
O O1 0.545596 0.527453 0.621980
O O2 0.645252 0.447612 0.676963
O O3 0.169739 0.465702 0.412180
O O4 0.161010 0.348494 0.381417
O O5 0.022926 0.389626 0.638554
O O6 0.903027 0.419434 0.564922
O O7 0.153066 0.527242 0.147578
O O8 0.332607 0.521540 0.155927
O O9 0.331648 0.619822 0.063695
O O10 0.785893 0.765918 0.614442
O O11 0.812050 0.819964 0.423173
O O12 0.057004 0.803293 0.347245
#
# Coordination Sequence:
#
# PCOD8130971 Si02
#       7
#     4   8   8   8   4   8   8
#     4  12  20  38  51  82 108 149 176 242 256 322
#     4  10  19  35  50  81 107 150 178 221 260 335
#     4  11  21  33  55  78 114 142 181 218 276 319
#     4  10  20  30  49  79 106 151 170 215 261 331
#     4  10  18  30  55  70 110 153 168 218 262 312
#     4  10  22  33  56  76 109 147 186 217 277 315
#     4  10  20  31  50  74 114 142 183 206 265 325
#
# _framework density 18.188873000000001
#
# number of rings (size 3 to 8) (size 9 to 14) (size 15 to 20)
#    0.000    1.667    3.333    2.500    4.667    0.000 
#    0.000    0.000    0.000    0.000    0.000    1.167 
#    0.000    0.000    0.000    0.000    0.000    0.000 
#
# Total GULP energy -297433.147973 kJ/mol
# GULP energy per Si atom -12393.047832 kJ/mol
# Density = 1.814747 g / cm^3
# Si number density = 18.188873 Si / 1000 Ang^3
#
#
#
# Elastic Constant Matrix: (Units=GPa)
#
#
# Indices 1 2 3 4 5 6 
#
# 1 125.9349 37.6865 36.0862 0.0390 -16.2641 -0.0209
# 2 37.6865 72.5827 28.8710 0.0232 -7.3131 -0.0175
# 3 36.0862 28.8710 85.1725 0.0688 -14.8338 -0.0554
# 4 0.0390 0.0232 0.0688 15.8508 -0.0391 -4.8174
# 5 -16.2641 -7.3131 -14.8338 -0.0391 20.1017 0.0195
# 6 -0.0209 -0.0175 -0.0554 -4.8174 0.0195 20.1422
#
#
#
# Elastic Compliance Matrix: (Units=1/GPa)
#
#
# Indices 1 2 3 4 5 6 
#
# 1 0.010457 -0.004041 -0.002115 0.000002 0.005430 -0.000003
# 2 -0.004041 0.017562 -0.004243 0.000003 -0.000011 0.000000
# 3 -0.002115 -0.004243 0.015500 -0.000029 0.008184 0.000022
# 4 0.000002 0.000003 -0.000029 0.068034 0.000098 0.016271
# 5 0.005430 -0.000011 0.008184 0.000098 0.060175 -0.000007
# 6 -0.000003 0.000000 0.000022 0.016271 -0.000007 0.053539
#
#
# Mechanical properties :
#
#
# Convention : Reuss Voigt Hill
#
# Bulk Modulus (GPa) = 44.01081 54.33081 49.17081
# Shear Modulus (GPa) = 19.71298 23.28870 21.50084
#
# Velocity S-wave (km/s) = 3.29567 3.58212 3.44188
# Velocity P-wave (km/s) = 6.22343 6.85886 6.54886
#
# Compressibility (1/GPa) = 0.02272169
#
# Stress axis : x y z
#
# Youngs Moduli (GPa) = 95.62705 56.94041 64.51414
#
# Poissons Ratio (x) = 0.23011 0.13645
# Poissons Ratio (y) = 0.38646 0.27372
# Poissons Ratio (z) = 0.20225 0.24159
#
# Static dielectric constant tensor:
#      x y z
#    x 3.429430 -0.000020 -0.307730 
#    y -0.000020 3.034560 0.000020 
#    z -0.307730 0.000020 3.547250 
# 
# 
# High freq. dielectric constant tensor:
#      x y z
#    x 1.687880 0.000000 -0.035730 
#    y 0.000000 1.663810 0.000000 
#    z -0.035730 0.000000 1.716490 
# 
# From -- ./inp_files/40721.got.cif
#   From: 2010.06.25/outbox.cif.g09.slc.cpg/sg15_21_cif.got.tgz:40721.got - 2010.06.28 07:06:18.
