data_PCOD8130929
_publ_section_title
;
Structure prediction by ZEFSAII (Michael W. Deem and Ramdas Pophale) SiO2 
 PCOD8130929
Probable space group: C 2/C
;
_chemical_formula_sum "Si O2"
_cell_formula_units_Z 48
_cell_length_a 17.204113
_cell_length_b 13.314553
_cell_length_c 25.961176
_cell_angle_alpha 90.000000
_cell_angle_beta 26.625629
_cell_angle_gamma 90.000000
_cell_volume 2665.111408
_symmetry_space_group_name_H-M "C 2/C"
_symmetry_group_IT_number 15
_symmetry_cell_setting 'monoclinic'
loop_
_space_group_symop_operation_xyz
x,y,z
-x,y,1/2-z
-x,-y,-z
x,-y,1/2+z
1/2+x,1/2+y,z
1/2-x,1/2+y,1/2-z
1/2-x,1/2-y,-z
1/2+x,1/2-y,1/2+z
loop_
_atom_site_type_symbol
_atom_site_label
_atom_site_fract_x
_atom_site_fract_y
_atom_site_fract_z
Si Si1 0.887046 0.117200 0.435911
Si Si2 0.358343 0.419402 0.293842
Si Si3 0.762460 0.377816 0.677933
Si Si4 0.808052 0.227367 0.381817
Si Si5 0.363464 0.615376 0.948079
Si Si6 0.886133 0.688534 0.487149
O O1 0.806393 0.142017 0.427421
O O2 0.792837 0.175941 0.537406
O O3 0.089114 0.148566 0.312870
O O4 0.862156 0.000791 0.464925
O O5 0.500000 0.467237 0.250000
O O6 0.244884 0.506696 0.335481
O O7 0.467681 0.359981 0.186416
O O8 0.231078 0.339726 0.394739
O O9 0.791237 0.312192 0.609494
O O10 0.922361 0.356569 0.620531
O O11 0.000000 0.258794 0.250000
O O12 0.187247 0.639941 0.021776
O O13 0.381876 0.689765 0.986040
#
# Coordination Sequence:
#
# PCOD8130929 Si02
#       6
#     8   8   8   8   8   8
#     4   9  18  34  53  72 100 130 157 202 249 285
#     4   9  17  32  52  70  94 128 164 205 244 285
#     4  10  18  30  51  76  96 122 165 208 241 280
#     4   9  17  32  53  74  96 127 165 199 240 288
#     4   9  19  35  49  68 101 134 161 194 246 296
#     4  10  19  31  50  73  96 128 167 199 238 294
#
# _framework density 18.010504999999998
#
# number of rings (size 3 to 8) (size 9 to 14) (size 15 to 20)
#    0.000    2.667    0.000    4.000    0.000    1.333 
#    0.000   13.333    0.000    0.000    0.000    0.000 
#    0.000    0.000    0.000    0.000    0.000    0.000 
#
# Total GULP energy -297528.849831 kJ/mol
# GULP energy per Si atom -12397.035410 kJ/mol
# Density = 1.796951 g / cm^3
# Si number density = 18.010505 Si / 1000 Ang^3
#
#
#
# Elastic Constant Matrix: (Units=GPa)
#
#
# Indices 1 2 3 4 5 6 
#
# 1 73.9860 47.2769 48.6822 0.0052 -14.2555 -0.0005
# 2 47.2769 124.1500 64.4113 0.0109 -0.9435 -0.0015
# 3 48.6822 64.4113 95.5865 0.0143 0.2251 -0.0127
# 4 0.0052 0.0109 0.0143 28.3834 -0.0038 8.6884
# 5 -14.2555 -0.9435 0.2251 -0.0038 30.1492 0.0062
# 6 -0.0005 -0.0015 -0.0127 8.6884 0.0062 27.9980
#
#
#
# Elastic Compliance Matrix: (Units=1/GPa)
#
#
# Indices 1 2 3 4 5 6 
#
# 1 0.025043 -0.004329 -0.009865 0.000006 0.011779 -0.000009
# 2 -0.004329 0.013139 -0.006645 -0.000001 -0.001586 -0.000002
# 3 -0.009865 -0.006645 0.019976 -0.000010 -0.005022 0.000013
# 4 0.000006 -0.000001 -0.000010 0.038930 0.000010 -0.012081
# 5 0.011779 -0.001586 -0.005022 0.000010 0.038726 -0.000014
# 6 -0.000009 -0.000002 0.000013 -0.012081 -0.000014 0.039466
#
#
# Mechanical properties :
#
#
# Convention : Reuss Voigt Hill
#
# Bulk Modulus (GPa) = 60.68250 68.27371 64.47811
# Shear Modulus (GPa) = 22.47689 26.19626 24.33657
#
# Velocity S-wave (km/s) = 3.53652 3.81793 3.67991
# Velocity P-wave (km/s) = 7.10225 7.57796 7.34396
#
# Compressibility (1/GPa) = 0.01647922
#
# Stress axis : x y z
#
# Youngs Moduli (GPa) = 39.93140 76.11042 50.06036
#
# Poissons Ratio (x) = 0.32946 0.49386
# Poissons Ratio (y) = 0.17285 0.33267
# Poissons Ratio (z) = 0.39393 0.50578
#
# Static dielectric constant tensor:
#      x y z
#    x 3.144340 0.000000 0.023960 
#    y 0.000000 3.219220 0.000070 
#    z 0.023960 0.000070 3.403970 
# 
# 
# High freq. dielectric constant tensor:
#      x y z
#    x 1.674350 0.000000 -0.003770 
#    y 0.000000 1.689970 0.000000 
#    z -0.003770 0.000000 1.701220 
# 
# From -- ./inp_files/153279.got.cif
#   From: 2010.06.25/outbox.cif.g09.slc.cpg/sg15_77_cif.got.tgz:153279.got - 2010.06.28 07:06:18.
