data_PCOD8130373
_publ_section_title
;
Structure prediction by ZEFSAII (Michael W. Deem and Ramdas Pophale) SiO2 
 PCOD8130373
Probable space group: C 2/C
;
_chemical_formula_sum "Si O2"
_cell_formula_units_Z 40
_cell_length_a 12.805326
_cell_length_b 34.225447
_cell_length_c 5.025798
_cell_angle_alpha 90.000000
_cell_angle_beta 91.147325
_cell_angle_gamma 90.000000
_cell_volume 2202.204871
_symmetry_space_group_name_H-M "C 2/C"
_symmetry_group_IT_number 15
_symmetry_cell_setting 'monoclinic'
loop_
_space_group_symop_operation_xyz
x,y,z
-x,y,1/2-z
-x,-y,-z
x,-y,1/2+z
1/2+x,1/2+y,z
1/2-x,1/2+y,1/2-z
1/2-x,1/2-y,-z
1/2+x,1/2-y,1/2+z
loop_
_atom_site_type_symbol
_atom_site_label
_atom_site_fract_x
_atom_site_fract_y
_atom_site_fract_z
Si Si1 0.163206 0.787901 0.209959
Si Si2 0.500000 0.646076 0.750000
Si Si3 0.884182 0.738578 0.790836
Si Si4 0.395727 0.025185 0.325553
Si Si5 0.000000 0.908915 0.750000
Si Si6 0.670735 0.526794 0.220175
O O1 0.105778 0.828472 0.264456
O O2 0.121845 0.754958 0.410754
O O3 0.289882 0.792729 0.242145
O O4 0.133108 0.774673 0.911429
O O5 0.500600 0.618567 0.500071
O O6 0.000000 0.719920 0.750000
O O7 0.500000 0.050347 0.250000
O O8 0.286398 0.045852 0.253655
O O9 0.399856 0.013486 0.634863
O O10 0.900198 0.936279 0.738953
O O11 0.650868 0.492470 0.432665
#
# Coordination Sequence:
#
# PCOD8130373 Si02
#       6
#     8   4   8   8   4   8
#     4  10  20  31  52  76 104 135 161 214 250 296
#     4  12  22  37  48  72 110 136 170 202 260 318
#     4  10  17  32  54  80 101 126 174 208 255 288
#     4   8  14  25  45  70  92 113 142 197 258 291
#     4  12  24  33  52  70 100 144 170 200 260 326
#     4  10  19  34  52  73  98 124 173 224 253 291
#
# _framework density 18.163616000000001
#
# number of rings (size 3 to 8) (size 9 to 14) (size 15 to 20)
#    0.000    2.000    2.000    3.000    0.000    0.000 
#    0.000    0.000    0.000    2.400    0.000    0.000 
#    0.000    0.000    0.000    0.000    0.000    0.000 
#
# Total GULP energy -247824.911528 kJ/mol
# GULP energy per Si atom -12391.245576 kJ/mol
# Density = 1.812228 g / cm^3
# Si number density = 18.163616 Si / 1000 Ang^3
#
#
#
# Elastic Constant Matrix: (Units=GPa)
#
#
# Indices 1 2 3 4 5 6 
#
# 1 200.6779 62.7253 22.3109 0.0000 -9.3605 0.0000
# 2 62.7253 73.6008 21.1604 0.0000 -1.1260 0.0000
# 3 22.3109 21.1604 90.5694 0.0000 -0.7470 0.0000
# 4 0.0000 0.0000 0.0000 26.0242 0.0000 -26.4540
# 5 -9.3605 -1.1260 -0.7470 0.0000 26.0551 0.0000
# 6 0.0000 0.0000 0.0000 -26.4540 0.0000 287.3182
#
#
#
# Elastic Compliance Matrix: (Units=1/GPa)
#
#
# Indices 1 2 3 4 5 6 
#
# 1 0.006930 -0.005774 -0.000340 0.000000 0.002230 0.000000
# 2 -0.005774 0.019383 -0.003117 0.000000 -0.001326 0.000000
# 3 -0.000340 -0.003117 0.011854 0.000000 0.000083 0.000000
# 4 0.000000 0.000000 0.000000 0.042394 0.000000 0.003903
# 5 0.002230 -0.001326 0.000083 0.000000 0.039127 0.000000
# 6 0.000000 0.000000 0.000000 0.003903 0.000000 0.003840
#
#
# Mechanical properties :
#
#
# Convention : Reuss Voigt Hill
#
# Bulk Modulus (GPa) = 50.74772 64.13794 57.44283
# Shear Modulus (GPa) = 33.65707 85.12293 59.39000
#
# Velocity S-wave (km/s) = 4.30931 6.85319 5.72435
# Velocity P-wave (km/s) = 7.26361 9.89998 8.68244
#
# Compressibility (1/GPa) = 0.01970532
#
# Stress axis : x y z
#
# Youngs Moduli (GPa) = 144.30768 51.59027 84.36025
#
# Poissons Ratio (x) = 0.29788 0.02865
# Poissons Ratio (y) = 0.83322 0.26298
# Poissons Ratio (z) = 0.04901 0.16082
#
# Static dielectric constant tensor:
#      x y z
#    x 4.092420 0.000000 -0.065870 
#    y 0.000000 2.901230 0.000000 
#    z -0.065870 0.000000 3.617210 
# 
# 
# High freq. dielectric constant tensor:
#      x y z
#    x 1.736780 0.000000 -0.002460 
#    y 0.000000 1.622870 0.000000 
#    z -0.002460 0.000000 1.734010 
# 
# From -- ./inp_files/7364.got.cif
#   From: 2010.06.25/outbox.cif.g09.slc.cpg/sg15_4_cif.got.tgz:7364.got - 2010.06.28 07:06:18.
