data_PCOD8130451
_publ_section_title
;
Structure prediction by ZEFSAII (Michael W. Deem and Ramdas Pophale) SiO2 
 PCOD8130451
Probable space group: C 2/C
;
_chemical_formula_sum "Si O2"
_cell_formula_units_Z 56
_cell_length_a 19.081975
_cell_length_b 9.709433
_cell_length_c 31.142669
_cell_angle_alpha 90.000000
_cell_angle_beta 149.842003
_cell_angle_gamma 90.000000
_cell_volume 2898.749856
_symmetry_space_group_name_H-M "C 2/C"
_symmetry_group_IT_number 15
_symmetry_cell_setting 'monoclinic'
loop_
_space_group_symop_operation_xyz
x,y,z
-x,y,1/2-z
-x,-y,-z
x,-y,1/2+z
1/2+x,1/2+y,z
1/2-x,1/2+y,1/2-z
1/2-x,1/2-y,-z
1/2+x,1/2-y,1/2+z
loop_
_atom_site_type_symbol
_atom_site_label
_atom_site_fract_x
_atom_site_fract_y
_atom_site_fract_z
Si Si1 0.968384 0.516623 0.100005
Si Si2 0.587209 0.022932 0.256689
Si Si3 0.938759 0.821713 0.351546
Si Si4 0.698449 0.364064 0.440255
Si Si5 0.333202 0.822142 0.344116
Si Si6 0.103595 0.984555 0.593962
Si Si7 0.354672 0.328380 0.182149
O O1 0.006786 0.489050 0.169968
O O2 0.015603 0.668892 0.111079
O O3 0.037571 0.409906 0.104062
O O4 0.800395 0.504778 0.003011
O O5 0.500000 0.957134 0.250000
O O6 0.742712 0.960813 0.338031
O O7 0.599308 0.187322 0.269471
O O8 0.778178 0.814302 0.253062
O O9 0.035027 0.888896 0.364546
O O10 0.958390 0.920476 0.402088
O O11 0.750000 0.250000 0.500000
O O12 0.718789 0.307537 0.402680
O O13 0.389613 0.672292 0.386452
O O14 0.258064 0.897101 0.345434
O O15 0.000000 0.000000 0.500000
O O16 0.500000 0.412790 0.250000
#
# Coordination Sequence:
#
# PCOD8130451 Si02
#       7
#     8   8   8   8   8   8   8
#     4  11  22  37  61  91 117 156 202 253 307 348
#     4  10  19  35  60  85 117 154 202 247 294 356
#     4  11  19  40  62  88 116 161 203 246 299 364
#     4  10  21  32  58  90 116 148 201 256 298 347
#     4  11  21  40  59  86 124 159 193 251 304 366
#     4  11  25  38  62  91 122 160 203 247 306 368
#     4  10  17  33  55  86 115 149 197 249 295 345
#
# _framework density 19.318673
#
# number of rings (size 3 to 8) (size 9 to 14) (size 15 to 20)
#    0.000    1.429    5.714    2.571   10.000    0.571 
#    0.000    0.714    0.000    0.857    0.000    0.000 
#    0.000    0.000    0.000    0.000    0.000    0.000 
#
# Total GULP energy -346988.997046 kJ/mol
# GULP energy per Si atom -12392.464180 kJ/mol
# Density = 1.927470 g / cm^3
# Si number density = 19.318673 Si / 1000 Ang^3
#
#
#
# Elastic Constant Matrix: (Units=GPa)
#
#
# Indices 1 2 3 4 5 6 
#
# 1 120.3331 43.3895 18.1126 0.0000 -16.2366 0.0001
# 2 43.3895 59.0284 28.4206 0.0000 -0.6075 0.0002
# 3 18.1126 28.4206 87.7248 0.0003 -13.1025 0.0002
# 4 0.0000 0.0000 0.0003 22.5223 0.0001 2.9618
# 5 -16.2366 -0.6075 -13.1025 0.0001 39.4948 0.0000
# 6 0.0001 0.0002 0.0002 2.9618 0.0000 23.9199
#
#
#
# Elastic Compliance Matrix: (Units=1/GPa)
#
#
# Indices 1 2 3 4 5 6 
#
# 1 0.012310 -0.009664 0.001392 0.000000 0.005374 0.000000
# 2 -0.009664 0.027801 -0.007934 0.000000 -0.006177 0.000000
# 3 0.001392 -0.007934 0.014466 0.000000 0.005249 0.000000
# 4 0.000000 0.000000 0.000000 0.045135 0.000000 -0.005589
# 5 0.005374 -0.006177 0.005249 0.000000 0.029176 0.000000
# 6 0.000000 0.000000 0.000000 -0.005589 0.000000 0.042498
#
#
# Mechanical properties :
#
#
# Convention : Reuss Voigt Hill
#
# Bulk Modulus (GPa) = 45.11519 49.65909 47.38714
# Shear Modulus (GPa) = 23.67562 28.99831 26.33696
#
# Velocity S-wave (km/s) = 3.50456 3.87854 3.69628
# Velocity P-wave (km/s) = 6.30712 6.76894 6.54210
#
# Compressibility (1/GPa) = 0.02216548
#
# Stress axis : x y z
#
# Youngs Moduli (GPa) = 81.23207 35.97009 69.12553
#
# Poissons Ratio (x) = 0.34760 -0.09620
# Poissons Ratio (y) = 0.78500 0.54845
# Poissons Ratio (z) = -0.11305 0.28539
#
# Static dielectric constant tensor:
#      x y z
#    x 4.443980 0.000000 0.476570 
#    y 0.000000 2.718560 0.000000 
#    z 0.476570 0.000000 4.006280 
# 
# 
# High freq. dielectric constant tensor:
#      x y z
#    x 1.773850 0.000000 0.001010 
#    y 0.000000 1.684230 0.000000 
#    z 0.001010 0.000000 1.769290 
# 
# From -- ./inp_files/317554.got.cif
#   From: 2010.06.25/outbox.cif.g09.slc.cpg/sg15_159_cif.got.tgz:317554.got - 2010.06.28 07:06:18.
