data_PCOD8130916
_publ_section_title
;
Structure prediction by ZEFSAII (Michael W. Deem and Ramdas Pophale) SiO2 
 PCOD8130916
Probable space group: C 2/C
;
_chemical_formula_sum "Si O2"
_cell_formula_units_Z 60
_cell_length_a 11.012748
_cell_length_b 20.753859
_cell_length_c 14.158622
_cell_angle_alpha 90.000000
_cell_angle_beta 97.879381
_cell_angle_gamma 90.000000
_cell_volume 3205.500420
_symmetry_space_group_name_H-M "C 2/C"
_symmetry_group_IT_number 15
_symmetry_cell_setting 'monoclinic'
loop_
_space_group_symop_operation_xyz
x,y,z
-x,y,1/2-z
-x,-y,-z
x,-y,1/2+z
1/2+x,1/2+y,z
1/2-x,1/2+y,1/2-z
1/2-x,1/2-y,-z
1/2+x,1/2-y,1/2+z
loop_
_atom_site_type_symbol
_atom_site_label
_atom_site_fract_x
_atom_site_fract_y
_atom_site_fract_z
Si Si1 0.068788 0.892082 0.851808
Si Si2 0.387914 0.825875 0.682493
Si Si3 0.342857 0.703892 0.809815
Si Si4 0.403973 0.480435 0.068001
Si Si5 0.593151 0.250011 0.844816
Si Si6 0.000000 0.097755 0.750000
Si Si7 0.170351 0.128192 0.056990
Si Si8 0.538000 0.743550 0.976183
O O1 0.142998 0.824656 0.850362
O O2 0.000000 0.913001 0.750000
O O3 0.965289 0.879581 0.918022
O O4 0.153640 0.952531 0.895620
O O5 0.500000 0.861845 0.750000
O O6 0.353609 0.764217 0.740934
O O7 0.270503 0.872020 0.652862
O O8 0.424101 0.806264 0.579578
O O9 0.207042 0.702108 0.839974
O O10 0.377073 0.640866 0.752783
O O11 0.437245 0.704528 0.906181
O O12 0.479625 0.445775 0.157466
O O13 0.500000 0.500000 0.000000
O O14 0.302798 0.431484 0.012259
O O15 0.500000 0.240909 0.750000
O O16 0.522906 0.231388 0.933175
O O17 0.158624 0.198065 0.004301
#
# Coordination Sequence:
#
# PCOD8130916 Si02
#       8
#     8   8   8   8   8   4   8   8
#     4   9  17  31  49  75 109 142 183 226 279 334
#     4  10  19  31  50  76 113 144 187 224 282 355
#     4  11  19  34  51  81 115 148 185 231 293 347
#     4  10  20  33  53  81 118 142 190 234 288 340
#     4  10  21  33  50  78 116 153 185 232 288 350
#     4  12  20  36  58  86 122 148 182 242 290 348
#     4  10  18  30  50  77 109 142 181 233 279 334
#     4  10  18  31  48  76 110 144 181 225 283 346
#
# _framework density 18.717825999999999
#
# number of rings (size 3 to 8) (size 9 to 14) (size 15 to 20)
#    0.000    1.867    4.000    3.200    0.000    1.067 
#    0.000    0.000    0.000    0.000    0.000   12.133 
#    6.000    0.133    0.000    0.000    0.000    0.000 
#
# Total GULP energy -371693.811003 kJ/mol
# GULP energy per Si atom -12389.793700 kJ/mol
# Density = 1.867522 g / cm^3
# Si number density = 18.717826 Si / 1000 Ang^3
#
#
#
# Elastic Constant Matrix: (Units=GPa)
#
#
# Indices 1 2 3 4 5 6 
#
# 1 60.7536 23.7894 21.0064 0.0000 9.6410 0.0000
# 2 23.7894 63.6070 26.9208 0.0000 5.2646 0.0000
# 3 21.0064 26.9208 111.0100 0.0000 3.8607 0.0000
# 4 0.0000 0.0000 0.0000 26.7527 0.0000 1.8777
# 5 9.6410 5.2646 3.8607 0.0000 35.6098 0.0000
# 6 0.0000 0.0000 0.0000 1.8777 0.0000 13.9872
#
#
#
# Elastic Compliance Matrix: (Units=1/GPa)
#
#
# Indices 1 2 3 4 5 6 
#
# 1 0.020384 -0.006347 -0.002167 0.000000 -0.004346 0.000000
# 2 -0.006347 0.019660 -0.003539 0.000000 -0.000804 0.000000
# 3 -0.002167 -0.003539 0.010277 0.000000 -0.000004 0.000000
# 4 0.000000 0.000000 0.000000 0.037735 0.000000 -0.005066
# 5 -0.004346 -0.000804 -0.000004 0.000000 0.029378 0.000000
# 6 0.000000 0.000000 0.000000 -0.005066 0.000000 0.072174
#
#
# Mechanical properties :
#
#
# Convention : Reuss Voigt Hill
#
# Bulk Modulus (GPa) = 38.14586 42.08931 40.11759
# Shear Modulus (GPa) = 22.47691 26.18020 24.32856
#
# Velocity S-wave (km/s) = 3.46906 3.74395 3.60912
# Velocity P-wave (km/s) = 6.03900 6.42063 6.23274
#
# Compressibility (1/GPa) = 0.02621516
#
# Stress axis : x y z
#
# Youngs Moduli (GPa) = 49.05794 50.86572 97.30900
#
# Poissons Ratio (x) = 0.32284 0.21086
# Poissons Ratio (y) = 0.31137 0.34434
# Poissons Ratio (z) = 0.10631 0.17999
#
# Static dielectric constant tensor:
#      x y z
#    x 3.282450 0.000000 -0.073260 
#    y 0.000000 3.729580 0.000000 
#    z -0.073260 0.000000 3.834190 
# 
# 
# High freq. dielectric constant tensor:
#      x y z
#    x 1.683020 0.000000 -0.005920 
#    y 0.000000 1.698290 0.000000 
#    z -0.005920 0.000000 1.755820 
# 
# From -- ./inp_files/145732.got.cif
#   From: 2010.06.25/outbox.cif.g09.slc.cpg/sg15_73_cif.got.tgz:145732.got - 2010.06.28 07:06:18.
