data_PCOD8130642
_publ_section_title
;
Structure prediction by ZEFSAII (Michael W. Deem and Ramdas Pophale) SiO2 
 PCOD8130642
Probable space group: C 2/C
;
_chemical_formula_sum "Si O2"
_cell_formula_units_Z 56
_cell_length_a 12.081588
_cell_length_b 13.802211
_cell_length_c 19.557934
_cell_angle_alpha 90.000000
_cell_angle_beta 57.455908
_cell_angle_gamma 90.000000
_cell_volume 2749.234308
_symmetry_space_group_name_H-M "C 2/C"
_symmetry_group_IT_number 15
_symmetry_cell_setting 'monoclinic'
loop_
_space_group_symop_operation_xyz
x,y,z
-x,y,1/2-z
-x,-y,-z
x,-y,1/2+z
1/2+x,1/2+y,z
1/2-x,1/2+y,1/2-z
1/2-x,1/2-y,-z
1/2+x,1/2-y,1/2+z
loop_
_atom_site_type_symbol
_atom_site_label
_atom_site_fract_x
_atom_site_fract_y
_atom_site_fract_z
Si Si1 0.220842 0.340066 0.556094
Si Si2 0.384295 0.085725 0.698882
Si Si3 0.555307 0.119590 0.305068
Si Si4 0.281647 0.263311 0.682094
Si Si5 0.664321 0.846830 0.133560
Si Si6 0.535846 0.648471 0.163831
Si Si7 0.620387 0.470351 0.508546
O O1 0.250000 0.250000 0.500000
O O2 0.276642 0.317023 0.612100
O O3 0.289393 0.436862 0.506857
O O4 0.064144 0.353730 0.605876
O O5 0.300231 0.146428 0.670288
O O6 0.330520 0.122169 0.789458
O O7 0.540418 0.101620 0.638689
O O8 0.359376 0.971422 0.695303
O O9 0.500000 0.085847 0.250000
O O10 0.648910 0.212763 0.268044
O O11 0.406711 0.297740 0.681852
O O12 0.651055 0.729959 0.131737
O O13 0.797704 0.883167 0.053416
O O14 0.500000 0.603321 0.250000
O O15 0.573318 0.563922 0.098861
O O16 0.500000 0.500000 0.500000
#
# Coordination Sequence:
#
# PCOD8130642 Si02
#       7
#     8   8   8   8   8   8   8
#     4  11  24  45  58  87 132 175 210 254 317 387
#     4  10  17  35  68  91 118 159 211 261 311 376
#     4  10  19  39  66  86 119 168 209 249 310 390
#     4  10  21  40  64  95 122 162 215 261 317 379
#     4  10  18  37  65  95 122 159 205 260 319 373
#     4  11  22  42  65  97 130 157 211 277 320 372
#     4  12  24  40  65  95 127 172 214 260 318 382
#
# _framework density 20.369306999999999
#
# number of rings (size 3 to 8) (size 9 to 14) (size 15 to 20)
#    0.000    1.429    7.143    1.286    0.000    1.143 
#    2.571    1.429    0.000    0.000    0.000    0.000 
#    0.000    0.000    0.000    0.000    0.000    0.000 
#
# Total GULP energy -347132.294239 kJ/mol
# GULP energy per Si atom -12397.581937 kJ/mol
# Density = 2.032295 g / cm^3
# Si number density = 20.369307 Si / 1000 Ang^3
#
#
#
# Elastic Constant Matrix: (Units=GPa)
#
#
# Indices 1 2 3 4 5 6 
#
# 1 63.8784 42.2966 44.5291 0.0000 -12.5489 0.0000
# 2 42.2966 124.4442 65.5232 0.0000 -9.5446 0.0000
# 3 44.5291 65.5232 129.6593 0.0000 -14.6217 0.0000
# 4 0.0000 0.0000 0.0000 34.5751 0.0000 -0.2610
# 5 -12.5489 -9.5446 -14.6217 0.0000 24.4129 0.0000
# 6 0.0000 0.0000 0.0000 -0.2610 0.0000 35.2638
#
#
#
# Elastic Compliance Matrix: (Units=1/GPa)
#
#
# Indices 1 2 3 4 5 6 
#
# 1 0.023752 -0.004973 -0.004811 0.000000 0.007383 0.000000
# 2 -0.004973 0.012015 -0.004421 0.000000 -0.000507 0.000000
# 3 -0.004811 -0.004421 0.011931 0.000000 0.002944 0.000000
# 4 0.000000 0.000000 0.000000 0.028924 0.000000 0.000214
# 5 0.007383 -0.000507 0.002944 0.000000 0.046322 0.000000
# 6 0.000000 0.000000 0.000000 0.000214 0.000000 0.028359
#
#
# Mechanical properties :
#
#
# Convention : Reuss Voigt Hill
#
# Bulk Modulus (GPa) = 51.84867 69.18665 60.51766
# Shear Modulus (GPa) = 26.86087 29.89254 28.37670
#
# Velocity S-wave (km/s) = 3.63532 3.83499 3.73649
# Velocity P-wave (km/s) = 6.56737 7.32457 6.95628
#
# Compressibility (1/GPa) = 0.01928690
#
# Stress axis : x y z
#
# Youngs Moduli (GPa) = 42.10130 83.22966 83.81521
#
# Poissons Ratio (x) = 0.41394 0.40327
# Poissons Ratio (y) = 0.20939 0.37054
# Poissons Ratio (z) = 0.20256 0.36795
#
# Static dielectric constant tensor:
#      x y z
#    x 3.576190 0.000000 -0.351920 
#    y 0.000000 4.102060 0.000000 
#    z -0.351920 0.000000 2.913880 
# 
# 
# High freq. dielectric constant tensor:
#      x y z
#    x 1.779700 0.000000 -0.014970 
#    y 0.000000 1.799910 0.000000 
#    z -0.014970 0.000000 1.786140 
# 
# From -- ./inp_files/198225.got.cif
#   From: 2010.06.25/outbox.cif.g09.slc.cpg/sg15_100_cif.got.tgz:198225.got - 2010.06.28 07:06:18.
