data_PCOD8130314
_publ_section_title
;
Structure prediction by ZEFSAII (Michael W. Deem and Ramdas Pophale) SiO2 
 PCOD8130314
Probable space group: C 2/C
;
_chemical_formula_sum "Si O2"
_cell_formula_units_Z 64
_cell_length_a 22.488474
_cell_length_b 8.861122
_cell_length_c 14.814207
_cell_angle_alpha 90.000000
_cell_angle_beta 92.104462
_cell_angle_gamma 90.000000
_cell_volume 2950.082062
_symmetry_space_group_name_H-M "C 2/C"
_symmetry_group_IT_number 15
_symmetry_cell_setting 'monoclinic'
loop_
_space_group_symop_operation_xyz
x,y,z
-x,y,1/2-z
-x,-y,-z
x,-y,1/2+z
1/2+x,1/2+y,z
1/2-x,1/2+y,1/2-z
1/2-x,1/2-y,-z
1/2+x,1/2-y,1/2+z
loop_
_atom_site_type_symbol
_atom_site_label
_atom_site_fract_x
_atom_site_fract_y
_atom_site_fract_z
Si Si1 0.859683 0.761817 0.610142
Si Si2 0.755305 0.019609 0.143020
Si Si3 0.935600 0.357280 0.270212
Si Si4 0.427479 0.135032 0.977183
Si Si5 0.934890 0.708703 0.271185
Si Si6 0.195289 0.274216 0.783557
Si Si7 0.310235 0.050124 0.042849
Si Si8 0.449791 0.786974 0.973664
O O1 0.816487 0.901592 0.619138
O O2 0.884649 0.721418 0.709689
O O3 0.825169 0.622833 0.563819
O O4 0.913792 0.809417 0.546054
O O5 0.710479 0.134419 0.191902
O O6 0.768575 0.881944 0.212133
O O7 0.729958 0.951943 0.048630
O O8 0.918694 0.329072 0.371967
O O9 0.937204 0.533094 0.246651
O O10 0.000000 0.286922 0.250000
O O11 0.443533 0.962026 0.998597
O O12 0.366004 0.161068 0.025274
O O13 0.479040 0.245088 0.019108
O O14 0.875651 0.766825 0.216814
O O15 0.923324 0.747335 0.374724
O O16 0.000000 0.780255 0.250000
O O17 0.218114 0.374125 0.869966
#
# Coordination Sequence:
#
# PCOD8130314 Si02
#       8
#     8   8   8   8   8   8   8   8
#     4  11  21  38  62  94 127 171 219 271 329 381
#     4  12  28  44  67  93 134 178 222 268 321 395
#     4  10  17  31  59  96 129 164 212 271 317 379
#     4   9  17  29  57  93 126 153 208 268 317 369
#     4  10  20  36  65  96 126 166 215 269 329 380
#     4  12  25  46  66  97 132 175 219 270 326 389
#     4  11  23  41  67  93 127 170 225 274 321 382
#     4   9  17  30  55  96 126 157 206 266 325 374
#
# _framework density 21.694310999999999
#
# number of rings (size 3 to 8) (size 9 to 14) (size 15 to 20)
#    0.000    1.500    2.500    4.500    5.250    1.000 
#    0.000    0.625    0.000    1.500    0.000    0.000 
#    0.000    0.000    0.000    0.000    0.000    0.000 
#
# Total GULP energy -396653.905732 kJ/mol
# GULP energy per Si atom -12395.434554 kJ/mol
# Density = 2.164493 g / cm^3
# Si number density = 21.694311 Si / 1000 Ang^3
#
#
#
# Elastic Constant Matrix: (Units=GPa)
#
#
# Indices 1 2 3 4 5 6 
#
# 1 107.5962 31.1517 46.0053 0.0000 13.2275 0.0000
# 2 31.1517 43.6359 22.4427 0.0000 1.9018 0.0000
# 3 46.0053 22.4427 84.1132 0.0000 4.1178 0.0000
# 4 0.0000 0.0000 0.0000 12.0641 0.0000 -4.7411
# 5 13.2275 1.9018 4.1178 0.0000 40.0126 0.0000
# 6 0.0000 0.0000 0.0000 -4.7411 0.0000 20.7350
#
#
#
# Elastic Compliance Matrix: (Units=1/GPa)
#
#
# Indices 1 2 3 4 5 6 
#
# 1 0.014253 -0.007066 -0.005725 0.000000 -0.003787 0.000000
# 2 -0.007066 0.030076 -0.004226 0.000000 0.001341 0.000000
# 3 -0.005725 -0.004226 0.016126 0.000000 0.000434 0.000000
# 4 0.000000 0.000000 0.000000 0.091074 0.000000 0.020824
# 5 -0.003787 0.001341 0.000434 0.000000 0.026136 0.000000
# 6 0.000000 0.000000 0.000000 0.020824 0.000000 0.052989
#
#
# Mechanical properties :
#
#
# Convention : Reuss Voigt Hill
#
# Bulk Modulus (GPa) = 37.84688 48.28274 43.06481
# Shear Modulus (GPa) = 18.28186 23.61206 20.94696
#
# Velocity S-wave (km/s) = 2.90608 3.30267 3.11070
# Velocity P-wave (km/s) = 5.36133 6.07023 5.72676
#
# Compressibility (1/GPa) = 0.02642225
#
# Stress axis : x y z
#
# Youngs Moduli (GPa) = 70.15985 33.24894 62.01048
#
# Poissons Ratio (x) = 0.23493 0.35501
# Poissons Ratio (y) = 0.49574 0.26204
# Poissons Ratio (z) = 0.40167 0.14050
#
# Static dielectric constant tensor:
#      x y z
#    x 4.269600 0.000000 -0.024420 
#    y 0.000000 3.304130 0.000000 
#    z -0.024420 0.000000 3.981750 
# 
# 
# High freq. dielectric constant tensor:
#      x y z
#    x 1.863790 0.000000 0.002540 
#    y 0.000000 1.785000 0.000000 
#    z 0.002540 0.000000 1.869270 
# 
# From -- ./inp_files/172407.got.cif
#   From: 2010.06.25/outbox.cif.g09.slc.cpg/sg15_87_cif.got.tgz:172407.got - 2010.06.28 07:06:18.
