data_PCOD8130645
_publ_section_title
;
Structure prediction by ZEFSAII (Michael W. Deem and Ramdas Pophale) SiO2 
 PCOD8130645
Probable space group: C 2/C
;
_chemical_formula_sum "Si O2"
_cell_formula_units_Z 60
_cell_length_a 10.926856
_cell_length_b 21.142729
_cell_length_c 29.001343
_cell_angle_alpha 90.000000
_cell_angle_beta 149.636747
_cell_angle_gamma 90.000000
_cell_volume 3386.715874
_symmetry_space_group_name_H-M "C 2/C"
_symmetry_group_IT_number 15
_symmetry_cell_setting 'monoclinic'
loop_
_space_group_symop_operation_xyz
x,y,z
-x,y,1/2-z
-x,-y,-z
x,-y,1/2+z
1/2+x,1/2+y,z
1/2-x,1/2+y,1/2-z
1/2-x,1/2-y,-z
1/2+x,1/2-y,1/2+z
loop_
_atom_site_type_symbol
_atom_site_label
_atom_site_fract_x
_atom_site_fract_y
_atom_site_fract_z
Si Si1 0.542503 0.639431 0.403072
Si Si2 0.510196 0.495055 0.397807
Si Si3 0.094383 0.618923 0.200362
Si Si4 0.295011 0.220824 0.145529
Si Si5 0.000000 0.478670 0.750000
Si Si6 0.467990 0.077893 0.060745
Si Si7 0.327486 0.527586 0.650333
Si Si8 0.932144 0.652359 0.960640
O O1 0.563215 0.567772 0.428556
O O2 0.366186 0.640318 0.301271
O O3 0.435954 0.685491 0.407539
O O4 0.803228 0.665020 0.473795
O O5 0.701530 0.449792 0.485482
O O6 0.516055 0.484011 0.344675
O O7 0.240075 0.477567 0.328090
O O8 0.908190 0.676907 0.142623
O O9 0.005242 0.565238 0.206597
O O10 0.103999 0.594912 0.151526
O O11 0.500000 0.234806 0.250000
O O12 0.221648 0.284868 0.096674
O O13 0.446749 0.138028 0.020025
O O14 0.618065 0.024852 0.082345
O O15 0.500000 0.521518 0.750000
O O16 0.200844 0.595728 0.609433
#
# Coordination Sequence:
#
# PCOD8130645 Si02
#       8
#     8   8   8   8   4   8   8   8
#     4  10  17  36  55  78 103 135 188 220 255 307
#     4  10  18  35  53  79 113 134 176 224 262 314
#     4  10  20  34  56  77 102 145 177 220 262 313
#     4  10  20  37  55  75 102 140 185 218 259 317
#     4  10  18  36  56  76 106 146 184 218 256 314
#     4  11  22  33  54  83 112 140 171 219 273 323
#     4  11  20  34  54  81 113 141 174 213 274 322
#     4  11  21  34  54  80 110 138 170 229 268 311
#
# _framework density 17.716277999999999
#
# number of rings (size 3 to 8) (size 9 to 14) (size 15 to 20)
#    0.000    1.600    6.000    3.200    0.000    1.067 
#    0.000    0.000    0.000    3.200    0.000    0.000 
#    0.000    0.000    0.000    0.000    0.000    0.000 
#
# Total GULP energy -372015.312032 kJ/mol
# GULP energy per Si atom -12400.510401 kJ/mol
# Density = 1.767595 g / cm^3
# Si number density = 17.716278 Si / 1000 Ang^3
#
#
#
# Elastic Constant Matrix: (Units=GPa)
#
#
# Indices 1 2 3 4 5 6 
#
# 1 55.8660 20.9847 20.3950 0.0038 12.8151 0.0029
# 2 20.9847 76.7095 17.4229 0.0019 3.6045 0.0013
# 3 20.3950 17.4229 51.5613 0.0095 9.9869 0.0059
# 4 0.0038 0.0019 0.0095 28.7280 0.0032 -0.2433
# 5 12.8151 3.6045 9.9869 0.0032 42.8194 0.0026
# 6 0.0029 0.0013 0.0059 -0.2433 0.0026 22.0158
#
#
#
# Elastic Compliance Matrix: (Units=1/GPa)
#
#
# Indices 1 2 3 4 5 6 
#
# 1 0.023206 -0.004602 -0.006655 0.000000 -0.005006 0.000000
# 2 -0.004602 0.015033 -0.003436 0.000001 0.000913 0.000001
# 3 -0.006655 -0.003436 0.023822 -0.000006 -0.003275 -0.000005
# 4 0.000000 0.000001 -0.000006 0.034813 -0.000001 0.000385
# 5 -0.005006 0.000913 -0.003275 -0.000001 0.025539 -0.000002
# 6 0.000000 0.000001 -0.000005 0.000385 -0.000002 0.045426
#
#
# Mechanical properties :
#
#
# Convention : Reuss Voigt Hill
#
# Bulk Modulus (GPa) = 30.60381 33.52687 32.06534
# Shear Modulus (GPa) = 24.02508 27.06825 25.54666
#
# Velocity S-wave (km/s) = 3.68652 3.91304 3.80147
# Velocity P-wave (km/s) = 5.95252 6.27545 6.11612
#
# Compressibility (1/GPa) = 0.03267567
#
# Stress axis : x y z
#
# Youngs Moduli (GPa) = 43.09199 66.52212 41.97766
#
# Poissons Ratio (x) = 0.30611 0.27935
# Poissons Ratio (y) = 0.19829 0.14425
# Poissons Ratio (z) = 0.28677 0.22859
#
# Static dielectric constant tensor:
#      x y z
#    x 3.290910 -0.000010 0.223170 
#    y -0.000010 3.155550 -0.000010 
#    z 0.223170 -0.000010 3.325070 
# 
# 
# High freq. dielectric constant tensor:
#      x y z
#    x 1.680560 0.000000 0.015090 
#    y 0.000000 1.667870 0.000000 
#    z 0.015090 0.000000 1.690430 
# 
# From -- ./inp_files/311547.got.cif
#   From: 2010.06.25/outbox.cif.g09.slc.cpg/sg15_156_cif.got.tgz:311547.got - 2010.06.28 07:06:18.
