data_PCOD8130668
_publ_section_title
;
Structure prediction by ZEFSAII (Michael W. Deem and Ramdas Pophale) SiO2 
 PCOD8130668
Probable space group: C 2/C
;
_chemical_formula_sum "Si O2"
_cell_formula_units_Z 56
_cell_length_a 15.617073
_cell_length_b 17.040361
_cell_length_c 18.961347
_cell_angle_alpha 90.000000
_cell_angle_beta 148.746752
_cell_angle_gamma 90.000000
_cell_volume 2617.976641
_symmetry_space_group_name_H-M "C 2/C"
_symmetry_group_IT_number 15
_symmetry_cell_setting 'monoclinic'
loop_
_space_group_symop_operation_xyz
x,y,z
-x,y,1/2-z
-x,-y,-z
x,-y,1/2+z
1/2+x,1/2+y,z
1/2-x,1/2+y,1/2-z
1/2-x,1/2-y,-z
1/2+x,1/2-y,1/2+z
loop_
_atom_site_type_symbol
_atom_site_label
_atom_site_fract_x
_atom_site_fract_y
_atom_site_fract_z
Si Si1 0.946483 0.337441 0.892897
Si Si2 0.034150 0.187381 0.352690
Si Si3 0.225353 0.432011 0.268102
Si Si4 0.200697 0.049745 0.287074
Si Si5 0.886124 0.482288 0.540502
Si Si6 0.185615 0.595301 0.894285
Si Si7 0.158665 0.270177 0.159762
O O1 0.858613 0.394117 0.887232
O O2 0.805545 0.291978 0.749824
O O3 0.056171 0.390911 0.916659
O O4 0.056845 0.276242 0.015350
O O5 0.228626 0.168518 0.503439
O O6 0.000000 0.220428 0.250000
O O7 0.957935 0.100310 0.305777
O O8 0.959708 0.245714 0.358405
O O9 0.338846 0.497797 0.310376
O O10 0.281263 0.420252 0.388271
O O11 0.244613 0.351637 0.239271
O O12 0.037042 0.460016 0.129632
O O13 0.246015 0.991207 0.382560
O O14 0.811987 0.511948 0.562664
O O15 0.000000 0.624723 0.750000
#
# Coordination Sequence:
#
# PCOD8130668 Si02
#       7
#     8   8   8   8   8   8   8
#     4  10  20  35  57  83 113 155 193 229 281 339
#     4  11  23  36  53  88 121 152 186 229 289 347
#     4  10  19  35  58  87 113 150 193 233 284 336
#     4  10  18  36  62  79 110 158 201 231 267 342
#     4  10  17  36  60  78 111 160 199 225 273 347
#     4  10  22  36  56  84 115 147 187 240 284 327
#     4  11  21  34  54  87 122 150 183 231 287 345
#
# _framework density 21.390564999999999
#
# number of rings (size 3 to 8) (size 9 to 14) (size 15 to 20)
#    0.000    1.714    4.286    1.714    0.000    2.286 
#    0.000    7.857    0.000    0.000    0.000   58.000 
#    0.000    0.000    0.000    0.000    0.000    0.000 
#
# Total GULP energy -347168.650143 kJ/mol
# GULP energy per Si atom -12398.880362 kJ/mol
# Density = 2.134188 g / cm^3
# Si number density = 21.390565 Si / 1000 Ang^3
#
#
#
# Elastic Constant Matrix: (Units=GPa)
#
#
# Indices 1 2 3 4 5 6 
#
# 1 20.0830 7.2775 7.6422 0.0059 -8.1009 0.0004
# 2 7.2775 84.3732 25.9573 0.0112 -1.6759 0.0037
# 3 7.6422 25.9573 90.9215 0.0141 -16.1763 0.0124
# 4 0.0059 0.0112 0.0141 32.7394 0.0034 -4.1299
# 5 -8.1009 -1.6759 -16.1763 0.0034 20.0032 0.0044
# 6 0.0004 0.0037 0.0124 -4.1299 0.0044 33.4435
#
#
#
# Elastic Compliance Matrix: (Units=1/GPa)
#
#
# Indices 1 2 3 4 5 6 
#
# 1 0.061442 -0.005026 0.000727 -0.000013 0.025050 -0.000005
# 2 -0.005026 0.013490 -0.004193 -0.000001 -0.004296 0.000000
# 3 0.000727 -0.004193 0.014162 -0.000007 0.011396 -0.000007
# 4 -0.000013 -0.000001 -0.000007 0.031028 -0.000017 0.003832
# 5 0.025050 -0.004296 0.011396 -0.000017 0.068992 -0.000015
# 6 -0.000005 0.000000 -0.000007 0.003832 -0.000015 0.030374
#
#
# Mechanical properties :
#
#
# Convention : Reuss Voigt Hill
#
# Bulk Modulus (GPa) = 13.86759 30.79242 22.33000
# Shear Modulus (GPa) = 19.19318 27.53726 23.36522
#
# Velocity S-wave (km/s) = 2.99870 3.59187 3.30860
# Velocity P-wave (km/s) = 4.29962 5.62393 5.00576
#
# Compressibility (1/GPa) = 0.07211060
#
# Stress axis : x y z
#
# Youngs Moduli (GPa) = 16.27549 74.12722 70.61149
#
# Poissons Ratio (x) = 0.37254 -0.05134
# Poissons Ratio (y) = 0.08180 0.29609
# Poissons Ratio (z) = -0.01183 0.31084
#
# Static dielectric constant tensor:
#      x y z
#    x 3.740800 -0.000010 -0.142680 
#    y -0.000010 3.854120 -0.000030 
#    z -0.142680 -0.000030 3.847610 
# 
# 
# High freq. dielectric constant tensor:
#      x y z
#    x 1.800100 0.000000 -0.011420 
#    y 0.000000 1.835420 0.000000 
#    z -0.011420 0.000000 1.838620 
# 
# From -- ./inp_files/249280.got.cif
#   From: 2010.06.25/outbox.cif.g09.slc.cpg/sg15_125_cif.got.tgz:249280.got - 2010.06.28 07:06:18.
