data_PCOD8130768
_publ_section_title
;
Structure prediction by ZEFSAII (Michael W. Deem and Ramdas Pophale) SiO2 
 PCOD8130768
Probable space group: C 2/C
;
_chemical_formula_sum "Si O2"
_cell_formula_units_Z 60
_cell_length_a 18.276566
_cell_length_b 31.433512
_cell_length_c 8.175872
_cell_angle_alpha 90.000000
_cell_angle_beta 46.333144
_cell_angle_gamma 90.000000
_cell_volume 3397.661351
_symmetry_space_group_name_H-M "C 2/C"
_symmetry_group_IT_number 15
_symmetry_cell_setting 'monoclinic'
loop_
_space_group_symop_operation_xyz
x,y,z
-x,y,1/2-z
-x,-y,-z
x,-y,1/2+z
1/2+x,1/2+y,z
1/2-x,1/2+y,1/2-z
1/2-x,1/2-y,-z
1/2+x,1/2-y,1/2+z
loop_
_atom_site_type_symbol
_atom_site_label
_atom_site_fract_x
_atom_site_fract_y
_atom_site_fract_z
Si Si1 0.080367 0.094445 0.391990
Si Si2 0.500000 0.772529 0.250000
Si Si3 0.208443 0.702916 0.529479
Si Si4 0.135371 0.177553 0.459327
Si Si5 0.676465 0.639769 0.937068
Si Si6 0.881372 0.981138 0.469239
Si Si7 0.646713 0.563419 0.804229
Si Si8 0.056969 0.203363 0.920079
O O1 0.100130 0.127839 0.513243
O O2 0.135902 0.050059 0.349700
O O3 0.963430 0.084533 0.543483
O O4 0.130603 0.113594 0.156032
O O5 0.413273 0.800042 0.295245
O O6 0.435691 0.746416 0.486020
O O7 0.250000 0.750000 0.500000
O O8 0.254198 0.685025 0.287938
O O9 0.236531 0.672029 0.638212
O O10 0.129150 0.199390 0.648098
O O11 0.059595 0.200968 0.451231
O O12 0.718240 0.603682 0.744384
O O13 0.584607 0.665422 0.998322
O O14 0.819857 0.960831 0.411946
O O15 0.000000 0.981830 0.250000
O O16 0.846438 0.028756 0.560906
#
# Coordination Sequence:
#
# PCOD8130768 Si02
#       8
#     8   4   8   8   8   8   8   8
#     4  10  18  28  44  67 101 135 174 206 240 299
#     4  12  22  40  54  74 104 130 174 224 270 302
#     4  11  22  37  55  76 100 134 174 218 263 315
#     4  10  21  33  50  80 101 138 180 209 251 307
#     4  11  20  32  51  69  96 137 176 205 254 301
#     4  10  19  28  39  68 101 137 173 203 250 293
#     4  11  19  28  43  65  99 139 169 211 243 304
#     4  11  20  32  54  75 103 135 173 220 250 303
#
# _framework density 17.659205
#
# number of rings (size 3 to 8) (size 9 to 14) (size 15 to 20)
#    0.000    1.333    4.000    5.200    5.600    0.533 
#    0.000    0.000    0.000    0.000    0.000    0.000 
#    0.000    9.600    0.000    0.000    0.000    1.867 
#
# Total GULP energy -371694.748040 kJ/mol
# GULP energy per Si atom -12389.824935 kJ/mol
# Density = 1.761901 g / cm^3
# Si number density = 17.659205 Si / 1000 Ang^3
#
#
#
# Elastic Constant Matrix: (Units=GPa)
#
#
# Indices 1 2 3 4 5 6 
#
# 1 84.8263 51.2918 33.4874 0.0000 12.6553 0.0000
# 2 51.2918 112.9971 26.1017 0.0000 5.7218 0.0000
# 3 33.4874 26.1017 50.3985 0.0000 8.6404 0.0000
# 4 0.0000 0.0000 0.0000 11.4029 0.0000 2.9278
# 5 12.6553 5.7218 8.6404 0.0000 18.1160 0.0000
# 6 0.0000 0.0000 0.0000 2.9278 0.0000 29.3885
#
#
#
# Elastic Compliance Matrix: (Units=1/GPa)
#
#
# Indices 1 2 3 4 5 6 
#
# 1 0.020637 -0.006942 -0.008736 0.000000 -0.008057 0.000000
# 2 -0.006942 0.012397 -0.002143 0.000000 0.001956 0.000000
# 3 -0.008736 -0.002143 0.027873 0.000000 -0.006515 0.000000
# 4 0.000000 0.000000 0.000000 0.089999 0.000000 -0.008966
# 5 -0.008057 0.001956 -0.006515 0.000000 0.063318 0.000000
# 6 0.000000 0.000000 0.000000 -0.008966 0.000000 0.034920
#
#
# Mechanical properties :
#
#
# Convention : Reuss Voigt Hill
#
# Bulk Modulus (GPa) = 39.57963 52.22043 45.90003
# Shear Modulus (GPa) = 17.05277 20.93753 18.99515
#
# Velocity S-wave (km/s) = 3.11088 3.44705 3.28327
# Velocity P-wave (km/s) = 5.94686 6.74376 6.35781
#
# Compressibility (1/GPa) = 0.02526552
#
# Stress axis : x y z
#
# Youngs Moduli (GPa) = 48.45679 80.66600 35.87661
#
# Poissons Ratio (x) = 0.55995 0.31341
# Poissons Ratio (y) = 0.33637 0.07690
# Poissons Ratio (z) = 0.42331 0.17289
#
# Static dielectric constant tensor:
#      x y z
#    x 3.391370 0.000000 0.526000 
#    y 0.000000 3.766470 0.000000 
#    z 0.526000 0.000000 3.080540 
# 
# 
# High freq. dielectric constant tensor:
#      x y z
#    x 1.661750 0.000000 0.055540 
#    y 0.000000 1.694920 0.000000 
#    z 0.055540 0.000000 1.636200 
# 
# From -- ./inp_files/52548.got.cif
#   From: 2010.06.25/outbox.cif.g09.slc.cpg/sg15_27_cif.got.tgz:52548.got - 2010.06.28 07:06:18.
