data_PCOD8130992
_publ_section_title
;
Structure prediction by ZEFSAII (Michael W. Deem and Ramdas Pophale) SiO2 
 PCOD8130992
Probable space group: C 2/C
;
_chemical_formula_sum "Si O2"
_cell_formula_units_Z 64
_cell_length_a 15.627170
_cell_length_b 24.150797
_cell_length_c 10.732491
_cell_angle_alpha 90.000000
_cell_angle_beta 41.769010
_cell_angle_gamma 90.000000
_cell_volume 2698.179160
_symmetry_space_group_name_H-M "C 2/C"
_symmetry_group_IT_number 15
_symmetry_cell_setting 'monoclinic'
loop_
_space_group_symop_operation_xyz
x,y,z
-x,y,1/2-z
-x,-y,-z
x,-y,1/2+z
1/2+x,1/2+y,z
1/2-x,1/2+y,1/2-z
1/2-x,1/2-y,-z
1/2+x,1/2-y,1/2+z
loop_
_atom_site_type_symbol
_atom_site_label
_atom_site_fract_x
_atom_site_fract_y
_atom_site_fract_z
Si Si1 0.486235 0.854539 0.100144
Si Si2 0.422782 0.499597 0.456021
Si Si3 0.148607 0.876846 0.971980
Si Si4 0.746364 0.144007 0.410469
Si Si5 0.079493 0.189893 0.848411
Si Si6 0.592446 0.740626 0.258102
Si Si7 0.617567 0.194031 0.218338
Si Si8 0.770310 0.104360 0.645004
O O1 0.391788 0.806963 0.260748
O O2 0.385107 0.900674 0.167971
O O3 0.595096 0.873479 0.081046
O O4 0.574116 0.830451 0.896538
O O5 0.500000 0.520636 0.250000
O O6 0.500000 0.500000 0.500000
O O7 0.358700 0.441345 0.483767
O O8 0.314615 0.542459 0.617581
O O9 0.182767 0.878204 0.788537
O O10 0.251028 0.842553 0.949622
O O11 0.006272 0.850352 0.145515
O O12 0.766950 0.211429 0.395833
O O13 0.814162 0.117879 0.456446
O O14 0.152048 0.239950 0.693077
O O15 0.178625 0.151544 0.816016
O O16 0.975536 0.223045 0.041034
O O17 0.500000 0.718835 0.250000
O O18 0.500000 0.183862 0.250000
#
# Coordination Sequence:
#
# PCOD8130992 Si02
#       8
#     8   8   8   8   8   8   8   8
#     4  10  24  37  56  97 133 176 226 268 340 426
#     4  12  27  48  73 105 137 181 242 299 349 405
#     4  10  23  46  67  98 135 176 237 285 341 413
#     4  10  21  39  62  94 139 179 217 279 343 414
#     4  10  22  36  62 100 129 169 226 271 350 398
#     4  10  18  30  56  89 130 171 208 259 324 399
#     4  10  24  45  65  91 136 184 226 288 347 420
#     4  12  23  39  65  96 140 175 222 287 346 411
#
# _framework density 23.7197
#
# number of rings (size 3 to 8) (size 9 to 14) (size 15 to 20)
#    0.000    1.500    2.500    1.875   10.500    3.000 
#    0.000    3.750    0.000    0.000    0.000    0.000 
#    0.000    0.000    0.000    0.000    0.000    0.000 
#
# Total GULP energy -396511.894088 kJ/mol
# GULP energy per Si atom -12390.996690 kJ/mol
# Density = 2.366571 g / cm^3
# Si number density = 23.719700 Si / 1000 Ang^3
#
#
#
# Elastic Constant Matrix: (Units=GPa)
#
#
# Indices 1 2 3 4 5 6 
#
# 1 141.2815 46.6610 22.4779 0.0000 -26.8172 0.0000
# 2 46.6610 138.5217 20.6797 0.0000 -29.3046 0.0000
# 3 22.4779 20.6797 27.1046 0.0000 -21.9638 0.0000
# 4 0.0000 0.0000 0.0000 31.2982 0.0000 -7.6528
# 5 -26.8172 -29.3046 -21.9638 0.0000 47.5583 0.0000
# 6 0.0000 0.0000 0.0000 -7.6528 0.0000 34.7332
#
#
#
# Elastic Compliance Matrix: (Units=1/GPa)
#
#
# Indices 1 2 3 4 5 6 
#
# 1 0.008737 -0.001926 -0.004388 0.000000 0.001714 0.000000
# 2 -0.001926 0.008938 -0.002620 0.000000 0.003212 0.000000
# 3 -0.004388 -0.002620 0.062674 0.000000 0.024856 0.000000
# 4 0.000000 0.000000 0.000000 0.033770 0.000000 0.007441
# 5 0.001714 0.003212 0.024856 0.000000 0.035451 0.000000
# 6 0.000000 0.000000 0.000000 0.007441 0.000000 0.030430
#
#
# Mechanical properties :
#
#
# Convention : Reuss Voigt Hill
#
# Bulk Modulus (GPa) = 16.00457 54.06055 35.03256
# Shear Modulus (GPa) = 22.86276 37.19054 30.02665
#
# Velocity S-wave (km/s) = 3.10800 3.96399 3.56180
# Velocity P-wave (km/s) = 4.43188 6.61754 5.63176
#
# Compressibility (1/GPa) = 0.06248216
#
# Stress axis : x y z
#
# Youngs Moduli (GPa) = 114.44938 111.87790 15.95563
#
# Poissons Ratio (x) = 0.21543 0.07002
# Poissons Ratio (y) = 0.22038 0.04180
# Poissons Ratio (z) = 0.50222 0.29312
#
# Static dielectric constant tensor:
#      x y z
#    x 4.576560 0.000000 0.007920 
#    y 0.000000 4.245120 0.000000 
#    z 0.007920 0.000000 4.359920 
# 
# 
# High freq. dielectric constant tensor:
#      x y z
#    x 1.953900 0.000000 0.009770 
#    y 0.000000 1.908320 0.000000 
#    z 0.009770 0.000000 1.959600 
# 
# From -- ./inp_files/101315.got.cif
#   From: 2010.06.25/outbox.cif.g09.slc.cpg/sg15_51_cif.got.tgz:101315.got - 2010.06.28 07:06:18.
