data_PCOD8130153
_publ_section_title
;
Structure prediction by ZEFSAII (Michael W. Deem and Ramdas Pophale) SiO2 
 PCOD8130153
Probable space group: C 2/C
;
_chemical_formula_sum "Si O2"
_cell_formula_units_Z 60
_cell_length_a 15.599663
_cell_length_b 11.916462
_cell_length_c 20.667716
_cell_angle_alpha 90.000000
_cell_angle_beta 67.457145
_cell_angle_gamma 90.000000
_cell_volume 3548.425458
_symmetry_space_group_name_H-M "C 2/C"
_symmetry_group_IT_number 15
_symmetry_cell_setting 'monoclinic'
loop_
_space_group_symop_operation_xyz
x,y,z
-x,y,1/2-z
-x,-y,-z
x,-y,1/2+z
1/2+x,1/2+y,z
1/2-x,1/2+y,1/2-z
1/2-x,1/2-y,-z
1/2+x,1/2-y,1/2+z
loop_
_atom_site_type_symbol
_atom_site_label
_atom_site_fract_x
_atom_site_fract_y
_atom_site_fract_z
Si Si1 0.000000 0.828666 0.250000
Si Si2 0.993919 0.248335 0.327516
Si Si3 0.253023 0.536962 0.658966
Si Si4 0.236684 0.398957 0.822767
Si Si5 0.817444 0.696251 0.294143
Si Si6 0.784340 0.730291 0.918545
Si Si7 0.585831 0.519809 0.304694
Si Si8 0.170723 0.627121 0.814278
O O1 0.086265 0.748155 0.208388
O O2 0.029901 0.908835 0.300370
O O3 0.894682 0.276307 0.385079
O O4 0.000000 0.274578 0.250000
O O5 0.012620 0.118107 0.337326
O O6 0.066362 0.327928 0.343553
O O7 0.197595 0.420668 0.663513
O O8 0.253246 0.609812 0.594133
O O9 0.359608 0.508384 0.645415
O O10 0.206935 0.608416 0.730477
O O11 0.184979 0.326476 0.782485
O O12 0.243609 0.329408 0.886114
O O13 0.339913 0.436568 0.770255
O O14 0.175704 0.510796 0.852744
O O15 0.734766 0.782994 0.332962
O O16 0.750000 0.750000 0.000000
#
# Coordination Sequence:
#
# PCOD8130153 Si02
#       8
#     4   8   8   8   8   8   8   8
#     4  12  16  24  46  94 116 132 164 240 294 308
#     4  12  18  33  58  88 106 142 198 224 270 329
#     4  10  19  35  51  79 120 144 171 224 288 323
#     4  10  18  36  52  81 112 147 177 228 290 320
#     4  10  18  28  52  84 115 133 173 236 277 320
#     4  12  24  38  56  82 116 147 189 235 273 338
#     4  10  17  29  58  83 114 135 185 239 268 328
#     4  10  17  32  57  82 109 139 176 237 277 321
#
# _framework density 16.908906999999999
#
# number of rings (size 3 to 8) (size 9 to 14) (size 15 to 20)
#    0.000    1.600   10.000    0.000    0.000    2.133 
#    0.000    1.333    0.000    0.800    0.000    0.000 
#    0.000    0.000    0.000    0.000    0.000    0.000 
#
# Total GULP energy -371922.720847 kJ/mol
# GULP energy per Si atom -12397.424028 kJ/mol
# Density = 1.687042 g / cm^3
# Si number density = 16.908907 Si / 1000 Ang^3
#
#
#
# Elastic Constant Matrix: (Units=GPa)
#
#
# Indices 1 2 3 4 5 6 
#
# 1 119.9338 58.0856 31.9757 0.0000 -4.5544 0.0000
# 2 58.0856 128.9165 29.1544 0.0000 8.2430 0.0000
# 3 31.9757 29.1544 65.6900 0.0000 4.1337 0.0000
# 4 0.0000 0.0000 0.0000 16.0906 0.0000 4.8441
# 5 -4.5544 8.2430 4.1337 0.0000 15.5130 0.0000
# 6 0.0000 0.0000 0.0000 4.8441 0.0000 43.6601
#
#
#
# Elastic Compliance Matrix: (Units=1/GPa)
#
#
# Indices 1 2 3 4 5 6 
#
# 1 0.012146 -0.005002 -0.004154 0.000000 0.007331 0.000000
# 2 -0.005002 0.010887 -0.001974 0.000000 -0.006728 0.000000
# 3 -0.004154 -0.001974 0.018441 0.000000 -0.005085 0.000000
# 4 0.000000 0.000000 0.000000 0.064295 0.000000 -0.007134
# 5 0.007331 -0.006728 -0.005085 0.000000 0.071544 0.000000
# 6 0.000000 0.000000 0.000000 -0.007134 0.000000 0.023696
#
#
# Mechanical properties :
#
#
# Convention : Reuss Voigt Hill
#
# Bulk Modulus (GPa) = 52.04180 61.44128 56.74154
# Shear Modulus (GPa) = 21.76998 28.07438 24.92218
#
# Velocity S-wave (km/s) = 3.59205 4.07914 3.84332
# Velocity P-wave (km/s) = 6.93169 7.65515 7.30238
#
# Compressibility (1/GPa) = 0.01921532
#
# Stress axis : x y z
#
# Youngs Moduli (GPa) = 82.32934 91.85034 54.22741
#
# Poissons Ratio (x) = 0.45945 0.22525
# Poissons Ratio (y) = 0.41182 0.10703
# Poissons Ratio (z) = 0.34197 0.18129
#
# Static dielectric constant tensor:
#      x y z
#    x 2.704970 0.000000 0.542590 
#    y 0.000000 3.525640 0.000000 
#    z 0.542590 0.000000 2.097400 
# 
# 
# High freq. dielectric constant tensor:
#      x y z
#    x 1.668150 0.000000 0.000860 
#    y 0.000000 1.679110 0.000000 
#    z 0.000860 0.000000 1.566750 
# 
# From -- ./inp_files/248370.got.cif
#   From: 2010.06.25/outbox.cif.g09.slc.cpg/sg15_125_cif.got.tgz:248370.got - 2010.06.28 07:06:18.
