data_PCOD8130869
_publ_section_title
;
Structure prediction by ZEFSAII (Michael W. Deem and Ramdas Pophale) SiO2 
 PCOD8130869
Probable space group: C 2/C
;
_chemical_formula_sum "Si O2"
_cell_formula_units_Z 52
_cell_length_a 15.058443
_cell_length_b 23.314522
_cell_length_c 12.517800
_cell_angle_alpha 90.000000
_cell_angle_beta 44.228246
_cell_angle_gamma 90.000000
_cell_volume 3065.422142
_symmetry_space_group_name_H-M "C 2/C"
_symmetry_group_IT_number 15
_symmetry_cell_setting 'monoclinic'
loop_
_space_group_symop_operation_xyz
x,y,z
-x,y,1/2-z
-x,-y,-z
x,-y,1/2+z
1/2+x,1/2+y,z
1/2-x,1/2+y,1/2-z
1/2-x,1/2-y,-z
1/2+x,1/2-y,1/2+z
loop_
_atom_site_type_symbol
_atom_site_label
_atom_site_fract_x
_atom_site_fract_y
_atom_site_fract_z
Si Si1 0.864382 0.682156 0.312336
Si Si2 0.500000 0.518504 0.750000
Si Si3 0.369904 0.932870 0.690806
Si Si4 0.721507 0.521520 0.925812
Si Si5 0.140133 0.188945 0.674410
Si Si6 0.391323 0.998496 0.463049
Si Si7 0.182405 0.078341 0.744881
O O1 0.860034 0.635281 0.220587
O O2 0.855938 0.747487 0.277596
O O3 0.744211 0.675541 0.493543
O O4 0.000000 0.672002 0.250000
O O5 0.605687 0.477825 0.607921
O O6 0.551967 0.555803 0.804240
O O7 0.237720 0.961439 0.846282
O O8 0.477280 0.967200 0.665442
O O9 0.397379 0.946194 0.542963
O O10 0.697155 0.570272 0.859110
O O11 0.847518 0.531373 0.890073
O O12 0.179702 0.146832 0.735656
O O13 0.000000 0.175895 0.750000
O O14 0.295920 0.048607 0.582503
#
# Coordination Sequence:
#
# PCOD8130869 Si02
#       7
#     8   4   8   8   8   8   8
#     4  10  19  32  51  71  99 129 162 203 248 291
#     4  10  18  30  42  64  94 124 158 188 228 290
#     4  10  18  31  50  71  96 126 156 203 247 288
#     4  10  19  29  45  68  95 126 155 192 239 284
#     4  10  20  32  47  74 100 129 163 200 243 298
#     4   9  19  31  48  73  96 121 163 199 244 296
#     4  10  18  30  47  65  96 126 154 195 238 286
#
# _framework density 16.963407
#
# number of rings (size 3 to 8) (size 9 to 14) (size 15 to 20)
#    0.000    2.154    0.769    4.615    0.000    0.000 
#    0.000    0.000    0.000    0.923    0.000    0.000 
#    4.615    0.000    0.000    0.000    0.000    0.000 
#
# Total GULP energy -322098.207569 kJ/mol
# GULP energy per Si atom -12388.392599 kJ/mol
# Density = 1.692480 g / cm^3
# Si number density = 16.963407 Si / 1000 Ang^3
#
#
#
# Elastic Constant Matrix: (Units=GPa)
#
#
# Indices 1 2 3 4 5 6 
#
# 1 95.4014 45.2890 34.6088 0.0002 12.4399 -0.0001
# 2 45.2890 136.3570 36.9951 0.0000 16.5052 0.0000
# 3 34.6088 36.9951 72.5000 0.0000 -3.5727 0.0000
# 4 0.0002 0.0000 0.0000 36.0935 -0.0001 -1.5356
# 5 12.4399 16.5052 -3.5727 -0.0001 33.5812 0.0000
# 6 -0.0001 0.0000 0.0000 -1.5356 0.0000 31.2971
#
#
#
# Elastic Compliance Matrix: (Units=1/GPa)
#
#
# Indices 1 2 3 4 5 6 
#
# 1 0.014448 -0.002672 -0.005762 0.000000 -0.004652 0.000000
# 2 -0.002672 0.009803 -0.003936 0.000000 -0.004247 0.000000
# 3 -0.005762 -0.003936 0.018852 0.000000 0.006075 0.000000
# 4 0.000000 0.000000 0.000000 0.027764 0.000000 0.001362
# 5 -0.004652 -0.004247 0.006075 0.000000 0.034236 0.000000
# 6 0.000000 0.000000 0.000000 0.001362 0.000000 0.032019
#
#
# Mechanical properties :
#
#
# Convention : Reuss Voigt Hill
#
# Bulk Modulus (GPa) = 54.46256 59.78268 57.12262
# Shear Modulus (GPa) = 29.76508 32.68540 31.22524
#
# Velocity S-wave (km/s) = 4.19342 4.39432 4.29504
# Velocity P-wave (km/s) = 7.45801 7.81443 7.63830
#
# Compressibility (1/GPa) = 0.01836124
#
# Stress axis : x y z
#
# Youngs Moduli (GPa) = 69.21607 102.00774 53.04547
#
# Poissons Ratio (x) = 0.27257 0.30567
# Poissons Ratio (y) = 0.18495 0.20879
# Poissons Ratio (z) = 0.39885 0.40151
#
# Static dielectric constant tensor:
#      x y z
#    x 3.357780 0.000000 -0.191030 
#    y 0.000000 3.090490 0.000000 
#    z -0.191030 0.000000 3.202250 
# 
# 
# High freq. dielectric constant tensor:
#      x y z
#    x 1.650810 0.000000 -0.021170 
#    y 0.000000 1.626240 0.000000 
#    z -0.021170 0.000000 1.659880 
# 
# From -- ./inp_files/99339.got.cif
#   From: 2010.06.25/outbox.cif.g09.slc.cpg/sg15_50_cif.got.tgz:99339.got - 2010.06.28 07:06:18.
