data_PCOD8130773
_publ_section_title
;
Structure prediction by ZEFSAII (Michael W. Deem and Ramdas Pophale) SiO2 
 PCOD8130773
Probable space group: C 2/C
;
_chemical_formula_sum "Si O2"
_cell_formula_units_Z 48
_cell_length_a 16.325310
_cell_length_b 15.870450
_cell_length_c 24.176083
_cell_angle_alpha 90.000000
_cell_angle_beta 28.614751
_cell_angle_gamma 90.000000
_cell_volume 2999.837080
_symmetry_space_group_name_H-M "C 2/C"
_symmetry_group_IT_number 15
_symmetry_cell_setting 'monoclinic'
loop_
_space_group_symop_operation_xyz
x,y,z
-x,y,1/2-z
-x,-y,-z
x,-y,1/2+z
1/2+x,1/2+y,z
1/2-x,1/2+y,1/2-z
1/2-x,1/2-y,-z
1/2+x,1/2-y,1/2+z
loop_
_atom_site_type_symbol
_atom_site_label
_atom_site_fract_x
_atom_site_fract_y
_atom_site_fract_z
Si Si1 0.691756 0.054458 0.150284
Si Si2 0.530306 0.662147 0.464818
Si Si3 0.541399 0.478001 0.581809
Si Si4 0.907782 0.844266 0.862607
Si Si5 0.979387 0.295111 0.408750
Si Si6 0.763598 0.086136 0.697057
O O1 0.500000 0.081089 0.250000
O O2 0.784052 0.136280 0.121868
O O3 0.692830 0.976671 0.192211
O O4 0.789602 0.030509 0.035409
O O5 0.470306 0.595846 0.455318
O O6 0.537979 0.753802 0.432227
O O7 0.386201 0.658052 0.598086
O O8 0.559095 0.437357 0.631904
O O9 0.372233 0.535548 0.678818
O O10 0.985060 0.771704 0.855655
O O11 0.000000 0.836724 0.750000
O O12 0.707279 0.833123 0.972877
O O13 0.105170 0.371540 0.321310
#
# Coordination Sequence:
#
# PCOD8130773 Si02
#       6
#     8   8   8   8   8   8
#     4   9  15  26  47  68  85 110 146 183 213 250
#     4   8  16  28  42  65  91 114 142 177 216 253
#     4   8  16  29  43  63  90 116 143 178 215 251
#     4  10  19  29  43  66  93 114 140 180 216 252
#     4  10  18  28  45  66  89 118 143 170 217 263
#     4   9  16  28  46  65  87 114 144 178 216 257
#
# _framework density 16.000868000000001
#
# number of rings (size 3 to 8) (size 9 to 14) (size 15 to 20)
#    0.000    3.000    0.000    4.000    0.000    3.333 
#    0.000    0.833    0.000    7.000    0.000    0.000 
#    0.000    0.000    0.000    0.000    0.000    0.000 
#
# Total GULP energy -297505.962875 kJ/mol
# GULP energy per Si atom -12396.081786 kJ/mol
# Density = 1.596445 g / cm^3
# Si number density = 16.000868 Si / 1000 Ang^3
#
#
#
# Elastic Constant Matrix: (Units=GPa)
#
#
# Indices 1 2 3 4 5 6 
#
# 1 78.0638 40.9506 53.8180 -0.0031 -5.7845 -0.0007
# 2 40.9506 65.2805 44.3848 -0.0088 -0.4042 0.0018
# 3 53.8180 44.3848 103.5825 -0.0312 -6.9048 0.0077
# 4 -0.0031 -0.0088 -0.0312 16.4350 0.0077 7.2186
# 5 -5.7845 -0.4042 -6.9048 0.0077 28.3545 0.0012
# 6 -0.0007 0.0018 0.0077 7.2186 0.0012 17.3204
#
#
#
# Elastic Compliance Matrix: (Units=1/GPa)
#
#
# Indices 1 2 3 4 5 6 
#
# 1 0.023355 -0.009179 -0.008022 -0.000024 0.002680 0.000015
# 2 -0.009179 0.025334 -0.006289 0.000002 -0.003043 -0.000001
# 3 -0.008022 -0.006289 0.016673 0.000035 0.002334 -0.000022
# 4 -0.000024 0.000002 0.000035 0.074479 -0.000015 -0.031040
# 5 0.002680 -0.003043 0.002334 -0.000015 0.036340 0.000003
# 6 0.000015 -0.000001 -0.000022 -0.031040 0.000003 0.070672
#
#
# Mechanical properties :
#
#
# Convention : Reuss Voigt Hill
#
# Bulk Modulus (GPa) = 54.40773 58.35929 56.38351
# Shear Modulus (GPa) = 16.66890 19.60688 18.13789
#
# Velocity S-wave (km/s) = 3.23112 3.50432 3.37049
# Velocity P-wave (km/s) = 6.92798 7.27498 7.10360
#
# Compressibility (1/GPa) = 0.01837974
#
# Stress axis : x y z
#
# Youngs Moduli (GPa) = 42.81815 39.47279 59.97839
#
# Poissons Ratio (x) = 0.36234 0.48116
# Poissons Ratio (y) = 0.39304 0.37721
# Poissons Ratio (z) = 0.34350 0.24825
#
# Static dielectric constant tensor:
#      x y z
#    x 3.108330 -0.000010 0.017690 
#    y -0.000010 3.051560 0.000000 
#    z 0.017690 0.000000 2.973370 
# 
# 
# High freq. dielectric constant tensor:
#      x y z
#    x 1.595720 0.000000 -0.008850 
#    y 0.000000 1.589810 0.000000 
#    z -0.008850 0.000000 1.617590 
# 
# From -- ./inp_files/96188.got.cif
#   From: 2010.06.25/outbox.cif.g09.slc.cpg/sg15_49_cif.got.tgz:96188.got - 2010.06.28 07:06:18.
