data_PCOD8130886
_publ_section_title
;
Structure prediction by ZEFSAII (Michael W. Deem and Ramdas Pophale) SiO2 
 PCOD8130886
Probable space group: C 2/C
;
_chemical_formula_sum "Si O2"
_cell_formula_units_Z 52
_cell_length_a 16.605749
_cell_length_b 22.629228
_cell_length_c 13.440705
_cell_angle_alpha 90.000000
_cell_angle_beta 142.425695
_cell_angle_gamma 90.000000
_cell_volume 3079.855958
_symmetry_space_group_name_H-M "C 2/C"
_symmetry_group_IT_number 15
_symmetry_cell_setting 'monoclinic'
loop_
_space_group_symop_operation_xyz
x,y,z
-x,y,1/2-z
-x,-y,-z
x,-y,1/2+z
1/2+x,1/2+y,z
1/2-x,1/2+y,1/2-z
1/2-x,1/2-y,-z
1/2+x,1/2-y,1/2+z
loop_
_atom_site_type_symbol
_atom_site_label
_atom_site_fract_x
_atom_site_fract_y
_atom_site_fract_z
Si Si1 0.671751 0.800702 0.815998
Si Si2 0.134810 0.576597 0.596751
Si Si3 0.948240 0.491192 0.301384
Si Si4 0.280713 0.425575 0.889677
Si Si5 0.128738 0.996210 0.690355
Si Si6 0.500000 0.534428 0.750000
Si Si7 0.627402 0.203316 0.500882
O O1 0.702333 0.864958 0.803820
O O2 0.525836 0.777383 0.645507
O O3 0.681133 0.809624 0.943387
O O4 0.779164 0.756812 0.871280
O O5 0.063450 0.562430 0.631813
O O6 0.285352 0.555007 0.742144
O O7 0.141535 0.646270 0.584256
O O8 0.053711 0.541686 0.433555
O O9 0.807933 0.522950 0.148827
O O10 0.000000 0.462406 0.250000
O O11 0.299054 0.439902 0.789110
O O12 0.412559 0.424139 0.089125
O O13 0.091512 0.991625 0.771005
O O14 0.000000 0.000000 0.500000
#
# Coordination Sequence:
#
# PCOD8130886 Si02
#       7
#     8   8   8   8   8   4   8
#     4  10  20  32  49  69 101 133 168 211 247 305
#     4  10  19  31  50  73 101 131 164 206 250 302
#     4  10  18  30  51  75 100 128 163 205 254 294
#     4  10  19  31  47  71 100 128 165 201 246 299
#     4   9  19  30  45  71  99 128 160 195 248 299
#     4  10  18  30  48  68 102 134 156 202 250 300
#     4  10  20  33  48  72  98 135 172 204 255 304
#
# _framework density 16.883906
#
# number of rings (size 3 to 8) (size 9 to 14) (size 15 to 20)
#    0.000    2.154    1.538    2.769    0.000    4.923 
#    0.000    0.000    0.000    0.000    2.000    1.077 
#    0.000    0.000    0.000    0.000    0.000    0.000 
#
# Total GULP energy -322142.350380 kJ/mol
# GULP energy per Si atom -12390.090399 kJ/mol
# Density = 1.684548 g / cm^3
# Si number density = 16.883906 Si / 1000 Ang^3
#
#
#
# Elastic Constant Matrix: (Units=GPa)
#
#
# Indices 1 2 3 4 5 6 
#
# 1 118.8500 41.8110 27.9002 0.0000 -9.6777 0.0000
# 2 41.8110 84.1683 21.0201 0.0000 -1.7651 0.0000
# 3 27.9002 21.0201 61.7178 0.0000 9.4214 0.0000
# 4 0.0000 0.0000 0.0000 21.4037 0.0000 0.8620
# 5 -9.6777 -1.7651 9.4214 0.0000 31.0352 0.0000
# 6 0.0000 0.0000 0.0000 0.8620 0.0000 21.3728
#
#
#
# Elastic Compliance Matrix: (Units=1/GPa)
#
#
# Indices 1 2 3 4 5 6 
#
# 1 0.011378 -0.004476 -0.004322 0.000000 0.004606 0.000000
# 2 -0.004476 0.014889 -0.003108 0.000000 0.000394 0.000000
# 3 -0.004322 -0.003108 0.020393 0.000000 -0.007715 0.000000
# 4 0.000000 0.000000 0.000000 0.046797 0.000000 -0.001887
# 5 0.004606 0.000394 -0.007715 0.000000 0.036022 0.000000
# 6 0.000000 0.000000 0.000000 -0.001887 0.000000 0.046865
#
#
# Mechanical properties :
#
#
# Convention : Reuss Voigt Hill
#
# Bulk Modulus (GPa) = 43.76755 49.57763 46.67259
# Shear Modulus (GPa) = 24.06484 26.36266 25.21375
#
# Velocity S-wave (km/s) = 3.77943 3.95575 3.86859
# Velocity P-wave (km/s) = 6.71002 7.09165 6.90347
#
# Compressibility (1/GPa) = 0.02284798
#
# Stress axis : x y z
#
# Youngs Moduli (GPa) = 87.88605 67.16407 49.03683
#
# Poissons Ratio (x) = 0.30064 0.21195
# Poissons Ratio (y) = 0.39340 0.15239
# Poissons Ratio (z) = 0.37986 0.20872
#
# Static dielectric constant tensor:
#      x y z
#    x 4.179700 0.000000 0.020520 
#    y 0.000000 2.992430 0.000000 
#    z 0.020520 0.000000 3.261560 
# 
# 
# High freq. dielectric constant tensor:
#      x y z
#    x 1.662400 0.000000 0.024310 
#    y 0.000000 1.612810 0.000000 
#    z 0.024310 0.000000 1.647500 
# 
# From -- ./inp_files/100516.got.cif
#   From: 2010.06.25/outbox.cif.g09.slc.cpg/sg15_51_cif.got.tgz:100516.got - 2010.06.28 07:06:18.
