data_PCOD8130169
_publ_section_title
;
Structure prediction by ZEFSAII (Michael W. Deem and Ramdas Pophale) SiO2 
 PCOD8130169
Probable space group: C 2/C
;
_chemical_formula_sum "Si O2"
_cell_formula_units_Z 48
_cell_length_a 17.799013
_cell_length_b 14.581292
_cell_length_c 21.576784
_cell_angle_alpha 90.000000
_cell_angle_beta 26.431230
_cell_angle_gamma 90.000000
_cell_volume 2492.636809
_symmetry_space_group_name_H-M "C 2/C"
_symmetry_group_IT_number 15
_symmetry_cell_setting 'monoclinic'
loop_
_space_group_symop_operation_xyz
x,y,z
-x,y,1/2-z
-x,-y,-z
x,-y,1/2+z
1/2+x,1/2+y,z
1/2-x,1/2+y,1/2-z
1/2-x,1/2-y,-z
1/2+x,1/2-y,1/2+z
loop_
_atom_site_type_symbol
_atom_site_label
_atom_site_fract_x
_atom_site_fract_y
_atom_site_fract_z
Si Si1 0.346419 0.568686 0.046816
Si Si2 0.128549 0.737086 0.829271
Si Si3 0.527236 0.376031 0.301207
Si Si4 0.583449 0.177714 0.307611
Si Si5 0.899017 0.588448 0.550957
Si Si6 0.375698 0.363584 0.064589
O O1 0.376362 0.577972 0.951360
O O2 0.496991 0.624039 0.970884
O O3 0.166389 0.612942 0.194797
O O4 0.329962 0.462803 0.074254
O O5 0.281992 0.798274 0.739355
O O6 0.057635 0.667120 0.932437
O O7 0.199219 0.685177 0.715961
O O8 0.967792 0.806139 0.940891
O O9 0.500000 0.397463 0.250000
O O10 0.516929 0.267291 0.321650
O O11 0.697665 0.425714 0.199493
O O12 0.440858 0.121218 0.450013
O O13 0.000000 0.500000 0.500000
#
# Coordination Sequence:
#
# PCOD8130169 Si02
#       6
#     8   8   8   8   8   8
#     4  10  20  32  50  78 108 151 189 235 287 331
#     4  10  17  30  48  78 110 141 177 233 300 325
#     4  11  23  38  55  80 119 161 188 225 291 362
#     4  10  19  33  50  79 114 148 191 226 278 345
#     4  11  21  33  54  84 115 146 197 244 280 331
#     4  10  18  30  50  74 112 139 188 244 286 337
#
# _framework density 19.256716000000001
#
# number of rings (size 3 to 8) (size 9 to 14) (size 15 to 20)
#    0.000    1.667    5.000    3.000    4.667    2.667 
#    0.000    0.000    0.000    0.000    0.000    4.667 
#    0.000    0.000    0.000    0.000    0.000    0.000 
#
# Total GULP energy -297462.522741 kJ/mol
# GULP energy per Si atom -12394.271781 kJ/mol
# Density = 1.921289 g / cm^3
# Si number density = 19.256716 Si / 1000 Ang^3
#
#
#
# Elastic Constant Matrix: (Units=GPa)
#
#
# Indices 1 2 3 4 5 6 
#
# 1 22.3654 15.6909 7.6839 0.0001 9.1957 0.0006
# 2 15.6909 78.2599 50.6249 0.0007 3.8529 0.0036
# 3 7.6839 50.6249 149.0568 0.0013 16.6394 0.0018
# 4 0.0001 0.0007 0.0013 36.8055 0.0027 -1.9901
# 5 9.1957 3.8529 16.6394 0.0027 18.9969 -0.0016
# 6 0.0006 0.0036 0.0018 -1.9901 -0.0016 12.4400
#
#
#
# Elastic Compliance Matrix: (Units=1/GPa)
#
#
# Indices 1 2 3 4 5 6 
#
# 1 0.067964 -0.015581 0.005661 0.000002 -0.034697 -0.000004
# 2 -0.015581 0.019998 -0.007069 -0.000001 0.009678 -0.000003
# 3 0.005661 -0.007069 0.009935 0.000000 -0.010009 -0.000001
# 4 0.000002 -0.000001 0.000000 0.027407 -0.000005 0.004384
# 5 -0.034697 0.009678 -0.010009 -0.000005 0.076240 0.000010
# 6 -0.000004 -0.000003 -0.000001 0.004384 0.000010 0.081087
#
#
# Mechanical properties :
#
#
# Convention : Reuss Voigt Hill
#
# Bulk Modulus (GPa) = 15.64444 44.18684 29.91564
# Shear Modulus (GPa) = 14.79661 25.36065 20.07863
#
# Velocity S-wave (km/s) = 2.77499 3.63295 3.23256
# Velocity P-wave (km/s) = 4.29059 6.37133 5.43153
#
# Compressibility (1/GPa) = 0.06392048
#
# Stress axis : x y z
#
# Youngs Moduli (GPa) = 14.71372 50.00407 100.65115
#
# Poissons Ratio (x) = 0.77910 -0.56984
# Poissons Ratio (y) = 0.22925 0.71153
# Poissons Ratio (z) = -0.08330 0.35349
#
# Static dielectric constant tensor:
#      x y z
#    x 2.820560 0.000000 0.014450 
#    y 0.000000 3.599250 0.000030 
#    z 0.014450 0.000030 3.868880 
# 
# 
# High freq. dielectric constant tensor:
#      x y z
#    x 1.664440 0.000000 0.004410 
#    y 0.000000 1.751450 0.000000 
#    z 0.004410 0.000000 1.780930 
# 
# From -- ./inp_files/54977.got.cif
#   From: 2010.06.25/outbox.cif.g09.slc.cpg/sg15_28_cif.got.tgz:54977.got - 2010.06.28 07:06:18.
