data_PCOD8130411
_publ_section_title
;
Structure prediction by ZEFSAII (Michael W. Deem and Ramdas Pophale) SiO2 
 PCOD8130411
Probable space group: C 2/C
;
_chemical_formula_sum "Si O2"
_cell_formula_units_Z 56
_cell_length_a 11.726356
_cell_length_b 22.003197
_cell_length_c 13.195815
_cell_angle_alpha 90.000000
_cell_angle_beta 66.236121
_cell_angle_gamma 90.000000
_cell_volume 3116.073438
_symmetry_space_group_name_H-M "C 2/C"
_symmetry_group_IT_number 15
_symmetry_cell_setting 'monoclinic'
loop_
_space_group_symop_operation_xyz
x,y,z
-x,y,1/2-z
-x,-y,-z
x,-y,1/2+z
1/2+x,1/2+y,z
1/2-x,1/2+y,1/2-z
1/2-x,1/2-y,-z
1/2+x,1/2-y,1/2+z
loop_
_atom_site_type_symbol
_atom_site_label
_atom_site_fract_x
_atom_site_fract_y
_atom_site_fract_z
Si Si1 0.374378 0.987008 0.487697
Si Si2 0.593452 0.799642 0.507618
Si Si3 0.520774 0.884123 0.354505
Si Si4 0.500000 0.149272 0.250000
Si Si5 0.637638 0.333625 0.025862
Si Si6 0.500000 0.605011 0.750000
Si Si7 0.240378 0.028668 0.713909
Si Si8 0.774905 0.571359 0.358385
O O1 0.395909 0.924781 0.418254
O O2 0.500000 0.000000 0.500000
O O3 0.263423 0.983965 0.609592
O O4 0.347754 0.045592 0.429113
O O5 0.524306 0.831892 0.438541
O O6 0.530007 0.810739 0.639932
O O7 0.591420 0.727545 0.487046
O O8 0.734733 0.823144 0.458367
O O9 0.500000 0.855311 0.250000
O O10 0.644724 0.925304 0.311665
O O11 0.380067 0.109210 0.260509
O O12 0.532879 0.353336 0.142623
O O13 0.660157 0.385654 0.933225
O O14 0.614357 0.564111 0.742470
O O15 0.220235 0.985067 0.816707
#
# Coordination Sequence:
#
# PCOD8130411 Si02
#       8
#     8   8   8   4   8   4   8   8
#     4  10  18  31  53  85 117 137 180 237 292 340
#     4  10  20  36  57  87 107 148 199 235 289 329
#     4  11  19  34  59  88 119 147 183 245 297 347
#     4  10  17  32  58  86 112 135 188 254 294 316
#     4  10  21  36  55  78 114 148 196 240 268 337
#     4  12  21  38  56  80 116 153 190 232 280 354
#     4  11  21  34  55  85 113 151 186 228 297 347
#     4  11  19  34  53  86 112 145 180 238 297 335
#
# _framework density 17.971335
#
# number of rings (size 3 to 8) (size 9 to 14) (size 15 to 20)
#    0.000    1.429    4.286    5.571    0.000    0.571 
#    0.000    0.000    1.571    0.857    0.000    0.000 
#    0.000    0.000    0.000    0.000    0.000    0.000 
#
# Total GULP energy -347113.488813 kJ/mol
# GULP energy per Si atom -12396.910315 kJ/mol
# Density = 1.793043 g / cm^3
# Si number density = 17.971335 Si / 1000 Ang^3
#
#
#
# Elastic Constant Matrix: (Units=GPa)
#
#
# Indices 1 2 3 4 5 6 
#
# 1 54.9666 38.6549 41.8718 0.0000 -5.3902 0.0000
# 2 38.6549 116.6129 56.9609 0.0000 2.0573 0.0000
# 3 41.8718 56.9609 120.7512 0.0000 -3.5721 0.0000
# 4 0.0000 0.0000 0.0000 23.6593 0.0000 4.3252
# 5 -5.3902 2.0573 -3.5721 0.0000 29.9927 0.0000
# 6 0.0000 0.0000 0.0000 4.3252 0.0000 18.0533
#
#
#
# Elastic Compliance Matrix: (Units=1/GPa)
#
#
# Indices 1 2 3 4 5 6 
#
# 1 0.028055 -0.006104 -0.006711 0.000000 0.004661 0.000000
# 2 -0.006104 0.012529 -0.003865 0.000000 -0.002417 0.000000
# 3 -0.006711 -0.003865 0.012448 0.000000 0.000542 0.000000
# 4 0.000000 0.000000 0.000000 0.044203 0.000000 -0.010590
# 5 0.004661 -0.002417 0.000542 0.000000 0.034409 0.000000
# 6 0.000000 0.000000 0.000000 -0.010590 0.000000 0.057929
#
#
# Mechanical properties :
#
#
# Convention : Reuss Voigt Hill
#
# Bulk Modulus (GPa) = 50.83433 63.03401 56.93417
# Shear Modulus (GPa) = 21.78739 24.66392 23.22566
#
# Velocity S-wave (km/s) = 3.48565 3.70862 3.59886
# Velocity P-wave (km/s) = 6.67438 7.31364 7.00131
#
# Compressibility (1/GPa) = 0.01967174
#
# Stress axis : x y z
#
# Youngs Moduli (GPa) = 35.64466 79.81269 80.33395
#
# Poissons Ratio (x) = 0.48715 0.53913
# Poissons Ratio (y) = 0.21756 0.31052
# Poissons Ratio (z) = 0.23922 0.30850
#
# Static dielectric constant tensor:
#      x y z
#    x 3.379410 0.000000 -0.412760 
#    y 0.000000 3.005170 0.000000 
#    z -0.412760 0.000000 3.876450 
# 
# 
# High freq. dielectric constant tensor:
#      x y z
#    x 1.659080 0.000000 -0.008780 
#    y 0.000000 1.690820 0.000000 
#    z -0.008780 0.000000 1.709540 
# 
# From -- ./inp_files/89591.got.cif
#   From: 2010.06.25/outbox.cif.g09.slc.cpg/sg15_45_cif.got.tgz:89591.got - 2010.06.28 07:06:18.
