data_PCOD8130265
_publ_section_title
;
Structure prediction by ZEFSAII (Michael W. Deem and Ramdas Pophale) SiO2 
 PCOD8130265
Probable space group: C 2/C
;
_chemical_formula_sum "Si O2"
_cell_formula_units_Z 64
_cell_length_a 26.699869
_cell_length_b 10.091869
_cell_length_c 25.609058
_cell_angle_alpha 90.000000
_cell_angle_beta 151.651154
_cell_angle_gamma 90.000000
_cell_volume 3276.577264
_symmetry_space_group_name_H-M "C 2/C"
_symmetry_group_IT_number 15
_symmetry_cell_setting 'monoclinic'
loop_
_space_group_symop_operation_xyz
x,y,z
-x,y,1/2-z
-x,-y,-z
x,-y,1/2+z
1/2+x,1/2+y,z
1/2-x,1/2+y,1/2-z
1/2-x,1/2-y,-z
1/2+x,1/2-y,1/2+z
loop_
_atom_site_type_symbol
_atom_site_label
_atom_site_fract_x
_atom_site_fract_y
_atom_site_fract_z
Si Si1 0.991689 0.505860 0.803336
Si Si2 0.749340 0.590992 0.808044
Si Si3 0.025486 0.351964 0.004796
Si Si4 0.720219 0.460683 0.164477
Si Si5 0.466322 0.677781 0.044846
Si Si6 0.172763 0.603946 0.034618
Si Si7 0.621992 0.176343 0.225447
Si Si8 0.858152 0.259752 0.227335
O O1 0.925202 0.379123 0.763599
O O2 0.927237 0.639801 0.756455
O O3 0.000000 0.484663 0.750000
O O4 0.112726 0.511734 0.936977
O O5 0.698903 0.542305 0.707158
O O6 0.796115 0.471018 0.884116
O O7 0.664670 0.672729 0.765584
O O8 0.850698 0.678519 0.885450
O O9 0.974862 0.336620 0.902154
O O10 0.000000 0.500000 0.000000
O O11 0.979897 0.241097 0.000645
O O12 0.776731 0.595189 0.200977
O O13 0.791397 0.337607 0.210208
O O14 0.606189 0.452386 0.030338
O O15 0.573744 0.651916 0.176084
O O16 0.411310 0.784740 0.030725
O O17 0.282138 0.677397 0.117630
#
# Coordination Sequence:
#
# PCOD8130265 Si02
#       8
#     8   8   8   8   8   8   8   8
#     4  10  21  41  65  80 101 145 194 240 286 331
#     4  12  21  31  55  81 116 156 184 216 275 332
#     4  12  17  31  53  74 110 154 189 214 260 331
#     4  10  19  30  51  79 115 155 179 217 267 325
#     4  10  17  31  51  80 114 149 182 221 267 326
#     4  10  20  35  56  82 110 144 183 229 290 329
#     4  11  22  37  51  82 113 146 195 231 267 334
#     4   9  19  34  55  84 114 137 183 234 271 332
#
# _framework density 19.532578000000001
#
# number of rings (size 3 to 8) (size 9 to 14) (size 15 to 20)
#    0.000    1.500    6.250    0.750    1.750    0.500 
#    2.250    1.875    0.000    0.750    0.000    0.000 
#    0.000    0.000    0.000    0.000    0.000    0.000 
#
# Total GULP energy -396483.505071 kJ/mol
# GULP energy per Si atom -12390.109533 kJ/mol
# Density = 1.948812 g / cm^3
# Si number density = 19.532578 Si / 1000 Ang^3
#
#
#
# Elastic Constant Matrix: (Units=GPa)
#
#
# Indices 1 2 3 4 5 6 
#
# 1 84.3266 11.0520 32.0854 0.0000 -12.7332 0.0000
# 2 11.0520 24.1190 9.5159 0.0000 -0.5321 0.0000
# 3 32.0854 9.5159 77.0531 0.0000 -2.5201 0.0000
# 4 0.0000 0.0000 0.0000 18.3082 0.0000 5.1389
# 5 -12.7332 -0.5321 -2.5201 0.0000 22.3302 0.0000
# 6 0.0000 0.0000 0.0000 5.1389 0.0000 18.4468
#
#
#
# Elastic Compliance Matrix: (Units=1/GPa)
#
#
# Indices 1 2 3 4 5 6 
#
# 1 0.015946 -0.004847 -0.005769 0.000000 0.008326 0.000000
# 2 -0.004847 0.045062 -0.003615 0.000000 -0.002098 0.000000
# 3 -0.005769 -0.003615 0.015775 0.000000 -0.001596 0.000000
# 4 0.000000 0.000000 0.000000 0.059254 0.000000 -0.016507
# 5 0.008326 -0.002098 -0.001596 0.000000 0.049300 0.000000
# 6 0.000000 0.000000 0.000000 -0.016507 0.000000 0.058808
#
#
# Mechanical properties :
#
#
# Convention : Reuss Voigt Hill
#
# Bulk Modulus (GPa) = 20.69542 32.31169 26.50355
# Shear Modulus (GPa) = 17.31810 20.67340 18.99575
#
# Velocity S-wave (km/s) = 2.98086 3.25685 3.12190
# Velocity P-wave (km/s) = 4.73980 5.54266 5.15688
#
# Compressibility (1/GPa) = 0.04831987
#
# Stress axis : x y z
#
# Youngs Moduli (GPa) = 62.71045 22.19155 63.39262
#
# Poissons Ratio (x) = 0.10757 0.36573
# Poissons Ratio (y) = 0.30397 0.22919
# Poissons Ratio (z) = 0.36179 0.08023
#
# Static dielectric constant tensor:
#      x y z
#    x 3.234510 0.000000 0.313740 
#    y 0.000000 3.398390 0.000000 
#    z 0.313740 0.000000 3.922580 
# 
# 
# High freq. dielectric constant tensor:
#      x y z
#    x 1.720120 0.000000 0.023530 
#    y 0.000000 1.738290 0.000000 
#    z 0.023530 0.000000 1.777970 
# 
# From -- ./inp_files/283510.got.cif
#   From: 2010.06.25/outbox.cif.g09.slc.cpg/sg15_142_cif.got.tgz:283510.got - 2010.06.28 07:06:18.
