data_PCOD8130033
_publ_section_title
;
Structure prediction by ZEFSAII (Michael W. Deem and Ramdas Pophale) SiO2 
 PCOD8130033
Probable space group: C 2/C
;
_chemical_formula_sum "Si O2"
_cell_formula_units_Z 44
_cell_length_a 18.891869
_cell_length_b 14.049242
_cell_length_c 12.795290
_cell_angle_alpha 90.000000
_cell_angle_beta 32.204920
_cell_angle_gamma 90.000000
_cell_volume 1809.937392
_symmetry_space_group_name_H-M "C 2/C"
_symmetry_group_IT_number 15
_symmetry_cell_setting 'monoclinic'
loop_
_space_group_symop_operation_xyz
x,y,z
-x,y,1/2-z
-x,-y,-z
x,-y,1/2+z
1/2+x,1/2+y,z
1/2-x,1/2+y,1/2-z
1/2-x,1/2-y,-z
1/2+x,1/2-y,1/2+z
loop_
_atom_site_type_symbol
_atom_site_label
_atom_site_fract_x
_atom_site_fract_y
_atom_site_fract_z
Si Si1 0.000000 0.652008 0.750000
Si Si2 0.661432 0.177832 0.739038
Si Si3 0.498777 0.185868 0.360049
Si Si4 0.211099 0.156317 0.441825
Si Si5 0.246311 0.383172 0.833957
Si Si6 0.642979 0.534508 0.112888
O O1 0.927173 0.713512 0.749835
O O2 0.104504 0.584506 0.558572
O O3 0.748757 0.267510 0.664289
O O4 0.749503 0.089804 0.592025
O O5 0.570461 0.141248 0.950954
O O6 0.500000 0.122114 0.250000
O O7 0.653563 0.212932 0.193184
O O8 0.413261 0.277505 0.430247
O O9 0.240683 0.090327 0.302924
O O10 0.171287 0.078633 0.578057
O O11 0.357777 0.434002 0.764570
O O12 0.500000 0.560804 0.250000
#
# Coordination Sequence:
#
# PCOD8130033 Si02
#       6
#     4   8   8   8   8   8
#     4  10  16  38  60  96 134 168 232 272 342 410
#     4  10  23  38  70 102 135 185 227 293 354 421
#     4  11  24  46  73 100 143 193 238 286 352 437
#     4  11  25  47  71 104 141 189 244 290 358 424
#     4  10  23  39  69  98 138 185 226 292 350 431
#     4  11  25  42  68 105 145 180 236 302 360 417
#
# _framework density 24.310233
#
# number of rings (size 3 to 8) (size 9 to 14) (size 15 to 20)
#    0.000    1.455    1.818    3.273    5.091    4.364 
#    6.545    0.000    0.000    0.000    0.000    0.000 
#    0.000    0.000    0.000    0.000    0.000    0.000 
#
# Total GULP energy -272542.007908 kJ/mol
# GULP energy per Si atom -12388.273087 kJ/mol
# Density = 2.425490 g / cm^3
# Si number density = 24.310233 Si / 1000 Ang^3
#
#
#
# Elastic Constant Matrix: (Units=GPa)
#
#
# Indices 1 2 3 4 5 6 
#
# 1 143.1234 19.8801 58.7558 0.0000 -4.9788 0.0000
# 2 19.8801 63.1314 4.6556 0.0000 -15.5566 0.0000
# 3 58.7558 4.6556 117.9218 0.0000 -10.2950 0.0000
# 4 0.0000 0.0000 0.0000 19.1305 0.0000 -2.1514
# 5 -4.9788 -15.5566 -10.2950 0.0000 54.8570 0.0000
# 6 0.0000 0.0000 0.0000 -2.1514 0.0000 18.6850
#
#
#
# Elastic Compliance Matrix: (Units=1/GPa)
#
#
# Indices 1 2 3 4 5 6 
#
# 1 0.009211 -0.002762 -0.004550 0.000000 -0.000801 0.000000
# 2 -0.002762 0.017866 0.001110 0.000000 0.005024 0.000000
# 3 -0.004550 0.001110 0.010873 0.000000 0.001942 0.000000
# 4 0.000000 0.000000 0.000000 0.052958 0.000000 0.006098
# 5 -0.000801 0.005024 0.001942 0.000000 0.019946 0.000000
# 6 0.000000 0.000000 0.000000 0.006098 0.000000 0.054221
#
#
# Mechanical properties :
#
#
# Convention : Reuss Voigt Hill
#
# Bulk Modulus (GPa) = 39.14820 54.52885 46.83852
# Shear Modulus (GPa) = 26.88235 34.59351 30.73793
#
# Velocity S-wave (km/s) = 3.32897 3.77636 3.55970
# Velocity P-wave (km/s) = 5.56009 6.44156 6.01699
#
# Compressibility (1/GPa) = 0.02554396
#
# Stress axis : x y z
#
# Youngs Moduli (GPa) = 108.56803 55.97215 91.96939
#
# Poissons Ratio (x) = 0.15462 0.41849
# Poissons Ratio (y) = 0.29991 -0.10205
# Poissons Ratio (z) = 0.49402 -0.06211
#
# Static dielectric constant tensor:
#      x y z
#    x 5.129540 0.000000 0.362120 
#    y 0.000000 3.616870 0.000000 
#    z 0.362120 0.000000 4.954370 
# 
# 
# High freq. dielectric constant tensor:
#      x y z
#    x 1.989710 0.000000 0.006160 
#    y 0.000000 1.911150 0.000000 
#    z 0.006160 0.000000 1.985810 
# 
# From -- ./inp_files/168418.got.cif
#   From: 2010.06.25/outbox.cif.g09.slc.cpg/sg15_85_cif.got.tgz:168418.got - 2010.06.28 07:06:18.
