data_PCOD8130573
_publ_section_title
;
Structure prediction by ZEFSAII (Michael W. Deem and Ramdas Pophale) SiO2 
 PCOD8130573
Probable space group: C 2/C
;
_chemical_formula_sum "Si O2"
_cell_formula_units_Z 56
_cell_length_a 14.595390
_cell_length_b 24.314760
_cell_length_c 8.572052
_cell_angle_alpha 90.000000
_cell_angle_beta 116.098226
_cell_angle_gamma 90.000000
_cell_volume 2731.912267
_symmetry_space_group_name_H-M "C 2/C"
_symmetry_group_IT_number 15
_symmetry_cell_setting 'monoclinic'
loop_
_space_group_symop_operation_xyz
x,y,z
-x,y,1/2-z
-x,-y,-z
x,-y,1/2+z
1/2+x,1/2+y,z
1/2-x,1/2+y,1/2-z
1/2-x,1/2-y,-z
1/2+x,1/2-y,1/2+z
loop_
_atom_site_type_symbol
_atom_site_label
_atom_site_fract_x
_atom_site_fract_y
_atom_site_fract_z
Si Si1 0.255979 0.443600 0.669622
Si Si2 0.827234 0.789010 0.410932
Si Si3 0.000000 0.387195 0.250000
Si Si4 0.641622 0.389997 0.263463
Si Si5 0.824846 0.329990 0.957432
Si Si6 0.500000 0.679448 0.250000
Si Si7 0.562125 0.404599 0.539062
Si Si8 0.689135 0.046294 0.775942
O O1 0.226097 0.379866 0.677083
O O2 0.371736 0.452197 0.822993
O O3 0.178240 0.484308 0.701494
O O4 0.253283 0.455262 0.483838
O O5 0.860574 0.826264 0.291526
O O6 0.813539 0.725616 0.345357
O O7 0.728881 0.818022 0.415417
O O8 0.913594 0.783083 0.608794
O O9 0.921506 0.426884 0.283394
O O10 0.059418 0.348742 0.417654
O O11 0.626766 0.386912 0.436312
O O12 0.747575 0.419610 0.305307
O O13 0.550513 0.422612 0.103315
O O14 0.445765 0.643978 0.342532
#
# Coordination Sequence:
#
# PCOD8130573 Si02
#       8
#     8   8   4   8   8   4   8   8
#     4  11  21  40  57  89 114 163 204 256 305 365
#     4  10  18  35  62  91 122 156 204 251 309 372
#     4  10  21  40  58  94 116 170 213 256 294 364
#     4  10  20  38  57  95 122 162 192 255 308 378
#     4  10  20  35  61  88 120 158 212 253 299 369
#     4  10  17  34  62  92 116 158 189 248 310 386
#     4  10  20  35  63  86 128 148 199 247 315 366
#     4  11  23  38  63  83 125 159 214 253 301 361
#
# _framework density 20.498460999999999
#
# number of rings (size 3 to 8) (size 9 to 14) (size 15 to 20)
#    0.000    1.714    4.286    2.143    0.000    2.857 
#    0.000    2.143    0.000   13.714    0.000    0.000 
#    0.000    0.000    0.000    0.000    0.000    0.000 
#
# Total GULP energy -346991.294400 kJ/mol
# GULP energy per Si atom -12392.546229 kJ/mol
# Density = 2.045181 g / cm^3
# Si number density = 20.498461 Si / 1000 Ang^3
#
#
#
# Elastic Constant Matrix: (Units=GPa)
#
#
# Indices 1 2 3 4 5 6 
#
# 1 126.9716 51.7865 36.1444 0.0000 -1.2757 0.0000
# 2 51.7865 127.6827 32.5064 0.0000 -0.4286 0.0000
# 3 36.1444 32.5064 71.1794 0.0000 -9.6174 0.0000
# 4 0.0000 0.0000 0.0000 19.5556 0.0000 -3.8046
# 5 -1.2757 -0.4286 -9.6174 0.0000 29.6581 0.0000
# 6 0.0000 0.0000 0.0000 -3.8046 0.0000 26.8587
#
#
#
# Elastic Compliance Matrix: (Units=1/GPa)
#
#
# Indices 1 2 3 4 5 6 
#
# 1 0.010268 -0.003180 -0.003878 0.000000 -0.000862 0.000000
# 2 -0.003180 0.009891 -0.003034 0.000000 -0.000978 0.000000
# 3 -0.003878 -0.003034 0.018172 0.000000 0.005682 0.000000
# 4 0.000000 0.000000 0.000000 0.052586 0.000000 0.007449
# 5 -0.000862 -0.000978 0.005682 0.000000 0.035509 0.000000
# 6 0.000000 0.000000 0.000000 0.007449 0.000000 0.038287
#
#
# Mechanical properties :
#
#
# Convention : Reuss Voigt Hill
#
# Bulk Modulus (GPa) = 55.10996 62.96758 59.03877
# Shear Modulus (GPa) = 26.18537 28.90757 27.54647
#
# Velocity S-wave (km/s) = 3.57799 3.75938 3.66981
# Velocity P-wave (km/s) = 6.63421 7.04477 6.84257
#
# Compressibility (1/GPa) = 0.01814554
#
# Stress axis : x y z
#
# Youngs Moduli (GPa) = 97.38825 101.10240 55.03046
#
# Poissons Ratio (x) = 0.32152 0.21342
# Poissons Ratio (y) = 0.30971 0.16698
# Poissons Ratio (z) = 0.37769 0.30677
#
# Static dielectric constant tensor:
#      x y z
#    x 3.731180 0.000000 0.178350 
#    y 0.000000 3.739500 0.000000 
#    z 0.178350 0.000000 3.669090 
# 
# 
# High freq. dielectric constant tensor:
#      x y z
#    x 1.796030 0.000000 0.012630 
#    y 0.000000 1.798340 0.000000 
#    z 0.012630 0.000000 1.787390 
# 
# From -- ./inp_files/42768.got.cif
#   From: 2010.06.25/outbox.cif.g09.slc.cpg/sg15_22_cif.got.tgz:42768.got - 2010.06.28 07:06:18.
