data_PCOD8130648
_publ_section_title
;
Structure prediction by ZEFSAII (Michael W. Deem and Ramdas Pophale) SiO2 
 PCOD8130648
Probable space group: C 2/C
;
_chemical_formula_sum "Si O2"
_cell_formula_units_Z 60
_cell_length_a 21.246405
_cell_length_b 9.672806
_cell_length_c 26.415625
_cell_angle_alpha 90.000000
_cell_angle_beta 35.042177
_cell_angle_gamma 90.000000
_cell_volume 3117.068464
_symmetry_space_group_name_H-M "C 2/C"
_symmetry_group_IT_number 15
_symmetry_cell_setting 'monoclinic'
loop_
_space_group_symop_operation_xyz
x,y,z
-x,y,1/2-z
-x,-y,-z
x,-y,1/2+z
1/2+x,1/2+y,z
1/2-x,1/2+y,1/2-z
1/2-x,1/2-y,-z
1/2+x,1/2-y,1/2+z
loop_
_atom_site_type_symbol
_atom_site_label
_atom_site_fract_x
_atom_site_fract_y
_atom_site_fract_z
Si Si1 0.962449 0.971902 0.174998
Si Si2 0.414131 0.925970 0.179285
Si Si3 0.638583 0.336273 0.837444
Si Si4 0.390363 0.830019 0.389423
Si Si5 0.386326 0.777251 0.668849
Si Si6 0.500000 0.389686 0.750000
Si Si7 0.835728 0.081979 0.617131
Si Si8 0.171750 0.108588 0.995865
O O1 0.941963 0.810887 0.177379
O O2 0.873835 0.064156 0.203095
O O3 0.943138 0.009568 0.246396
O O4 0.087508 0.002255 0.076456
O O5 0.434376 0.800568 0.125447
O O6 0.498189 0.912423 0.171121
O O7 0.292038 0.919621 0.282553
O O8 0.438139 0.069384 0.134316
O O9 0.760125 0.285122 0.765989
O O10 0.607815 0.432413 0.906282
O O11 0.410624 0.707889 0.335597
O O12 0.297718 0.932347 0.426946
O O13 0.346676 0.763118 0.470509
O O14 0.399921 0.702501 0.605538
O O15 0.850330 0.111215 0.549034
#
# Coordination Sequence:
#
# PCOD8130648 Si02
#       8
#     8   8   8   8   8   4   8   8
#     4  10  20  37  57  80 109 140 179 223 267 323
#     4  10  17  36  56  81 107 137 186 229 252 310
#     4   9  17  34  55  81 102 137 181 221 250 320
#     4  10  20  33  55  81 106 139 190 228 256 314
#     4   9  20  33  55  82 110 137 173 225 271 310
#     4  10  18  34  60  76 100 144 190 222 262 300
#     4   9  19  33  58  79 108 145 177 214 277 319
#     4  10  20  34  54  79 110 142 183 219 270 324
#
# _framework density 19.248854000000001
#
# number of rings (size 3 to 8) (size 9 to 14) (size 15 to 20)
#    0.000    2.400    2.667    1.600    1.867    2.133 
#    0.000    4.667    0.000    1.600    0.000    0.000 
#    0.000    0.000    0.000    0.000    0.000    0.000 
#
# Total GULP energy -371739.056371 kJ/mol
# GULP energy per Si atom -12391.301879 kJ/mol
# Density = 1.920504 g / cm^3
# Si number density = 19.248854 Si / 1000 Ang^3
#
#
#
# Elastic Constant Matrix: (Units=GPa)
#
#
# Indices 1 2 3 4 5 6 
#
# 1 126.7216 47.9101 36.2122 0.0002 19.6661 -0.0009
# 2 47.9101 117.5809 21.2691 0.0002 18.5189 0.0032
# 3 36.2122 21.2691 46.6033 -0.0003 16.9340 -0.0025
# 4 0.0002 0.0002 -0.0003 10.5238 0.0001 -4.2032
# 5 19.6661 18.5189 16.9340 0.0001 29.3998 0.0020
# 6 -0.0009 0.0032 -0.0025 -4.2032 0.0020 30.8645
#
#
#
# Elastic Compliance Matrix: (Units=1/GPa)
#
#
# Indices 1 2 3 4 5 6 
#
# 1 0.011243 -0.003100 -0.006701 0.000000 -0.001709 0.000000
# 2 -0.003100 0.010576 -0.000949 -0.000001 -0.004041 -0.000001
# 3 -0.006701 -0.000949 0.031936 0.000003 -0.013314 0.000004
# 4 0.000000 -0.000001 0.000003 0.100489 -0.000002 0.013685
# 5 -0.001709 -0.004041 -0.013314 -0.000002 0.045371 -0.000004
# 6 0.000000 -0.000001 0.000004 0.013685 -0.000004 0.034263
#
#
# Mechanical properties :
#
#
# Convention : Reuss Voigt Hill
#
# Bulk Modulus (GPa) = 31.00333 55.74318 43.37325
# Shear Modulus (GPa) = 18.78775 26.52524 22.65649
#
# Velocity S-wave (km/s) = 3.12756 3.71619 3.43451
# Velocity P-wave (km/s) = 5.40220 6.88735 6.18948
#
# Compressibility (1/GPa) = 0.03225460
#
# Stress axis : x y z
#
# Youngs Moduli (GPa) = 88.94139 94.55172 31.31290
#
# Poissons Ratio (x) = 0.29312 0.20982
# Poissons Ratio (y) = 0.27573 0.02973
# Poissons Ratio (z) = 0.59598 0.08978
#
# Static dielectric constant tensor:
#      x y z
#    x 3.847480 0.000000 -0.125620 
#    y 0.000000 3.666940 0.000000 
#    z -0.125620 0.000000 3.328780 
# 
# 
# High freq. dielectric constant tensor:
#      x y z
#    x 1.764060 0.000000 -0.011370 
#    y 0.000000 1.730020 0.000000 
#    z -0.011370 0.000000 1.720570 
# 
# From -- ./inp_files/300506.got.cif
#   From: 2010.06.25/outbox.cif.g09.slc.cpg/sg15_151_cif.got.tgz:300506.got - 2010.06.28 07:06:18.
