data_PCOD8130719
_publ_section_title
;
Structure prediction by ZEFSAII (Michael W. Deem and Ramdas Pophale) SiO2 
 PCOD8130719
Probable space group: C 2/C
;
_chemical_formula_sum "Si O2"
_cell_formula_units_Z 56
_cell_length_a 9.748927
_cell_length_b 16.978336
_cell_length_c 17.974518
_cell_angle_alpha 90.000000
_cell_angle_beta 106.853042
_cell_angle_gamma 90.000000
_cell_volume 2847.373969
_symmetry_space_group_name_H-M "C 2/C"
_symmetry_group_IT_number 15
_symmetry_cell_setting 'monoclinic'
loop_
_space_group_symop_operation_xyz
x,y,z
-x,y,1/2-z
-x,-y,-z
x,-y,1/2+z
1/2+x,1/2+y,z
1/2-x,1/2+y,1/2-z
1/2-x,1/2-y,-z
1/2+x,1/2-y,1/2+z
loop_
_atom_site_type_symbol
_atom_site_label
_atom_site_fract_x
_atom_site_fract_y
_atom_site_fract_z
Si Si1 0.669917 0.160813 0.391042
Si Si2 0.755023 0.934610 0.486868
Si Si3 0.944408 0.497585 0.663286
Si Si4 0.823789 0.553864 0.901542
Si Si5 0.025477 0.153238 0.988967
Si Si6 0.102851 0.173613 0.835024
Si Si7 0.529737 0.824668 0.505571
O O1 0.811666 0.138063 0.459788
O O2 0.692718 0.243874 0.352301
O O3 0.531412 0.170554 0.421134
O O4 0.627754 0.087700 0.331263
O O5 0.674450 0.947295 0.395109
O O6 0.688192 0.860970 0.521650
O O7 0.922628 0.917683 0.499301
O O8 0.738738 0.012959 0.534230
O O9 0.000000 0.534032 0.750000
O O10 0.084530 0.491023 0.631631
O O11 0.698883 0.595964 0.834829
O O12 0.925762 0.626097 0.936892
O O13 0.018904 0.159785 0.898839
O O14 0.967215 0.233331 0.017640
O O15 0.000000 0.181715 0.750000
#
# Coordination Sequence:
#
# PCOD8130719 Si02
#       7
#     8   8   8   8   8   8   8
#     4  11  19  41  63  86 112 162 209 236 283 365
#     4  11  22  37  62  95 117 154 201 252 294 352
#     4  11  23  37  62  87 123 159 198 242 304 359
#     4  11  20  41  62  83 123 157 197 246 294 360
#     4  11  22  36  64  91 118 151 208 252 283 350
#     4  11  23  37  61  87 123 158 196 245 305 350
#     4  10  17  39  61  83 112 159 196 237 290 350
#
# _framework density 19.667245999999999
#
# number of rings (size 3 to 8) (size 9 to 14) (size 15 to 20)
#    0.000    1.143    5.714    2.571    2.000    2.286 
#    0.000    0.000    0.000    0.000    0.000    0.000 
#    0.000    0.000    0.000    0.000    0.000    0.000 
#
# Total GULP energy -347021.740691 kJ/mol
# GULP energy per Si atom -12393.633596 kJ/mol
# Density = 1.962248 g / cm^3
# Si number density = 19.667246 Si / 1000 Ang^3
#
#
#
# Elastic Constant Matrix: (Units=GPa)
#
#
# Indices 1 2 3 4 5 6 
#
# 1 87.2302 47.0057 32.6066 0.0000 11.3056 0.0000
# 2 47.0057 97.2424 31.1167 0.0000 6.7414 0.0000
# 3 32.6066 31.1167 111.3513 0.0000 14.5950 0.0000
# 4 0.0000 0.0000 0.0000 18.9270 0.0000 4.3084
# 5 11.3056 6.7414 14.5950 0.0000 15.1255 0.0000
# 6 0.0000 0.0000 0.0000 4.3084 0.0000 30.8735
#
#
#
# Elastic Compliance Matrix: (Units=1/GPa)
#
#
# Indices 1 2 3 4 5 6 
#
# 1 0.017001 -0.007046 -0.002009 0.000000 -0.007628 0.000000
# 2 -0.007046 0.014283 -0.002042 0.000000 0.000871 0.000000
# 3 -0.002009 -0.002042 0.011246 0.000000 -0.008439 0.000000
# 4 0.000000 0.000000 0.000000 0.054568 0.000000 -0.007615
# 5 -0.007628 0.000871 -0.008439 0.000000 0.079570 0.000000
# 6 0.000000 0.000000 0.000000 -0.007615 0.000000 0.033453
#
#
# Mechanical properties :
#
#
# Convention : Reuss Voigt Hill
#
# Bulk Modulus (GPa) = 49.17950 57.47576 53.32763
# Shear Modulus (GPa) = 20.91240 25.32486 23.11863
#
# Velocity S-wave (km/s) = 3.26438 3.59230 3.43226
# Velocity P-wave (km/s) = 6.26644 6.81863 6.54836
#
# Compressibility (1/GPa) = 0.02033368
#
# Stress axis : x y z
#
# Youngs Moduli (GPa) = 58.82160 70.01516 88.92191
#
# Poissons Ratio (x) = 0.49333 0.17868
# Poissons Ratio (y) = 0.41446 0.18159
# Poissons Ratio (z) = 0.11820 0.14298
#
# Static dielectric constant tensor:
#      x y z
#    x 3.629500 0.000000 0.004770 
#    y 0.000000 3.900950 0.000000 
#    z 0.004770 0.000000 3.265760 
# 
# 
# High freq. dielectric constant tensor:
#      x y z
#    x 1.755220 0.000000 0.008080 
#    y 0.000000 1.780860 0.000000 
#    z 0.008080 0.000000 1.734980 
# 
# From -- ./inp_files/191063.got.cif
#   From: 2010.06.25/outbox.cif.g09.slc.cpg/sg15_96_cif.got.tgz:191063.got - 2010.06.28 07:06:18.
