data_PCOD8130713
_publ_section_title
;
Structure prediction by ZEFSAII (Michael W. Deem and Ramdas Pophale) SiO2 
 PCOD8130713
Probable space group: C 2/C
;
_chemical_formula_sum "Si O2"
_cell_formula_units_Z 56
_cell_length_a 26.807084
_cell_length_b 18.957839
_cell_length_c 9.071324
_cell_angle_alpha 90.000000
_cell_angle_beta 36.388918
_cell_angle_gamma 90.000000
_cell_volume 2734.994713
_symmetry_space_group_name_H-M "C 2/C"
_symmetry_group_IT_number 15
_symmetry_cell_setting 'monoclinic'
loop_
_space_group_symop_operation_xyz
x,y,z
-x,y,1/2-z
-x,-y,-z
x,-y,1/2+z
1/2+x,1/2+y,z
1/2-x,1/2+y,1/2-z
1/2-x,1/2-y,-z
1/2+x,1/2-y,1/2+z
loop_
_atom_site_type_symbol
_atom_site_label
_atom_site_fract_x
_atom_site_fract_y
_atom_site_fract_z
Si Si1 0.413197 0.917146 0.231952
Si Si2 0.327112 0.572589 0.609454
Si Si3 0.673300 0.277917 0.780225
Si Si4 0.426320 0.758563 0.240468
Si Si5 0.281760 0.429663 0.874903
Si Si6 0.738550 0.285035 0.182365
Si Si7 0.500000 0.649629 0.250000
Si Si8 0.500000 0.986051 0.750000
O O1 0.446521 0.840994 0.207204
O O2 0.316469 0.918695 0.417414
O O3 0.429648 0.967158 0.333670
O O4 0.460432 0.938118 0.970568
O O5 0.309137 0.565570 0.479316
O O6 0.262064 0.630013 0.830842
O O7 0.420708 0.598291 0.426262
O O8 0.314285 0.498302 0.715862
O O9 0.750000 0.250000 0.500000
O O10 0.588839 0.256929 0.896067
O O11 0.674210 0.361909 0.802077
O O12 0.678823 0.238410 0.923015
O O13 0.346304 0.739779 0.534122
O O14 0.501896 0.705548 0.107817
O O15 0.750000 0.250000 0.000000
#
# Coordination Sequence:
#
# PCOD8130713 Si02
#       8
#     8   8   8   8   8   8   4   4
#     4  11  21  41  64  92 130 163 210 257 333 395
#     4  11  25  39  62  95 128 172 214 266 329 384
#     4  10  17  38  63  88 115 165 211 259 319 372
#     4  10  19  39  68  81 120 176 208 262 326 379
#     4  12  22  40  67  94 124 168 215 265 323 378
#     4  10  20  36  61  93 121 151 217 273 310 379
#     4  10  21  44  60  89 128 172 220 264 318 385
#     4  10  25  38  58  99 130 162 196 258 334 417
#
# _framework density 20.475359999999998
#
# number of rings (size 3 to 8) (size 9 to 14) (size 15 to 20)
#    0.000    1.429    7.143    1.286    2.000    1.714 
#    0.000    8.571    0.000    0.000    0.000    0.000 
#    0.000    0.000    0.000    0.000    0.000    0.000 
#
# Total GULP energy -346980.822812 kJ/mol
# GULP energy per Si atom -12392.172243 kJ/mol
# Density = 2.042876 g / cm^3
# Si number density = 20.475360 Si / 1000 Ang^3
#
#
#
# Elastic Constant Matrix: (Units=GPa)
#
#
# Indices 1 2 3 4 5 6 
#
# 1 140.3218 30.9920 17.6007 0.0000 3.9556 0.0000
# 2 30.9920 166.3828 21.3389 0.0000 1.2355 0.0000
# 3 17.6007 21.3389 26.2413 0.0000 6.7806 0.0000
# 4 0.0000 0.0000 0.0000 13.4996 0.0000 18.0300
# 5 3.9556 1.2355 6.7806 0.0000 22.0128 0.0000
# 6 0.0000 0.0000 0.0000 18.0300 0.0000 29.2631
#
#
#
# Elastic Compliance Matrix: (Units=1/GPa)
#
#
# Indices 1 2 3 4 5 6 
#
# 1 0.007896 -0.000882 -0.004590 0.000000 0.000045 0.000000
# 2 -0.000882 0.006850 -0.005345 0.000000 0.001421 0.000000
# 3 -0.004590 -0.005345 0.049155 0.000000 -0.014016 0.000000
# 4 0.000000 0.000000 0.000000 0.418285 0.000000 -0.257720
# 5 0.000045 0.001421 -0.014016 0.000000 0.049658 0.000000
# 6 0.000000 0.000000 0.000000 -0.257720 0.000000 0.192963
#
#
# Mechanical properties :
#
#
# Convention : Reuss Voigt Hill
#
# Bulk Modulus (GPa) = 23.66007 52.53433 38.09720
# Shear Modulus (GPa) = 6.57437 30.48939 18.53188
#
# Velocity S-wave (km/s) = 1.79383 3.86304 3.01172
# Velocity P-wave (km/s) = 3.98383 6.75356 5.54443
#
# Compressibility (1/GPa) = 0.04226530
#
# Stress axis : x y z
#
# Youngs Moduli (GPa) = 126.64909 145.99433 20.34389
#
# Poissons Ratio (x) = 0.12883 0.09338
# Poissons Ratio (y) = 0.11176 0.10874
# Poissons Ratio (z) = 0.58130 0.78036
#
# Static dielectric constant tensor:
#      x y z
#    x 4.334940 0.000000 -0.067030 
#    y 0.000000 4.283770 0.000000 
#    z -0.067030 0.000000 3.159730 
# 
# 
# High freq. dielectric constant tensor:
#      x y z
#    x 1.833250 0.000000 0.006300 
#    y 0.000000 1.821780 0.000000 
#    z 0.006300 0.000000 1.746220 
# 
# From -- ./inp_files/67150.got.cif
#   From: 2010.06.25/outbox.cif.g09.slc.cpg/sg15_34_cif.got.tgz:67150.got - 2010.06.28 07:06:18.
