data_PCOD8130630
_publ_section_title
;
Structure prediction by ZEFSAII (Michael W. Deem and Ramdas Pophale) SiO2 
 PCOD8130630
Probable space group: C 2/C
;
_chemical_formula_sum "Si O2"
_cell_formula_units_Z 48
_cell_length_a 9.124979
_cell_length_b 16.060268
_cell_length_c 17.716661
_cell_angle_alpha 90.000000
_cell_angle_beta 83.055894
_cell_angle_gamma 90.000000
_cell_volume 2577.324233
_symmetry_space_group_name_H-M "C 2/C"
_symmetry_group_IT_number 15
_symmetry_cell_setting 'monoclinic'
loop_
_space_group_symop_operation_xyz
x,y,z
-x,y,1/2-z
-x,-y,-z
x,-y,1/2+z
1/2+x,1/2+y,z
1/2-x,1/2+y,1/2-z
1/2-x,1/2-y,-z
1/2+x,1/2-y,1/2+z
loop_
_atom_site_type_symbol
_atom_site_label
_atom_site_fract_x
_atom_site_fract_y
_atom_site_fract_z
Si Si1 0.294051 0.417231 0.324018
Si Si2 0.511021 0.831268 0.338092
Si Si3 0.156087 0.519871 0.571466
Si Si4 0.253768 0.256806 0.910333
Si Si5 0.609464 0.405734 0.353374
Si Si6 0.132248 0.435677 0.903550
O O1 0.183799 0.339157 0.349995
O O2 0.432834 0.413732 0.371900
O O3 0.344148 0.411399 0.235549
O O4 0.207963 0.504532 0.337412
O O5 0.500000 0.847850 0.250000
O O6 0.424121 0.899677 0.390812
O O7 0.424712 0.746845 0.368371
O O8 0.314110 0.517606 0.604764
O O9 0.185263 0.531047 0.481324
O O10 0.047666 0.440816 0.592155
O O11 0.154643 0.183767 0.882379
O O12 0.183091 0.342175 0.885346
O O13 0.250000 0.250000 0.000000
#
# Coordination Sequence:
#
# PCOD8130630 Si02
#       6
#     8   8   8   8   8   8
#     4  10  21  37  59  87 118 163 196 242 304 372
#     4  10  17  35  63  81 114 161 199 230 309 360
#     4   9  18  35  61  83 113 154 198 239 291 358
#     4  11  20  38  62  88 116 154 199 253 296 352
#     4  10  20  39  59  83 126 158 196 246 313 351
#     4  10  20  35  60  90 113 147 207 244 288 363
#
# _framework density 18.623965999999999
#
# number of rings (size 3 to 8) (size 9 to 14) (size 15 to 20)
#    0.000    2.000    6.667    0.000    0.000    0.667 
#    3.000    5.833    0.000    0.000    0.000    0.000 
#    0.000    0.000    0.000    0.000    0.000    0.000 
#
# Total GULP energy -297353.448632 kJ/mol
# GULP energy per Si atom -12389.727026 kJ/mol
# Density = 1.858158 g / cm^3
# Si number density = 18.623966 Si / 1000 Ang^3
#
#
#
# Elastic Constant Matrix: (Units=GPa)
#
#
# Indices 1 2 3 4 5 6 
#
# 1 150.5411 40.8995 25.9542 0.0000 20.3905 0.0000
# 2 40.8995 89.6278 17.2797 0.0000 3.4193 0.0000
# 3 25.9542 17.2797 68.3443 0.0000 2.6648 0.0000
# 4 0.0000 0.0000 0.0000 25.7648 0.0000 -2.6719
# 5 20.3905 3.4193 2.6648 0.0000 29.9083 0.0000
# 6 0.0000 0.0000 0.0000 -2.6719 0.0000 33.5693
#
#
#
# Elastic Compliance Matrix: (Units=1/GPa)
#
#
# Indices 1 2 3 4 5 6 
#
# 1 0.008649 -0.003312 -0.002240 0.000000 -0.005318 0.000000
# 2 -0.003312 0.013032 -0.002074 0.000000 0.000953 0.000000
# 3 -0.002240 -0.002074 0.015994 0.000000 0.000339 0.000000
# 4 0.000000 0.000000 0.000000 0.039136 0.000000 0.003115
# 5 -0.005318 0.000953 0.000339 0.000000 0.036922 0.000000
# 6 0.000000 0.000000 0.000000 0.003115 0.000000 0.030037
#
#
# Mechanical properties :
#
#
# Convention : Reuss Voigt Hill
#
# Bulk Modulus (GPa) = 44.59808 52.97555 48.78682
# Shear Modulus (GPa) = 30.03064 32.80711 31.41888
#
# Velocity S-wave (km/s) = 4.01992 4.20164 4.11178
# Velocity P-wave (km/s) = 6.74870 7.21422 6.98534
#
# Compressibility (1/GPa) = 0.02242249
#
# Stress axis : x y z
#
# Youngs Moduli (GPa) = 115.61938 76.73296 62.52496
#
# Poissons Ratio (x) = 0.25415 0.14004
# Poissons Ratio (y) = 0.38294 0.12970
# Poissons Ratio (z) = 0.25896 0.15917
#
# Static dielectric constant tensor:
#      x y z
#    x 4.263380 0.000000 0.026050 
#    y 0.000000 3.515460 0.000000 
#    z 0.026050 0.000000 3.439460 
# 
# 
# High freq. dielectric constant tensor:
#      x y z
#    x 1.734190 0.000000 -0.005940 
#    y 0.000000 1.685150 0.000000 
#    z -0.005940 0.000000 1.729040 
# 
# From -- ./inp_files/189858.got.cif
#   From: 2010.06.25/outbox.cif.g09.slc.cpg/sg15_95_cif.got.tgz:189858.got - 2010.06.28 07:06:18.
