data_PCOD8130078
_publ_section_title
;
Structure prediction by ZEFSAII (Michael W. Deem and Ramdas Pophale) SiO2 
 PCOD8130078
Probable space group: C 2/C
;
_chemical_formula_sum "Si O2"
_cell_formula_units_Z 64
_cell_length_a 17.098507
_cell_length_b 26.244253
_cell_length_c 9.715054
_cell_angle_alpha 90.000000
_cell_angle_beta 61.698182
_cell_angle_gamma 90.000000
_cell_volume 3838.383778
_symmetry_space_group_name_H-M "C 2/C"
_symmetry_group_IT_number 15
_symmetry_cell_setting 'monoclinic'
loop_
_space_group_symop_operation_xyz
x,y,z
-x,y,1/2-z
-x,-y,-z
x,-y,1/2+z
1/2+x,1/2+y,z
1/2-x,1/2+y,1/2-z
1/2-x,1/2-y,-z
1/2+x,1/2-y,1/2+z
loop_
_atom_site_type_symbol
_atom_site_label
_atom_site_fract_x
_atom_site_fract_y
_atom_site_fract_z
Si Si1 0.061051 0.479961 0.829208
Si Si2 0.073889 0.611559 0.490928
Si Si3 0.162565 0.217217 0.071790
Si Si4 0.233044 0.160215 0.777085
Si Si5 0.399571 0.304182 0.311247
Si Si6 0.943703 0.724109 0.052085
Si Si7 0.622920 0.913254 0.246815
Si Si8 0.139565 0.245745 0.382034
O O1 0.131598 0.525002 0.737083
O O2 0.000000 0.466809 0.750000
O O3 0.107904 0.428647 0.846576
O O4 0.000000 0.500000 0.000000
O O5 0.093109 0.666819 0.412690
O O6 0.129846 0.606039 0.584336
O O7 0.969887 0.603658 0.609214
O O8 0.135795 0.207554 0.253041
O O9 0.250000 0.250000 0.000000
O O10 0.182749 0.166111 0.966777
O O11 0.083664 0.249106 0.067111
O O12 0.158715 0.152774 0.719574
O O13 0.297625 0.111503 0.730442
O O14 0.282879 0.212915 0.697540
O O15 0.500000 0.325058 0.250000
O O16 0.402338 0.253109 0.216640
O O17 0.349582 0.290547 0.494754
O O18 0.049473 0.722342 0.971512
#
# Coordination Sequence:
#
# PCOD8130078 Si02
#       8
#     8   8   8   8   8   8   8   8
#     4  10  18  32  47  66  94 125 156 196 236 272
#     4  10  18  29  48  68  94 124 165 196 227 279
#     4   9  18  27  43  62  87 121 166 204 229 268
#     4  10  18  31  46  63  88 126 166 197 238 287
#     4   9  20  32  43  65  98 125 157 198 243 284
#     4  10  18  29  44  68  90 127 170 194 229 286
#     4  10  18  30  48  66  88 128 163 196 235 280
#     4  10  17  28  44  61  90 121 158 204 239 274
#
# _framework density 16.673684000000002
#
# number of rings (size 3 to 8) (size 9 to 14) (size 15 to 20)
#    0.000    2.250    3.750    2.250    1.750    1.500 
#    0.000    0.000    0.000    0.000    0.000    0.000 
#    0.000    1.000    0.000    8.625    0.000   10.500 
#
# Total GULP energy -396586.555985 kJ/mol
# GULP energy per Si atom -12393.329875 kJ/mol
# Density = 1.663573 g / cm^3
# Si number density = 16.673684 Si / 1000 Ang^3
#
#
#
# Elastic Constant Matrix: (Units=GPa)
#
#
# Indices 1 2 3 4 5 6 
#
# 1 91.7576 35.6208 25.1756 0.0000 20.1449 0.0000
# 2 35.6208 57.3118 17.6101 0.0000 6.1823 0.0000
# 3 25.1756 17.6101 88.7048 0.0000 22.2977 0.0000
# 4 0.0000 0.0000 0.0000 13.5723 0.0000 3.1836
# 5 20.1449 6.1823 22.2977 0.0000 23.1011 0.0000
# 6 0.0000 0.0000 0.0000 3.1836 0.0000 20.7561
#
#
#
# Elastic Compliance Matrix: (Units=1/GPa)
#
#
# Indices 1 2 3 4 5 6 
#
# 1 0.017311 -0.009436 0.000158 0.000000 -0.012724 0.000000
# 2 -0.009436 0.023786 -0.003317 0.000000 0.005064 0.000000
# 3 0.000158 -0.003317 0.015446 0.000000 -0.014159 0.000000
# 4 0.000000 0.000000 0.000000 0.076429 0.000000 -0.011723
# 5 -0.012724 0.005064 -0.014159 0.000000 0.066695 0.000000
# 6 0.000000 0.000000 0.000000 -0.011723 0.000000 0.049977
#
#
# Mechanical properties :
#
#
# Convention : Reuss Voigt Hill
#
# Bulk Modulus (GPa) = 31.89332 43.84302 37.86817
# Shear Modulus (GPa) = 17.52639 22.11041 19.81840
#
# Velocity S-wave (km/s) = 3.24565 3.64547 3.45135
# Velocity P-wave (km/s) = 5.76325 6.63861 6.21636
#
# Compressibility (1/GPa) = 0.03135453
#
# Stress axis : x y z
#
# Youngs Moduli (GPa) = 57.76619 42.04185 64.74099
#
# Poissons Ratio (x) = 0.39669 -0.01025
# Poissons Ratio (y) = 0.54505 0.21476
# Poissons Ratio (z) = -0.00915 0.13946
#
# Static dielectric constant tensor:
#      x y z
#    x 3.204500 0.000000 0.207220 
#    y 0.000000 3.194220 0.000000 
#    z 0.207220 0.000000 3.415230 
# 
# 
# High freq. dielectric constant tensor:
#      x y z
#    x 1.632940 0.000000 0.023940 
#    y 0.000000 1.595080 0.000000 
#    z 0.023940 0.000000 1.645370 
# 
# From -- ./inp_files/52482.got.cif
#   From: 2010.06.25/outbox.cif.g09.slc.cpg/sg15_27_cif.got.tgz:52482.got - 2010.06.28 07:06:18.
