data_PCOD8130827
_publ_section_title
;
Structure prediction by ZEFSAII (Michael W. Deem and Ramdas Pophale) SiO2 
 PCOD8130827
Probable space group: C 2/C
;
_chemical_formula_sum "Si O2"
_cell_formula_units_Z 60
_cell_length_a 5.265406
_cell_length_b 30.627737
_cell_length_c 21.067386
_cell_angle_alpha 90.000000
_cell_angle_beta 69.254951
_cell_angle_gamma 90.000000
_cell_volume 3177.210954
_symmetry_space_group_name_H-M "C 2/C"
_symmetry_group_IT_number 15
_symmetry_cell_setting 'monoclinic'
loop_
_space_group_symop_operation_xyz
x,y,z
-x,y,1/2-z
-x,-y,-z
x,-y,1/2+z
1/2+x,1/2+y,z
1/2-x,1/2+y,1/2-z
1/2-x,1/2-y,-z
1/2+x,1/2-y,1/2+z
loop_
_atom_site_type_symbol
_atom_site_label
_atom_site_fract_x
_atom_site_fract_y
_atom_site_fract_z
Si Si1 0.502365 0.316612 0.824595
Si Si2 0.899568 0.462184 0.830777
Si Si3 0.097788 0.915679 0.669823
Si Si4 0.449249 0.293362 0.359093
Si Si5 0.162285 0.258837 0.078665
Si Si6 0.404699 0.393411 0.328457
Si Si7 0.900222 0.438438 0.330905
Si Si8 0.000000 0.269875 0.750000
O O1 0.500000 0.306809 0.750000
O O2 0.422378 0.365517 0.850044
O O3 0.309495 0.286019 0.883652
O O4 0.812926 0.302208 0.809236
O O5 0.594258 0.443098 0.860600
O O6 0.898372 0.511737 0.855065
O O7 0.000000 0.458883 0.750000
O O8 0.094475 0.433848 0.860102
O O9 0.000000 0.920775 0.750000
O O10 0.620575 0.292193 0.409299
O O11 0.430235 0.342448 0.337282
O O12 0.616914 0.263856 0.292884
O O13 0.141213 0.277163 0.393807
O O14 0.250000 0.250000 0.000000
O O15 0.500000 0.405805 0.250000
O O16 0.596187 0.418847 0.361791
O O17 0.094932 0.410801 0.361015
O O18 0.000000 0.435211 0.250000
#
# Coordination Sequence:
#
# PCOD8130827 Si02
#       8
#     8   8   8   8   8   8   8   4
#     4  10  20  33  53  77 106 136 180 221 264 308
#     4   9  16  28  39  64  98 140 165 198 257 320
#     4   9  18  25  44  65  96 129 171 210 246 305
#     4  11  21  36  55  76 107 136 185 219 264 314
#     4  11  24  39  55  76 110 148 179 219 270 323
#     4  10  18  29  47  75 100 134 174 219 258 310
#     4   9  17  27  43  64 104 138 166 202 261 324
#     4  10  20  32  52  78 104 136 176 224 270 300
#
# _framework density 18.884488000000001
#
# number of rings (size 3 to 8) (size 9 to 14) (size 15 to 20)
#    0.000    2.133    2.000    2.000    4.667    3.200 
#    0.000    0.000    0.000    0.000    0.000    0.000 
#    0.000   21.333    0.000    0.000    0.000    0.000 
#
# Total GULP energy -371694.414953 kJ/mol
# GULP energy per Si atom -12389.813832 kJ/mol
# Density = 1.884151 g / cm^3
# Si number density = 18.884488 Si / 1000 Ang^3
#
#
#
# Elastic Constant Matrix: (Units=GPa)
#
#
# Indices 1 2 3 4 5 6 
#
# 1 151.8199 66.9494 15.0702 0.0000 7.9122 0.0000
# 2 66.9494 130.7492 10.3029 0.0000 2.0895 0.0000
# 3 15.0702 10.3029 34.5683 0.0000 6.8930 0.0000
# 4 0.0000 0.0000 0.0000 5.4794 0.0000 0.5176
# 5 7.9122 2.0895 6.8930 0.0000 13.0761 0.0000
# 6 0.0000 0.0000 0.0000 0.5176 0.0000 29.1314
#
#
#
# Elastic Compliance Matrix: (Units=1/GPa)
#
#
# Indices 1 2 3 4 5 6 
#
# 1 0.008877 -0.004341 -0.001836 0.000000 -0.003710 0.000000
# 2 -0.004341 0.009955 -0.001432 0.000000 0.001791 0.000000
# 3 -0.001836 -0.001432 0.033399 0.000000 -0.016266 0.000000
# 4 0.000000 0.000000 0.000000 0.182807 0.000000 -0.003248
# 5 -0.003710 0.001791 -0.016266 0.000000 0.087009 0.000000
# 6 0.000000 0.000000 0.000000 -0.003248 0.000000 0.034385
#
#
# Mechanical properties :
#
#
# Convention : Reuss Voigt Hill
#
# Bulk Modulus (GPa) = 27.01775 55.75361 41.38568
# Shear Modulus (GPa) = 13.02124 24.52505 18.77315
#
# Velocity S-wave (km/s) = 2.62872 3.60764 3.15636
# Velocity P-wave (km/s) = 4.85299 6.85135 5.93685
#
# Compressibility (1/GPa) = 0.03701271
#
# Stress axis : x y z
#
# Youngs Moduli (GPa) = 112.65333 100.44822 29.94106
#
# Poissons Ratio (x) = 0.43608 0.05498
# Poissons Ratio (y) = 0.48907 0.04286
# Poissons Ratio (z) = 0.20686 0.14380
#
# Static dielectric constant tensor:
#      x y z
#    x 4.541210 0.000000 -0.059360 
#    y 0.000000 3.490700 0.000000 
#    z -0.059360 0.000000 2.867840 
# 
# 
# High freq. dielectric constant tensor:
#      x y z
#    x 1.752990 0.000000 0.009390 
#    y 0.000000 1.744770 0.000000 
#    z 0.009390 0.000000 1.652150 
# 
# From -- ./inp_files/186514.got.cif
#   From: 2010.06.25/outbox.cif.g09.slc.cpg/sg15_94_cif.got.tgz:186514.got - 2010.06.28 07:06:18.
