data_PCOD8130348
_publ_section_title
;
Structure prediction by ZEFSAII (Michael W. Deem and Ramdas Pophale) SiO2 
 PCOD8130348
Probable space group: C 2/C
;
_chemical_formula_sum "Si O2"
_cell_formula_units_Z 64
_cell_length_a 12.562475
_cell_length_b 13.301790
_cell_length_c 25.930272
_cell_angle_alpha 90.000000
_cell_angle_beta 61.022162
_cell_angle_gamma 90.000000
_cell_volume 3790.571579
_symmetry_space_group_name_H-M "C 2/C"
_symmetry_group_IT_number 15
_symmetry_cell_setting 'monoclinic'
loop_
_space_group_symop_operation_xyz
x,y,z
-x,y,1/2-z
-x,-y,-z
x,-y,1/2+z
1/2+x,1/2+y,z
1/2-x,1/2+y,1/2-z
1/2-x,1/2-y,-z
1/2+x,1/2-y,1/2+z
loop_
_atom_site_type_symbol
_atom_site_label
_atom_site_fract_x
_atom_site_fract_y
_atom_site_fract_z
Si Si1 0.479806 0.296384 0.091298
Si Si2 0.837598 0.703616 0.591298
Si Si3 0.934377 0.528778 0.315623
Si Si4 0.273664 0.416149 0.093554
Si Si5 0.898174 0.396363 0.974250
Si Si6 0.067204 0.233474 0.682795
Si Si7 0.960773 0.583852 0.906446
Si Si8 0.346675 0.603637 0.025750
O O1 0.343865 0.327906 0.106487
O O2 0.498424 0.184681 0.064488
O O3 0.494769 0.304523 0.149292
O O4 0.574286 0.374295 0.043343
O O5 0.839028 0.625704 0.543344
O O6 0.706647 0.695477 0.649292
O O7 0.872600 0.815319 0.564488
O O8 0.943161 0.672094 0.606487
O O9 0.795872 0.486844 0.348494
O O10 0.933786 0.647502 0.316214
O O11 0.007139 0.486844 0.348494
O O12 0.000000 0.485494 0.250000
O O13 0.172185 0.369522 0.077815
O O14 0.368169 0.489253 0.040416
O O15 0.949001 0.510747 0.959584
O O16 0.796199 0.384079 0.953801
O O17 0.000000 0.191369 0.750000
#
# Coordination Sequence:
#
# PCOD8130348 Si02
#       8
#     8   8   8   8   8   8   8   8
#     4  11  17  31  54  75 100 124 163 211 242 291
#     4  11  17  31  54  75 100 124 163 211 242 291
#     4   9  18  35  51  67  95 132 173 201 232 287
#     4   9  19  32  50  72  99 130 168 192 244 303
#     4  10  17  32  52  74  99 130 165 200 255 287
#     4  11  20  32  54  77  94 127 171 210 244 277
#     4   9  19  32  50  72  99 130 168 192 244 303
#     4  10  17  32  52  74  99 130 165 200 255 287
#
# _framework density 16.883997000000001
#
# number of rings (size 3 to 8) (size 9 to 14) (size 15 to 20)
#    0.750    1.250    5.000    1.500    0.000    1.000 
#    0.000    2.500    2.750    0.000    0.000    1.750 
#    0.000    0.000    0.000    0.000    0.000    0.000 
#
# Total GULP energy -396576.180731 kJ/mol
# GULP energy per Si atom -12393.005648 kJ/mol
# Density = 1.684557 g / cm^3
# Si number density = 16.883997 Si / 1000 Ang^3
#
#
#
# Elastic Constant Matrix: (Units=GPa)
#
#
# Indices 1 2 3 4 5 6 
#
# 1 105.0856 46.3842 31.3665 0.0000 3.4378 0.0000
# 2 46.3842 48.3488 16.6155 0.0000 1.7561 0.0000
# 3 31.3665 16.6155 104.2681 0.0000 -3.3897 0.0000
# 4 0.0000 0.0000 0.0000 16.1437 0.0000 0.8886
# 5 3.4378 1.7561 -3.3897 0.0000 8.1241 0.0000
# 6 0.0000 0.0000 0.0000 0.8886 0.0000 31.2073
#
#
#
# Elastic Compliance Matrix: (Units=1/GPa)
#
#
# Indices 1 2 3 4 5 6 
#
# 1 0.017405 -0.015498 -0.002936 0.000000 -0.005240 0.000000
# 2 -0.015498 0.036001 -0.001130 0.000000 -0.001695 0.000000
# 3 -0.002936 -0.001130 0.010850 0.000000 0.006014 0.000000
# 4 0.000000 0.000000 0.000000 0.062041 0.000000 -0.001767
# 5 -0.005240 -0.001695 0.006014 0.000000 0.128183 0.000000
# 6 0.000000 0.000000 0.000000 -0.001767 0.000000 0.032094
#
#
# Mechanical properties :
#
#
# Convention : Reuss Voigt Hill
#
# Bulk Modulus (GPa) = 39.79812 49.60389 44.70100
# Shear Modulus (GPa) = 14.96656 21.98411 18.47533
#
# Velocity S-wave (km/s) = 2.98053 3.61233 3.31154
# Velocity P-wave (km/s) = 5.95546 6.84409 6.41518
#
# Compressibility (1/GPa) = 0.02512682
#
# Stress axis : x y z
#
# Youngs Moduli (GPa) = 57.45565 27.77686 92.16952
#
# Poissons Ratio (x) = 0.43049 0.27065
# Poissons Ratio (y) = 0.89045 0.10413
# Poissons Ratio (z) = 0.16872 0.03138
#
# Static dielectric constant tensor:
#      x y z
#    x 3.038700 0.000000 -0.016670 
#    y 0.000000 2.928940 0.000000 
#    z -0.016670 0.000000 3.321310 
# 
# 
# High freq. dielectric constant tensor:
#      x y z
#    x 1.637910 0.000000 -0.000440 
#    y 0.000000 1.629810 0.000000 
#    z -0.000440 0.000000 1.645430 
# 
# From -- ./inp_files/292546.got.cif
#   From: 2010.06.25/outbox.cif.g09.slc.cpg/sg15_147_cif.got.tgz:292546.got - 2010.06.28 07:06:18.
