data_PCOD8130709
_publ_section_title
;
Structure prediction by ZEFSAII (Michael W. Deem and Ramdas Pophale) SiO2 
 PCOD8130709
Probable space group: C 2/C
;
_chemical_formula_sum "Si O2"
_cell_formula_units_Z 56
_cell_length_a 11.650928
_cell_length_b 9.745330
_cell_length_c 29.348544
_cell_angle_alpha 90.000000
_cell_angle_beta 122.825216
_cell_angle_gamma 90.000000
_cell_volume 2800.222385
_symmetry_space_group_name_H-M "C 2/C"
_symmetry_group_IT_number 15
_symmetry_cell_setting 'monoclinic'
loop_
_space_group_symop_operation_xyz
x,y,z
-x,y,1/2-z
-x,-y,-z
x,-y,1/2+z
1/2+x,1/2+y,z
1/2-x,1/2+y,1/2-z
1/2-x,1/2-y,-z
1/2+x,1/2-y,1/2+z
loop_
_atom_site_type_symbol
_atom_site_label
_atom_site_fract_x
_atom_site_fract_y
_atom_site_fract_z
Si Si1 0.270719 0.459959 0.444816
Si Si2 0.400383 0.601232 0.608613
Si Si3 0.322119 0.171207 0.246737
Si Si4 0.974475 0.169281 0.528163
Si Si5 0.385356 0.120762 0.159479
Si Si6 0.409275 0.478659 0.274927
Si Si7 0.864282 0.460972 0.495699
O O1 0.377719 0.584640 0.473262
O O2 0.368899 0.325532 0.457862
O O3 0.176450 0.489087 0.380279
O O4 0.175807 0.443983 0.469383
O O5 0.485752 0.601980 0.580273
O O6 0.373441 0.749711 0.623958
O O7 0.486763 0.505955 0.660809
O O8 0.254377 0.532125 0.567359
O O9 0.303374 0.148655 0.188613
O O10 0.456854 0.093989 0.294117
O O11 0.329938 0.333193 0.259462
O O12 0.195352 0.104963 0.246096
O O13 0.895301 0.309700 0.520560
O O14 0.500000 0.488822 0.250000
O O15 0.000000 0.500000 0.500000
#
# Coordination Sequence:
#
# PCOD8130709 Si02
#       7
#     8   8   8   8   8   8   8
#     4  10  19  34  58  79 105 147 192 226 276 339
#     4  10  18  38  61  78 111 152 187 230 287 341
#     4  10  22  38  63  87 118 153 197 245 295 347
#     4  10  19  34  57  82 104 144 192 229 271 338
#     4  10  17  38  61  81 111 153 191 238 292 343
#     4  11  22  42  61  88 118 156 195 243 295 349
#     4  11  22  35  52  82 120 147 181 235 285 339
#
# _framework density 19.998412999999999
#
# number of rings (size 3 to 8) (size 9 to 14) (size 15 to 20)
#    0.000    1.714    5.714    1.714    0.000    1.714 
#    2.571    1.429    0.000    0.000    0.000    0.000 
#    0.000    0.000    0.000    0.000    0.000    0.000 
#
# Total GULP energy -347050.497824 kJ/mol
# GULP energy per Si atom -12394.660637 kJ/mol
# Density = 1.995290 g / cm^3
# Si number density = 19.998413 Si / 1000 Ang^3
#
#
#
# Elastic Constant Matrix: (Units=GPa)
#
#
# Indices 1 2 3 4 5 6 
#
# 1 149.6507 45.1798 45.0639 0.0000 2.5424 0.0000
# 2 45.1798 35.5429 21.3010 0.0000 0.6944 0.0000
# 3 45.0639 21.3010 129.4700 0.0000 -2.7325 0.0000
# 4 0.0000 0.0000 0.0000 15.3086 0.0000 2.8763
# 5 2.5424 0.6944 -2.7325 0.0000 17.5256 0.0000
# 6 0.0000 0.0000 0.0000 2.8763 0.0000 35.6541
#
#
#
# Elastic Compliance Matrix: (Units=1/GPa)
#
#
# Indices 1 2 3 4 5 6 
#
# 1 0.011213 -0.013168 -0.001765 0.000000 -0.001380 0.000000
# 2 -0.013168 0.046750 -0.003117 0.000000 -0.000428 0.000000
# 3 -0.001765 -0.003117 0.008888 0.000000 0.001765 0.000000
# 4 0.000000 0.000000 0.000000 0.066328 0.000000 -0.005351
# 5 -0.001380 -0.000428 0.001765 0.000000 0.057552 0.000000
# 6 0.000000 0.000000 0.000000 -0.005351 0.000000 0.028479
#
#
# Mechanical properties :
#
#
# Convention : Reuss Voigt Hill
#
# Bulk Modulus (GPa) = 32.52062 59.75034 46.13548
# Shear Modulus (GPa) = 18.82809 27.23891 23.03350
#
# Velocity S-wave (km/s) = 3.07168 3.69460 3.39745
# Velocity P-wave (km/s) = 5.37375 6.93848 6.20563
#
# Compressibility (1/GPa) = 0.03074972
#
# Stress axis : x y z
#
# Youngs Moduli (GPa) = 89.18466 21.39051 112.50608
#
# Poissons Ratio (x) = 0.28167 0.19862
# Poissons Ratio (y) = 1.17437 0.35071
# Poissons Ratio (z) = 0.15745 0.06668
#
# Static dielectric constant tensor:
#      x y z
#    x 3.078660 0.000000 -0.975880 
#    y 0.000000 36.768860 0.000000 
#    z -0.975880 0.000000 2.048720 
# 
# 
# High freq. dielectric constant tensor:
#      x y z
#    x 1.786680 0.000000 -0.002010 
#    y 0.000000 1.739980 0.000000 
#    z -0.002010 0.000000 1.794130 
# 
# From -- ./inp_files/292075.got.cif
#   From: 2010.06.25/outbox.cif.g09.slc.cpg/sg15_147_cif.got.tgz:292075.got - 2010.06.28 07:06:18.
