data_PCOD8130082
_publ_section_title
;
Structure prediction by ZEFSAII (Michael W. Deem and Ramdas Pophale) SiO2 
 PCOD8130082
Probable space group: C 2/C
;
_chemical_formula_sum "Si O2"
_cell_formula_units_Z 60
_cell_length_a 17.688973
_cell_length_b 14.145609
_cell_length_c 22.333365
_cell_angle_alpha 90.000000
_cell_angle_beta 41.590465
_cell_angle_gamma 90.000000
_cell_volume 3709.512424
_symmetry_space_group_name_H-M "C 2/C"
_symmetry_group_IT_number 15
_symmetry_cell_setting 'monoclinic'
loop_
_space_group_symop_operation_xyz
x,y,z
-x,y,1/2-z
-x,-y,-z
x,-y,1/2+z
1/2+x,1/2+y,z
1/2-x,1/2+y,1/2-z
1/2-x,1/2-y,-z
1/2+x,1/2-y,1/2+z
loop_
_atom_site_type_symbol
_atom_site_label
_atom_site_fract_x
_atom_site_fract_y
_atom_site_fract_z
Si Si1 0.500000 0.601215 0.250000
Si Si2 0.492805 0.940191 0.321976
Si Si3 0.196743 0.382182 0.280446
Si Si4 0.795881 0.741650 0.135488
Si Si5 0.895774 0.519680 0.488185
Si Si6 0.979950 0.344620 0.026218
Si Si7 0.846203 0.258420 0.393129
Si Si8 0.290065 0.533277 0.315201
O O1 0.415884 0.661926 0.342133
O O2 0.424531 0.537152 0.249929
O O3 0.500000 0.978775 0.250000
O O4 0.617804 0.932997 0.277340
O O5 0.409775 0.012206 0.407930
O O6 0.437423 0.836533 0.356943
O O7 0.287826 0.312023 0.196249
O O8 0.125367 0.315016 0.368884
O O9 0.266062 0.462315 0.275132
O O10 0.715804 0.785592 0.131788
O O11 0.757346 0.635976 0.175983
O O12 0.926903 0.738074 0.034866
O O13 0.938475 0.622842 0.484732
O O14 0.768998 0.500942 0.587785
O O15 0.975945 0.437998 0.466701
O O16 0.750000 0.250000 0.500000
#
# Coordination Sequence:
#
# PCOD8130082 Si02
#       8
#     4   8   8   8   8   8   8   8
#     4  10  18  32  46  70  94 122 166 196 236 290
#     4  11  16  25  39  68 103 125 144 185 235 293
#     4  10  18  30  46  70  98 126 158 195 238 281
#     4  10  17  28  45  72  96 126 158 188 239 287
#     4   8  15  27  44  66  89 121 156 193 233 271
#     4   8  15  28  45  64  90 120 160 196 222 275
#     4  11  19  27  43  70 104 130 149 185 241 301
#     4   9  18  31  49  71  92 122 163 201 236 285
#
# _framework density 16.174633
#
# number of rings (size 3 to 8) (size 9 to 14) (size 15 to 20)
#    0.000    2.400    2.000    6.400    0.000    0.000 
#    0.000    0.000    0.000    3.200   10.400    1.867 
#    0.000    0.000    0.000    0.000    0.000    0.000 
#
# Total GULP energy -371780.807119 kJ/mol
# GULP energy per Si atom -12392.693571 kJ/mol
# Density = 1.613782 g / cm^3
# Si number density = 16.174633 Si / 1000 Ang^3
#
#
#
# Elastic Constant Matrix: (Units=GPa)
#
#
# Indices 1 2 3 4 5 6 
#
# 1 92.9082 36.9112 47.5576 0.0000 5.4139 0.0000
# 2 36.9112 30.6180 25.3094 0.0000 4.0497 0.0000
# 3 47.5576 25.3094 93.3426 0.0000 14.1770 0.0000
# 4 0.0000 0.0000 0.0000 12.5525 0.0000 8.7624
# 5 5.4139 4.0497 14.1770 0.0000 28.3033 0.0000
# 6 0.0000 0.0000 0.0000 8.7624 0.0000 23.0337
#
#
#
# Elastic Compliance Matrix: (Units=1/GPa)
#
#
# Indices 1 2 3 4 5 6 
#
# 1 0.022603 -0.022866 -0.005581 0.000000 0.001744 0.000000
# 2 -0.022866 0.065231 -0.005719 0.000000 -0.002095 0.000000
# 3 -0.005581 -0.005719 0.016041 0.000000 -0.006149 0.000000
# 4 0.000000 0.000000 0.000000 0.108471 0.000000 -0.041264
# 5 0.001744 -0.002095 -0.006149 0.000000 0.038378 0.000000
# 6 0.000000 0.000000 0.000000 -0.041264 0.000000 0.059112
#
#
# Mechanical properties :
#
#
# Convention : Reuss Voigt Hill
#
# Bulk Modulus (GPa) = 28.13444 48.49169 38.31306
# Shear Modulus (GPa) = 12.82005 19.91727 16.36866
#
# Velocity S-wave (km/s) = 2.81837 3.51292 3.18464
# Velocity P-wave (km/s) = 5.29367 6.81904 6.10419
#
# Compressibility (1/GPa) = 0.03554363
#
# Stress axis : x y z
#
# Youngs Moduli (GPa) = 44.24239 15.33022 62.33960
#
# Poissons Ratio (x) = 0.35054 0.34791
# Poissons Ratio (y) = 1.01164 0.35650
# Poissons Ratio (z) = 0.24691 0.08767
#
# Static dielectric constant tensor:
#      x y z
#    x 3.128390 0.000000 0.132580 
#    y 0.000000 2.732670 0.000000 
#    z 0.132580 0.000000 3.377150 
# 
# 
# High freq. dielectric constant tensor:
#      x y z
#    x 1.607380 0.000000 0.003350 
#    y 0.000000 1.571620 0.000000 
#    z 0.003350 0.000000 1.631620 
# 
# From -- ./inp_files/277413.got.cif
#   From: 2010.06.25/outbox.cif.g09.slc.cpg/sg15_139_cif.got.tgz:277413.got - 2010.06.28 07:06:18.
