data_PCOD8130821
_publ_section_title
;
Structure prediction by ZEFSAII (Michael W. Deem and Ramdas Pophale) SiO2 
 PCOD8130821
Probable space group: C 2/C
;
_chemical_formula_sum "Si O2"
_cell_formula_units_Z 48
_cell_length_a 12.482898
_cell_length_b 18.739410
_cell_length_c 20.912096
_cell_angle_alpha 90.000000
_cell_angle_beta 146.954987
_cell_angle_gamma 90.000000
_cell_volume 2667.488788
_symmetry_space_group_name_H-M "C 2/C"
_symmetry_group_IT_number 15
_symmetry_cell_setting 'monoclinic'
loop_
_space_group_symop_operation_xyz
x,y,z
-x,y,1/2-z
-x,-y,-z
x,-y,1/2+z
1/2+x,1/2+y,z
1/2-x,1/2+y,1/2-z
1/2-x,1/2-y,-z
1/2+x,1/2-y,1/2+z
loop_
_atom_site_type_symbol
_atom_site_label
_atom_site_fract_x
_atom_site_fract_y
_atom_site_fract_z
Si Si1 0.000000 0.697406 0.750000
Si Si2 0.729157 0.997525 0.046092
Si Si3 0.305553 0.874720 0.044883
Si Si4 0.500000 0.394265 0.250000
Si Si5 0.087502 0.802177 0.684942
Si Si6 0.124949 0.318626 0.113277
Si Si7 0.880190 0.398997 0.897296
O O1 0.162102 0.646638 0.865130
O O2 0.112882 0.746872 0.755702
O O3 0.730683 0.057290 0.102837
O O4 0.904379 0.942994 0.146959
O O5 0.758033 0.042088 0.994593
O O6 0.526663 0.954627 0.937378
O O7 0.513851 0.863325 0.112986
O O8 0.139473 0.824650 0.930783
O O9 0.343865 0.347043 0.210325
O O10 0.142049 0.763791 0.644712
O O11 0.227923 0.869968 0.768057
O O12 0.998964 0.330843 0.985512
#
# Coordination Sequence:
#
# PCOD8130821 Si02
#       7
#     4   8   8   4   8   8   8
#     4  10  18  29  46  71 104 124 148 202 244 278
#     4   9  17  30  49  74  95 125 164 195 241 281
#     4  10  19  30  50  75  99 125 158 201 242 285
#     4  10  18  33  52  69 100 130 158 202 236 284
#     4  11  18  30  52  76  97 125 159 196 249 290
#     4   9  19  31  46  73 100 126 159 197 243 281
#     4   9  17  30  50  72  99 123 157 208 236 279
#
# _framework density 17.994451999999999
#
# number of rings (size 3 to 8) (size 9 to 14) (size 15 to 20)
#    0.000    2.333    0.000    7.000    0.000    0.000 
#    0.000    3.333    0.000   12.000    0.000    0.000 
#    0.000    0.000    0.000    0.000    0.000    0.000 
#
# Total GULP energy -297409.404565 kJ/mol
# GULP energy per Si atom -12392.058524 kJ/mol
# Density = 1.795350 g / cm^3
# Si number density = 17.994452 Si / 1000 Ang^3
#
#
#
# Elastic Constant Matrix: (Units=GPa)
#
#
# Indices 1 2 3 4 5 6 
#
# 1 54.2353 41.1653 44.9315 0.0000 9.0738 0.0000
# 2 41.1653 98.0570 52.1170 -0.0012 -1.6087 0.0004
# 3 44.9315 52.1170 105.7248 -0.0034 5.1797 0.0007
# 4 0.0000 -0.0012 -0.0034 34.9672 -0.0005 -9.4807
# 5 9.0738 -1.6087 5.1797 -0.0005 27.8650 0.0002
# 6 0.0000 0.0004 0.0007 -9.4807 0.0002 23.9703
#
#
#
# Elastic Compliance Matrix: (Units=1/GPa)
#
#
# Indices 1 2 3 4 5 6 
#
# 1 0.035940 -0.010046 -0.009809 -0.000002 -0.010460 0.000000
# 2 -0.010046 0.016747 -0.004233 0.000000 0.005025 0.000000
# 3 -0.009809 -0.004233 0.015712 0.000001 0.000029 0.000000
# 4 -0.000002 0.000000 0.000001 0.032033 0.000001 0.012670
# 5 -0.010460 0.005025 0.000029 0.000001 0.039578 0.000000
# 6 0.000000 0.000000 0.000000 0.012670 0.000000 0.046729
#
#
# Mechanical properties :
#
#
# Convention : Reuss Voigt Hill
#
# Bulk Modulus (GPa) = 49.44579 59.38275 54.41427
# Shear Modulus (GPa) = 20.69051 25.34740 23.01895
#
# Velocity S-wave (km/s) = 3.39459 3.75723 3.58051
# Velocity P-wave (km/s) = 6.54999 7.20379 6.88466
#
# Compressibility (1/GPa) = 0.02022417
#
# Stress axis : x y z
#
# Youngs Moduli (GPa) = 27.82453 59.71041 63.64439
#
# Poissons Ratio (x) = 0.59984 0.62430
# Poissons Ratio (y) = 0.27952 0.26938
# Poissons Ratio (z) = 0.27294 0.25273
#
# Static dielectric constant tensor:
#      x y z
#    x 3.018760 0.000000 -0.112230 
#    y 0.000000 3.516860 0.000000 
#    z -0.112230 0.000000 3.480050 
# 
# 
# High freq. dielectric constant tensor:
#      x y z
#    x 1.643050 0.000000 0.007320 
#    y 0.000000 1.694140 0.000000 
#    z 0.007320 0.000000 1.704510 
# 
# From -- ./inp_files/88797.got.cif
#   From: 2010.06.25/outbox.cif.g09.slc.cpg/sg15_45_cif.got.tgz:88797.got - 2010.06.28 07:06:18.
