data_PCOD8130302
_publ_section_title
;
Structure prediction by ZEFSAII (Michael W. Deem and Ramdas Pophale) SiO2 
 PCOD8130302
Probable space group: C 2/C
;
_chemical_formula_sum "Si O2"
_cell_formula_units_Z 64
_cell_length_a 8.606648
_cell_length_b 16.708681
_cell_length_c 23.204470
_cell_angle_alpha 90.000000
_cell_angle_beta 72.398441
_cell_angle_gamma 90.000000
_cell_volume 3180.708689
_symmetry_space_group_name_H-M "C 2/C"
_symmetry_group_IT_number 15
_symmetry_cell_setting 'monoclinic'
loop_
_space_group_symop_operation_xyz
x,y,z
-x,y,1/2-z
-x,-y,-z
x,-y,1/2+z
1/2+x,1/2+y,z
1/2-x,1/2+y,1/2-z
1/2-x,1/2-y,-z
1/2+x,1/2-y,1/2+z
loop_
_atom_site_type_symbol
_atom_site_label
_atom_site_fract_x
_atom_site_fract_y
_atom_site_fract_z
Si Si1 0.576184 0.066950 0.179033
Si Si2 0.910221 0.569737 0.621914
Si Si3 0.242782 0.607899 0.555589
Si Si4 0.556668 0.690386 0.502105
Si Si5 0.198035 0.027737 0.537732
Si Si6 0.910930 0.860271 0.314354
Si Si7 0.895892 0.021241 0.636820
Si Si8 0.356430 0.782284 0.903056
O O1 0.500000 0.084517 0.250000
O O2 0.563921 0.144344 0.139782
O O3 0.485309 0.997193 0.155060
O O4 0.765725 0.045562 0.169709
O O5 0.829837 0.532206 0.573862
O O6 0.776825 0.615090 0.676133
O O7 0.052487 0.632199 0.584458
O O8 0.364112 0.671728 0.511012
O O9 0.234436 0.523231 0.522731
O O10 0.309384 0.593359 0.612161
O O11 0.647846 0.615745 0.522385
O O12 0.567514 0.769906 0.541327
O O13 0.659266 0.707621 0.432019
O O14 0.035607 0.982846 0.580019
O O15 0.907359 0.798034 0.365793
O O16 0.000000 0.820140 0.250000
O O17 0.016626 0.939062 0.317974
#
# Coordination Sequence:
#
# PCOD8130302 Si02
#       8
#     8   8   8   8   8   8   8   8
#     4  11  22  37  58  85 113 150 194 243 285 335
#     4  10  21  35  56  88 116 142 198 240 289 335
#     4  10  17  31  56  87 117 148 184 237 289 340
#     4  10  19  35  59  82 120 151 187 234 287 356
#     4  10  17  33  58  88 114 152 187 237 289 344
#     4  11  21  39  61  81 111 154 199 242 279 337
#     4   9  18  34  55  82 108 148 200 228 279 343
#     4  11  21  36  59  85 115 150 195 231 286 348
#
# _framework density 20.121303000000001
#
# number of rings (size 3 to 8) (size 9 to 14) (size 15 to 20)
#    0.000    1.750    3.750    5.250    0.000    0.000 
#    0.000    0.625    5.500    0.000    6.500    0.000 
#    0.000    0.000    0.000    0.000    0.000    0.000 
#
# Total GULP energy -396486.028886 kJ/mol
# GULP energy per Si atom -12390.188403 kJ/mol
# Density = 2.007551 g / cm^3
# Si number density = 20.121303 Si / 1000 Ang^3
#
#
#
# Elastic Constant Matrix: (Units=GPa)
#
#
# Indices 1 2 3 4 5 6 
#
# 1 122.2974 17.6149 31.1726 0.0000 -25.1556 0.0000
# 2 17.6149 49.0678 15.0839 0.0000 -11.8272 0.0000
# 3 31.1726 15.0839 96.0520 0.0000 -24.2795 0.0000
# 4 0.0000 0.0000 0.0000 21.1751 0.0000 -5.1711
# 5 -25.1556 -11.8272 -24.2795 0.0000 32.1355 0.0000
# 6 0.0000 0.0000 0.0000 -5.1711 0.0000 23.1255
#
#
#
# Elastic Compliance Matrix: (Units=1/GPa)
#
#
# Indices 1 2 3 4 5 6 
#
# 1 0.010054 -0.001681 -0.001441 0.000000 0.006163 0.000000
# 2 -0.001681 0.022891 -0.001548 0.000000 0.005940 0.000000
# 3 -0.001441 -0.001548 0.013217 0.000000 0.008288 0.000000
# 4 0.000000 0.000000 0.000000 0.049953 0.000000 0.011170
# 5 0.006163 0.005940 0.008288 0.000000 0.044390 0.000000
# 6 0.000000 0.000000 0.000000 0.011170 0.000000 0.045740
#
#
# Mechanical properties :
#
#
# Convention : Reuss Voigt Hill
#
# Bulk Modulus (GPa) = 27.15778 43.90668 35.53223
# Shear Modulus (GPa) = 24.05486 28.85695 26.45590
#
# Velocity S-wave (km/s) = 3.46134 3.79112 3.62998
# Velocity P-wave (km/s) = 5.43147 6.40561 5.93855
#
# Compressibility (1/GPa) = 0.03682186
#
# Stress axis : x y z
#
# Youngs Moduli (GPa) = 99.46468 43.68553 75.66133
#
# Poissons Ratio (x) = 0.07343 0.10904
# Poissons Ratio (y) = 0.16718 0.11712
# Poissons Ratio (z) = 0.14334 0.06762
#
# Static dielectric constant tensor:
#      x y z
#    x 4.029340 0.000000 -0.553570 
#    y 0.000000 3.386410 0.000000 
#    z -0.553570 0.000000 4.204430 
# 
# 
# High freq. dielectric constant tensor:
#      x y z
#    x 1.788620 0.000000 -0.021570 
#    y 0.000000 1.753690 0.000000 
#    z -0.021570 0.000000 1.784950 
# 
# From -- ./inp_files/265247.got.cif
#   From: 2010.06.25/outbox.cif.g09.slc.cpg/sg15_133_cif.got.tgz:265247.got - 2010.06.28 07:06:18.
