data_PCOD8130464
_publ_section_title
;
Structure prediction by ZEFSAII (Michael W. Deem and Ramdas Pophale) SiO2 
 PCOD8130464
Probable space group: C 2/C
;
_chemical_formula_sum "Si O2"
_cell_formula_units_Z 64
_cell_length_a 30.199979
_cell_length_b 20.007632
_cell_length_c 11.910851
_cell_angle_alpha 90.000000
_cell_angle_beta 28.376760
_cell_angle_gamma 90.000000
_cell_volume 3420.449033
_symmetry_space_group_name_H-M "C 2/C"
_symmetry_group_IT_number 15
_symmetry_cell_setting 'monoclinic'
loop_
_space_group_symop_operation_xyz
x,y,z
-x,y,1/2-z
-x,-y,-z
x,-y,1/2+z
1/2+x,1/2+y,z
1/2-x,1/2+y,1/2-z
1/2-x,1/2-y,-z
1/2+x,1/2-y,1/2+z
loop_
_atom_site_type_symbol
_atom_site_label
_atom_site_fract_x
_atom_site_fract_y
_atom_site_fract_z
Si Si1 0.857521 0.702278 0.558684
Si Si2 0.919767 0.287476 0.337098
Si Si3 0.329120 0.358182 0.008815
Si Si4 0.566311 0.633639 0.802791
Si Si5 0.878119 0.915463 0.664437
Si Si6 0.998634 0.718537 0.433091
Si Si7 0.409521 0.440915 0.022350
Si Si8 0.224959 0.159211 0.294816
O O1 0.782242 0.646734 0.758340
O O2 0.908619 0.728789 0.555893
O O3 0.803156 0.764417 0.628746
O O4 0.927648 0.675095 0.304872
O O5 0.880772 0.213489 0.396806
O O6 0.837699 0.339688 0.556358
O O7 0.000000 0.283957 0.250000
O O8 0.966879 0.317215 0.118592
O O9 0.341612 0.397159 0.097259
O O10 0.364984 0.402173 0.825751
O O11 0.545435 0.711585 0.860634
O O12 0.561292 0.603151 0.937029
O O13 0.668301 0.619718 0.519196
O O14 0.487355 0.601136 0.897880
O O15 0.806132 0.870109 0.755705
O O16 0.857853 0.992423 0.679918
O O17 0.500000 0.460625 0.750000
#
# Coordination Sequence:
#
# PCOD8130464 Si02
#       8
#     8   8   8   8   8   8   8   8
#     4   9  19  33  56  83 109 142 183 234 271 329
#     4  11  21  36  56  81 117 146 179 226 285 328
#     4  11  22  37  53  81 115 149 185 223 277 326
#     4  11  20  35  55  81 118 147 179 220 269 327
#     4  12  22  35  59  78 115 152 186 222 263 330
#     4  10  17  33  57  82 109 143 181 222 285 322
#     4  12  24  36  52  80 116 157 183 215 266 330
#     4  10  21  34  55  85 110 145 187 225 269 327
#
# _framework density 18.710993999999999
#
# number of rings (size 3 to 8) (size 9 to 14) (size 15 to 20)
#    0.000    1.250    3.750    3.375    1.750    3.000 
#    0.000    3.750    0.000    0.000    3.250    5.250 
#    0.000    0.000    0.000    0.000    0.000    0.000 
#
# Total GULP energy -396639.647697 kJ/mol
# GULP energy per Si atom -12394.988991 kJ/mol
# Density = 1.866841 g / cm^3
# Si number density = 18.710994 Si / 1000 Ang^3
#
#
#
# Elastic Constant Matrix: (Units=GPa)
#
#
# Indices 1 2 3 4 5 6 
#
# 1 99.6653 25.2420 63.5468 0.0000 5.6259 0.0000
# 2 25.2420 50.7907 30.9604 0.0000 -1.1142 0.0000
# 3 63.5468 30.9604 125.2984 0.0000 1.0628 0.0000
# 4 0.0000 0.0000 0.0000 19.1421 0.0000 4.0426
# 5 5.6259 -1.1142 1.0628 0.0000 27.6724 0.0000
# 6 0.0000 0.0000 0.0000 4.0426 0.0000 14.5228
#
#
#
# Elastic Compliance Matrix: (Units=1/GPa)
#
#
# Indices 1 2 3 4 5 6 
#
# 1 0.015558 -0.003537 -0.006991 0.000000 -0.003037 0.000000
# 2 -0.003537 0.024021 -0.004157 0.000000 0.001846 0.000000
# 3 -0.006991 -0.004157 0.012547 0.000000 0.000772 0.000000
# 4 0.000000 0.000000 0.000000 0.055504 0.000000 -0.015450
# 5 -0.003037 0.001846 0.000772 0.000000 0.036799 0.000000
# 6 0.000000 0.000000 0.000000 -0.015450 0.000000 0.073158
#
#
# Mechanical properties :
#
#
# Convention : Reuss Voigt Hill
#
# Bulk Modulus (GPa) = 43.94450 57.25030 50.59740
# Shear Modulus (GPa) = 19.64301 22.66781 21.15541
#
# Velocity S-wave (km/s) = 3.24359 3.48439 3.36615
# Velocity P-wave (km/s) = 6.12901 6.84482 6.49678
#
# Compressibility (1/GPa) = 0.02275597
#
# Stress axis : x y z
#
# Youngs Moduli (GPa) = 64.27468 41.62993 79.70021
#
# Poissons Ratio (x) = 0.14726 0.55716
# Poissons Ratio (y) = 0.22737 0.33132
# Poissons Ratio (z) = 0.44933 0.17306
#
# Static dielectric constant tensor:
#      x y z
#    x 3.380390 0.000000 0.051890 
#    y 0.000000 3.100170 0.000000 
#    z 0.051890 0.000000 3.974060 
# 
# 
# High freq. dielectric constant tensor:
#      x y z
#    x 1.728460 0.000000 0.012100 
#    y 0.000000 1.677640 0.000000 
#    z 0.012100 0.000000 1.735970 
# 
# From -- ./inp_files/99785.got.cif
#   From: 2010.06.25/outbox.cif.g09.slc.cpg/sg15_50_cif.got.tgz:99785.got - 2010.06.28 07:06:18.
