data_PCOD8130627
_publ_section_title
;
Structure prediction by ZEFSAII (Michael W. Deem and Ramdas Pophale) SiO2 
 PCOD8130627
Probable space group: C 2/C
;
_chemical_formula_sum "Si O2"
_cell_formula_units_Z 60
_cell_length_a 21.400243
_cell_length_b 9.665490
_cell_length_c 20.685688
_cell_angle_alpha 90.000000
_cell_angle_beta 132.355220
_cell_angle_gamma 90.000000
_cell_volume 3161.887999
_symmetry_space_group_name_H-M "C 2/C"
_symmetry_group_IT_number 15
_symmetry_cell_setting 'monoclinic'
loop_
_space_group_symop_operation_xyz
x,y,z
-x,y,1/2-z
-x,-y,-z
x,-y,1/2+z
1/2+x,1/2+y,z
1/2-x,1/2+y,1/2-z
1/2-x,1/2-y,-z
1/2+x,1/2-y,1/2+z
loop_
_atom_site_type_symbol
_atom_site_label
_atom_site_fract_x
_atom_site_fract_y
_atom_site_fract_z
Si Si1 0.500000 0.897704 0.750000
Si Si2 0.564900 0.512829 0.986796
Si Si3 0.332234 0.848029 0.816849
Si Si4 0.263390 0.417781 0.329484
Si Si5 0.522061 0.201596 0.400192
Si Si6 0.074485 0.452417 0.505960
Si Si7 0.611589 0.154950 0.806384
Si Si8 0.536564 0.270306 0.877550
O O1 0.477474 0.793054 0.676798
O O2 0.578124 0.997602 0.786504
O O3 0.566242 0.668496 0.963156
O O4 0.540994 0.427199 0.905476
O O5 0.500000 0.500000 0.000000
O O6 0.655288 0.471335 0.076771
O O7 0.284269 0.701161 0.791226
O O8 0.425770 0.818196 0.855837
O O9 0.281000 0.951570 0.735343
O O10 0.341399 0.921230 0.893689
O O11 0.205682 0.348783 0.344722
O O12 0.585129 0.074860 0.461815
O O13 0.047797 0.314039 0.451081
O O14 0.000000 0.500000 0.500000
O O15 0.608129 0.230341 0.874088
O O16 0.555025 0.242304 0.716696
#
# Coordination Sequence:
#
# PCOD8130627 Si02
#       8
#     4   8   8   8   8   8   8   8
#     4  10  18  40  64  94 116 166 216 246 298 386
#     4  12  25  41  60  96 136 159 202 267 323 363
#     4  11  24  39  61  96 126 164 213 263 320 365
#     4  12  25  42  63  96 130 164 208 272 317 369
#     4  11  21  40  67  88 125 170 207 253 311 388
#     4  10  17  35  62  88 115 161 212 245 299 376
#     4  10  21  39  71  88 123 169 219 252 299 386
#     4  10  20  41  64  93 121 166 213 250 313 371
#
# _framework density 18.976005000000001
#
# number of rings (size 3 to 8) (size 9 to 14) (size 15 to 20)
#    0.000    1.333    6.667    1.600    3.733    1.600 
#    0.000    0.667    0.000    0.000    0.000    0.000 
#    0.000    0.000    0.000    0.000    0.000    0.000 
#
# Total GULP energy -371885.217205 kJ/mol
# GULP energy per Si atom -12396.173907 kJ/mol
# Density = 1.893282 g / cm^3
# Si number density = 18.976005 Si / 1000 Ang^3
#
#
#
# Elastic Constant Matrix: (Units=GPa)
#
#
# Indices 1 2 3 4 5 6 
#
# 1 71.1451 23.4352 50.4533 0.0000 0.5465 0.0000
# 2 23.4352 88.1956 34.2440 0.0000 3.8577 0.0000
# 3 50.4533 34.2440 101.7065 0.0000 -3.8327 0.0000
# 4 0.0000 0.0000 0.0000 39.0465 0.0000 -9.8517
# 5 0.5465 3.8577 -3.8327 0.0000 33.5700 0.0000
# 6 0.0000 0.0000 0.0000 -9.8517 0.0000 27.2983
#
#
#
# Elastic Compliance Matrix: (Units=1/GPa)
#
#
# Indices 1 2 3 4 5 6 
#
# 1 0.022001 -0.001760 -0.010372 0.000000 -0.001340 0.000000
# 2 -0.001760 0.013321 -0.003684 0.000000 -0.001923 0.000000
# 3 -0.010372 -0.003684 0.016310 0.000000 0.002454 0.000000
# 4 0.000000 0.000000 0.000000 0.028176 0.000000 0.010169
# 5 -0.001340 -0.001923 0.002454 0.000000 0.030312 0.000000
# 6 0.000000 0.000000 0.000000 0.010169 0.000000 0.040302
#
#
# Mechanical properties :
#
#
# Convention : Reuss Voigt Hill
#
# Bulk Modulus (GPa) = 50.00160 53.03470 51.51815
# Shear Modulus (GPa) = 26.49405 30.17727 28.33566
#
# Velocity S-wave (km/s) = 3.74061 3.99216 3.86843
# Velocity P-wave (km/s) = 6.71292 7.01846 6.86739
#
# Compressibility (1/GPa) = 0.01999936
#
# Stress axis : x y z
#
# Youngs Moduli (GPa) = 45.45179 75.07065 61.31080
#
# Poissons Ratio (x) = 0.13215 0.63591
# Poissons Ratio (y) = 0.08001 0.22588
# Poissons Ratio (z) = 0.47142 0.27658
#
# Static dielectric constant tensor:
#      x y z
#    x 3.481970 0.000000 -0.204100 
#    y 0.000000 3.594600 0.000000 
#    z -0.204100 0.000000 3.183370 
# 
# 
# High freq. dielectric constant tensor:
#      x y z
#    x 1.728080 0.000000 -0.019390 
#    y 0.000000 1.740000 0.000000 
#    z -0.019390 0.000000 1.738690 
# 
# From -- ./inp_files/281681.got.cif
#   From: 2010.06.25/outbox.cif.g09.slc.cpg/sg15_141_cif.got.tgz:281681.got - 2010.06.28 07:06:18.
