data_PCOD8130727
_publ_section_title
;
Structure prediction by ZEFSAII (Michael W. Deem and Ramdas Pophale) SiO2 
 PCOD8130727
Probable space group: C 2/C
;
_chemical_formula_sum "Si O2"
_cell_formula_units_Z 52
_cell_length_a 8.501913
_cell_length_b 25.767615
_cell_length_c 11.677159
_cell_angle_alpha 90.000000
_cell_angle_beta 126.335602
_cell_angle_gamma 90.000000
_cell_volume 2060.753803
_symmetry_space_group_name_H-M "C 2/C"
_symmetry_group_IT_number 15
_symmetry_cell_setting 'monoclinic'
loop_
_space_group_symop_operation_xyz
x,y,z
-x,y,1/2-z
-x,-y,-z
x,-y,1/2+z
1/2+x,1/2+y,z
1/2-x,1/2+y,1/2-z
1/2-x,1/2-y,-z
1/2+x,1/2-y,1/2+z
loop_
_atom_site_type_symbol
_atom_site_label
_atom_site_fract_x
_atom_site_fract_y
_atom_site_fract_z
Si Si1 0.645408 0.530592 0.413097
Si Si2 0.937926 0.185485 0.863908
Si Si3 0.442521 0.430358 0.381818
Si Si4 0.500000 0.318235 0.750000
Si Si5 0.666121 0.837109 0.453999
Si Si6 0.534068 0.942843 0.139966
Si Si7 0.633754 0.245330 0.613391
O O1 0.500000 0.548500 0.250000
O O2 0.612388 0.471870 0.440773
O O3 0.626375 0.570127 0.514486
O O4 0.877970 0.532855 0.480289
O O5 0.015528 0.126701 0.876416
O O6 0.753251 0.182136 0.870867
O O7 0.836912 0.211266 0.705678
O O8 0.116860 0.220083 0.990139
O O9 0.267061 0.449045 0.218008
O O10 0.345635 0.354353 0.614848
O O11 0.628063 0.283820 0.718635
O O12 0.506370 0.881537 0.369601
O O13 0.559474 0.789357 0.468398
O O14 0.500000 0.969024 0.250000
#
# Coordination Sequence:
#
# PCOD8130727 Si02
#       7
#     8   8   8   4   8   8   8
#     4  10  22  37  56  81 103 139 192 233 269 320
#     4  11  18  29  45  69 105 146 172 207 257 325
#     4  10  21  38  56  76 109 148 183 222 276 326
#     4  10  18  20  34  62  98 130 172 204 222 318
#     4  11  16  25  40  65  99 143 169 191 262 318
#     4  10  18  32  52  71 106 144 172 216 271 318
#     4  11  17  26  39  66 101 140 177 197 248 325
#
# _framework density 25.233487
#
# number of rings (size 3 to 8) (size 9 to 14) (size 15 to 20)
#    0.000    1.538    7.692    0.923    1.077    0.615 
#    0.000    0.000    0.000    0.000    0.000    1.077 
#    0.000    0.000    0.000    0.000    0.308    0.000 
#
# Total GULP energy -322258.224386 kJ/mol
# GULP energy per Si atom -12394.547092 kJ/mol
# Density = 2.517605 g / cm^3
# Si number density = 25.233487 Si / 1000 Ang^3
#
#
#
# Elastic Constant Matrix: (Units=GPa)
#
#
# Indices 1 2 3 4 5 6 
#
# 1 12.1916 12.7038 17.8937 0.0000 -1.0800 0.0000
# 2 12.7038 97.6163 56.8103 0.0000 17.9602 0.0000
# 3 17.8937 56.8103 184.8823 0.0000 1.9081 0.0000
# 4 0.0000 0.0000 0.0000 48.5112 0.0000 17.6098
# 5 -1.0800 17.9602 1.9081 0.0000 34.3556 0.0000
# 6 0.0000 0.0000 0.0000 17.6098 0.0000 11.5156
#
#
#
# Elastic Compliance Matrix: (Units=1/GPa)
#
#
# Indices 1 2 3 4 5 6 
#
# 1 0.104704 -0.011510 -0.006697 0.000000 0.009680 0.000000
# 2 -0.011510 0.015277 -0.003496 0.000000 -0.008154 0.000000
# 3 -0.006697 -0.003496 0.007119 0.000000 0.001222 0.000000
# 4 0.000000 0.000000 0.000000 0.046335 0.000000 -0.070855
# 5 0.009680 -0.008154 0.001222 0.000000 0.033606 0.000000
# 6 0.000000 0.000000 0.000000 -0.070855 0.000000 0.195191
#
#
# Mechanical properties :
#
#
# Convention : Reuss Voigt Hill
#
# Bulk Modulus (GPa) = 11.94834 52.16730 32.05782
# Shear Modulus (GPa) = 10.55888 32.69532 21.62710
#
# Velocity S-wave (km/s) = 2.04782 3.60350 2.93077
# Velocity P-wave (km/s) = 3.21509 6.16704 4.91778
#
# Compressibility (1/GPa) = 0.08369365
#
# Stress axis : x y z
#
# Youngs Moduli (GPa) = 9.55077 65.45786 140.47541
#
# Poissons Ratio (x) = 0.75340 0.94074
# Poissons Ratio (y) = 0.10993 0.49113
# Poissons Ratio (z) = 0.06396 0.22885
#
# Static dielectric constant tensor:
#      x y z
#    x 4.167750 0.000000 -0.038290 
#    y 0.000000 4.433360 0.000000 
#    z -0.038290 0.000000 4.749760 
# 
# 
# High freq. dielectric constant tensor:
#      x y z
#    x 1.983050 0.000000 0.002420 
#    y 0.000000 2.009610 0.000000 
#    z 0.002420 0.000000 2.026140 
# 
# From -- ./inp_files/207446.got.cif
#   From: 2010.06.25/outbox.cif.g09.slc.cpg/sg15_104_cif.got.tgz:207446.got - 2010.06.28 07:06:18.
