data_PCOD8130693
_publ_section_title
;
Structure prediction by ZEFSAII (Michael W. Deem and Ramdas Pophale) SiO2 
 PCOD8130693
Probable space group: C 2/C
;
_chemical_formula_sum "Si O2"
_cell_formula_units_Z 56
_cell_length_a 11.842589
_cell_length_b 16.035361
_cell_length_c 20.219012
_cell_angle_alpha 90.000000
_cell_angle_beta 45.858066
_cell_angle_gamma 90.000000
_cell_volume 2755.357224
_symmetry_space_group_name_H-M "C 2/C"
_symmetry_group_IT_number 15
_symmetry_cell_setting 'monoclinic'
loop_
_space_group_symop_operation_xyz
x,y,z
-x,y,1/2-z
-x,-y,-z
x,-y,1/2+z
1/2+x,1/2+y,z
1/2-x,1/2+y,1/2-z
1/2-x,1/2-y,-z
1/2+x,1/2-y,1/2+z
loop_
_atom_site_type_symbol
_atom_site_label
_atom_site_fract_x
_atom_site_fract_y
_atom_site_fract_z
Si Si1 0.565828 0.635337 0.488671
Si Si2 0.424664 0.156409 0.346849
Si Si3 0.891252 0.969330 0.966455
Si Si4 0.905500 0.564140 0.584356
Si Si5 0.674245 0.432049 0.655145
Si Si6 0.545174 0.193040 0.437800
Si Si7 0.561832 0.036425 0.655449
O O1 0.739749 0.672382 0.417012
O O2 0.552879 0.565985 0.552614
O O3 0.533688 0.589926 0.431401
O O4 0.440203 0.710279 0.547045
O O5 0.500000 0.196070 0.250000
O O6 0.488679 0.200933 0.385682
O O7 0.479221 0.060949 0.331635
O O8 0.826193 0.944988 0.922543
O O9 0.749562 0.953304 0.076261
O O10 0.734431 0.519796 0.662887
O O11 0.000000 0.500000 0.500000
O O12 0.912415 0.649744 0.539437
O O13 0.978610 0.580754 0.626808
O O14 0.500000 0.410614 0.750000
O O15 0.787077 0.353729 0.625571
O O16 0.500000 0.075074 0.750000
#
# Coordination Sequence:
#
# PCOD8130693 Si02
#       7
#     8   8   8   8   8   8   8
#     4  10  23  38  62  87 125 168 205 261 319 371
#     4  10  20  35  61  90 120 159 213 255 309 372
#     4  10  21  42  60  90 127 167 211 256 317 377
#     4  10  17  37  59  87 116 164 207 249 303 374
#     4  11  23  37  68  93 125 165 212 255 313 384
#     4  11  21  41  64  89 127 168 208 259 320 369
#     4  10  18  34  62  88 118 162 214 251 300 371
#
# _framework density 20.324044000000001
#
# number of rings (size 3 to 8) (size 9 to 14) (size 15 to 20)
#    0.000    1.714    5.714    1.286    2.000    2.857 
#    0.000    5.000    0.000    0.857    0.000    0.000 
#    0.000    0.000    0.000    0.000    0.000    0.000 
#
# Total GULP energy -347044.222381 kJ/mol
# GULP energy per Si atom -12394.436514 kJ/mol
# Density = 2.027779 g / cm^3
# Si number density = 20.324044 Si / 1000 Ang^3
#
#
#
# Elastic Constant Matrix: (Units=GPa)
#
#
# Indices 1 2 3 4 5 6 
#
# 1 121.9496 44.4095 40.6184 0.0001 6.7608 -0.0001
# 2 44.4095 101.9486 41.9422 0.0003 -5.4802 -0.0002
# 3 40.6184 41.9422 90.8362 0.0007 8.2060 -0.0006
# 4 0.0001 0.0003 0.0007 8.8297 -0.0004 -1.4193
# 5 6.7608 -5.4802 8.2060 -0.0004 42.9138 0.0004
# 6 -0.0001 -0.0002 -0.0006 -1.4193 0.0004 8.9526
#
#
#
# Elastic Compliance Matrix: (Units=1/GPa)
#
#
# Indices 1 2 3 4 5 6 
#
# 1 0.010532 -0.003443 -0.002981 0.000000 -0.001529 0.000000
# 2 -0.003443 0.013541 -0.005004 0.000000 0.003229 0.000000
# 3 -0.002981 -0.005004 0.014926 -0.000001 -0.003023 0.000001
# 4 0.000000 0.000000 -0.000001 0.116216 0.000001 0.018425
# 5 -0.001529 0.003229 -0.003023 0.000001 0.024534 -0.000001
# 6 0.000000 0.000000 0.000001 0.018425 -0.000001 0.114621
#
#
# Mechanical properties :
#
#
# Convention : Reuss Voigt Hill
#
# Bulk Modulus (GPa) = 61.95558 63.18607 62.57083
# Shear Modulus (GPa) = 15.49868 24.65683 20.07775
#
# Velocity S-wave (km/s) = 2.76448 3.48686 3.14647
# Velocity P-wave (km/s) = 6.38278 6.88242 6.63730
#
# Compressibility (1/GPa) = 0.01614060
#
# Stress axis : x y z
#
# Youngs Moduli (GPa) = 94.95017 73.84871 66.99801
#
# Poissons Ratio (x) = 0.25429 0.19975
# Poissons Ratio (y) = 0.32695 0.33528
# Poissons Ratio (z) = 0.28308 0.36957
#
# Static dielectric constant tensor:
#      x y z
#    x 3.860730 0.000000 -0.029100 
#    y 0.000000 3.573520 0.000000 
#    z -0.029100 0.000000 3.737070 
# 
# 
# High freq. dielectric constant tensor:
#      x y z
#    x 1.808620 0.000000 0.008020 
#    y 0.000000 1.765450 0.000000 
#    z 0.008020 0.000000 1.774720 
# 
# From -- ./inp_files/199468.got.cif
#   From: 2010.06.25/outbox.cif.g09.slc.cpg/sg15_100_cif.got.tgz:199468.got - 2010.06.28 07:06:18.
