data_PCOD8130769
_publ_section_title
;
Structure prediction by ZEFSAII (Michael W. Deem and Ramdas Pophale) SiO2 
 PCOD8130769
Probable space group: C 2/C
;
_chemical_formula_sum "Si O2"
_cell_formula_units_Z 52
_cell_length_a 22.960232
_cell_length_b 21.616662
_cell_length_c 5.222213
_cell_angle_alpha 90.000000
_cell_angle_beta 92.906724
_cell_angle_gamma 90.000000
_cell_volume 2588.572709
_symmetry_space_group_name_H-M "C 2/C"
_symmetry_group_IT_number 15
_symmetry_cell_setting 'monoclinic'
loop_
_space_group_symop_operation_xyz
x,y,z
-x,y,1/2-z
-x,-y,-z
x,-y,1/2+z
1/2+x,1/2+y,z
1/2-x,1/2+y,1/2-z
1/2-x,1/2-y,-z
1/2+x,1/2-y,1/2+z
loop_
_atom_site_type_symbol
_atom_site_label
_atom_site_fract_x
_atom_site_fract_y
_atom_site_fract_z
Si Si1 0.728092 0.020156 0.131615
Si Si2 0.759732 0.346354 0.998704
Si Si3 0.907924 0.040442 0.958765
Si Si4 0.656838 0.742352 0.476578
Si Si5 0.608542 0.688148 0.990584
Si Si6 0.000000 0.126245 0.750000
Si Si7 0.809406 0.910421 0.129325
O O1 0.741161 0.092752 0.189992
O O2 0.692901 0.014238 0.852920
O O3 0.784758 0.978036 0.031434
O O4 0.823431 0.314337 0.009567
O O5 0.744736 0.368732 0.284186
O O6 0.712539 0.297080 0.891616
O O7 0.849423 0.080071 0.894798
O O8 0.963995 0.084181 0.940088
O O9 0.909390 0.986342 0.744183
O O10 0.633257 0.723674 0.748165
O O11 0.609043 0.731888 0.241923
O O12 0.542064 0.669072 0.929700
O O13 0.648725 0.626706 0.057750
#
# Coordination Sequence:
#
# PCOD8130769 Si02
#       7
#     8   8   8   8   8   4   8
#     4  10  18  28  44  68  96 129 160 191 235 291
#     4   9  19  33  51  74 101 136 171 206 252 307
#     4  11  22  35  50  73 103 136 177 219 259 302
#     4  10  21  35  52  72  99 131 173 216 255 306
#     4  10  22  37  52  73  97 134 178 222 260 298
#     4  10  24  38  56  72  98 136 182 230 272 298
#     4   9  19  32  50  73 103 136 169 205 252 308
#
# _framework density 20.088290000000001
#
# number of rings (size 3 to 8) (size 9 to 14) (size 15 to 20)
#    0.000    2.154    0.000    3.231    0.000   18.462 
#    0.000    0.000    0.000    0.000    0.000    0.000 
#    0.000    0.000    0.000   55.385    0.000    3.077 
#
# Total GULP energy -322095.452797 kJ/mol
# GULP energy per Si atom -12388.286646 kJ/mol
# Density = 2.004257 g / cm^3
# Si number density = 20.088290 Si / 1000 Ang^3
#
#
#
# Elastic Constant Matrix: (Units=GPa)
#
#
# Indices 1 2 3 4 5 6 
#
# 1 33.1291 33.0479 2.3813 0.0000 8.0999 0.0000
# 2 33.0479 106.2900 19.0923 0.0000 6.9546 0.0000
# 3 2.3813 19.0923 65.9138 0.0000 -1.6651 0.0000
# 4 0.0000 0.0000 0.0000 30.4345 0.0000 0.1378
# 5 8.0999 6.9546 -1.6651 0.0000 15.9446 0.0000
# 6 0.0000 0.0000 0.0000 0.1378 0.0000 34.2373
#
#
#
# Elastic Compliance Matrix: (Units=1/GPa)
#
#
# Indices 1 2 3 4 5 6 
#
# 1 0.048824 -0.014325 0.001922 0.000000 -0.018354 0.000000
# 2 -0.014325 0.014482 -0.003663 0.000000 0.000578 0.000000
# 3 0.001922 -0.003663 0.016221 0.000000 0.002315 0.000000
# 4 0.000000 0.000000 0.000000 0.032858 0.000000 -0.000132
# 5 -0.018354 0.000578 0.002315 0.000000 0.072031 0.000000
# 6 0.000000 0.000000 0.000000 -0.000132 0.000000 0.029208
#
#
# Mechanical properties :
#
#
# Convention : Reuss Voigt Hill
#
# Bulk Modulus (GPa) = 21.09890 34.93067 28.01478
# Shear Modulus (GPa) = 19.11646 26.17737 22.64692
#
# Velocity S-wave (km/s) = 3.08818 3.61379 3.36127
# Velocity P-wave (km/s) = 4.82097 5.90245 5.38891
#
# Compressibility (1/GPa) = 0.04739584
#
# Stress axis : x y z
#
# Youngs Moduli (GPa) = 20.48182 69.05030 61.64727
#
# Poissons Ratio (x) = 0.98912 -0.11847
# Poissons Ratio (y) = 0.29340 0.22580
# Poissons Ratio (z) = -0.03936 0.25291
#
# Static dielectric constant tensor:
#      x y z
#    x 3.266700 0.000000 0.112210 
#    y 0.000000 3.824570 0.000000 
#    z 0.112210 0.000000 3.687090 
# 
# 
# High freq. dielectric constant tensor:
#      x y z
#    x 1.711690 0.000000 -0.005810 
#    y 0.000000 1.775200 0.000000 
#    z -0.005810 0.000000 1.804960 
# 
# From -- ./inp_files/13410.got.cif
#   From: 2010.06.25/outbox.cif.g09.slc.cpg/sg15_7_cif.got.tgz:13410.got - 2010.06.28 07:06:18.
