data_PCOD8130209
_publ_section_title
;
Structure prediction by ZEFSAII (Michael W. Deem and Ramdas Pophale) SiO2 
 PCOD8130209
Probable space group: C 2/C
;
_chemical_formula_sum "Si O2"
_cell_formula_units_Z 56
_cell_length_a 12.298876
_cell_length_b 18.287552
_cell_length_c 13.585638
_cell_angle_alpha 90.000000
_cell_angle_beta 76.518450
_cell_angle_gamma 90.000000
_cell_volume 2971.434092
_symmetry_space_group_name_H-M "C 2/C"
_symmetry_group_IT_number 15
_symmetry_cell_setting 'monoclinic'
loop_
_space_group_symop_operation_xyz
x,y,z
-x,y,1/2-z
-x,-y,-z
x,-y,1/2+z
1/2+x,1/2+y,z
1/2-x,1/2+y,1/2-z
1/2-x,1/2-y,-z
1/2+x,1/2-y,1/2+z
loop_
_atom_site_type_symbol
_atom_site_label
_atom_site_fract_x
_atom_site_fract_y
_atom_site_fract_z
Si Si1 0.876591 0.687906 0.729028
Si Si2 0.435631 0.973929 0.857204
Si Si3 0.119843 0.149140 0.271588
Si Si4 0.038853 0.013229 0.382792
Si Si5 0.609111 0.070847 0.929649
Si Si6 0.761769 0.075815 0.627089
Si Si7 0.700009 0.452933 0.605272
O O1 0.837625 0.769990 0.709440
O O2 0.866441 0.647610 0.626352
O O3 0.786797 0.652437 0.823588
O O4 0.000000 0.681630 0.750000
O O5 0.500000 0.938609 0.750000
O O6 0.500514 0.039051 0.898754
O O7 0.325716 0.010467 0.834913
O O8 0.410272 0.914851 0.948874
O O9 0.102809 0.092096 0.365224
O O10 0.211921 0.115216 0.177099
O O11 0.000000 0.162942 0.250000
O O12 0.924593 0.014071 0.342271
O O13 0.126148 0.948339 0.336795
O O14 0.000000 0.000000 0.500000
O O15 0.710585 0.014975 0.891878
O O16 0.788951 0.080889 0.505553
#
# Coordination Sequence:
#
# PCOD8130209 Si02
#       7
#     8   8   8   8   8   8   8
#     4  11  19  32  50  78 111 135 164 215 274 313
#     4  10  18  30  49  80 104 129 175 210 256 300
#     4   9  19  32  49  75 108 133 167 216 265 312
#     4   9  18  34  54  74  98 135 180 213 251 303
#     4  10  18  30  54  78 102 135 173 215 254 311
#     4  10  17  30  54  76 105 133 169 213 257 306
#     4   9  19  32  50  82  98 133 178 214 254 304
#
# _framework density 18.846118000000001
#
# number of rings (size 3 to 8) (size 9 to 14) (size 15 to 20)
#    0.000    2.286    2.857    0.857    0.000    0.571 
#    0.000    0.000    0.000    7.714    3.714    1.000 
#    0.000    0.000    0.000    0.000    0.000    0.000 
#
# Total GULP energy -346891.954206 kJ/mol
# GULP energy per Si atom -12388.998364 kJ/mol
# Density = 1.880322 g / cm^3
# Si number density = 18.846118 Si / 1000 Ang^3
#
#
#
# Elastic Constant Matrix: (Units=GPa)
#
#
# Indices 1 2 3 4 5 6 
#
# 1 65.8349 28.9814 18.0163 0.0000 -16.2349 0.0000
# 2 28.9814 131.7766 65.2608 0.0000 -8.8453 0.0000
# 3 18.0163 65.2608 123.1388 0.0000 -20.1059 0.0000
# 4 0.0000 0.0000 0.0000 20.3502 0.0000 -1.8038
# 5 -16.2349 -8.8453 -20.1059 0.0000 24.8916 0.0000
# 6 0.0000 0.0000 0.0000 -1.8038 0.0000 19.4645
#
#
#
# Elastic Compliance Matrix: (Units=1/GPa)
#
#
# Indices 1 2 3 4 5 6 
#
# 1 0.019735 -0.004179 0.001367 0.000000 0.012491 0.000000
# 2 -0.004179 0.011190 -0.005892 0.000000 -0.003508 0.000000
# 3 0.001367 -0.005892 0.012495 0.000000 0.008890 0.000000
# 4 0.000000 0.000000 0.000000 0.049546 0.000000 0.004591
# 5 0.012491 -0.003508 0.008890 0.000000 0.054255 0.000000
# 6 0.000000 0.000000 0.000000 0.004591 0.000000 0.051801
#
#
# Mechanical properties :
#
#
# Convention : Reuss Voigt Hill
#
# Bulk Modulus (GPa) = 38.44297 60.58525 49.51411
# Shear Modulus (GPa) = 22.21213 26.84073 24.52643
#
# Velocity S-wave (km/s) = 3.43681 3.77796 3.61141
# Velocity P-wave (km/s) = 6.01594 7.15875 6.61208
#
# Compressibility (1/GPa) = 0.02601256
#
# Stress axis : x y z
#
# Youngs Moduli (GPa) = 50.67065 89.36531 80.03112
#
# Poissons Ratio (x) = 0.37343 -0.10938
# Poissons Ratio (y) = 0.21174 0.47153
# Poissons Ratio (z) = -0.06925 0.52653
#
# Static dielectric constant tensor:
#      x y z
#    x 3.799150 0.000000 -0.140120 
#    y 0.000000 3.765380 0.000000 
#    z -0.140120 0.000000 3.812070 
# 
# 
# High freq. dielectric constant tensor:
#      x y z
#    x 1.727550 0.000000 -0.016860 
#    y 0.000000 1.687920 0.000000 
#    z -0.016860 0.000000 1.748180 
# 
# From -- ./inp_files/154501.got.cif
#   From: 2010.06.25/outbox.cif.g09.slc.cpg/sg15_78_cif.got.tgz:154501.got - 2010.06.28 07:06:18.
