data_PCOD8130683
_publ_section_title
;
Structure prediction by ZEFSAII (Michael W. Deem and Ramdas Pophale) SiO2 
 PCOD8130683
Probable space group: C 2/C
;
_chemical_formula_sum "Si O2"
_cell_formula_units_Z 56
_cell_length_a 12.929913
_cell_length_b 20.446530
_cell_length_c 12.574209
_cell_angle_alpha 90.000000
_cell_angle_beta 57.941176
_cell_angle_gamma 90.000000
_cell_volume 2817.328191
_symmetry_space_group_name_H-M "C 2/C"
_symmetry_group_IT_number 15
_symmetry_cell_setting 'monoclinic'
loop_
_space_group_symop_operation_xyz
x,y,z
-x,y,1/2-z
-x,-y,-z
x,-y,1/2+z
1/2+x,1/2+y,z
1/2-x,1/2+y,1/2-z
1/2-x,1/2-y,-z
1/2+x,1/2-y,1/2+z
loop_
_atom_site_type_symbol
_atom_site_label
_atom_site_fract_x
_atom_site_fract_y
_atom_site_fract_z
Si Si1 0.745507 0.748926 0.876774
Si Si2 0.809401 0.030119 0.482865
Si Si3 0.500000 0.198162 0.750000
Si Si4 0.621094 0.037813 0.215285
Si Si5 0.447696 0.908550 0.127662
Si Si6 0.000000 0.945753 0.250000
Si Si7 0.828907 0.391058 0.616061
Si Si8 0.176755 0.882861 0.318384
O O1 0.888334 0.741962 0.769076
O O2 0.688006 0.813910 0.859369
O O3 0.663581 0.689513 0.875498
O O4 0.750000 0.750000 0.000000
O O5 0.761011 0.083472 0.426257
O O6 0.842479 0.065053 0.576183
O O7 0.702769 0.978238 0.567429
O O8 0.922396 0.992368 0.369732
O O9 0.466796 0.147696 0.862984
O O10 0.500000 0.080058 0.250000
O O11 0.707233 0.075713 0.252079
O O12 0.558930 0.973730 0.301017
O O13 0.308395 0.885846 0.187949
O O14 0.529477 0.915236 0.976839
O O15 0.079402 0.897587 0.280045
#
# Coordination Sequence:
#
# PCOD8130683 Si02
#       8
#     8   8   4   8   8   4   8   8
#     4  11  21  41  62  91 120 160 206 254 294 361
#     4  11  22  41  63  94 122 158 207 260 312 364
#     4  10  18  35  64  89 118 150 200 258 304 344
#     4  11  22  35  59  94 127 152 198 260 307 363
#     4  10  17  36  63  90 118 155 197 256 313 354
#     4  12  26  43  62  89 130 174 198 246 324 384
#     4  12  22  37  65  94 123 159 203 256 314 360
#     4  10  23  41  64  88 128 166 208 253 302 373
#
# _framework density 19.876988999999998
#
# number of rings (size 3 to 8) (size 9 to 14) (size 15 to 20)
#    0.000    1.143    5.000    3.429    2.000    0.571 
#    3.857    0.000    0.000    1.714    0.000    0.000 
#    0.000    0.000    0.000    0.000    0.000    0.000 
#
# Total GULP energy -346945.217563 kJ/mol
# GULP energy per Si atom -12390.900627 kJ/mol
# Density = 1.983175 g / cm^3
# Si number density = 19.876989 Si / 1000 Ang^3
#
#
#
# Elastic Constant Matrix: (Units=GPa)
#
#
# Indices 1 2 3 4 5 6 
#
# 1 113.3235 49.0427 34.1892 0.0000 7.3601 0.0000
# 2 49.0427 97.1187 35.6502 0.0000 -3.6777 0.0000
# 3 34.1892 35.6502 58.7359 0.0000 -7.5134 0.0000
# 4 0.0000 0.0000 0.0000 21.7144 0.0000 -0.2289
# 5 7.3601 -3.6777 -7.5134 0.0000 33.8097 0.0000
# 6 0.0000 0.0000 0.0000 -0.2289 0.0000 16.2746
#
#
#
# Elastic Compliance Matrix: (Units=1/GPa)
#
#
# Indices 1 2 3 4 5 6 
#
# 1 0.012681 -0.004701 -0.005091 0.000000 -0.004403 0.000000
# 2 -0.004701 0.014996 -0.006202 0.000000 0.001276 0.000000
# 3 -0.005091 -0.006202 0.024505 0.000000 0.005879 0.000000
# 4 0.000000 0.000000 0.000000 0.046059 0.000000 0.000648
# 5 -0.004403 0.001276 0.005879 0.000000 0.031981 0.000000
# 6 0.000000 0.000000 0.000000 0.000648 0.000000 0.061454
#
#
# Mechanical properties :
#
#
# Convention : Reuss Voigt Hill
#
# Bulk Modulus (GPa) = 49.52201 56.32695 52.92448
# Shear Modulus (GPa) = 21.70175 24.37948 23.04062
#
# Velocity S-wave (km/s) = 3.30783 3.50597 3.40834
# Velocity P-wave (km/s) = 6.28946 6.69241 6.49406
#
# Compressibility (1/GPa) = 0.02019304
#
# Stress axis : x y z
#
# Youngs Moduli (GPa) = 78.85900 66.68572 40.80791
#
# Poissons Ratio (x) = 0.31352 0.20775
# Poissons Ratio (y) = 0.37076 0.25308
# Poissons Ratio (z) = 0.40147 0.41357
#
# Static dielectric constant tensor:
#      x y z
#    x 3.771250 0.000000 -0.270210 
#    y 0.000000 3.815180 0.000000 
#    z -0.270210 0.000000 3.851500 
# 
# 
# High freq. dielectric constant tensor:
#      x y z
#    x 1.768900 0.000000 -0.004560 
#    y 0.000000 1.761040 0.000000 
#    z -0.004560 0.000000 1.772870 
# 
# From -- ./inp_files/89580.got.cif
#   From: 2010.06.25/outbox.cif.g09.slc.cpg/sg15_45_cif.got.tgz:89580.got - 2010.06.28 07:06:18.
