data_PCOD8130978
_publ_section_title
;
Structure prediction by ZEFSAII (Michael W. Deem and Ramdas Pophale) SiO2 
 PCOD8130978
Probable space group: C 2/C
;
_chemical_formula_sum "Si O2"
_cell_formula_units_Z 64
_cell_length_a 9.143423
_cell_length_b 17.722316
_cell_length_c 21.397113
_cell_angle_alpha 90.000000
_cell_angle_beta 104.273430
_cell_angle_gamma 90.000000
_cell_volume 3360.211250
_symmetry_space_group_name_H-M "C 2/C"
_symmetry_group_IT_number 15
_symmetry_cell_setting 'monoclinic'
loop_
_space_group_symop_operation_xyz
x,y,z
-x,y,1/2-z
-x,-y,-z
x,-y,1/2+z
1/2+x,1/2+y,z
1/2-x,1/2+y,1/2-z
1/2-x,1/2-y,-z
1/2+x,1/2-y,1/2+z
loop_
_atom_site_type_symbol
_atom_site_label
_atom_site_fract_x
_atom_site_fract_y
_atom_site_fract_z
Si Si1 0.327055 0.079277 0.459959
Si Si2 0.236120 0.915419 0.457596
Si Si3 0.918133 0.739300 0.176677
Si Si4 0.891069 0.199550 0.032822
Si Si5 0.879044 0.576854 0.611525
Si Si6 0.062120 0.148358 0.596625
Si Si7 0.614575 0.190465 0.619109
Si Si8 0.104308 0.591734 0.403356
O O1 0.171572 0.126038 0.436616
O O2 0.380418 0.086302 0.536953
O O3 0.455001 0.110528 0.427707
O O4 0.306733 0.992503 0.439224
O O5 0.324952 0.844246 0.439225
O O6 0.251462 0.911080 0.534675
O O7 0.064653 0.916791 0.414290
O O8 0.759953 0.782012 0.173443
O O9 0.876258 0.657844 0.144183
O O10 0.000000 0.725353 0.250000
O O11 0.030664 0.786891 0.144265
O O12 0.006358 0.239700 0.091470
O O13 0.750000 0.250000 0.000000
O O14 0.968739 0.181223 0.975480
O O15 0.725128 0.610747 0.624440
O O16 0.902113 0.489363 0.633004
O O17 0.020398 0.628277 0.649577
#
# Coordination Sequence:
#
# PCOD8130978 Si02
#       8
#     8   8   8   8   8   8   8   8
#     4  10  18  30  55  90 132 142 170 215 296 357
#     4  10  18  32  54  91 117 152 170 223 292 354
#     4  11  26  42  56  75 109 154 204 246 275 315
#     4  11  18  29  54  91 119 144 171 220 283 349
#     4  10  19  34  59  92 116 146 177 224 284 360
#     4  10  21  34  57  83 119 142 190 229 281 336
#     4  11  19  36  57  83 116 147 189 221 283 340
#     4  11  19  35  59  83 122 148 185 225 287 344
#
# _framework density 19.046422
#
# number of rings (size 3 to 8) (size 9 to 14) (size 15 to 20)
#    0.000    1.500    5.000    3.000    0.000    7.500 
#    0.000    1.875    0.000    0.000    0.000    0.000 
#    0.000    0.000    0.000    0.000    0.000    0.000 
#
# Total GULP energy -396684.957062 kJ/mol
# GULP energy per Si atom -12396.404908 kJ/mol
# Density = 1.900307 g / cm^3
# Si number density = 19.046422 Si / 1000 Ang^3
#
#
#
# Elastic Constant Matrix: (Units=GPa)
#
#
# Indices 1 2 3 4 5 6 
#
# 1 112.3242 47.3590 24.8104 0.0000 5.0374 0.0000
# 2 47.3590 113.1635 32.1510 0.0000 8.7060 0.0000
# 3 24.8104 32.1510 38.4541 0.0000 8.3768 0.0000
# 4 0.0000 0.0000 0.0000 11.8506 0.0000 -3.9732
# 5 5.0374 8.7060 8.3768 0.0000 18.9283 0.0000
# 6 0.0000 0.0000 0.0000 -3.9732 0.0000 33.1609
#
#
#
# Elastic Compliance Matrix: (Units=1/GPa)
#
#
# Indices 1 2 3 4 5 6 
#
# 1 0.011356 -0.003515 -0.004518 0.000000 0.000594 0.000000
# 2 -0.003515 0.012700 -0.008059 0.000000 -0.001339 0.000000
# 3 -0.004518 -0.008059 0.038279 0.000000 -0.012031 0.000000
# 4 0.000000 0.000000 0.000000 0.087915 0.000000 0.010534
# 5 0.000594 -0.001339 -0.012031 0.000000 0.058613 0.000000
# 6 0.000000 0.000000 0.000000 0.010534 0.000000 0.031418
#
#
# Mechanical properties :
#
#
# Convention : Reuss Voigt Hill
#
# Bulk Modulus (GPa) = 33.16493 52.50917 42.83705
# Shear Modulus (GPa) = 17.69815 23.42941 20.56378
#
# Velocity S-wave (km/s) = 3.05160 3.51111 3.28939
# Velocity P-wave (km/s) = 5.46506 6.63823 6.08001
#
# Compressibility (1/GPa) = 0.03015233
#
# Stress axis : x y z
#
# Youngs Moduli (GPa) = 88.06001 78.73759 26.12411
#
# Poissons Ratio (x) = 0.27673 0.11802
# Poissons Ratio (y) = 0.30950 0.21054
# Poissons Ratio (z) = 0.39781 0.63456
#
# Static dielectric constant tensor:
#      x y z
#    x 3.629900 0.000000 -0.014790 
#    y 0.000000 3.945540 0.000000 
#    z -0.014790 0.000000 2.835130 
# 
# 
# High freq. dielectric constant tensor:
#      x y z
#    x 1.757530 0.000000 -0.005830 
#    y 0.000000 1.756410 0.000000 
#    z -0.005830 0.000000 1.665700 
# 
# From -- ./inp_files/232680.got.cif
#   From: 2010.06.25/outbox.cif.g09.slc.cpg/sg15_117_cif.got.tgz:232680.got - 2010.06.28 07:06:18.
