data_PCOD8130900
_publ_section_title
;
Structure prediction by ZEFSAII (Michael W. Deem and Ramdas Pophale) SiO2 
 PCOD8130900
Probable space group: C 2/C
;
_chemical_formula_sum "Si O2"
_cell_formula_units_Z 56
_cell_length_a 20.034895
_cell_length_b 17.387638
_cell_length_c 8.933070
_cell_angle_alpha 90.000000
_cell_angle_beta 77.922719
_cell_angle_gamma 90.000000
_cell_volume 3043.041446
_symmetry_space_group_name_H-M "C 2/C"
_symmetry_group_IT_number 15
_symmetry_cell_setting 'monoclinic'
loop_
_space_group_symop_operation_xyz
x,y,z
-x,y,1/2-z
-x,-y,-z
x,-y,1/2+z
1/2+x,1/2+y,z
1/2-x,1/2+y,1/2-z
1/2-x,1/2-y,-z
1/2+x,1/2-y,1/2+z
loop_
_atom_site_type_symbol
_atom_site_label
_atom_site_fract_x
_atom_site_fract_y
_atom_site_fract_z
Si Si1 0.816499 0.742836 0.571404
Si Si2 0.196853 0.574944 0.806321
Si Si3 0.514126 0.081002 0.569102
Si Si4 0.634518 0.925614 0.819351
Si Si5 0.703656 0.603393 0.266665
Si Si6 0.561196 0.820903 0.622719
Si Si7 0.217743 0.013621 0.991442
O O1 0.750000 0.750000 0.500000
O O2 0.821406 0.662875 0.657411
O O3 0.820100 0.810007 0.693323
O O4 0.883534 0.746466 0.434373
O O5 0.131453 0.519547 0.803958
O O6 0.246151 0.571919 0.640155
O O7 0.230127 0.539072 0.939807
O O8 0.500000 0.080550 0.750000
O O9 0.593678 0.100657 0.488470
O O10 0.466428 0.146723 0.520615
O O11 0.500000 0.000000 0.500000
O O12 0.713654 0.899642 0.786275
O O13 0.597302 0.891436 0.691884
O O14 0.673769 0.568158 0.124673
O O15 0.675242 0.548754 0.414115
O O16 0.500000 0.785097 0.750000
#
# Coordination Sequence:
#
# PCOD8130900 Si02
#       7
#     8   8   8   8   8   8   8
#     4  12  20  32  53  81 107 137 178 224 274 316
#     4  10  18  30  49  72 107 141 174 220 256 304
#     4  11  22  33  48  72 102 145 187 215 246 303
#     4   9  18  34  51  72 102 141 183 213 254 306
#     4  10  19  32  52  75 103 135 170 220 264 317
#     4  10  21  36  54  75 106 145 183 218 259 322
#     4   8  17  31  46  70 102 136 171 208 264 309
#
# _framework density 18.402640000000002
#
# number of rings (size 3 to 8) (size 9 to 14) (size 15 to 20)
#    0.000    2.286    2.857    3.000    0.000    9.714 
#    0.000    0.000    0.000    0.000    0.000    1.000 
#    0.000    0.000    0.000    0.000    0.000    0.000 
#
# Total GULP energy -346884.063334 kJ/mol
# GULP energy per Si atom -12388.716548 kJ/mol
# Density = 1.836076 g / cm^3
# Si number density = 18.402640 Si / 1000 Ang^3
#
#
#
# Elastic Constant Matrix: (Units=GPa)
#
#
# Indices 1 2 3 4 5 6 
#
# 1 54.9704 31.1691 31.9548 0.0000 -17.0730 0.0000
# 2 31.1691 110.3168 52.0713 0.0000 -20.7161 0.0000
# 3 31.9548 52.0713 128.0690 0.0000 -8.3007 0.0000
# 4 0.0000 0.0000 0.0000 31.5304 0.0000 -3.2647
# 5 -17.0730 -20.7161 -8.3007 0.0000 17.7456 0.0000
# 6 0.0000 0.0000 0.0000 -3.2647 0.0000 21.6120
#
#
#
# Elastic Compliance Matrix: (Units=1/GPa)
#
#
# Indices 1 2 3 4 5 6 
#
# 1 0.029596 -0.001263 -0.005281 0.000000 0.024530 0.000000
# 2 -0.001263 0.014007 -0.004536 0.000000 0.013014 0.000000
# 3 -0.005281 -0.004536 0.010620 0.000000 -0.005409 0.000000
# 4 0.000000 0.000000 0.000000 0.032219 0.000000 0.004867
# 5 0.024530 0.013014 -0.005409 0.000000 0.092615 0.000000
# 6 0.000000 0.000000 0.000000 0.004867 0.000000 0.047006
#
#
# Mechanical properties :
#
#
# Convention : Reuss Voigt Hill
#
# Bulk Modulus (GPa) = 31.18964 58.19406 44.69185
# Shear Modulus (GPa) = 19.31159 26.05499 22.68329
#
# Velocity S-wave (km/s) = 3.24295 3.76683 3.51466
# Velocity P-wave (km/s) = 5.56844 7.11407 6.38817
#
# Compressibility (1/GPa) = 0.03206193
#
# Stress axis : x y z
#
# Youngs Moduli (GPa) = 33.78787 71.39370 94.16317
#
# Poissons Ratio (x) = 0.09017 0.49730
# Poissons Ratio (y) = 0.04267 0.42716
# Poissons Ratio (z) = 0.17844 0.32387
#
# Static dielectric constant tensor:
#      x y z
#    x 3.207950 0.000000 -0.144190 
#    y 0.000000 3.376150 0.000000 
#    z -0.144190 0.000000 3.833060 
# 
# 
# High freq. dielectric constant tensor:
#      x y z
#    x 1.666140 0.000000 -0.005230 
#    y 0.000000 1.685070 0.000000 
#    z -0.005230 0.000000 1.736000 
# 
# From -- ./inp_files/56090.got.cif
#   From: 2010.06.25/outbox.cif.g09.slc.cpg/sg15_29_cif.got.tgz:56090.got - 2010.06.28 07:06:18.
