data_PCOD8130982
_publ_section_title
;
Structure prediction by ZEFSAII (Michael W. Deem and Ramdas Pophale) SiO2 
 PCOD8130982
Probable space group: C 2/C
;
_chemical_formula_sum "Si O2"
_cell_formula_units_Z 52
_cell_length_a 14.811607
_cell_length_b 12.564855
_cell_length_c 18.690437
_cell_angle_alpha 90.000000
_cell_angle_beta 47.582123
_cell_angle_gamma 90.000000
_cell_volume 2567.908712
_symmetry_space_group_name_H-M "C 2/C"
_symmetry_group_IT_number 15
_symmetry_cell_setting 'monoclinic'
loop_
_space_group_symop_operation_xyz
x,y,z
-x,y,1/2-z
-x,-y,-z
x,-y,1/2+z
1/2+x,1/2+y,z
1/2-x,1/2+y,1/2-z
1/2-x,1/2-y,-z
1/2+x,1/2-y,1/2+z
loop_
_atom_site_type_symbol
_atom_site_label
_atom_site_fract_x
_atom_site_fract_y
_atom_site_fract_z
Si Si1 0.193543 0.375963 0.635995
Si Si2 0.447620 0.861580 0.932358
Si Si3 0.968343 0.863396 0.474376
Si Si4 0.821259 0.484153 0.716732
Si Si5 0.500000 0.498000 0.750000
Si Si6 0.232883 0.858726 0.157891
Si Si7 0.938928 0.927864 0.639944
O O1 0.092796 0.369741 0.628504
O O2 0.327993 0.395533 0.531149
O O3 0.158560 0.473538 0.708070
O O4 0.196412 0.264871 0.679278
O O5 0.557450 0.943501 0.888755
O O6 0.503187 0.744754 0.916234
O O7 0.332974 0.883508 0.043817
O O8 0.984114 0.848635 0.552812
O O9 0.057076 0.953005 0.396263
O O10 0.791131 0.602751 0.702855
O O11 0.703204 0.408242 0.763898
O O12 0.383632 0.571333 0.799872
O O13 0.519272 0.422497 0.669612
#
# Coordination Sequence:
#
# PCOD8130982 Si02
#       7
#     8   8   8   8   4   8   8
#     4  10  20  34  56  87 111 141 193 232 274 331
#     4  11  20  34  56  85 116 142 182 239 282 331
#     4   9  18  33  53  78 111 145 184 230 278 329
#     4  10  22  32  51  84 118 148 177 230 291 335
#     4  10  18  30  56  78 104 144 192 232 264 330
#     4  10  21  35  54  83 114 150 182 234 287 326
#     4   9  18  33  50  79 108 146 188 225 276 332
#
# _framework density 20.249942000000001
#
# number of rings (size 3 to 8) (size 9 to 14) (size 15 to 20)
#    0.000    2.154    0.000    4.615    6.462    0.000 
#    0.000    0.000    0.000    3.692   72.000    0.000 
#    0.000    0.000    0.000    0.000    0.000    0.000 
#
# Total GULP energy -322143.720573 kJ/mol
# GULP energy per Si atom -12390.143099 kJ/mol
# Density = 2.020385 g / cm^3
# Si number density = 20.249942 Si / 1000 Ang^3
#
#
#
# Elastic Constant Matrix: (Units=GPa)
#
#
# Indices 1 2 3 4 5 6 
#
# 1 117.4467 47.8612 37.0161 0.0000 25.0410 0.0000
# 2 47.8612 45.1566 15.7004 0.0000 6.1059 0.0000
# 3 37.0161 15.7004 68.6460 0.0000 7.3785 0.0000
# 4 0.0000 0.0000 0.0000 23.0496 0.0000 7.1871
# 5 25.0410 6.1059 7.3785 0.0000 44.6492 0.0000
# 6 0.0000 0.0000 0.0000 7.1871 0.0000 30.7503
#
#
#
# Elastic Compliance Matrix: (Units=1/GPa)
#
#
# Indices 1 2 3 4 5 6 
#
# 1 0.018662 -0.016916 -0.005414 0.000000 -0.007258 0.000000
# 2 -0.016916 0.039652 -0.000391 0.000000 0.004129 0.000000
# 3 -0.005414 -0.000391 0.017556 0.000000 0.000189 0.000000
# 4 0.000000 0.000000 0.000000 0.046795 0.000000 -0.010937
# 5 -0.007258 0.004129 0.000189 0.000000 0.025872 0.000000
# 6 0.000000 0.000000 0.000000 -0.010937 0.000000 0.035076
#
#
# Mechanical properties :
#
#
# Convention : Reuss Voigt Hill
#
# Bulk Modulus (GPa) = 32.86488 48.04497 40.45493
# Shear Modulus (GPa) = 20.90329 28.40127 24.65228
#
# Velocity S-wave (km/s) = 3.21637 3.74911 3.49291
# Velocity P-wave (km/s) = 5.48254 6.52063 6.02399
#
# Compressibility (1/GPa) = 0.03042762
#
# Stress axis : x y z
#
# Youngs Moduli (GPa) = 53.58554 25.21964 56.96026
#
# Poissons Ratio (x) = 0.42661 0.30838
# Poissons Ratio (y) = 0.90643 0.02229
# Poissons Ratio (z) = 0.29011 0.00987
#
# Static dielectric constant tensor:
#      x y z
#    x 3.884190 0.000000 0.135980 
#    y 0.000000 3.444430 0.000000 
#    z 0.135980 0.000000 3.924710 
# 
# 
# High freq. dielectric constant tensor:
#      x y z
#    x 1.786050 0.000000 -0.000930 
#    y 0.000000 1.741570 0.000000 
#    z -0.000930 0.000000 1.813090 
# 
# From -- ./inp_files/225526.got.cif
#   From: 2010.06.25/outbox.cif.g09.slc.cpg/sg15_113_cif.got.tgz:225526.got - 2010.06.28 07:06:18.
