data_PCOD8130222
_publ_section_title
;
Structure prediction by ZEFSAII (Michael W. Deem and Ramdas Pophale) SiO2 
 PCOD8130222
Probable space group: C 2/C
;
_chemical_formula_sum "Si O2"
_cell_formula_units_Z 52
_cell_length_a 15.105109
_cell_length_b 12.799812
_cell_length_c 18.238114
_cell_angle_alpha 90.000000
_cell_angle_beta 129.164555
_cell_angle_gamma 90.000000
_cell_volume 2733.990220
_symmetry_space_group_name_H-M "C 2/C"
_symmetry_group_IT_number 15
_symmetry_cell_setting 'monoclinic'
loop_
_space_group_symop_operation_xyz
x,y,z
-x,y,1/2-z
-x,-y,-z
x,-y,1/2+z
1/2+x,1/2+y,z
1/2-x,1/2+y,1/2-z
1/2-x,1/2-y,-z
1/2+x,1/2-y,1/2+z
loop_
_atom_site_type_symbol
_atom_site_label
_atom_site_fract_x
_atom_site_fract_y
_atom_site_fract_z
Si Si1 0.000000 0.906740 0.750000
Si Si2 0.760011 0.392206 0.207812
Si Si3 0.493839 0.772623 0.357817
Si Si4 0.578549 0.070122 0.487067
Si Si5 0.104935 0.288333 0.573414
Si Si6 0.603965 0.959861 0.348507
Si Si7 0.231585 0.987106 0.833914
O O1 0.982460 0.840270 0.815032
O O2 0.888894 0.979618 0.687559
O O3 0.872589 0.333362 0.298155
O O4 0.657246 0.312252 0.139974
O O5 0.785008 0.456218 0.145511
O O6 0.717609 0.480998 0.241799
O O7 0.553457 0.759959 0.467421
O O8 0.578824 0.838054 0.350885
O O9 0.505248 0.174995 0.435697
O O10 0.500000 0.000000 0.500000
O O11 0.616216 0.019958 0.430414
O O12 0.698892 0.082751 0.591665
O O13 0.201563 0.377783 0.619894
O O14 0.500000 0.013252 0.250000
#
# Coordination Sequence:
#
# PCOD8130222 Si02
#       7
#     4   8   8   8   8   8   8
#     4  12  24  36  62  88 132 154 196 252 326 348
#     4  11  22  36  60  92 125 155 206 252 303 359
#     4  11  18  34  58  98 118 147 200 255 302 359
#     4  10  18  33  58  89 118 158 201 242 303 358
#     4  11  20  36  64  90 124 158 201 254 302 359
#     4  10  17  30  54  89 123 145 194 248 291 352
#     4  11  22  39  59  88 124 167 195 253 310 366
#
# _framework density 19.019819999999999
#
# number of rings (size 3 to 8) (size 9 to 14) (size 15 to 20)
#    0.000    1.231    8.462    2.769    2.154    1.231 
#    0.000    0.769    5.077    0.923    0.000    0.000 
#    0.000    0.000    0.000    0.000    0.000    0.000 
#
# Total GULP energy -322159.781857 kJ/mol
# GULP energy per Si atom -12390.760841 kJ/mol
# Density = 1.897653 g / cm^3
# Si number density = 19.019820 Si / 1000 Ang^3
#
#
#
# Elastic Constant Matrix: (Units=GPa)
#
#
# Indices 1 2 3 4 5 6 
#
# 1 106.2543 45.0154 46.2029 0.0000 6.2026 0.0000
# 2 45.0154 48.5443 38.1690 0.0000 0.2720 0.0000
# 3 46.2029 38.1690 107.3167 0.0000 -4.8772 0.0000
# 4 0.0000 0.0000 0.0000 22.6679 0.0000 3.1385
# 5 6.2026 0.2720 -4.8772 0.0000 29.6886 0.0000
# 6 0.0000 0.0000 0.0000 3.1385 0.0000 26.5890
#
#
#
# Elastic Compliance Matrix: (Units=1/GPa)
#
#
# Indices 1 2 3 4 5 6 
#
# 1 0.016263 -0.013081 -0.002517 0.000000 -0.003691 0.000000
# 2 -0.013081 0.039231 -0.008275 0.000000 0.001014 0.000000
# 3 -0.002517 -0.008275 0.013473 0.000000 0.002815 0.000000
# 4 0.000000 0.000000 0.000000 0.044848 0.000000 -0.005294
# 5 -0.003691 0.001014 0.002815 0.000000 0.034907 0.000000
# 6 0.000000 0.000000 0.000000 -0.005294 0.000000 0.038234
#
#
# Mechanical properties :
#
#
# Convention : Reuss Voigt Hill
#
# Bulk Modulus (GPa) = 47.12478 57.87667 52.50073
# Shear Modulus (GPa) = 20.68015 24.63764 22.65890
#
# Velocity S-wave (km/s) = 3.30099 3.60302 3.45531
# Velocity P-wave (km/s) = 6.27369 6.91410 6.60167
#
# Compressibility (1/GPa) = 0.02122026
#
# Stress axis : x y z
#
# Youngs Moduli (GPa) = 61.48794 25.49005 74.22259
#
# Poissons Ratio (x) = 0.33344 0.18682
# Poissons Ratio (y) = 0.80435 0.61421
# Poissons Ratio (z) = 0.15476 0.21093
#
# Static dielectric constant tensor:
#      x y z
#    x 3.541760 0.000000 0.129850 
#    y 0.000000 3.251210 0.000000 
#    z 0.129850 0.000000 3.883620 
# 
# 
# High freq. dielectric constant tensor:
#      x y z
#    x 1.726330 0.000000 -0.004140 
#    y 0.000000 1.693210 0.000000 
#    z -0.004140 0.000000 1.753100 
# 
# From -- ./inp_files/205191.got.cif
#   From: 2010.06.25/outbox.cif.g09.slc.cpg/sg15_103_cif.got.tgz:205191.got - 2010.06.28 07:06:18.
