data_PCOD8130873
_publ_section_title
;
Structure prediction by ZEFSAII (Michael W. Deem and Ramdas Pophale) SiO2 
 PCOD8130873
Probable space group: C 2/C
;
_chemical_formula_sum "Si O2"
_cell_formula_units_Z 56
_cell_length_a 26.238976
_cell_length_b 21.918434
_cell_length_c 5.319515
_cell_angle_alpha 90.000000
_cell_angle_beta 97.575465
_cell_angle_gamma 90.000000
_cell_volume 3032.643205
_symmetry_space_group_name_H-M "C 2/C"
_symmetry_group_IT_number 15
_symmetry_cell_setting 'monoclinic'
loop_
_space_group_symop_operation_xyz
x,y,z
-x,y,1/2-z
-x,-y,-z
x,-y,1/2+z
1/2+x,1/2+y,z
1/2-x,1/2+y,1/2-z
1/2-x,1/2-y,-z
1/2+x,1/2-y,1/2+z
loop_
_atom_site_type_symbol
_atom_site_label
_atom_site_fract_x
_atom_site_fract_y
_atom_site_fract_z
Si Si1 0.601205 0.073243 0.338584
Si Si2 0.305480 0.334009 0.966647
Si Si3 0.059054 0.440154 0.309973
Si Si4 0.195895 0.361672 0.696810
Si Si5 0.691113 0.736637 0.516254
Si Si6 0.325796 0.527854 0.465660
Si Si7 0.788400 0.523078 0.575786
O O1 0.576264 0.100017 0.579473
O O2 0.659254 0.098243 0.351310
O O3 0.595511 0.999720 0.348004
O O4 0.569666 0.097559 0.072518
O O5 0.243906 0.339084 0.894576
O O6 0.330767 0.295317 0.751457
O O7 0.317564 0.305050 0.244520
O O8 0.332070 0.399828 0.980525
O O9 0.000000 0.460536 0.250000
O O10 0.166296 0.303223 0.558016
O O11 0.216335 0.404727 0.480989
O O12 0.750000 0.750000 0.500000
O O13 0.352345 0.502177 0.228464
O O14 0.266011 0.509122 0.404226
O O15 0.818090 0.510401 0.859888
#
# Coordination Sequence:
#
# PCOD8130873 Si02
#       7
#     8   8   8   8   8   8   8
#     4  10  21  29  50  68  84 115 141 188 224 269
#     4  11  21  35  48  59  86 122 148 179 244 288
#     4  10  20  37  50  68  94 119 145 173 245 317
#     4  11  22  33  46  66  92 106 157 190 232 286
#     4  10  23  34  46  59  81 126 151 179 221 298
#     4  10  18  30  45  63  77 101 138 182 232 272
#     4  10  21  28  43  58  85 107 120 188 243 269
#
# _framework density 18.46574
#
# number of rings (size 3 to 8) (size 9 to 14) (size 15 to 20)
#    0.000    1.714    2.857    4.714   10.000    4.571 
#    0.000    0.000    0.000    0.000    0.000    0.000 
#    0.000    0.000    0.000    0.000    0.000    0.000 
#
# Total GULP energy -346889.556667 kJ/mol
# GULP energy per Si atom -12388.912738 kJ/mol
# Density = 1.842371 g / cm^3
# Si number density = 18.465740 Si / 1000 Ang^3
#
#
#
# Elastic Constant Matrix: (Units=GPa)
#
#
# Indices 1 2 3 4 5 6 
#
# 1 29.3774 -1.9295 3.2496 0.0000 -3.3719 0.0000
# 2 -1.9295 105.6753 32.3244 0.0000 -10.4876 0.0000
# 3 3.2496 32.3244 166.1561 0.0000 -24.6505 0.0000
# 4 0.0000 0.0000 0.0000 25.9564 0.0000 -3.3987
# 5 -3.3719 -10.4876 -24.6505 0.0000 14.8422 0.0000
# 6 0.0000 0.0000 0.0000 -3.3987 0.0000 6.1156
#
#
#
# Elastic Compliance Matrix: (Units=1/GPa)
#
#
# Indices 1 2 3 4 5 6 
#
# 1 0.035213 0.001472 0.000486 0.000000 0.009846 0.000000
# 2 0.001472 0.010425 -0.001213 0.000000 0.005686 0.000000
# 3 0.000486 -0.001213 0.008140 0.000000 0.012772 0.000000
# 4 0.000000 0.000000 0.000000 0.041550 0.000000 0.023091
# 5 0.009846 0.005686 0.012772 0.000000 0.094842 0.000000
# 6 0.000000 0.000000 0.000000 0.023091 0.000000 0.176350
#
#
# Mechanical properties :
#
#
# Convention : Reuss Voigt Hill
#
# Bulk Modulus (GPa) = 18.09441 40.94419 29.51930
# Shear Modulus (GPa) = 13.03939 27.22045 20.12992
#
# Velocity S-wave (km/s) = 2.66021 3.84357 3.30528
# Velocity P-wave (km/s) = 4.38814 6.47446 5.53057
#
# Compressibility (1/GPa) = 0.05526570
#
# Stress axis : x y z
#
# Youngs Moduli (GPa) = 28.39877 95.92099 122.85305
#
# Poissons Ratio (x) = -0.14115 -0.05969
# Poissons Ratio (y) = -0.04179 0.14907
# Poissons Ratio (z) = -0.01380 0.11639
#
# Static dielectric constant tensor:
#      x y z
#    x 2.764430 0.000000 -0.438840 
#    y 0.000000 3.740380 0.000000 
#    z -0.438840 0.000000 4.703010 
# 
# 
# High freq. dielectric constant tensor:
#      x y z
#    x 1.620870 0.000000 -0.027100 
#    y 0.000000 1.697440 0.000000 
#    z -0.027100 0.000000 1.758520 
# 
# From -- ./inp_files/17351.got.cif
#   From: 2010.06.25/outbox.cif.g09.slc.cpg/sg15_9_cif.got.tgz:17351.got - 2010.06.28 07:06:18.
