data_PCOD8130615
_publ_section_title
;
Structure prediction by ZEFSAII (Michael W. Deem and Ramdas Pophale) SiO2 
 PCOD8130615
Probable space group: C 2/C
;
_chemical_formula_sum "Si O2"
_cell_formula_units_Z 60
_cell_length_a 14.335275
_cell_length_b 14.739433
_cell_length_c 20.334846
_cell_angle_alpha 90.000000
_cell_angle_beta 135.732297
_cell_angle_gamma 90.000000
_cell_volume 2999.096395
_symmetry_space_group_name_H-M "C 2/C"
_symmetry_group_IT_number 15
_symmetry_cell_setting 'monoclinic'
loop_
_space_group_symop_operation_xyz
x,y,z
-x,y,1/2-z
-x,-y,-z
x,-y,1/2+z
1/2+x,1/2+y,z
1/2-x,1/2+y,1/2-z
1/2-x,1/2-y,-z
1/2+x,1/2-y,1/2+z
loop_
_atom_site_type_symbol
_atom_site_label
_atom_site_fract_x
_atom_site_fract_y
_atom_site_fract_z
Si Si1 0.948391 0.299182 0.296811
Si Si2 0.027545 0.650902 0.402365
Si Si3 0.246807 0.117918 0.880874
Si Si4 0.637162 0.319196 0.964463
Si Si5 0.182357 0.748848 0.121725
Si Si6 0.244145 0.071669 0.412649
Si Si7 0.531650 0.047293 0.602217
Si Si8 0.500000 0.752462 0.750000
O O1 0.787768 0.301997 0.219714
O O2 0.005088 0.394892 0.351492
O O3 0.000000 0.284349 0.250000
O O4 0.995613 0.215522 0.365959
O O5 0.174383 0.642451 0.510717
O O6 0.947458 0.725954 0.402485
O O7 0.942675 0.556572 0.363311
O O8 0.032448 0.683722 0.329176
O O9 0.350665 0.104264 0.873375
O O10 0.133028 0.191350 0.806088
O O11 0.173346 0.019414 0.850353
O O12 0.679225 0.414434 0.952484
O O13 0.750000 0.250000 0.000000
O O14 0.632658 0.319635 0.040892
O O15 0.267534 0.661985 0.137216
O O16 0.402421 0.048060 0.489983
#
# Coordination Sequence:
#
# PCOD8130615 Si02
#       8
#     8   8   8   8   8   8   8   4
#     4  12  20  28  54  88 121 151 180 250 307 346
#     4  11  23  43  64  84 118 161 211 250 294 359
#     4  11  22  42  67  82 119 163 206 245 300 364
#     4  10  18  32  51  90 124 141 187 234 306 363
#     4  11  19  35  58  84 120 152 192 246 301 352
#     4  10  17  35  60  88 112 153 197 240 288 361
#     4  11  20  37  62  88 109 159 213 241 285 362
#     4  12  28  42  60  96 122 160 206 256 310 362
#
# _framework density 20.006025999999999
#
# number of rings (size 3 to 8) (size 9 to 14) (size 15 to 20)
#    0.000    1.067    8.000    2.000    0.933    1.067 
#    0.000    0.000    0.000    0.800    0.000    0.000 
#    0.000    0.000    0.000    0.000    0.000    0.000 
#
# Total GULP energy -371717.674340 kJ/mol
# GULP energy per Si atom -12390.589145 kJ/mol
# Density = 1.996049 g / cm^3
# Si number density = 20.006026 Si / 1000 Ang^3
#
#
#
# Elastic Constant Matrix: (Units=GPa)
#
#
# Indices 1 2 3 4 5 6 
#
# 1 67.9370 22.1018 21.6017 0.0000 -3.1820 0.0000
# 2 22.1018 65.4825 15.3547 0.0000 -2.9522 0.0000
# 3 21.6017 15.3547 86.2399 0.0000 -2.8911 0.0000
# 4 0.0000 0.0000 0.0000 22.7869 0.0000 -0.8999
# 5 -3.1820 -2.9522 -2.8911 0.0000 22.9173 0.0000
# 6 0.0000 0.0000 0.0000 -0.8999 0.0000 33.2138
#
#
#
# Elastic Compliance Matrix: (Units=1/GPa)
#
#
# Indices 1 2 3 4 5 6 
#
# 1 0.017519 -0.005045 -0.003445 0.000000 0.001348 0.000000
# 2 -0.005045 0.017456 -0.001800 0.000000 0.001321 0.000000
# 3 -0.003445 -0.001800 0.012809 0.000000 0.000906 0.000000
# 4 0.000000 0.000000 0.000000 0.043932 0.000000 0.001190
# 5 0.001348 0.001321 0.000906 0.000000 0.044107 0.000000
# 6 0.000000 0.000000 0.000000 0.001190 0.000000 0.030140
#
#
# Mechanical properties :
#
#
# Convention : Reuss Voigt Hill
#
# Bulk Modulus (GPa) = 36.75789 37.53064 37.14427
# Shear Modulus (GPa) = 25.56103 26.49034 26.02569
#
# Velocity S-wave (km/s) = 3.57832 3.64279 3.61070
# Velocity P-wave (km/s) = 5.95700 6.04100 5.99914
#
# Compressibility (1/GPa) = 0.02720504
#
# Stress axis : x y z
#
# Youngs Moduli (GPa) = 57.08034 57.28837 78.06821
#
# Poissons Ratio (x) = 0.28899 0.26894
# Poissons Ratio (y) = 0.28794 0.14053
# Poissons Ratio (z) = 0.19664 0.10312
#
# Static dielectric constant tensor:
#      x y z
#    x 3.661410 0.000000 -0.287200 
#    y 0.000000 3.833370 0.000000 
#    z -0.287200 0.000000 4.211780 
# 
# 
# High freq. dielectric constant tensor:
#      x y z
#    x 1.765840 0.000000 -0.007050 
#    y 0.000000 1.765200 0.000000 
#    z -0.007050 0.000000 1.777910 
# 
# From -- ./inp_files/244723.got.cif
#   From: 2010.06.25/outbox.cif.g09.slc.cpg/sg15_123_cif.got.tgz:244723.got - 2010.06.28 07:06:18.
