data_PCOD8130795
_publ_section_title
;
Structure prediction by ZEFSAII (Michael W. Deem and Ramdas Pophale) SiO2 
 PCOD8130795
Probable space group: C 2/C
;
_chemical_formula_sum "Si O2"
_cell_formula_units_Z 60
_cell_length_a 27.701548
_cell_length_b 14.883027
_cell_length_c 13.083179
_cell_angle_alpha 90.000000
_cell_angle_beta 145.128815
_cell_angle_gamma 90.000000
_cell_volume 3083.912908
_symmetry_space_group_name_H-M "C 2/C"
_symmetry_group_IT_number 15
_symmetry_cell_setting 'monoclinic'
loop_
_space_group_symop_operation_xyz
x,y,z
-x,y,1/2-z
-x,-y,-z
x,-y,1/2+z
1/2+x,1/2+y,z
1/2-x,1/2+y,1/2-z
1/2-x,1/2-y,-z
1/2+x,1/2-y,1/2+z
loop_
_atom_site_type_symbol
_atom_site_label
_atom_site_fract_x
_atom_site_fract_y
_atom_site_fract_z
Si Si1 0.315698 0.465463 0.433587
Si Si2 0.992011 0.096408 0.939064
Si Si3 0.368235 0.729947 0.291498
Si Si4 0.319310 0.640686 0.564530
Si Si5 0.277140 0.883646 0.040195
Si Si6 0.713809 0.067695 0.552021
Si Si7 0.500000 0.510264 0.750000
Si Si8 0.399659 0.790680 0.570351
O O1 0.302011 0.568204 0.445218
O O2 0.267813 0.399955 0.428582
O O3 0.283259 0.448522 0.262110
O O4 0.417364 0.447105 0.619991
O O5 0.894140 0.117748 0.773006
O O6 0.046548 0.174707 0.088029
O O7 0.022128 0.083319 0.875262
O O8 0.000000 0.000000 0.000000
O O9 0.355331 0.814494 0.192218
O O10 0.369866 0.769260 0.406447
O O11 0.290118 0.661890 0.151594
O O12 0.243008 0.638593 0.513864
O O13 0.344303 0.732846 0.553836
O O14 0.309763 0.973915 0.043403
O O15 0.627763 0.106900 0.451359
O O16 0.500000 0.778787 0.750000
#
# Coordination Sequence:
#
# PCOD8130795 Si02
#       8
#     8   8   8   8   8   8   4   8
#     4  10  19  35  56  89 123 161 195 249 309 365
#     4  11  19  32  56  90 119 152 184 241 305 359
#     4  11  20  38  62  88 124 156 202 253 308 371
#     4  10  21  34  59  87 122 149 202 252 304 359
#     4  10  22  37  60  90 117 166 203 247 305 369
#     4  11  22  39  59  87 124 161 208 250 301 363
#     4  10  18  28  52  86 118 144 190 236 294 364
#     4  12  23  40  62  88 117 166 208 253 301 364
#
# _framework density 19.455803
#
# number of rings (size 3 to 8) (size 9 to 14) (size 15 to 20)
#    0.000    1.333    2.667    6.800    0.933    0.000 
#    0.000    0.667    0.000    0.000    3.467    0.000 
#    0.000    0.000    0.000    0.000    0.000    0.000 
#
# Total GULP energy -371687.357944 kJ/mol
# GULP energy per Si atom -12389.578598 kJ/mol
# Density = 1.941152 g / cm^3
# Si number density = 19.455803 Si / 1000 Ang^3
#
#
#
# Elastic Constant Matrix: (Units=GPa)
#
#
# Indices 1 2 3 4 5 6 
#
# 1 74.5762 36.3561 22.6792 0.0000 -7.3277 0.0000
# 2 36.3561 93.3759 24.7489 0.0000 2.7452 0.0000
# 3 22.6792 24.7489 46.8361 0.0000 -14.3941 0.0000
# 4 0.0000 0.0000 0.0000 32.8052 0.0000 0.0559
# 5 -7.3277 2.7452 -14.3941 0.0000 23.0570 0.0000
# 6 0.0000 0.0000 0.0000 0.0559 0.0000 29.7770
#
#
#
# Elastic Compliance Matrix: (Units=1/GPa)
#
#
# Indices 1 2 3 4 5 6 
#
# 1 0.018022 -0.005940 -0.004467 0.000000 0.003646 0.000000
# 2 -0.005940 0.015372 -0.007906 0.000000 -0.008654 0.000000
# 3 -0.004467 -0.007906 0.034084 0.000000 0.020800 0.000000
# 4 0.000000 0.000000 0.000000 0.030483 0.000000 -0.000057
# 5 0.003646 -0.008654 0.020800 0.000000 0.058545 0.000000
# 6 0.000000 0.000000 0.000000 -0.000057 0.000000 0.033583
#
#
# Mechanical properties :
#
#
# Convention : Reuss Voigt Hill
#
# Bulk Modulus (GPa) = 32.41347 42.48407 37.44877
# Shear Modulus (GPa) = 21.09713 25.86144 23.47929
#
# Velocity S-wave (km/s) = 3.29654 3.64983 3.47767
# Velocity P-wave (km/s) = 5.58442 6.29645 5.95109
#
# Compressibility (1/GPa) = 0.03085137
#
# Stress axis : x y z
#
# Youngs Moduli (GPa) = 55.48900 65.05351 29.33903
#
# Poissons Ratio (x) = 0.38641 0.13107
# Poissons Ratio (y) = 0.32960 0.23195
# Poissons Ratio (z) = 0.24789 0.51431
#
# Static dielectric constant tensor:
#      x y z
#    x 3.459300 0.000000 -0.071990 
#    y 0.000000 3.615980 0.000000 
#    z -0.071990 0.000000 3.683460 
# 
# 
# High freq. dielectric constant tensor:
#      x y z
#    x 1.750310 0.000000 -0.018260 
#    y 0.000000 1.755060 0.000000 
#    z -0.018260 0.000000 1.752710 
# 
# From -- ./inp_files/182338.got.cif
#   From: 2010.06.25/outbox.cif.g09.slc.cpg/sg15_92_cif.got.tgz:182338.got - 2010.06.28 07:06:18.
