data_PCOD8130786
_publ_section_title
;
Structure prediction by ZEFSAII (Michael W. Deem and Ramdas Pophale) SiO2 
 PCOD8130786
Probable space group: C 2/C
;
_chemical_formula_sum "Si O2"
_cell_formula_units_Z 60
_cell_length_a 12.102008
_cell_length_b 19.878070
_cell_length_c 31.040543
_cell_angle_alpha 90.000000
_cell_angle_beta 152.022443
_cell_angle_gamma 90.000000
_cell_volume 3503.080853
_symmetry_space_group_name_H-M "C 2/C"
_symmetry_group_IT_number 15
_symmetry_cell_setting 'monoclinic'
loop_
_space_group_symop_operation_xyz
x,y,z
-x,y,1/2-z
-x,-y,-z
x,-y,1/2+z
1/2+x,1/2+y,z
1/2-x,1/2+y,1/2-z
1/2-x,1/2-y,-z
1/2+x,1/2-y,1/2+z
loop_
_atom_site_type_symbol
_atom_site_label
_atom_site_fract_x
_atom_site_fract_y
_atom_site_fract_z
Si Si1 0.952514 0.085215 0.948952
Si Si2 0.784575 0.328714 0.511079
Si Si3 0.000000 0.529825 0.750000
Si Si4 0.661485 0.460051 0.691127
Si Si5 0.776743 0.103910 0.199346
Si Si6 0.295491 0.433509 0.085919
Si Si7 0.845562 0.943888 0.503903
Si Si8 0.426299 0.024782 0.909102
O O1 0.710632 0.076694 0.839271
O O2 0.900937 0.101104 0.981305
O O3 0.119694 0.021166 0.998609
O O4 0.100960 0.147871 0.983831
O O5 0.750000 0.250000 0.500000
O O6 0.710177 0.361026 0.439309
O O7 0.053148 0.348271 0.614734
O O8 0.917196 0.481544 0.760866
O O9 0.676481 0.403332 0.733360
O O10 0.547257 0.529976 0.668899
O O11 0.516382 0.425303 0.602254
O O12 0.000000 0.134855 0.250000
O O13 0.746978 0.027992 0.172400
O O14 0.220867 0.425311 0.110366
O O15 0.118043 0.484158 0.002070
O O16 0.571996 0.933039 0.423469
#
# Coordination Sequence:
#
# PCOD8130786 Si02
#       8
#     8   8   4   8   8   8   8   8
#     4  10  18  33  50  77 109 144 183 218 274 332
#     4  11  23  39  53  74 115 161 186 214 267 349
#     4  10  18  28  52  80 112 138 170 228 280 328
#     4  10  18  28  49  88 113 133 170 241 296 326
#     4  11  20  32  54  88 109 133 186 235 282 325
#     4   9  16  31  50  74 107 140 174 217 286 324
#     4   9  17  29  52  81 112 139 168 230 296 328
#     4   9  15  28  50  77 111 131 164 233 290 323
#
# _framework density 17.127780999999999
#
# number of rings (size 3 to 8) (size 9 to 14) (size 15 to 20)
#    0.000    2.133    6.667    0.800    5.600    0.000 
#    1.200    0.000    0.000    0.800    6.933    0.000 
#    0.000    0.000    0.000    0.000    0.000    0.000 
#
# Total GULP energy -371820.936351 kJ/mol
# GULP energy per Si atom -12394.031212 kJ/mol
# Density = 1.708880 g / cm^3
# Si number density = 17.127781 Si / 1000 Ang^3
#
#
#
# Elastic Constant Matrix: (Units=GPa)
#
#
# Indices 1 2 3 4 5 6 
#
# 1 166.4326 44.9289 47.4765 -0.0001 4.6796 0.0000
# 2 44.9289 72.0096 27.0926 -0.0015 -2.5099 -0.0006
# 3 47.4765 27.0926 69.5328 -0.0031 7.2958 -0.0017
# 4 -0.0001 -0.0015 -0.0031 11.5762 -0.0020 0.7108
# 5 4.6796 -2.5099 7.2958 -0.0020 30.7217 -0.0004
# 6 0.0000 -0.0006 -0.0017 0.7108 -0.0004 15.9124
#
#
#
# Elastic Compliance Matrix: (Units=1/GPa)
#
#
# Indices 1 2 3 4 5 6 
#
# 1 0.008162 -0.003559 -0.004129 -0.000002 -0.000554 -0.000001
# 2 -0.003559 0.018081 -0.004951 0.000002 0.003195 0.000000
# 3 -0.004129 -0.004951 0.019594 0.000004 -0.004429 0.000002
# 4 -0.000002 0.000002 0.000004 0.086622 0.000005 -0.003869
# 5 -0.000554 0.003195 -0.004429 0.000005 0.033947 0.000000
# 6 -0.000001 0.000000 0.000002 -0.003869 0.000000 0.063017
#
#
# Mechanical properties :
#
#
# Convention : Reuss Voigt Hill
#
# Bulk Modulus (GPa) = 48.63242 60.77456 54.70349
# Shear Modulus (GPa) = 19.11652 24.20718 21.66185
#
# Velocity S-wave (km/s) = 3.34445 3.76350 3.56015
# Velocity P-wave (km/s) = 6.58554 7.37871 6.99338
#
# Compressibility (1/GPa) = 0.02056242
#
# Stress axis : x y z
#
# Youngs Moduli (GPa) = 122.51294 55.30553 51.03545
#
# Poissons Ratio (x) = 0.19682 0.21070
# Poissons Ratio (y) = 0.43600 0.25265
# Poissons Ratio (z) = 0.50580 0.27379
#
# Static dielectric constant tensor:
#      x y z
#    x 3.952500 0.000000 0.000240 
#    y 0.000000 2.531980 0.000000 
#    z 0.000240 0.000000 3.250790 
# 
# 
# High freq. dielectric constant tensor:
#      x y z
#    x 1.692780 0.000000 0.007600 
#    y 0.000000 1.574340 0.000000 
#    z 0.007600 0.000000 1.663630 
# 
# From -- ./inp_files/147096.got.cif
#   From: 2010.06.25/outbox.cif.g09.slc.cpg/sg15_74_cif.got.tgz:147096.got - 2010.06.28 07:06:18.
