data_PCOD8130352
_publ_section_title
;
Structure prediction by ZEFSAII (Michael W. Deem and Ramdas Pophale) SiO2 
 PCOD8130352
Probable space group: C 2/C
;
_chemical_formula_sum "Si O2"
_cell_formula_units_Z 64
_cell_length_a 21.809926
_cell_length_b 18.836758
_cell_length_c 11.078623
_cell_angle_alpha 90.000000
_cell_angle_beta 54.525265
_cell_angle_gamma 90.000000
_cell_volume 3706.540101
_symmetry_space_group_name_H-M "C 2/C"
_symmetry_group_IT_number 15
_symmetry_cell_setting 'monoclinic'
loop_
_space_group_symop_operation_xyz
x,y,z
-x,y,1/2-z
-x,-y,-z
x,-y,1/2+z
1/2+x,1/2+y,z
1/2-x,1/2+y,1/2-z
1/2-x,1/2-y,-z
1/2+x,1/2-y,1/2+z
loop_
_atom_site_type_symbol
_atom_site_label
_atom_site_fract_x
_atom_site_fract_y
_atom_site_fract_z
Si Si1 0.913191 0.986931 0.827822
Si Si2 0.323026 0.737418 0.661179
Si Si3 0.332921 0.388765 0.316914
Si Si4 0.766488 0.135074 0.145943
Si Si5 0.776055 0.651449 0.899104
Si Si6 0.781487 0.977749 0.161176
Si Si7 0.855632 0.851126 0.767631
Si Si8 0.083632 0.274256 0.169872
O O1 0.904235 0.066277 0.783825
O O2 0.000000 0.971257 0.750000
O O3 0.883293 0.930214 0.764812
O O4 0.865553 0.980507 0.006355
O O5 0.357958 0.681023 0.716004
O O6 0.301295 0.810376 0.752597
O O7 0.249907 0.702749 0.680591
O O8 0.389556 0.750608 0.492239
O O9 0.282701 0.362559 0.485881
O O10 0.284309 0.442541 0.289728
O O11 0.839977 0.155590 0.142431
O O12 0.743360 0.055163 0.212771
O O13 0.770959 0.569658 0.865794
O O14 0.862203 0.665866 0.836055
O O15 0.723108 0.667516 0.074739
O O16 0.917726 0.794334 0.740129
O O17 0.000000 0.305381 0.250000
#
# Coordination Sequence:
#
# PCOD8130352 Si02
#       8
#     8   8   8   8   8   8   8   8
#     4  10  20  34  50  72 109 145 169 203 250 298
#     4  10  19  35  53  74 104 135 174 214 249 303
#     4  10  21  33  45  77 104 138 177 206 247 297
#     4  11  18  32  56  74 101 135 173 213 250 299
#     4   9  17  34  55  74 102 129 171 222 249 288
#     4   9  20  34  52  77 102 130 181 216 242 301
#     4  10  17  32  52  78 102 133 177 205 245 298
#     4  11  20  33  56  80 101 130 170 218 264 299
#
# _framework density 17.266776
#
# number of rings (size 3 to 8) (size 9 to 14) (size 15 to 20)
#    0.000    2.000    3.750    2.250    0.000    0.500 
#    4.500    0.000    0.000    0.750    0.000    0.875 
#    0.000    0.000    0.000    0.000    0.000    0.000 
#
# Total GULP energy -396739.120808 kJ/mol
# GULP energy per Si atom -12398.097525 kJ/mol
# Density = 1.722748 g / cm^3
# Si number density = 17.266776 Si / 1000 Ang^3
#
#
#
# Elastic Constant Matrix: (Units=GPa)
#
#
# Indices 1 2 3 4 5 6 
#
# 1 84.7536 32.7553 49.1244 0.0000 -5.5893 0.0000
# 2 32.7553 103.5626 41.0197 0.0000 -2.8937 0.0000
# 3 49.1244 41.0197 71.0216 0.0000 14.1661 0.0000
# 4 0.0000 0.0000 0.0000 20.9241 0.0000 6.6038
# 5 -5.5893 -2.8937 14.1661 0.0000 32.5476 0.0000
# 6 0.0000 0.0000 0.0000 6.6038 0.0000 26.3173
#
#
#
# Elastic Compliance Matrix: (Units=1/GPa)
#
#
# Indices 1 2 3 4 5 6 
#
# 1 0.023373 0.000417 -0.018852 0.000000 0.012256 0.000000
# 2 0.000417 0.013210 -0.008943 0.000000 0.005138 0.000000
# 3 -0.018852 -0.008943 0.036235 0.000000 -0.019804 0.000000
# 4 0.000000 0.000000 0.000000 0.051902 0.000000 -0.013024
# 5 0.012256 0.005138 -0.019804 0.000000 0.041905 0.000000
# 6 0.000000 0.000000 0.000000 -0.013024 0.000000 0.041266
#
#
# Mechanical properties :
#
#
# Convention : Reuss Voigt Hill
#
# Bulk Modulus (GPa) = 55.36542 56.12628 55.74585
# Shear Modulus (GPa) = 18.61031 25.05369 21.83200
#
# Velocity S-wave (km/s) = 3.28656 3.81330 3.55969
# Velocity P-wave (km/s) = 6.82175 7.20863 7.01786
#
# Compressibility (1/GPa) = 0.01806181
#
# Stress axis : x y z
#
# Youngs Moduli (GPa) = 42.78434 75.70104 27.59744
#
# Poissons Ratio (x) = -0.03157 0.52027
# Poissons Ratio (y) = -0.01784 0.24680
# Poissons Ratio (z) = 0.80658 0.67699
#
# Static dielectric constant tensor:
#      x y z
#    x 3.037670 0.000000 0.322070 
#    y 0.000000 3.403300 0.000000 
#    z 0.322070 0.000000 3.054070 
# 
# 
# High freq. dielectric constant tensor:
#      x y z
#    x 1.643100 0.000000 0.033760 
#    y 0.000000 1.676910 0.000000 
#    z 0.033760 0.000000 1.643750 
# 
# From -- ./inp_files/119237.got.cif
#   From: 2010.06.25/outbox.cif.g09.slc.cpg/sg15_60_cif.got.tgz:119237.got - 2010.06.28 07:06:18.
