data_PCOD8130335
_publ_section_title
;
Structure prediction by ZEFSAII (Michael W. Deem and Ramdas Pophale) SiO2 
 PCOD8130335
Probable space group: C 2/C
;
_chemical_formula_sum "Si O2"
_cell_formula_units_Z 52
_cell_length_a 9.263969
_cell_length_b 20.772637
_cell_length_c 15.137456
_cell_angle_alpha 90.000000
_cell_angle_beta 116.299828
_cell_angle_gamma 90.000000
_cell_volume 2611.475666
_symmetry_space_group_name_H-M "C 2/C"
_symmetry_group_IT_number 15
_symmetry_cell_setting 'monoclinic'
loop_
_space_group_symop_operation_xyz
x,y,z
-x,y,1/2-z
-x,-y,-z
x,-y,1/2+z
1/2+x,1/2+y,z
1/2-x,1/2+y,1/2-z
1/2-x,1/2-y,-z
1/2+x,1/2-y,1/2+z
loop_
_atom_site_type_symbol
_atom_site_label
_atom_site_fract_x
_atom_site_fract_y
_atom_site_fract_z
Si Si1 0.699764 0.127935 0.754004
Si Si2 0.619404 0.498843 0.449950
Si Si3 0.728221 0.129463 0.080201
Si Si4 0.500000 0.017288 0.750000
Si Si5 0.903128 0.696708 0.612863
Si Si6 0.500000 0.307826 0.750000
Si Si7 0.450818 0.050196 0.059895
Si Si8 0.500000 0.426874 0.250000
O O1 0.662583 0.060553 0.793950
O O2 0.545231 0.142808 0.649231
O O3 0.714538 0.182816 0.834145
O O4 0.855218 0.121648 0.734740
O O5 0.500000 0.500000 0.500000
O O6 0.694119 0.569662 0.452463
O O7 0.757165 0.445195 0.507708
O O8 0.529454 0.474288 0.339118
O O9 0.548779 0.115636 0.067899
O O10 0.840931 0.147929 0.194749
O O11 0.701660 0.190483 0.005543
O O12 0.486959 0.972193 0.829662
O O13 0.993472 0.764830 0.657645
O O14 0.500000 0.000000 0.000000
#
# Coordination Sequence:
#
# PCOD8130335 Si02
#       8
#     8   8   8   4   8   4   8   4
#     4   9  17  30  53  78 105 146 182 215 265 320
#     4  11  22  33  52  85 119 150 177 212 271 338
#     4  11  20  36  55  79 110 139 181 232 274 332
#     4  10  17  32  50  74 110 144 179 216 256 334
#     4   9  19  38  56  74 101 141 189 233 276 326
#     4  10  22  34  58  84  98 134 190 242 284 308
#     4  10  20  33  52  78 110 149 178 210 270 333
#     4  12  19  30  50  82 118 144 177 226 266 330
#
# _framework density 19.912113999999999
#
# number of rings (size 3 to 8) (size 9 to 14) (size 15 to 20)
#    0.000    2.154    0.000    9.231    0.000    1.231 
#    0.000    0.000    0.000   11.077    0.000   22.615 
#    0.000    0.000    0.000    0.000    0.000    0.000 
#
# Total GULP energy -322096.623497 kJ/mol
# GULP energy per Si atom -12388.331673 kJ/mol
# Density = 1.986679 g / cm^3
# Si number density = 19.912114 Si / 1000 Ang^3
#
#
#
# Elastic Constant Matrix: (Units=GPa)
#
#
# Indices 1 2 3 4 5 6 
#
# 1 146.7752 30.9875 40.5661 0.0000 2.6867 0.0000
# 2 30.9875 57.4706 26.3079 0.0000 6.1513 0.0000
# 3 40.5661 26.3079 131.3847 0.0000 4.0709 0.0000
# 4 0.0000 0.0000 0.0000 22.0895 0.0000 3.2933
# 5 2.6867 6.1513 4.0709 0.0000 31.6563 0.0000
# 6 0.0000 0.0000 0.0000 3.2933 0.0000 11.0568
#
#
#
# Elastic Compliance Matrix: (Units=1/GPa)
#
#
# Indices 1 2 3 4 5 6 
#
# 1 0.008051 -0.003550 -0.001782 0.000000 0.000236 0.000000
# 2 -0.003550 0.021059 -0.003015 0.000000 -0.003403 0.000000
# 3 -0.001782 -0.003015 0.008777 0.000000 -0.000392 0.000000
# 4 0.000000 0.000000 0.000000 0.047374 0.000000 -0.014111
# 5 0.000236 -0.003403 -0.000392 0.000000 0.032281 0.000000
# 6 0.000000 0.000000 0.000000 -0.014111 0.000000 0.094645
#
#
# Mechanical properties :
#
#
# Convention : Reuss Voigt Hill
#
# Bulk Modulus (GPa) = 47.18780 59.03927 53.11353
# Shear Modulus (GPa) = 21.19126 28.81180 25.00153
#
# Velocity S-wave (km/s) = 3.26581 3.80800 3.54728
# Velocity P-wave (km/s) = 6.16199 7.00349 6.59617
#
# Compressibility (1/GPa) = 0.02119192
#
# Stress axis : x y z
#
# Youngs Moduli (GPa) = 124.20885 47.48573 113.92946
#
# Poissons Ratio (x) = 0.16859 0.20304
# Poissons Ratio (y) = 0.44099 0.34351
# Poissons Ratio (z) = 0.22136 0.14317
#
# Static dielectric constant tensor:
#      x y z
#    x 3.787070 0.000000 0.221710 
#    y 0.000000 3.496000 0.000000 
#    z 0.221710 0.000000 3.766330 
# 
# 
# High freq. dielectric constant tensor:
#      x y z
#    x 1.756860 0.000000 0.010610 
#    y 0.000000 1.750830 0.000000 
#    z 0.010610 0.000000 1.790840 
# 
# From -- ./inp_files/137559.got.cif
#   From: 2010.06.25/outbox.cif.g09.slc.cpg/sg15_69_cif.got.tgz:137559.got - 2010.06.28 07:06:18.
