data_PCOD8130524
_publ_section_title
;
Structure prediction by ZEFSAII (Michael W. Deem and Ramdas Pophale) SiO2 
 PCOD8130524
Probable space group: C 2/C
;
_chemical_formula_sum "Si O2"
_cell_formula_units_Z 40
_cell_length_a 22.717326
_cell_length_b 7.013970
_cell_length_c 17.537729
_cell_angle_alpha 90.000000
_cell_angle_beta 49.664882
_cell_angle_gamma 90.000000
_cell_volume 2130.121108
_symmetry_space_group_name_H-M "C 2/C"
_symmetry_group_IT_number 15
_symmetry_cell_setting 'monoclinic'
loop_
_space_group_symop_operation_xyz
x,y,z
-x,y,1/2-z
-x,-y,-z
x,-y,1/2+z
1/2+x,1/2+y,z
1/2-x,1/2+y,1/2-z
1/2-x,1/2-y,-z
1/2+x,1/2-y,1/2+z
loop_
_atom_site_type_symbol
_atom_site_label
_atom_site_fract_x
_atom_site_fract_y
_atom_site_fract_z
Si Si1 0.772422 0.519373 0.276793
Si Si2 0.609239 0.011337 0.452909
Si Si3 0.251918 0.156181 0.580358
Si Si4 0.334632 0.625335 0.260460
Si Si5 0.482323 0.699514 0.052997
O O1 0.845917 0.565149 0.162108
O O2 0.759447 0.679711 0.349170
O O3 0.784693 0.319045 0.309209
O O4 0.803754 0.008361 0.212325
O O5 0.558964 0.194875 0.520702
O O6 0.667210 0.952940 0.472539
O O7 0.554727 0.830664 0.481764
O O8 0.250000 0.250000 0.500000
O O9 0.182198 0.002327 0.650062
O O10 0.425167 0.667680 0.173181
O O11 0.500000 0.500000 0.000000
#
# Coordination Sequence:
#
# PCOD8130524 Si02
#       5
#     8   8   8   8   8
#     4  10  17  34  56  81 115 145 194 243 290 347
#     4   9  20  33  54  88 112 146 200 242 290 357
#     4  11  22  35  56  86 120 156 194 247 300 353
#     4  10  19  33  58  84 110 152 194 245 292 353
#     4  10  18  31  58  85 110 144 195 245 294 343
#
# _framework density 18.778274
#
# number of rings (size 3 to 8) (size 9 to 14) (size 15 to 20)
#    0.000    2.000    6.000    1.200    2.800    0.800 
#    0.000    0.000    0.000   24.000    0.000    0.000 
#    0.000    0.000    0.000    0.000    0.000    0.000 
#
# Total GULP energy -247904.942550 kJ/mol
# GULP energy per Si atom -12395.247127 kJ/mol
# Density = 1.873553 g / cm^3
# Si number density = 18.778274 Si / 1000 Ang^3
#
#
#
# Elastic Constant Matrix: (Units=GPa)
#
#
# Indices 1 2 3 4 5 6 
#
# 1 79.8091 48.5000 58.0246 -0.0040 -7.5849 0.0016
# 2 48.5000 131.3773 61.4547 -0.0108 -12.8699 0.0068
# 3 58.0246 61.4547 97.5217 -0.0054 -6.5925 0.0002
# 4 -0.0040 -0.0108 -0.0054 40.2544 -0.0015 -11.6608
# 5 -7.5849 -12.8699 -6.5925 -0.0015 16.2541 -0.0026
# 6 0.0016 0.0068 0.0002 -11.6608 -0.0026 21.8316
#
#
#
# Elastic Compliance Matrix: (Units=1/GPa)
#
#
# Indices 1 2 3 4 5 6 
#
# 1 0.023086 -0.002606 -0.011829 0.000000 0.003912 0.000000
# 2 -0.002606 0.011678 -0.005414 0.000002 0.005834 -0.000002
# 3 -0.011829 -0.005414 0.020606 0.000001 -0.001449 0.000003
# 4 0.000000 0.000002 0.000001 0.029389 0.000007 0.015697
# 5 0.003912 0.005834 -0.001449 0.000007 0.067380 0.000010
# 6 0.000000 -0.000002 0.000003 0.015697 0.000010 0.054190
#
#
# Mechanical properties :
#
#
# Convention : Reuss Voigt Hill
#
# Bulk Modulus (GPa) = 63.81072 71.62964 67.72018
# Shear Modulus (GPa) = 19.90047 25.04993 22.47520
#
# Velocity S-wave (km/s) = 3.25893 3.65634 3.46334
# Velocity P-wave (km/s) = 6.94375 7.48684 7.22041
#
# Compressibility (1/GPa) = 0.01567135
#
# Stress axis : x y z
#
# Youngs Moduli (GPa) = 43.31719 85.63305 48.52925
#
# Poissons Ratio (x) = 0.22315 0.57406
# Poissons Ratio (y) = 0.11288 0.26274
# Poissons Ratio (z) = 0.51241 0.46362
#
# Static dielectric constant tensor:
#      x y z
#    x 3.307360 -0.000080 -0.509280 
#    y -0.000080 4.147600 -0.000230 
#    z -0.509280 -0.000230 2.711000 
# 
# 
# High freq. dielectric constant tensor:
#      x y z
#    x 1.695260 0.000000 -0.037370 
#    y 0.000000 1.757620 0.000000 
#    z -0.037370 0.000000 1.702270 
# 
# From -- ./inp_files/220622.got.cif
#   From: 2010.06.25/outbox.cif.g09.slc.cpg/sg15_111_cif.got.tgz:220622.got - 2010.06.28 07:06:18.
