data_PCOD8130634
_publ_section_title
;
Structure prediction by ZEFSAII (Michael W. Deem and Ramdas Pophale) SiO2 
 PCOD8130634
Probable space group: C 2/C
;
_chemical_formula_sum "Si O2"
_cell_formula_units_Z 48
_cell_length_a 16.483484
_cell_length_b 8.881968
_cell_length_c 12.668482
_cell_angle_alpha 90.000000
_cell_angle_beta 97.544735
_cell_angle_gamma 90.000000
_cell_volume 1838.681828
_symmetry_space_group_name_H-M "C 2/C"
_symmetry_group_IT_number 15
_symmetry_cell_setting 'monoclinic'
loop_
_space_group_symop_operation_xyz
x,y,z
-x,y,1/2-z
-x,-y,-z
x,-y,1/2+z
1/2+x,1/2+y,z
1/2-x,1/2+y,1/2-z
1/2-x,1/2-y,-z
1/2+x,1/2-y,1/2+z
loop_
_atom_site_type_symbol
_atom_site_label
_atom_site_fract_x
_atom_site_fract_y
_atom_site_fract_z
Si Si1 0.274593 0.808802 0.387634
Si Si2 0.534552 0.320702 0.153099
Si Si3 0.591659 0.956569 0.534926
Si Si4 0.371224 0.510122 0.589171
Si Si5 0.816329 0.997206 0.338585
Si Si6 0.189504 0.702846 0.895976
O O1 0.250000 0.750000 0.500000
O O2 0.288810 0.668834 0.308976
O O3 0.356464 0.913300 0.397904
O O4 0.194033 0.906241 0.342134
O O5 0.500000 0.234571 0.250000
O O6 0.587171 0.204726 0.093365
O O7 0.457823 0.406062 0.086306
O O8 0.598108 0.450058 0.203666
O O9 0.632618 0.932186 0.428492
O O10 0.500000 0.000000 0.500000
O O11 0.335297 0.495671 0.466859
O O12 0.369836 0.343965 0.643600
O O13 0.741431 0.874800 0.308350
O O14 0.250000 0.750000 0.000000
#
# Coordination Sequence:
#
# PCOD8130634 Si02
#       6
#     8   8   8   8   8   8
#     4  10  18  34  61  97 119 143 211 266 301 349
#     4  12  26  41  57  90 135 168 199 251 322 375
#     4  12  22  36  65  97 122 162 207 267 306 364
#     4  10  19  36  62  87 116 160 207 253 293 365
#     4  10  19  37  64  93 120 154 206 258 300 368
#     4  10  17  35  63  93 116 150 212 257 304 346
#
# _framework density 26.105657999999998
#
# number of rings (size 3 to 8) (size 9 to 14) (size 15 to 20)
#    0.000    1.333    8.333    2.500    2.333    0.000 
#    0.000    4.167    0.000    0.000    0.000    0.000 
#    0.000    0.000    0.000    0.000    0.000    0.000 
#
# Total GULP energy -297377.287459 kJ/mol
# GULP energy per Si atom -12390.720311 kJ/mol
# Density = 2.604624 g / cm^3
# Si number density = 26.105658 Si / 1000 Ang^3
#
#
#
# Elastic Constant Matrix: (Units=GPa)
#
#
# Indices 1 2 3 4 5 6 
#
# 1 174.6729 71.3975 14.1500 0.0000 -0.8077 0.0000
# 2 71.3975 173.8061 1.6332 0.0000 7.8210 0.0000
# 3 14.1500 1.6332 24.9612 0.0000 -12.0432 0.0000
# 4 0.0000 0.0000 0.0000 29.0275 0.0000 -4.1100
# 5 -0.8077 7.8210 -12.0432 0.0000 49.2806 0.0000
# 6 0.0000 0.0000 0.0000 -4.1100 0.0000 69.1415
#
#
#
# Elastic Compliance Matrix: (Units=1/GPa)
#
#
# Indices 1 2 3 4 5 6 
#
# 1 0.007251 -0.002921 -0.004125 0.000000 -0.000426 0.000000
# 2 -0.002921 0.006991 0.000725 0.000000 -0.000980 0.000000
# 3 -0.004125 0.000725 0.047914 0.000000 0.011527 0.000000
# 4 0.000000 0.000000 0.000000 0.034742 0.000000 0.002065
# 5 -0.000426 -0.000980 0.011527 0.000000 0.023257 0.000000
# 6 0.000000 0.000000 0.000000 0.002065 0.000000 0.014586
#
#
# Mechanical properties :
#
#
# Convention : Reuss Voigt Hill
#
# Bulk Modulus (GPa) = 20.19555 60.86685 40.53120
# Shear Modulus (GPa) = 30.50891 48.57390 39.54140
#
# Velocity S-wave (km/s) = 3.42229 4.31822 3.89610
# Velocity P-wave (km/s) = 4.83415 6.94470 5.98322
#
# Compressibility (1/GPa) = 0.04951586
#
# Stress axis : x y z
#
# Youngs Moduli (GPa) = 137.91222 143.04900 20.87067
#
# Poissons Ratio (x) = 0.41780 0.08608
# Poissons Ratio (y) = 0.40280 -0.01514
# Poissons Ratio (z) = 0.56884 -0.10377
#
# Static dielectric constant tensor:
#      x y z
#    x 4.915240 0.000000 -0.120350 
#    y 0.000000 6.063320 0.000000 
#    z -0.120350 0.000000 4.603670 
# 
# 
# High freq. dielectric constant tensor:
#      x y z
#    x 2.056490 0.000000 -0.021940 
#    y 0.000000 2.059720 0.000000 
#    z -0.021940 0.000000 2.062700 
# 
# From -- ./inp_files/203008.got.cif
#   From: 2010.06.25/outbox.cif.g09.slc.cpg/sg15_102_cif.got.tgz:203008.got - 2010.06.28 07:06:18.
