data_PCOD8130529
_publ_section_title
;
Structure prediction by ZEFSAII (Michael W. Deem and Ramdas Pophale) SiO2 
 PCOD8130529
Probable space group: C 2/C
;
_chemical_formula_sum "Si O2"
_cell_formula_units_Z 56
_cell_length_a 14.416130
_cell_length_b 13.231363
_cell_length_c 27.838233
_cell_angle_alpha 90.000000
_cell_angle_beta 30.512069
_cell_angle_gamma 90.000000
_cell_volume 2695.994995
_symmetry_space_group_name_H-M "C 2/C"
_symmetry_group_IT_number 15
_symmetry_cell_setting 'monoclinic'
loop_
_space_group_symop_operation_xyz
x,y,z
-x,y,1/2-z
-x,-y,-z
x,-y,1/2+z
1/2+x,1/2+y,z
1/2-x,1/2+y,1/2-z
1/2-x,1/2-y,-z
1/2+x,1/2-y,1/2+z
loop_
_atom_site_type_symbol
_atom_site_label
_atom_site_fract_x
_atom_site_fract_y
_atom_site_fract_z
Si Si1 0.318699 0.180154 0.587992
Si Si2 0.857498 0.767201 0.665182
Si Si3 0.239429 0.135084 0.797930
Si Si4 0.108794 0.953287 0.794941
Si Si5 0.543499 0.841201 0.899485
Si Si6 0.061272 0.340319 0.653333
Si Si7 0.500000 0.462836 0.250000
Si Si8 0.500000 0.982276 0.250000
O O1 0.436757 0.230280 0.578704
O O2 0.454778 0.126257 0.489699
O O3 0.204673 0.263609 0.610844
O O4 0.183321 0.102092 0.674263
O O5 0.878100 0.680507 0.696319
O O6 0.966499 0.864512 0.636698
O O7 0.644495 0.796696 0.750696
O O8 0.110991 0.225114 0.874499
O O9 0.344100 0.088506 0.796844
O O10 0.121985 0.050627 0.822928
O O11 0.297097 0.918757 0.685694
O O12 0.973187 0.972525 0.810735
O O13 0.394235 0.852096 0.923180
O O14 0.081705 0.447048 0.671472
#
# Coordination Sequence:
#
# PCOD8130529 Si02
#       8
#     8   8   8   8   8   8   4   4
#     4  12  19  37  60  88 114 160 199 243 296 337
#     4  10  19  35  58  77 122 152 193 240 285 347
#     4  10  19  37  58  86 113 159 195 236 297 351
#     4  10  20  39  58  88 116 155 200 239 290 354
#     4  10  24  35  56  90 128 144 194 256 289 342
#     4  10  17  34  56  86 108 152 196 248 274 341
#     4  12  21  35  68  82 114 164 196 234 302 352
#     4  12  17  33  68  78 114 156 208 222 294 362
#
# _framework density 20.771552
#
# number of rings (size 3 to 8) (size 9 to 14) (size 15 to 20)
#    0.000    1.714    7.143    1.286    0.000    2.857 
#    0.000    4.286    0.000    1.714    0.000    0.000 
#    0.000    0.000    0.000    0.000    0.000    0.000 
#
# Total GULP energy -347003.270602 kJ/mol
# GULP energy per Si atom -12392.973950 kJ/mol
# Density = 2.072428 g / cm^3
# Si number density = 20.771552 Si / 1000 Ang^3
#
#
#
# Elastic Constant Matrix: (Units=GPa)
#
#
# Indices 1 2 3 4 5 6 
#
# 1 137.2896 31.8816 12.2452 -0.0012 20.6237 -0.0009
# 2 31.8816 75.5809 3.9155 -0.0040 2.0369 -0.0020
# 3 12.2452 3.9155 48.8130 -0.0155 24.5905 -0.0071
# 4 -0.0012 -0.0040 -0.0155 7.5322 -0.0059 6.3071
# 5 20.6237 2.0369 24.5905 -0.0059 31.7651 0.0005
# 6 -0.0009 -0.0020 -0.0071 6.3071 0.0005 51.5922
#
#
#
# Elastic Compliance Matrix: (Units=1/GPa)
#
#
# Indices 1 2 3 4 5 6 
#
# 1 0.009026 -0.003700 0.001418 -0.000004 -0.006721 0.000001
# 2 -0.003700 0.014803 -0.001625 0.000007 0.002711 -0.000001
# 3 0.001418 -0.001625 0.033888 0.000048 -0.027051 -0.000001
# 4 -0.000004 0.000007 0.000048 0.147904 -0.000008 -0.018081
# 5 -0.006721 0.002711 -0.027051 -0.000008 0.056612 -0.000003
# 6 0.000001 -0.000001 -0.000001 -0.018081 -0.000003 0.021593
#
#
# Mechanical properties :
#
#
# Convention : Reuss Voigt Hill
#
# Bulk Modulus (GPa) = 20.03830 39.75204 29.89517
# Shear Modulus (GPa) = 16.21935 32.42063 24.31999
#
# Velocity S-wave (km/s) = 2.79739 3.95501 3.42545
# Velocity P-wave (km/s) = 4.48350 6.32735 5.48348
#
# Compressibility (1/GPa) = 0.04990443
#
# Stress axis : x y z
#
# Youngs Moduli (GPa) = 110.78889 67.55560 29.50873
#
# Poissons Ratio (x) = 0.24994 -0.04185
# Poissons Ratio (y) = 0.40989 0.04795
# Poissons Ratio (z) = -0.15713 0.10977
#
# Static dielectric constant tensor:
#      x y z
#    x 4.232130 0.000000 0.456190 
#    y 0.000000 3.927720 0.000000 
#    z 0.456190 0.000000 3.332480 
# 
# 
# High freq. dielectric constant tensor:
#      x y z
#    x 1.832590 0.000000 0.030740 
#    y 0.000000 1.820450 0.000000 
#    z 0.030740 0.000000 1.749770 
# 
# From -- ./inp_files/313744.got.cif
#   From: 2010.06.25/outbox.cif.g09.slc.cpg/sg15_157_cif.got.tgz:313744.got - 2010.06.28 07:06:18.
