data_PCOD8130068
_publ_section_title
;
Structure prediction by ZEFSAII (Michael W. Deem and Ramdas Pophale) SiO2 
 PCOD8130068
Probable space group: C 2/C
;
_chemical_formula_sum "Si O2"
_cell_formula_units_Z 52
_cell_length_a 18.566530
_cell_length_b 17.388004
_cell_length_c 8.555535
_cell_angle_alpha 90.000000
_cell_angle_beta 107.293174
_cell_angle_gamma 90.000000
_cell_volume 2637.171288
_symmetry_space_group_name_H-M "C 2/C"
_symmetry_group_IT_number 15
_symmetry_cell_setting 'monoclinic'
loop_
_space_group_symop_operation_xyz
x,y,z
-x,y,1/2-z
-x,-y,-z
x,-y,1/2+z
1/2+x,1/2+y,z
1/2-x,1/2+y,1/2-z
1/2-x,1/2-y,-z
1/2+x,1/2-y,1/2+z
loop_
_atom_site_type_symbol
_atom_site_label
_atom_site_fract_x
_atom_site_fract_y
_atom_site_fract_z
Si Si1 0.615500 0.847445 0.385484
Si Si2 0.500000 0.982058 0.250000
Si Si3 0.789213 0.536759 0.986076
Si Si4 0.500000 0.276769 0.750000
Si Si5 0.266412 0.596994 0.850450
Si Si6 0.933526 0.102178 0.997181
Si Si7 0.883498 0.574249 0.326081
Si Si8 0.000000 0.023825 0.750000
O O1 0.572785 0.929688 0.335249
O O2 0.572992 0.777258 0.275293
O O3 0.699008 0.848388 0.367764
O O4 0.616537 0.844349 0.577120
O O5 0.468601 0.040148 0.363976
O O6 0.738348 0.590955 0.841833
O O7 0.835417 0.486165 0.894032
O O8 0.737007 0.485483 0.065238
O O9 0.845558 0.587384 0.131165
O O10 0.510924 0.329603 0.909898
O O11 0.347482 0.632981 0.946924
O O12 0.953421 0.078807 0.834487
O O13 0.941522 0.028718 0.116014
#
# Coordination Sequence:
#
# PCOD8130068 Si02
#       8
#     8   4   8   4   8   8   8   4
#     4  10  21  33  51  78 116 153 194 220 266 326
#     4  11  16  29  51  74 115 156 192 228 261 316
#     4   9  17  29  45  84 114 133 180 232 280 315
#     4  10  24  40  54  78 112 156 194 220 266 340
#     4  10  18  32  55  83 114 145 179 233 279 327
#     4  10  20  39  65  86 110 137 178 236 289 338
#     4  10  17  27  47  73 112 150 184 227 263 311
#     4   9  20  39  67  94 103 130 178 238 301 336
#
# _framework density 19.718098000000001
#
# number of rings (size 3 to 8) (size 9 to 14) (size 15 to 20)
#    0.000    2.154    4.615    1.385    0.000    0.615 
#    0.000    3.846    0.000    1.846    0.000    0.000 
#    0.000    0.000    0.000    0.000    0.000    0.000 
#
# Total GULP energy -322124.695867 kJ/mol
# GULP energy per Si atom -12389.411379 kJ/mol
# Density = 1.967322 g / cm^3
# Si number density = 19.718098 Si / 1000 Ang^3
#
#
#
# Elastic Constant Matrix: (Units=GPa)
#
#
# Indices 1 2 3 4 5 6 
#
# 1 117.7241 39.6556 52.9055 0.0000 11.8584 0.0000
# 2 39.6556 69.3910 37.2948 0.0000 1.0519 0.0000
# 3 52.9055 37.2948 130.4640 0.0000 -0.1692 0.0000
# 4 0.0000 0.0000 0.0000 16.5113 0.0000 8.8979
# 5 11.8584 1.0519 -0.1692 0.0000 23.8682 0.0000
# 6 0.0000 0.0000 0.0000 8.8979 0.0000 17.7553
#
#
#
# Elastic Compliance Matrix: (Units=1/GPa)
#
#
# Indices 1 2 3 4 5 6 
#
# 1 0.012421 -0.005076 -0.003594 0.000000 -0.005973 0.000000
# 2 -0.005076 0.019117 -0.003404 0.000000 0.001656 0.000000
# 3 -0.003594 -0.003404 0.010098 0.000000 0.002007 0.000000
# 4 0.000000 0.000000 0.000000 0.082973 0.000000 -0.041581
# 5 -0.005973 0.001656 0.002007 0.000000 0.044805 0.000000
# 6 0.000000 0.000000 0.000000 -0.041581 0.000000 0.077159
#
#
# Mechanical properties :
#
#
# Convention : Reuss Voigt Hill
#
# Bulk Modulus (GPa) = 57.18354 64.14344 60.66349
# Shear Modulus (GPa) = 18.07992 24.14185 21.11088
#
# Velocity S-wave (km/s) = 3.03135 3.50287 3.27561
# Velocity P-wave (km/s) = 6.42772 6.99721 6.71850
#
# Compressibility (1/GPa) = 0.01748755
#
# Stress axis : x y z
#
# Youngs Moduli (GPa) = 80.50846 52.31053 99.03089
#
# Poissons Ratio (x) = 0.26555 0.35587
# Poissons Ratio (y) = 0.40870 0.33710
# Poissons Ratio (z) = 0.28931 0.17806
#
# Static dielectric constant tensor:
#      x y z
#    x 3.443400 0.000000 0.170990 
#    y 0.000000 3.240400 0.000000 
#    z 0.170990 0.000000 4.318320 
# 
# 
# High freq. dielectric constant tensor:
#      x y z
#    x 1.762440 0.000000 0.011370 
#    y 0.000000 1.711640 0.000000 
#    z 0.011370 0.000000 1.785950 
# 
# From -- ./inp_files/48626.got.cif
#   From: 2010.06.25/outbox.cif.g09.slc.cpg/sg15_25_cif.got.tgz:48626.got - 2010.06.28 07:06:18.
