data_PCOD8130393
_publ_section_title
;
Structure prediction by ZEFSAII (Michael W. Deem and Ramdas Pophale) SiO2 
 PCOD8130393
Probable space group: C 2/C
;
_chemical_formula_sum "Si O2"
_cell_formula_units_Z 32
_cell_length_a 5.876502
_cell_length_b 13.276693
_cell_length_c 17.005869
_cell_angle_alpha 90.000000
_cell_angle_beta 115.329324
_cell_angle_gamma 90.000000
_cell_volume 1199.252356
_symmetry_space_group_name_H-M "C 2/C"
_symmetry_group_IT_number 15
_symmetry_cell_setting 'monoclinic'
loop_
_space_group_symop_operation_xyz
x,y,z
-x,y,1/2-z
-x,-y,-z
x,-y,1/2+z
1/2+x,1/2+y,z
1/2-x,1/2+y,1/2-z
1/2-x,1/2-y,-z
1/2+x,1/2-y,1/2+z
loop_
_atom_site_type_symbol
_atom_site_label
_atom_site_fract_x
_atom_site_fract_y
_atom_site_fract_z
Si Si1 0.060923 0.451506 0.657439
Si Si2 0.579841 0.364886 0.674759
Si Si3 0.756664 0.842204 0.168024
Si Si4 0.794152 0.021760 0.535192
O O1 0.302387 0.373214 0.715096
O O2 0.145800 0.562375 0.699325
O O3 0.818711 0.416085 0.667562
O O4 0.974174 0.471789 0.552426
O O5 0.556187 0.250022 0.641090
O O6 0.339478 0.432628 0.608816
O O7 0.000000 0.801971 0.250000
O O8 0.825509 0.872283 0.087379
O O9 0.000000 0.000000 0.500000
#
# Coordination Sequence:
#
# PCOD8130393 Si02
#       4
#     8   8   8   8
#     4   8  15  32  52  73 104 139 168 213 258 304
#     4  10  18  32  55  78 103 139 173 212 262 306
#     4  10  17  32  56  74 103 143 171 210 262 305
#     4   8  15  32  54  71 107 137 170 214 256 302
#
# _framework density 26.683294
#
# number of rings (size 3 to 8) (size 9 to 14) (size 15 to 20)
#    1.500    1.500    2.500    0.000    0.000    1.000 
#    0.000    2.500    0.000    1.500    0.000    5.250 
#    0.000    0.000    0.000    0.000    0.000    0.000 
#
# Total GULP energy -198313.040807 kJ/mol
# GULP energy per Si atom -12394.565050 kJ/mol
# Density = 2.662256 g / cm^3
# Si number density = 26.683294 Si / 1000 Ang^3
#
#
#
# Elastic Constant Matrix: (Units=GPa)
#
#
# Indices 1 2 3 4 5 6 
#
# 1 179.5411 64.1514 99.5698 0.0000 6.3543 0.0000
# 2 64.1514 206.7030 54.4199 0.0000 4.0216 0.0000
# 3 99.5698 54.4199 199.1716 0.0000 -3.9446 0.0000
# 4 0.0000 0.0000 0.0000 21.8544 0.0000 -9.0902
# 5 6.3543 4.0216 -3.9446 0.0000 72.9776 0.0000
# 6 0.0000 0.0000 0.0000 -9.0902 0.0000 63.0721
#
#
#
# Elastic Compliance Matrix: (Units=1/GPa)
#
#
# Indices 1 2 3 4 5 6 
#
# 1 0.008203 -0.001558 -0.003692 0.000000 -0.000828 0.000000
# 2 -0.001558 0.005518 -0.000733 0.000000 -0.000208 0.000000
# 3 -0.003692 -0.000733 0.007081 0.000000 0.000745 0.000000
# 4 0.000000 0.000000 0.000000 0.048675 0.000000 0.007015
# 5 -0.000828 -0.000208 0.000745 0.000000 0.013827 0.000000
# 6 0.000000 0.000000 0.000000 0.007015 0.000000 0.016866
#
#
# Mechanical properties :
#
#
# Convention : Reuss Voigt Hill
#
# Bulk Modulus (GPa) = 113.15228 113.52200 113.33714
# Shear Modulus (GPa) = 43.44741 56.06579 49.75660
#
# Velocity S-wave (km/s) = 4.03955 4.58881 4.32291
# Velocity P-wave (km/s) = 8.01592 8.40909 8.21486
#
# Compressibility (1/GPa) = 0.00883765
#
# Stress axis : x y z
#
# Youngs Moduli (GPa) = 121.90747 181.21183 141.21614
#
# Poissons Ratio (x) = 0.28230 0.52131
# Poissons Ratio (y) = 0.18991 0.10353
# Poissons Ratio (z) = 0.45003 0.13285
#
# Static dielectric constant tensor:
#      x y z
#    x 5.856640 0.000000 -0.605350 
#    y 0.000000 4.574350 0.000000 
#    z -0.605350 0.000000 7.941070 
# 
# 
# High freq. dielectric constant tensor:
#      x y z
#    x 2.172660 0.000000 -0.007490 
#    y 0.000000 2.033070 0.000000 
#    z -0.007490 0.000000 2.132590 
# 
# From -- ./inp_files/131760.got.cif
#   From: 2010.06.25/outbox.cif.g09.slc.cpg/sg15_66_cif.got.tgz:131760.got - 2010.06.28 07:06:18.
