data_PCOD8130785
_publ_section_title
;
Structure prediction by ZEFSAII (Michael W. Deem and Ramdas Pophale) SiO2 
 PCOD8130785
Probable space group: C 2/C
;
_chemical_formula_sum "Si O2"
_cell_formula_units_Z 64
_cell_length_a 16.924701
_cell_length_b 18.777902
_cell_length_c 12.926567
_cell_angle_alpha 90.000000
_cell_angle_beta 116.271519
_cell_angle_gamma 90.000000
_cell_volume 3683.847334
_symmetry_space_group_name_H-M "C 2/C"
_symmetry_group_IT_number 15
_symmetry_cell_setting 'monoclinic'
loop_
_space_group_symop_operation_xyz
x,y,z
-x,y,1/2-z
-x,-y,-z
x,-y,1/2+z
1/2+x,1/2+y,z
1/2-x,1/2+y,1/2-z
1/2-x,1/2-y,-z
1/2+x,1/2-y,1/2+z
loop_
_atom_site_type_symbol
_atom_site_label
_atom_site_fract_x
_atom_site_fract_y
_atom_site_fract_z
Si Si1 0.971006 0.555307 0.846908
Si Si2 0.601129 0.704669 0.317115
Si Si3 0.069575 0.596400 0.100722
Si Si4 0.176176 0.338050 0.241323
Si Si5 0.503098 0.750504 0.630813
Si Si6 0.810404 0.239531 0.436770
Si Si7 0.750188 0.845507 0.719251
Si Si8 0.344761 0.706118 0.915318
O O1 0.969570 0.470749 0.861332
O O2 0.874123 0.588162 0.805449
O O3 0.000000 0.575010 0.750000
O O4 0.040584 0.592423 0.964374
O O5 0.500000 0.682183 0.250000
O O6 0.616781 0.780815 0.270280
O O7 0.659947 0.642756 0.294780
O O8 0.623515 0.707692 0.449933
O O9 0.029334 0.667126 0.128572
O O10 0.176689 0.592537 0.171163
O O11 0.197934 0.308532 0.140075
O O12 0.269945 0.354502 0.352629
O O13 0.500000 0.733950 0.750000
O O14 0.410694 0.729598 0.527897
O O15 0.573499 0.698608 0.616120
O O16 0.750000 0.250000 0.500000
O O17 0.775635 0.170442 0.353357
O O18 0.705398 0.778929 0.636880
#
# Coordination Sequence:
#
# PCOD8130785 Si02
#       8
#     8   8   8   8   8   8   8   8
#     4  11  23  34  55  73 104 140 176 207 251 301
#     4  10  18  28  49  78 104 127 160 206 265 305
#     4  10  22  38  48  76 103 140 175 208 249 303
#     4  10  19  31  47  75 102 134 168 208 250 307
#     4  11  19  32  52  72 108 137 169 212 252 308
#     4  10  18  31  48  73  99 138 171 205 261 306
#     4   9  19  31  48  69 103 132 165 210 254 304
#     4   9  18  29  47  74 100 133 165 203 261 302
#
# _framework density 17.373141
#
# number of rings (size 3 to 8) (size 9 to 14) (size 15 to 20)
#    0.000    2.250    1.250    6.000    7.000    0.000 
#    0.000    0.000    0.000    0.000    0.000    6.125 
#    0.000    0.000    0.000    0.000    0.000    0.000 
#
# Total GULP energy -396605.493925 kJ/mol
# GULP energy per Si atom -12393.921685 kJ/mol
# Density = 1.733360 g / cm^3
# Si number density = 17.373141 Si / 1000 Ang^3
#
#
#
# Elastic Constant Matrix: (Units=GPa)
#
#
# Indices 1 2 3 4 5 6 
#
# 1 137.7472 16.2255 63.9861 0.0000 5.4086 0.0000
# 2 16.2255 28.5011 19.5142 0.0000 3.7121 0.0000
# 3 63.9861 19.5142 141.0655 0.0000 -0.5222 0.0000
# 4 0.0000 0.0000 0.0000 12.5601 0.0000 4.8555
# 5 5.4086 3.7121 -0.5222 0.0000 45.6042 0.0000
# 6 0.0000 0.0000 0.0000 4.8555 0.0000 16.5990
#
#
#
# Elastic Compliance Matrix: (Units=1/GPa)
#
#
# Indices 1 2 3 4 5 6 
#
# 1 0.009420 -0.002552 -0.003923 0.000000 -0.000954 0.000000
# 2 -0.002552 0.039926 -0.004377 0.000000 -0.002997 0.000000
# 3 -0.003923 -0.004377 0.009477 0.000000 0.000930 0.000000
# 4 0.000000 0.000000 0.000000 0.089768 0.000000 -0.026259
# 5 -0.000954 -0.002997 0.000930 0.000000 0.022296 0.000000
# 6 0.000000 0.000000 0.000000 -0.026259 0.000000 0.067926
#
#
# Mechanical properties :
#
#
# Convention : Reuss Voigt Hill
#
# Bulk Modulus (GPa) = 26.94012 56.30727 41.62369
# Shear Modulus (GPa) = 18.32233 28.79189 23.55711
#
# Velocity S-wave (km/s) = 3.25104 4.07537 3.68632
# Velocity P-wave (km/s) = 5.44360 7.39092 6.49070
#
# Compressibility (1/GPa) = 0.03711937
#
# Stress axis : x y z
#
# Youngs Moduli (GPa) = 106.15381 25.04618 105.51413
#
# Poissons Ratio (x) = 0.06393 0.41398
# Poissons Ratio (y) = 0.27094 0.46179
# Poissons Ratio (z) = 0.41649 0.10962
#
# Static dielectric constant tensor:
#      x y z
#    x 3.660410 0.000000 0.454030 
#    y 0.000000 2.861140 0.000000 
#    z 0.454030 0.000000 3.369640 
# 
# 
# High freq. dielectric constant tensor:
#      x y z
#    x 1.686940 0.000000 0.003560 
#    y 0.000000 1.602240 0.000000 
#    z 0.003560 0.000000 1.695840 
# 
# From -- ./inp_files/107319.got.cif
#   From: 2010.06.25/outbox.cif.g09.slc.cpg/sg15_54_cif.got.tgz:107319.got - 2010.06.28 07:06:18.
