data_PCOD8130192
_publ_section_title
;
Structure prediction by ZEFSAII (Michael W. Deem and Ramdas Pophale) SiO2 
 PCOD8130192
Probable space group: C 2/C
;
_chemical_formula_sum "Si O2"
_cell_formula_units_Z 52
_cell_length_a 14.709087
_cell_length_b 15.221654
_cell_length_c 14.122258
_cell_angle_alpha 90.000000
_cell_angle_beta 112.816419
_cell_angle_gamma 90.000000
_cell_volume 2914.511835
_symmetry_space_group_name_H-M "C 2/C"
_symmetry_group_IT_number 15
_symmetry_cell_setting 'monoclinic'
loop_
_space_group_symop_operation_xyz
x,y,z
-x,y,1/2-z
-x,-y,-z
x,-y,1/2+z
1/2+x,1/2+y,z
1/2-x,1/2+y,1/2-z
1/2-x,1/2-y,-z
1/2+x,1/2-y,1/2+z
loop_
_atom_site_type_symbol
_atom_site_label
_atom_site_fract_x
_atom_site_fract_y
_atom_site_fract_z
Si Si1 0.248054 0.216723 0.365227
Si Si2 0.457783 0.603469 0.425314
Si Si3 0.176728 0.039280 0.282129
Si Si4 0.918210 0.257274 0.065424
Si Si5 0.847189 0.992262 0.508842
Si Si6 0.000000 0.388782 0.250000
Si Si7 0.209810 0.415784 0.306816
O O1 0.236250 0.131538 0.293606
O O2 0.164426 0.198631 0.412624
O O3 0.360228 0.210314 0.448861
O O4 0.226681 0.310097 0.306215
O O5 0.425644 0.555917 0.314328
O O6 0.480196 0.706349 0.417920
O O7 0.375723 0.588437 0.475281
O O8 0.564873 0.567125 0.497734
O O9 0.159095 0.005877 0.381270
O O10 0.235566 0.960151 0.258301
O O11 0.952555 0.335857 0.144531
O O12 0.747327 0.953569 0.422958
O O13 0.094029 0.442806 0.249629
#
# Coordination Sequence:
#
# PCOD8130192 Si02
#       7
#     8   8   8   8   8   4   8
#     4  10  18  32  50  74 107 130 170 219 256 294
#     4  10  18  29  50  80 109 131 164 204 260 320
#     4  11  20  32  55  78 105 141 170 207 268 314
#     4  10  17  30  52  77 102 131 168 218 261 298
#     4  10  19  31  49  80 110 132 159 213 266 313
#     4  10  20  32  54  74  96 138 186 218 250 298
#     4  10  21  35  52  78 104 133 176 223 254 302
#
# _framework density 17.841754000000002
#
# number of rings (size 3 to 8) (size 9 to 14) (size 15 to 20)
#    0.000    1.846    3.077    4.154    0.000    0.000 
#    0.000    3.077    0.000   10.154    0.000    0.000 
#    0.000    0.000    0.000    0.000    0.000    0.000 
#
# Total GULP energy -322135.348197 kJ/mol
# GULP energy per Si atom -12389.821085 kJ/mol
# Density = 1.780115 g / cm^3
# Si number density = 17.841754 Si / 1000 Ang^3
#
#
#
# Elastic Constant Matrix: (Units=GPa)
#
#
# Indices 1 2 3 4 5 6 
#
# 1 77.3956 34.6606 48.1434 0.0000 10.1896 0.0000
# 2 34.6606 70.7306 21.4292 0.0000 -7.2962 0.0000
# 3 48.1434 21.4292 92.1152 0.0000 2.8765 0.0000
# 4 0.0000 0.0000 0.0000 16.0022 0.0000 1.2759
# 5 10.1896 -7.2962 2.8765 0.0000 30.1242 0.0000
# 6 0.0000 0.0000 0.0000 1.2759 0.0000 30.6472
#
#
#
# Elastic Compliance Matrix: (Units=1/GPa)
#
#
# Indices 1 2 3 4 5 6 
#
# 1 0.025452 -0.010305 -0.010590 0.000000 -0.010094 0.000000
# 2 -0.010305 0.019888 0.000502 0.000000 0.008255 0.000000
# 3 -0.010590 0.000502 0.016207 0.000000 0.002156 0.000000
# 4 0.000000 0.000000 0.000000 0.062699 0.000000 -0.002610
# 5 -0.010094 0.008255 0.002156 0.000000 0.038404 0.000000
# 6 0.000000 0.000000 0.000000 -0.002610 0.000000 0.032738
#
#
# Mechanical properties :
#
#
# Convention : Reuss Voigt Hill
#
# Bulk Modulus (GPa) = 48.17073 49.85644 49.01359
# Shear Modulus (GPa) = 20.56821 24.42193 22.49507
#
# Velocity S-wave (km/s) = 3.39899 3.70375 3.55464
# Velocity P-wave (km/s) = 6.51626 6.80402 6.66170
#
# Compressibility (1/GPa) = 0.02075949
#
# Stress axis : x y z
#
# Youngs Moduli (GPa) = 39.28982 50.28246 61.70333
#
# Poissons Ratio (x) = 0.51817 0.65342
# Poissons Ratio (y) = 0.40489 -0.03095
# Poissons Ratio (z) = 0.41607 -0.02522
#
# Static dielectric constant tensor:
#      x y z
#    x 3.443340 0.000000 0.231430 
#    y 0.000000 3.267270 0.000000 
#    z 0.231430 0.000000 3.400290 
# 
# 
# High freq. dielectric constant tensor:
#      x y z
#    x 1.664010 0.000000 0.024620 
#    y 0.000000 1.667270 0.000000 
#    z 0.024620 0.000000 1.698760 
# 
# From -- ./inp_files/153359.got.cif
#   From: 2010.06.25/outbox.cif.g09.slc.cpg/sg15_77_cif.got.tgz:153359.got - 2010.06.28 07:06:18.
