data_PCOD8130275
_publ_section_title
;
Structure prediction by ZEFSAII (Michael W. Deem and Ramdas Pophale) SiO2 
 PCOD8130275
Probable space group: C 2/C
;
_chemical_formula_sum "Si O2"
_cell_formula_units_Z 56
_cell_length_a 9.218246
_cell_length_b 14.429907
_cell_length_c 30.626526
_cell_angle_alpha 90.000000
_cell_angle_beta 45.800728
_cell_angle_gamma 90.000000
_cell_volume 2920.652821
_symmetry_space_group_name_H-M "C 2/C"
_symmetry_group_IT_number 15
_symmetry_cell_setting 'monoclinic'
loop_
_space_group_symop_operation_xyz
x,y,z
-x,y,1/2-z
-x,-y,-z
x,-y,1/2+z
1/2+x,1/2+y,z
1/2-x,1/2+y,1/2-z
1/2-x,1/2-y,-z
1/2+x,1/2-y,1/2+z
loop_
_atom_site_type_symbol
_atom_site_label
_atom_site_fract_x
_atom_site_fract_y
_atom_site_fract_z
Si Si1 0.653459 0.454770 0.179245
Si Si2 0.562875 0.594841 0.603354
Si Si3 0.696813 0.276752 0.936165
Si Si4 0.129173 0.788532 0.424287
Si Si5 0.458090 0.891343 0.606447
Si Si6 0.515629 0.819635 0.087384
Si Si7 0.338547 0.025252 0.997633
O O1 0.500000 0.434509 0.250000
O O2 0.527612 0.441904 0.160138
O O3 0.753006 0.557217 0.165622
O O4 0.832412 0.380844 0.143818
O O5 0.745106 0.670001 0.564859
O O6 0.374467 0.644587 0.618120
O O7 0.621230 0.504286 0.562246
O O8 0.574389 0.274020 0.916045
O O9 0.903262 0.337251 0.886723
O O10 0.556630 0.316406 0.004653
O O11 0.108621 0.681425 0.416224
O O12 0.346551 0.796972 0.400503
O O13 0.609578 0.968002 0.556459
O O14 0.649366 0.868126 0.020525
O O15 0.500000 0.000000 0.000000
#
# Coordination Sequence:
#
# PCOD8130275 Si02
#       7
#     8   8   8   8   8   8   8
#     4  10  22  41  57  71  99 150 199 228 259 316
#     4  10  18  32  57  77 108 150 176 212 269 331
#     4  10  17  31  52  84 116 143 159 214 276 343
#     4  11  19  32  52  92 116 134 167 222 285 332
#     4  10  18  32  56  76 108 139 183 211 267 338
#     4  10  22  32  53  84 116 142 173 221 273 325
#     4  11  15  31  51  78 109 143 175 208 263 338
#
# _framework density 19.173795999999999
#
# number of rings (size 3 to 8) (size 9 to 14) (size 15 to 20)
#    0.000    1.714    7.143    1.286    0.000    0.571 
#    0.000    5.000    0.000    0.000    0.000    0.000 
#    0.000    0.000    0.000    0.000    0.000    0.000 
#
# Total GULP energy -346888.508446 kJ/mol
# GULP energy per Si atom -12388.875302 kJ/mol
# Density = 1.913016 g / cm^3
# Si number density = 19.173796 Si / 1000 Ang^3
#
#
#
# Elastic Constant Matrix: (Units=GPa)
#
#
# Indices 1 2 3 4 5 6 
#
# 1 154.9518 39.5228 30.7577 -0.0001 8.8613 0.0002
# 2 39.5228 49.3824 19.8585 -0.0001 2.7243 0.0002
# 3 30.7577 19.8585 92.6826 0.0002 8.8196 -0.0001
# 4 -0.0001 -0.0001 0.0002 14.1251 0.0000 -2.7730
# 5 8.8613 2.7243 8.8196 0.0000 14.5762 -0.0001
# 6 0.0002 0.0002 -0.0001 -2.7730 -0.0001 26.9458
#
#
#
# Elastic Compliance Matrix: (Units=1/GPa)
#
#
# Indices 1 2 3 4 5 6 
#
# 1 0.008429 -0.006090 -0.001181 0.000000 -0.003271 0.000000
# 2 -0.006090 0.026585 -0.003772 0.000000 0.001016 0.000000
# 3 -0.001181 -0.003772 0.012578 0.000000 -0.006188 0.000000
# 4 0.000000 0.000000 0.000000 0.072256 0.000000 0.007436
# 5 -0.003271 0.001016 -0.006188 0.000000 0.074148 0.000000
# 6 0.000000 0.000000 0.000000 0.007436 0.000000 0.037877
#
#
# Mechanical properties :
#
#
# Convention : Reuss Voigt Hill
#
# Bulk Modulus (GPa) = 39.20623 53.03276 46.11950
# Shear Modulus (GPa) = 19.05046 24.92126 21.98586
#
# Velocity S-wave (km/s) = 3.15551 3.60912 3.38991
# Velocity P-wave (km/s) = 5.81107 6.71467 6.27914
#
# Compressibility (1/GPa) = 0.02550615
#
# Stress axis : x y z
#
# Youngs Moduli (GPa) = 118.64464 37.61485 79.50143
#
# Poissons Ratio (x) = 0.22909 0.09388
# Poissons Ratio (y) = 0.72259 0.29986
# Poissons Ratio (z) = 0.14010 0.14187
#
# Static dielectric constant tensor:
#      x y z
#    x 3.650350 0.000000 0.052110 
#    y 0.000000 3.633040 0.000010 
#    z 0.052110 0.000010 2.814700 
# 
# 
# High freq. dielectric constant tensor:
#      x y z
#    x 1.750600 0.000000 0.006800 
#    y 0.000000 1.746090 0.000000 
#    z 0.006800 0.000000 1.680620 
# 
# From -- ./inp_files/307940.got.cif
#   From: 2010.06.25/outbox.cif.g09.slc.cpg/sg15_154_cif.got.tgz:307940.got - 2010.06.28 07:06:18.
