data_PCOD8130438
_publ_section_title
;
Structure prediction by ZEFSAII (Michael W. Deem and Ramdas Pophale) SiO2 
 PCOD8130438
Probable space group: C 2/C
;
_chemical_formula_sum "Si O2"
_cell_formula_units_Z 56
_cell_length_a 20.308477
_cell_length_b 28.216018
_cell_length_c 10.312036
_cell_angle_alpha 90.000000
_cell_angle_beta 34.791316
_cell_angle_gamma 90.000000
_cell_volume 3371.638264
_symmetry_space_group_name_H-M "C 2/C"
_symmetry_group_IT_number 15
_symmetry_cell_setting 'monoclinic'
loop_
_space_group_symop_operation_xyz
x,y,z
-x,y,1/2-z
-x,-y,-z
x,-y,1/2+z
1/2+x,1/2+y,z
1/2-x,1/2+y,1/2-z
1/2-x,1/2-y,-z
1/2+x,1/2-y,1/2+z
loop_
_atom_site_type_symbol
_atom_site_label
_atom_site_fract_x
_atom_site_fract_y
_atom_site_fract_z
Si Si1 0.444621 0.558544 0.205506
Si Si2 0.849147 0.145284 0.229141
Si Si3 0.406739 0.545828 0.786886
Si Si4 0.913164 0.292998 0.580968
Si Si5 0.278259 0.366433 0.560446
Si Si6 0.337482 0.212985 0.919975
Si Si7 0.952257 0.206180 0.684073
O O1 0.500000 0.574164 0.250000
O O2 0.361113 0.600725 0.302667
O O3 0.372629 0.509721 0.344114
O O4 0.540502 0.555023 0.939305
O O5 0.844043 0.129578 0.089433
O O6 0.726966 0.163424 0.474461
O O7 0.949184 0.185942 0.073368
O O8 0.500000 0.556511 0.750000
O O9 0.291641 0.579314 0.985692
O O10 0.850556 0.343381 0.719413
O O11 0.864225 0.272052 0.525083
O O12 0.894125 0.253937 0.722763
O O13 0.050458 0.298819 0.346244
O O14 0.351466 0.332505 0.348925
O O15 0.250000 0.250000 0.000000
O O16 0.000000 0.217796 0.750000
#
# Coordination Sequence:
#
# PCOD8130438 Si02
#       7
#     8   8   8   8   8   8   8
#     4  10  20  29  49  82 104 128 168 215 268 314
#     4  10  18  32  51  70 102 139 166 207 263 310
#     4  10  17  33  52  72 106 135 164 213 268 315
#     4  10  21  33  50  76  98 138 185 205 249 316
#     4  10  18  32  51  71  99 137 174 206 247 316
#     4  10  20  35  51  69 104 141 171 216 257 297
#     4  10  18  31  50  74 102 135 174 211 256 306
#
# _framework density 16.609135999999999
#
# number of rings (size 3 to 8) (size 9 to 14) (size 15 to 20)
#    0.000    2.000    4.286    0.857    0.000    1.143 
#    0.000    0.000    0.000    0.857    0.000    0.000 
#    0.000    0.000    0.000    0.000    0.000    0.000 
#
# Total GULP energy -346881.731550 kJ/mol
# GULP energy per Si atom -12388.633270 kJ/mol
# Density = 1.657133 g / cm^3
# Si number density = 16.609136 Si / 1000 Ang^3
#
#
#
# Elastic Constant Matrix: (Units=GPa)
#
#
# Indices 1 2 3 4 5 6 
#
# 1 65.0078 50.3968 40.0735 0.0000 -1.3988 0.0000
# 2 50.3968 120.2027 44.1749 0.0000 -3.2258 0.0000
# 3 40.0735 44.1749 81.6079 0.0000 -8.2293 0.0000
# 4 0.0000 0.0000 0.0000 30.3249 0.0000 11.1481
# 5 -1.3988 -3.2258 -8.2293 0.0000 23.1357 0.0000
# 6 0.0000 0.0000 0.0000 11.1481 0.0000 40.7395
#
#
#
# Elastic Compliance Matrix: (Units=1/GPa)
#
#
# Indices 1 2 3 4 5 6 
#
# 1 0.027367 -0.008123 -0.009324 0.000000 -0.002794 0.000000
# 2 -0.008123 0.012803 -0.002916 0.000000 0.000257 0.000000
# 3 -0.009324 -0.002916 0.018994 0.000000 0.005786 0.000000
# 4 0.000000 0.000000 0.000000 0.036665 0.000000 -0.010033
# 5 -0.002794 0.000257 0.005786 0.000000 0.045148 0.000000
# 6 0.000000 0.000000 0.000000 -0.010033 0.000000 0.027292
#
#
# Mechanical properties :
#
#
# Convention : Reuss Voigt Hill
#
# Bulk Modulus (GPa) = 54.22993 59.56765 56.89879
# Shear Modulus (GPa) = 23.24073 27.65158 25.44615
#
# Velocity S-wave (km/s) = 3.74475 4.08467 3.91840
# Velocity P-wave (km/s) = 7.17071 7.62813 7.40295
#
# Compressibility (1/GPa) = 0.01844000
#
# Stress axis : x y z
#
# Youngs Moduli (GPa) = 36.54029 78.10451 52.64835
#
# Poissons Ratio (x) = 0.63441 0.49087
# Poissons Ratio (y) = 0.29680 0.15353
# Poissons Ratio (z) = 0.34068 0.22776
#
# Static dielectric constant tensor:
#      x y z
#    x 2.701950 0.000000 0.395790 
#    y 0.000000 3.301440 0.000000 
#    z 0.395790 0.000000 3.067940 
# 
# 
# High freq. dielectric constant tensor:
#      x y z
#    x 1.621250 0.000000 0.018010 
#    y 0.000000 1.637350 0.000000 
#    z 0.018010 0.000000 1.631760 
# 
# From -- ./inp_files/52607.got.cif
#   From: 2010.06.25/outbox.cif.g09.slc.cpg/sg15_27_cif.got.tgz:52607.got - 2010.06.28 07:06:18.
