data_PCOD8130830
_publ_section_title
;
Structure prediction by ZEFSAII (Michael W. Deem and Ramdas Pophale) SiO2 
 PCOD8130830
Probable space group: C 2/C
;
_chemical_formula_sum "Si O2"
_cell_formula_units_Z 56
_cell_length_a 14.333958
_cell_length_b 22.447899
_cell_length_c 15.418458
_cell_angle_alpha 90.000000
_cell_angle_beta 139.063192
_cell_angle_gamma 90.000000
_cell_volume 3250.678811
_symmetry_space_group_name_H-M "C 2/C"
_symmetry_group_IT_number 15
_symmetry_cell_setting 'monoclinic'
loop_
_space_group_symop_operation_xyz
x,y,z
-x,y,1/2-z
-x,-y,-z
x,-y,1/2+z
1/2+x,1/2+y,z
1/2-x,1/2+y,1/2-z
1/2-x,1/2-y,-z
1/2+x,1/2-y,1/2+z
loop_
_atom_site_type_symbol
_atom_site_label
_atom_site_fract_x
_atom_site_fract_y
_atom_site_fract_z
Si Si1 0.239525 0.681449 0.015286
Si Si2 0.000000 0.624353 0.750000
Si Si3 0.206307 0.479571 0.097907
Si Si4 0.549363 0.071699 0.191649
Si Si5 0.000000 0.997761 0.250000
Si Si6 0.946167 0.091485 0.066949
Si Si7 0.260302 0.112459 0.314014
Si Si8 0.209930 0.456075 0.292190
O O1 0.362970 0.647308 0.049694
O O2 0.246381 0.667349 0.123218
O O3 0.250000 0.750000 0.000000
O O4 0.081705 0.664438 0.875850
O O5 0.108169 0.584380 0.775129
O O6 0.363014 0.457559 0.177714
O O7 0.208372 0.551408 0.110697
O O8 0.176857 0.446858 0.167804
O O9 0.085354 0.461789 0.945306
O O10 0.500000 0.098966 0.250000
O O11 0.616104 0.121408 0.172956
O O12 0.677572 0.024444 0.295797
O O13 0.054231 0.038341 0.365712
O O14 0.107767 0.109932 0.158123
O O15 0.870865 0.064446 0.927996
#
# Coordination Sequence:
#
# PCOD8130830 Si02
#       8
#     8   4   8   8   4   8   8   8
#     4  11  21  33  53  73 101 137 175 219 275 317
#     4  10  20  31  48  74 102 132 173 218 252 308
#     4  10  19  31  48  71 107 142 180 204 255 315
#     4  11  20  30  51  75 104 140 184 208 254 316
#     4  10  18  29  48  66 102 144 161 218 248 306
#     4  10  19  33  48  69 107 134 176 210 267 315
#     4  10  20  34  49  70 109 140 167 229 261 308
#     4  10  19  30  47  72 103 143 174 208 252 315
#
# _framework density 17.227170999999998
#
# number of rings (size 3 to 8) (size 9 to 14) (size 15 to 20)
#    0.000    1.714    3.571    4.286    2.000    6.286 
#    0.000    0.000    0.000    0.000    0.000    1.000 
#    8.571    0.000    0.000    0.000    0.000    0.000 
#
# Total GULP energy -347015.793703 kJ/mol
# GULP energy per Si atom -12393.421204 kJ/mol
# Density = 1.718796 g / cm^3
# Si number density = 17.227171 Si / 1000 Ang^3
#
#
#
# Elastic Constant Matrix: (Units=GPa)
#
#
# Indices 1 2 3 4 5 6 
#
# 1 94.9880 17.2632 28.6174 0.0000 -3.4046 0.0000
# 2 17.2632 50.0398 25.6567 0.0000 -3.4609 0.0000
# 3 28.6174 25.6567 94.5241 0.0000 0.9698 0.0000
# 4 0.0000 0.0000 0.0000 13.8352 0.0000 -4.3978
# 5 -3.4046 -3.4609 0.9698 0.0000 31.4965 0.0000
# 6 0.0000 0.0000 0.0000 -4.3978 0.0000 14.3118
#
#
#
# Elastic Compliance Matrix: (Units=1/GPa)
#
#
# Indices 1 2 3 4 5 6 
#
# 1 0.011910 -0.002530 -0.002930 0.000000 0.001100 0.000000
# 2 -0.002530 0.023992 -0.005772 0.000000 0.002541 0.000000
# 3 -0.002930 -0.005772 0.013047 0.000000 -0.001353 0.000000
# 4 0.000000 0.000000 0.000000 0.080103 0.000000 0.024614
# 5 0.001100 0.002541 -0.001353 0.000000 0.032189 0.000000
# 6 0.000000 0.000000 0.000000 0.024614 0.000000 0.077436
#
#
# Mechanical properties :
#
#
# Convention : Reuss Voigt Hill
#
# Bulk Modulus (GPa) = 37.75919 42.51408 40.13664
# Shear Modulus (GPa) = 18.52053 23.12969 20.82511
#
# Velocity S-wave (km/s) = 3.28239 3.66816 3.48063
# Velocity P-wave (km/s) = 6.02756 6.53243 6.28507
#
# Compressibility (1/GPa) = 0.02648362
#
# Stress axis : x y z
#
# Youngs Moduli (GPa) = 83.96519 41.68004 76.64558
#
# Poissons Ratio (x) = 0.10546 0.22458
# Poissons Ratio (y) = 0.21246 0.44242
# Poissons Ratio (z) = 0.24603 0.24059
#
# Static dielectric constant tensor:
#      x y z
#    x 3.434740 0.000000 0.573340 
#    y 0.000000 2.763840 0.000000 
#    z 0.573340 0.000000 3.659940 
# 
# 
# High freq. dielectric constant tensor:
#      x y z
#    x 1.670840 0.000000 0.011610 
#    y 0.000000 1.595740 0.000000 
#    z 0.011610 0.000000 1.685450 
# 
# From -- ./inp_files/156262.got.cif
#   From: 2010.06.25/outbox.cif.g09.slc.cpg/sg15_79_cif.got.tgz:156262.got - 2010.06.28 07:06:18.
