data_PCOD8130777
_publ_section_title
;
Structure prediction by ZEFSAII (Michael W. Deem and Ramdas Pophale) SiO2 
 PCOD8130777
Probable space group: C 2/C
;
_chemical_formula_sum "Si O2"
_cell_formula_units_Z 64
_cell_length_a 24.112505
_cell_length_b 16.624099
_cell_length_c 10.141102
_cell_angle_alpha 90.000000
_cell_angle_beta 81.636725
_cell_angle_gamma 90.000000
_cell_volume 4021.818583
_symmetry_space_group_name_H-M "C 2/C"
_symmetry_group_IT_number 15
_symmetry_cell_setting 'monoclinic'
loop_
_space_group_symop_operation_xyz
x,y,z
-x,y,1/2-z
-x,-y,-z
x,-y,1/2+z
1/2+x,1/2+y,z
1/2-x,1/2+y,1/2-z
1/2-x,1/2-y,-z
1/2+x,1/2-y,1/2+z
loop_
_atom_site_type_symbol
_atom_site_label
_atom_site_fract_x
_atom_site_fract_y
_atom_site_fract_z
Si Si1 0.226911 0.154083 0.869292
Si Si2 0.121112 0.400029 0.434564
Si Si3 0.663465 0.794751 0.014618
Si Si4 0.437537 0.838106 0.286899
Si Si5 0.321556 0.049031 0.133596
Si Si6 0.256069 0.164594 0.563403
Si Si7 0.536493 0.011707 0.117782
Si Si8 0.753444 0.484075 0.914824
O O1 0.178677 0.207875 0.950822
O O2 0.226702 0.167523 0.714141
O O3 0.212425 0.060432 0.905785
O O4 0.288627 0.177226 0.900101
O O5 0.086660 0.341114 0.352201
O O6 0.129403 0.484935 0.350467
O O7 0.178258 0.356402 0.454818
O O8 0.085210 0.422248 0.577004
O O9 0.658777 0.859302 0.896211
O O10 0.604033 0.784194 0.109293
O O11 0.500000 0.800635 0.250000
O O12 0.438404 0.925450 0.352959
O O13 0.276750 0.044713 0.265566
O O14 0.300095 0.014433 0.000950
O O15 0.250000 0.250000 0.500000
O O16 0.224331 0.095173 0.488142
O O17 0.500000 0.046821 0.250000
O O18 0.500000 0.000000 0.000000
#
# Coordination Sequence:
#
# PCOD8130777 Si02
#       8
#     8   8   8   8   8   8   8   8
#     4  10  19  34  47  74  98 134 177 217 259 327
#     4  11  19  33  49  67 107 137 186 221 255 309
#     4  10  19  31  51  69 102 135 173 211 267 306
#     4  11  20  33  49  70 103 144 180 224 257 316
#     4  10  18  28  47  69  93 140 171 205 258 302
#     4  11  22  34  50  76 107 140 184 224 273 319
#     4  11  21  32  48  74 103 141 191 223 253 309
#     4  10  18  32  49  68 101 135 170 211 260 320
#
# _framework density 15.9132
#
# number of rings (size 3 to 8) (size 9 to 14) (size 15 to 20)
#    0.000    1.500    7.500    1.500    1.750    0.000 
#    2.250    0.000    0.000    0.000    0.000    0.000 
#    0.000    5.000    0.000    0.000    0.000    0.000 
#
# Total GULP energy -396542.224283 kJ/mol
# GULP energy per Si atom -12391.944509 kJ/mol
# Density = 1.587698 g / cm^3
# Si number density = 15.913200 Si / 1000 Ang^3
#
#
#
# Elastic Constant Matrix: (Units=GPa)
#
#
# Indices 1 2 3 4 5 6 
#
# 1 72.3843 36.0843 33.9299 0.0000 -20.9824 0.0000
# 2 36.0843 110.5625 47.2766 0.0000 -14.0741 0.0000
# 3 33.9299 47.2766 101.5975 0.0000 -20.0011 0.0000
# 4 0.0000 0.0000 0.0000 21.8608 0.0000 -6.7109
# 5 -20.9824 -14.0741 -20.0011 0.0000 28.5938 0.0000
# 6 0.0000 0.0000 0.0000 -6.7109 0.0000 23.2482
#
#
#
# Elastic Compliance Matrix: (Units=1/GPa)
#
#
# Indices 1 2 3 4 5 6 
#
# 1 0.020305 -0.004061 -0.002727 0.000000 0.010993 0.000000
# 2 -0.004061 0.012222 -0.004330 0.000000 0.000007 0.000000
# 3 -0.002727 -0.004330 0.013864 0.000000 0.005565 0.000000
# 4 0.000000 0.000000 0.000000 0.050192 0.000000 0.014488
# 5 0.010993 0.000007 0.005565 0.000000 0.046936 0.000000
# 6 0.000000 0.000000 0.000000 0.014488 0.000000 0.047196
#
#
# Mechanical properties :
#
#
# Convention : Reuss Voigt Hill
#
# Bulk Modulus (GPa) = 41.39956 57.68065 49.54011
# Shear Modulus (GPa) = 22.62414 25.89080 24.25747
#
# Velocity S-wave (km/s) = 3.77466 4.03799 3.90854
# Velocity P-wave (km/s) = 6.71340 7.62012 7.18109
#
# Compressibility (1/GPa) = 0.02415484
#
# Stress axis : x y z
#
# Youngs Moduli (GPa) = 49.24963 81.81642 72.12988
#
# Poissons Ratio (x) = 0.33229 0.19669
# Poissons Ratio (y) = 0.20002 0.31230
# Poissons Ratio (z) = 0.13430 0.35424
#
# Static dielectric constant tensor:
#      x y z
#    x 2.886810 0.000000 0.027240 
#    y 0.000000 3.113140 0.000000 
#    z 0.027240 0.000000 3.411750 
# 
# 
# High freq. dielectric constant tensor:
#      x y z
#    x 1.571570 0.000000 -0.005000 
#    y 0.000000 1.586430 0.000000 
#    z -0.005000 0.000000 1.632050 
# 
# From -- ./inp_files/62494.got.cif
#   From: 2010.06.25/outbox.cif.g09.slc.cpg/sg15_32_cif.got.tgz:62494.got - 2010.06.28 07:06:18.
