data_PCOD8130832
_publ_section_title
;
Structure prediction by ZEFSAII (Michael W. Deem and Ramdas Pophale) SiO2 
 PCOD8130832
Probable space group: C 2/C
;
_chemical_formula_sum "Si O2"
_cell_formula_units_Z 56
_cell_length_a 22.145666
_cell_length_b 22.171909
_cell_length_c 12.982559
_cell_angle_alpha 90.000000
_cell_angle_beta 149.810642
_cell_angle_gamma 90.000000
_cell_volume 3205.521683
_symmetry_space_group_name_H-M "C 2/C"
_symmetry_group_IT_number 15
_symmetry_cell_setting 'monoclinic'
loop_
_space_group_symop_operation_xyz
x,y,z
-x,y,1/2-z
-x,-y,-z
x,-y,1/2+z
1/2+x,1/2+y,z
1/2-x,1/2+y,1/2-z
1/2-x,1/2-y,-z
1/2+x,1/2-y,1/2+z
loop_
_atom_site_type_symbol
_atom_site_label
_atom_site_fract_x
_atom_site_fract_y
_atom_site_fract_z
Si Si1 0.565265 0.070190 0.708642
Si Si2 0.701783 0.824857 0.519244
Si Si3 0.363295 0.312605 0.569402
Si Si4 0.786555 0.412373 0.799863
Si Si5 0.266727 0.987809 0.420285
Si Si6 0.364582 0.473684 0.073659
Si Si7 0.763855 0.417258 0.218519
O O1 0.423285 0.065334 0.491988
O O2 0.612635 0.073183 0.661702
O O3 0.600500 0.130964 0.822674
O O4 0.616174 0.010640 0.842551
O O5 0.652061 0.758548 0.463015
O O6 0.819954 0.829327 0.621245
O O7 0.730958 0.845937 0.678942
O O8 0.500000 0.330907 0.750000
O O9 0.283406 0.348837 0.367598
O O10 0.720346 0.457650 0.781181
O O11 0.720220 0.419371 0.593502
O O12 0.157918 0.973846 0.337350
O O13 0.289539 0.930479 0.377504
O O14 0.500000 0.456201 0.250000
O O15 0.334402 0.537850 0.976614
#
# Coordination Sequence:
#
# PCOD8130832 Si02
#       7
#     8   8   8   8   8   8   8
#     4   9  17  31  48  71  96 118 153 192 233 281
#     4   9  18  31  48  73  97 120 153 194 237 274
#     4  10  18  29  48  72  98 124 153 192 235 278
#     4  10  19  31  50  69  92 125 154 190 234 277
#     4   9  18  30  46  67  93 121 151 190 228 268
#     4  10  21  33  45  67  96 125 157 188 227 281
#     4   9  19  30  46  71  97 123 151 188 234 278
#
# _framework density 17.469856
#
# number of rings (size 3 to 8) (size 9 to 14) (size 15 to 20)
#    0.000    2.571    0.000    3.857    0.000    9.714 
#    0.000    0.000    0.000    0.857    0.000    4.000 
#    0.000    0.000    0.000    0.000    0.000    0.000 
#
# Total GULP energy -346976.952698 kJ/mol
# GULP energy per Si atom -12392.034025 kJ/mol
# Density = 1.743009 g / cm^3
# Si number density = 17.469856 Si / 1000 Ang^3
#
#
#
# Elastic Constant Matrix: (Units=GPa)
#
#
# Indices 1 2 3 4 5 6 
#
# 1 131.2181 37.9953 57.0623 0.0000 5.8310 0.0000
# 2 37.9953 73.4345 37.1698 0.0000 -2.1155 0.0000
# 3 57.0623 37.1698 67.2476 0.0000 7.5872 0.0000
# 4 0.0000 0.0000 0.0000 11.3395 0.0000 -3.0923
# 5 5.8310 -2.1155 7.5872 0.0000 19.4220 0.0000
# 6 0.0000 0.0000 0.0000 -3.0923 0.0000 27.0065
#
#
#
# Elastic Compliance Matrix: (Units=1/GPa)
#
#
# Indices 1 2 3 4 5 6 
#
# 1 0.012194 -0.001502 -0.009504 0.000000 -0.000112 0.000000
# 2 -0.001502 0.019891 -0.010477 0.000000 0.006710 0.000000
# 3 -0.009504 -0.010477 0.029849 0.000000 -0.009948 0.000000
# 4 0.000000 0.000000 0.000000 0.091029 0.000000 0.010423
# 5 -0.000112 0.006710 -0.009948 0.000000 0.056139 0.000000
# 6 0.000000 0.000000 0.000000 0.010423 0.000000 0.038222
#
#
# Mechanical properties :
#
#
# Convention : Reuss Voigt Hill
#
# Bulk Modulus (GPa) = 52.72293 59.59498 56.15896
# Shear Modulus (GPa) = 16.85705 20.86513 18.86109
#
# Velocity S-wave (km/s) = 3.10969 3.45969 3.28935
# Velocity P-wave (km/s) = 6.56799 7.08141 6.82952
#
# Compressibility (1/GPa) = 0.01896708
#
# Stress axis : x y z
#
# Youngs Moduli (GPa) = 82.00912 50.27389 33.50219
#
# Poissons Ratio (x) = 0.07549 0.31842
# Poissons Ratio (y) = 0.12314 0.35101
# Poissons Ratio (z) = 0.77944 0.52674
#
# Static dielectric constant tensor:
#      x y z
#    x 3.577110 0.000000 -0.082240 
#    y 0.000000 3.225060 0.000000 
#    z -0.082240 0.000000 2.986840 
# 
# 
# High freq. dielectric constant tensor:
#      x y z
#    x 1.694210 0.000000 0.009100 
#    y 0.000000 1.653040 0.000000 
#    z 0.009100 0.000000 1.641300 
# 
# From -- ./inp_files/114767.got.cif
#   From: 2010.06.25/outbox.cif.g09.slc.cpg/sg15_58_cif.got.tgz:114767.got - 2010.06.28 07:06:18.
