data_PCOD8130600
_publ_section_title
;
Structure prediction by ZEFSAII (Michael W. Deem and Ramdas Pophale) SiO2 
 PCOD8130600
Probable space group: C 2/C
;
_chemical_formula_sum "Si O2"
_cell_formula_units_Z 52
_cell_length_a 11.312949
_cell_length_b 14.299917
_cell_length_c 24.467971
_cell_angle_alpha 90.000000
_cell_angle_beta 135.413219
_cell_angle_gamma 90.000000
_cell_volume 2778.673127
_symmetry_space_group_name_H-M "C 2/C"
_symmetry_group_IT_number 15
_symmetry_cell_setting 'monoclinic'
loop_
_space_group_symop_operation_xyz
x,y,z
-x,y,1/2-z
-x,-y,-z
x,-y,1/2+z
1/2+x,1/2+y,z
1/2-x,1/2+y,1/2-z
1/2-x,1/2-y,-z
1/2+x,1/2-y,1/2+z
loop_
_atom_site_type_symbol
_atom_site_label
_atom_site_fract_x
_atom_site_fract_y
_atom_site_fract_z
Si Si1 0.363923 0.949982 0.418819
Si Si2 0.981626 0.080674 0.643586
Si Si3 0.969986 0.868243 0.828354
Si Si4 0.363522 0.745575 0.394315
Si Si5 0.567507 0.723248 0.961689
Si Si6 0.500000 0.297394 0.250000
Si Si7 0.269960 0.864474 0.846477
O O1 0.217490 0.920173 0.411979
O O2 0.424729 0.853909 0.410719
O O3 0.500000 0.000000 0.500000
O O4 0.303586 0.023848 0.353249
O O5 0.010518 0.133997 0.595674
O O6 0.064806 0.137362 0.721439
O O7 0.056892 0.976971 0.665365
O O8 0.964310 0.808792 0.881257
O O9 0.820359 0.834297 0.739162
O O10 0.148855 0.848442 0.858793
O O11 0.417905 0.699427 0.469553
O O12 0.160341 0.734780 0.320306
O O13 0.443040 0.810250 0.911504
O O14 0.750000 0.750000 0.000000
#
# Coordination Sequence:
#
# PCOD8130600 Si02
#       7
#     8   8   8   8   8   4   8
#     4  10  17  35  57  85 103 145 198 236 268 337
#     4  10  20  35  58  80 117 148 192 231 290 340
#     4  10  22  38  57  86 113 157 188 234 289 346
#     4  11  22  34  61  87 114 147 197 233 293 334
#     4  12  21  37  60  89 116 152 190 246 288 333
#     4  10  18  36  60  84 106 152 200 236 264 350
#     4  10  21  38  61  82 117 148 195 238 285 341
#
# _framework density 18.713968999999999
#
# number of rings (size 3 to 8) (size 9 to 14) (size 15 to 20)
#    0.000    1.538    4.615    3.692    0.000    1.231 
#    0.000    0.000    3.385    1.846    0.000    0.000 
#    0.000    0.000    0.000    0.000    0.000    0.000 
#
# Total GULP energy -322352.657823 kJ/mol
# GULP energy per Si atom -12398.179147 kJ/mol
# Density = 1.867137 g / cm^3
# Si number density = 18.713969 Si / 1000 Ang^3
#
#
#
# Elastic Constant Matrix: (Units=GPa)
#
#
# Indices 1 2 3 4 5 6 
#
# 1 75.6801 53.3189 49.9745 0.0000 -19.0039 0.0000
# 2 53.3189 94.8472 45.0665 0.0000 -18.7817 0.0000
# 3 49.9745 45.0665 112.7192 0.0000 -18.2391 0.0000
# 4 0.0000 0.0000 0.0000 28.5575 0.0000 -7.2965
# 5 -19.0039 -18.7817 -18.2391 0.0000 36.2162 0.0000
# 6 0.0000 0.0000 0.0000 -7.2965 0.0000 32.2284
#
#
#
# Elastic Compliance Matrix: (Units=1/GPa)
#
#
# Indices 1 2 3 4 5 6 
#
# 1 0.026356 -0.010696 -0.006607 0.000000 0.004956 0.000000
# 2 -0.010696 0.018065 -0.002039 0.000000 0.002729 0.000000
# 3 -0.006607 -0.002039 0.012938 0.000000 0.001992 0.000000
# 4 0.000000 0.000000 0.000000 0.037167 0.000000 0.008415
# 5 0.004956 0.002729 0.001992 0.000000 0.032631 0.000000
# 6 0.000000 0.000000 0.000000 0.008415 0.000000 0.032934
#
#
# Mechanical properties :
#
#
# Convention : Reuss Voigt Hill
#
# Bulk Modulus (GPa) = 53.54366 64.44071 58.99219
# Shear Modulus (GPa) = 24.39022 28.39286 26.39154
#
# Velocity S-wave (km/s) = 3.61406 3.89935 3.75942
# Velocity P-wave (km/s) = 6.78889 7.40153 7.10182
#
# Compressibility (1/GPa) = 0.01867635
#
# Stress axis : x y z
#
# Youngs Moduli (GPa) = 37.94170 55.35494 77.28960
#
# Poissons Ratio (x) = 0.59206 0.51065
# Poissons Ratio (y) = 0.40581 0.15760
# Poissons Ratio (z) = 0.25068 0.11287
#
# Static dielectric constant tensor:
#      x y z
#    x 3.188480 0.000000 -0.052340 
#    y 0.000000 3.652870 0.000000 
#    z -0.052340 0.000000 3.660980 
# 
# 
# High freq. dielectric constant tensor:
#      x y z
#    x 1.695850 0.000000 0.002980 
#    y 0.000000 1.719250 0.000000 
#    z 0.002980 0.000000 1.747680 
# 
# From -- ./inp_files/238082.got.cif
#   From: 2010.06.25/outbox.cif.g09.slc.cpg/sg15_120_cif.got.tgz:238082.got - 2010.06.28 07:06:18.
