data_PCOD8130315
_publ_section_title
;
Structure prediction by ZEFSAII (Michael W. Deem and Ramdas Pophale) SiO2 
 PCOD8130315
Probable space group: C 2/C
;
_chemical_formula_sum "Si O2"
_cell_formula_units_Z 48
_cell_length_a 12.210442
_cell_length_b 12.609105
_cell_length_c 20.388793
_cell_angle_alpha 90.000000
_cell_angle_beta 65.288595
_cell_angle_gamma 90.000000
_cell_volume 2851.650069
_symmetry_space_group_name_H-M "C 2/C"
_symmetry_group_IT_number 15
_symmetry_cell_setting 'monoclinic'
loop_
_space_group_symop_operation_xyz
x,y,z
-x,y,1/2-z
-x,-y,-z
x,-y,1/2+z
1/2+x,1/2+y,z
1/2-x,1/2+y,1/2-z
1/2-x,1/2-y,-z
1/2+x,1/2-y,1/2+z
loop_
_atom_site_type_symbol
_atom_site_label
_atom_site_fract_x
_atom_site_fract_y
_atom_site_fract_z
Si Si1 0.407688 0.056260 0.617194
Si Si2 0.577563 0.757081 0.593054
Si Si3 0.107182 0.075357 0.488902
Si Si4 0.216743 0.773907 0.858474
Si Si5 0.899579 0.378702 0.720746
Si Si6 0.151589 0.527370 0.012479
O O1 0.368576 0.176777 0.642334
O O2 0.346389 0.010355 0.566238
O O3 0.366200 0.984561 0.688787
O O4 0.553007 0.049036 0.571584
O O5 0.555602 0.653042 0.556974
O O6 0.678596 0.728863 0.621191
O O7 0.453553 0.790106 0.658643
O O8 0.622714 0.849084 0.533050
O O9 0.139996 0.137516 0.414734
O O10 0.218671 0.004549 0.487909
O O11 0.000000 0.000000 0.500000
O O12 0.277093 0.831027 0.780840
O O13 0.000000 0.408596 0.750000
#
# Coordination Sequence:
#
# PCOD8130315 Si02
#       6
#     8   8   8   8   8   8
#     4  10  17  31  60  74 101 131 179 214 250 306
#     4   9  16  34  54  79  97 130 184 217 244 297
#     4  11  20  32  54  81 108 131 172 220 258 300
#     4  10  18  34  54  76 103 139 174 214 253 300
#     4   9  20  32  53  77 102 136 177 214 255 302
#     4   9  17  32  56  81  95 132 177 214 252 302
#
# _framework density 16.832360000000001
#
# number of rings (size 3 to 8) (size 9 to 14) (size 15 to 20)
#    0.000    2.333    3.333    2.000    0.000    1.333 
#    0.000    0.833    3.667    0.000    0.000    0.000 
#    0.000    0.000    0.000    0.000    0.000    0.000 
#
# Total GULP energy -297595.525196 kJ/mol
# GULP energy per Si atom -12399.813550 kJ/mol
# Density = 1.679405 g / cm^3
# Si number density = 16.832360 Si / 1000 Ang^3
#
#
#
# Elastic Constant Matrix: (Units=GPa)
#
#
# Indices 1 2 3 4 5 6 
#
# 1 104.3320 69.1359 47.6750 0.0000 -8.3174 0.0000
# 2 69.1359 82.8656 51.3555 0.0000 -5.8295 0.0000
# 3 47.6750 51.3555 113.8546 0.0000 -0.9389 0.0000
# 4 0.0000 0.0000 0.0000 29.0229 0.0000 3.1747
# 5 -8.3174 -5.8295 -0.9389 0.0000 19.3934 0.0000
# 6 0.0000 0.0000 0.0000 3.1747 0.0000 34.6161
#
#
#
# Elastic Compliance Matrix: (Units=1/GPa)
#
#
# Indices 1 2 3 4 5 6 
#
# 1 0.021893 -0.017088 -0.001425 0.000000 0.004184 0.000000
# 2 -0.017088 0.030522 -0.006599 0.000000 0.001526 0.000000
# 3 -0.001425 -0.006599 0.012340 0.000000 -0.001997 0.000000
# 4 0.000000 0.000000 0.000000 0.034805 0.000000 -0.003192
# 5 0.004184 0.001526 -0.001997 0.000000 0.053721 0.000000
# 6 0.000000 0.000000 0.000000 -0.003192 0.000000 0.029181
#
#
# Mechanical properties :
#
#
# Convention : Reuss Voigt Hill
#
# Bulk Modulus (GPa) = 68.82313 70.82056 69.82184
# Shear Modulus (GPa) = 21.05004 25.46554 23.25779
#
# Velocity S-wave (km/s) = 3.54018 3.89381 3.72120
# Velocity P-wave (km/s) = 7.59517 7.89817 7.74815
#
# Compressibility (1/GPa) = 0.01453000
#
# Stress axis : x y z
#
# Youngs Moduli (GPa) = 45.67669 32.76352 81.03690
#
# Poissons Ratio (x) = 0.55987 0.11549
# Poissons Ratio (y) = 0.78053 0.53478
# Poissons Ratio (z) = 0.06509 0.21621
#
# Static dielectric constant tensor:
#      x y z
#    x 3.088570 0.000000 -0.006800 
#    y 0.000000 2.949540 0.000000 
#    z -0.006800 0.000000 3.334270 
# 
# 
# High freq. dielectric constant tensor:
#      x y z
#    x 1.629920 0.000000 -0.000530 
#    y 0.000000 1.627940 0.000000 
#    z -0.000530 0.000000 1.660440 
# 
# From -- ./inp_files/196017.got.cif
#   From: 2010.06.25/outbox.cif.g09.slc.cpg/sg15_99_cif.got.tgz:196017.got - 2010.06.28 07:06:18.
