data_PCOD8130161
_publ_section_title
;
Structure prediction by ZEFSAII (Michael W. Deem and Ramdas Pophale) SiO2 
 PCOD8130161
Probable space group: C 2/C
;
_chemical_formula_sum "Si O2"
_cell_formula_units_Z 56
_cell_length_a 27.528269
_cell_length_b 15.200871
_cell_length_c 8.983368
_cell_angle_alpha 90.000000
_cell_angle_beta 61.231142
_cell_angle_gamma 90.000000
_cell_volume 3295.128666
_symmetry_space_group_name_H-M "C 2/C"
_symmetry_group_IT_number 15
_symmetry_cell_setting 'monoclinic'
loop_
_space_group_symop_operation_xyz
x,y,z
-x,y,1/2-z
-x,-y,-z
x,-y,1/2+z
1/2+x,1/2+y,z
1/2-x,1/2+y,1/2-z
1/2-x,1/2-y,-z
1/2+x,1/2-y,1/2+z
loop_
_atom_site_type_symbol
_atom_site_label
_atom_site_fract_x
_atom_site_fract_y
_atom_site_fract_z
Si Si1 0.691399 0.760548 0.161600
Si Si2 0.595216 0.515383 0.903720
Si Si3 0.058710 0.877945 0.195803
Si Si4 0.657768 0.597878 0.071845
Si Si5 0.718860 0.058736 0.693555
Si Si6 0.675084 0.712585 0.518213
Si Si7 0.224479 0.390511 0.520777
O O1 0.648117 0.701089 0.131142
O O2 0.676606 0.864820 0.194867
O O3 0.696010 0.720607 0.319600
O O4 0.750000 0.750000 0.000000
O O5 0.554239 0.573241 0.862038
O O6 0.635976 0.463653 0.734952
O O7 0.562824 0.448963 0.057579
O O8 0.629235 0.583072 0.955950
O O9 0.000000 0.828522 0.250000
O O10 0.110039 0.810597 0.120463
O O11 0.722122 0.576161 0.967744
O O12 0.699797 0.961028 0.674719
O O13 0.722221 0.062983 0.865233
O O14 0.711498 0.635083 0.538899
O O15 0.685621 0.804222 0.589232
#
# Coordination Sequence:
#
# PCOD8130161 Si02
#       7
#     8   8   8   8   8   8   8
#     4   9  19  30  47  71 102 133 170 209 253 300
#     4  10  20  31  51  71  99 135 176 208 244 295
#     4  11  21  35  52  75 103 137 174 211 252 298
#     4  10  17  30  47  71 101 136 166 207 252 297
#     4  10  19  30  46  73 100 138 167 205 252 306
#     4  10  20  35  50  74 105 136 167 212 251 312
#     4  10  21  33  51  74 105 133 171 204 257 306
#
# _framework density 16.994783000000002
#
# number of rings (size 3 to 8) (size 9 to 14) (size 15 to 20)
#    0.000    2.000    1.429    3.857    4.000    1.143 
#    0.000    0.000    0.000    0.000    0.000    4.000 
#    0.000    0.000    0.000    0.000    0.000    0.143 
#
# Total GULP energy -346990.778553 kJ/mol
# GULP energy per Si atom -12392.527805 kJ/mol
# Density = 1.695610 g / cm^3
# Si number density = 16.994783 Si / 1000 Ang^3
#
#
#
# Elastic Constant Matrix: (Units=GPa)
#
#
# Indices 1 2 3 4 5 6 
#
# 1 96.3259 56.3496 38.4813 0.0000 0.7016 0.0000
# 2 56.3496 120.6853 37.8093 0.0000 13.4170 0.0000
# 3 38.4813 37.8093 66.9108 0.0000 21.0279 0.0000
# 4 0.0000 0.0000 0.0000 20.5214 0.0000 6.5367
# 5 0.7016 13.4170 21.0279 0.0000 19.5406 0.0000
# 6 0.0000 0.0000 0.0000 6.5367 0.0000 24.2496
#
#
#
# Elastic Compliance Matrix: (Units=1/GPa)
#
#
# Indices 1 2 3 4 5 6 
#
# 1 0.019562 -0.007095 -0.012921 0.000000 0.018074 0.000000
# 2 -0.007095 0.012660 -0.000637 0.000000 -0.007752 0.000000
# 3 -0.012921 -0.000637 0.033927 0.000000 -0.035608 0.000000
# 4 0.000000 0.000000 0.000000 0.053307 0.000000 -0.014369
# 5 0.018074 -0.007752 -0.035608 0.000000 0.094168 0.000000
# 6 0.000000 0.000000 0.000000 -0.014369 0.000000 0.045111
#
#
# Mechanical properties :
#
#
# Convention : Reuss Voigt Hill
#
# Bulk Modulus (GPa) = 40.25400 61.02249 50.63824
# Shear Modulus (GPa) = 16.21674 22.94777 19.58226
#
# Velocity S-wave (km/s) = 3.09239 3.67861 3.39816
# Velocity P-wave (km/s) = 6.04053 7.35033 6.72739
#
# Compressibility (1/GPa) = 0.02484225
#
# Stress axis : x y z
#
# Youngs Moduli (GPa) = 51.11860 78.98707 29.47504
#
# Poissons Ratio (x) = 0.56043 0.38086
# Poissons Ratio (y) = 0.36269 0.01878
# Poissons Ratio (z) = 0.66053 0.05032
#
# Static dielectric constant tensor:
#      x y z
#    x 3.055050 0.000000 0.312160 
#    y 0.000000 3.629650 0.000000 
#    z 0.312160 0.000000 3.246200 
# 
# 
# High freq. dielectric constant tensor:
#      x y z
#    x 1.620280 0.000000 0.032720 
#    y 0.000000 1.653580 0.000000 
#    z 0.032720 0.000000 1.659400 
# 
# From -- ./inp_files/65932.got.cif
#   From: 2010.06.25/outbox.cif.g09.slc.cpg/sg15_33_cif.got.tgz:65932.got - 2010.06.28 07:06:18.
