data_PCOD8130838
_publ_section_title
;
Structure prediction by ZEFSAII (Michael W. Deem and Ramdas Pophale) SiO2 
 PCOD8130838
Probable space group: C 2/C
;
_chemical_formula_sum "Si O2"
_cell_formula_units_Z 56
_cell_length_a 16.688016
_cell_length_b 34.497943
_cell_length_c 5.185032
_cell_angle_alpha 90.000000
_cell_angle_beta 68.529473
_cell_angle_gamma 90.000000
_cell_volume 2777.890897
_symmetry_space_group_name_H-M "C 2/C"
_symmetry_group_IT_number 15
_symmetry_cell_setting 'monoclinic'
loop_
_space_group_symop_operation_xyz
x,y,z
-x,y,1/2-z
-x,-y,-z
x,-y,1/2+z
1/2+x,1/2+y,z
1/2-x,1/2+y,1/2-z
1/2-x,1/2-y,-z
1/2+x,1/2-y,1/2+z
loop_
_atom_site_type_symbol
_atom_site_label
_atom_site_fract_x
_atom_site_fract_y
_atom_site_fract_z
Si Si1 0.398316 0.314314 0.383988
Si Si2 0.055233 0.406637 0.428788
Si Si3 0.709934 0.133675 0.587985
Si Si4 0.700820 0.607763 0.515021
Si Si5 0.819824 0.018416 0.005064
Si Si6 0.196767 0.788583 0.513159
Si Si7 0.372710 0.985331 0.220944
O O1 0.500000 0.310967 0.250000
O O2 0.373641 0.359876 0.428533
O O3 0.371934 0.293403 0.678750
O O4 0.352851 0.291358 0.201576
O O5 0.109596 0.368543 0.288825
O O6 0.126493 0.440893 0.378027
O O7 0.000000 0.418944 0.250000
O O8 0.000000 0.399450 0.750000
O O9 0.724940 0.115418 0.286438
O O10 0.730959 0.178591 0.560234
O O11 0.765469 0.110508 0.733748
O O12 0.666184 0.564567 0.510102
O O13 0.865855 0.999958 0.700401
O O14 0.720622 0.003921 0.103878
O O15 0.250000 0.750000 0.500000
O O16 0.421066 0.989761 0.440633
#
# Coordination Sequence:
#
# PCOD8130838 Si02
#       7
#     8   8   8   8   8   8   8
#     4  10  21  38  64  96 124 152 191 241 294 343
#     4  12  24  35  48  69 104 144 188 240 286 333
#     4  10  20  37  56  76 106 148 193 232 281 348
#     4  10  19  35  59  80 107 148 191 237 285 350
#     4  10  18  29  49  74 100 136 188 238 283 337
#     4  10  21  39  65  93 122 155 192 234 285 354
#     4  10  19  31  45  63  91 129 179 232 280 325
#
# _framework density 20.159179999999999
#
# number of rings (size 3 to 8) (size 9 to 14) (size 15 to 20)
#    0.000    1.714    0.000    6.857    0.000    1.714 
#    0.000    2.143    0.000    0.857    0.000    0.000 
#    0.000    0.000    0.000    0.000    0.000    0.000 
#
# Total GULP energy -346976.143795 kJ/mol
# GULP energy per Si atom -12392.005136 kJ/mol
# Density = 2.011330 g / cm^3
# Si number density = 20.159180 Si / 1000 Ang^3
#
#
#
# Elastic Constant Matrix: (Units=GPa)
#
#
# Indices 1 2 3 4 5 6 
#
# 1 45.4685 35.2612 38.6101 0.0000 -6.1115 0.0000
# 2 35.2612 119.2245 47.7031 0.0000 -4.4673 0.0000
# 3 38.6101 47.7031 150.0519 0.0000 18.9969 0.0000
# 4 0.0000 0.0000 0.0000 23.9571 0.0000 3.6149
# 5 -6.1115 -4.4673 18.9969 0.0000 37.6348 0.0000
# 6 0.0000 0.0000 0.0000 3.6149 0.0000 19.0466
#
#
#
# Elastic Compliance Matrix: (Units=1/GPa)
#
#
# Indices 1 2 3 4 5 6 
#
# 1 0.035396 -0.006911 -0.008049 0.000000 0.008990 0.000000
# 2 -0.006911 0.011258 -0.001952 0.000000 0.001200 0.000000
# 3 -0.008049 -0.001952 0.010203 0.000000 -0.006689 0.000000
# 4 0.000000 0.000000 0.000000 0.042972 0.000000 -0.008156
# 5 0.008990 0.001200 -0.006689 0.000000 0.031550 0.000000
# 6 0.000000 0.000000 0.000000 -0.008156 0.000000 0.054051
#
#
# Mechanical properties :
#
#
# Convention : Reuss Voigt Hill
#
# Bulk Modulus (GPa) = 43.41849 61.98820 52.70334
# Shear Modulus (GPa) = 22.03304 29.00575 25.51939
#
# Velocity S-wave (km/s) = 3.30957 3.79731 3.56180
# Velocity P-wave (km/s) = 6.01572 7.07405 6.56625
#
# Compressibility (1/GPa) = 0.02303166
#
# Stress axis : x y z
#
# Youngs Moduli (GPa) = 28.25159 88.82779 98.01049
#
# Poissons Ratio (x) = 0.61391 0.78888
# Poissons Ratio (y) = 0.19525 0.19136
# Poissons Ratio (z) = 0.22739 0.17343
#
# Static dielectric constant tensor:
#      x y z
#    x 3.519760 0.000000 0.499050 
#    y 0.000000 3.620690 0.000000 
#    z 0.499050 0.000000 4.327500 
# 
# 
# High freq. dielectric constant tensor:
#      x y z
#    x 1.756710 0.000000 0.027920 
#    y 0.000000 1.776220 0.000000 
#    z 0.027920 0.000000 1.814740 
# 
# From -- ./inp_files/12125.got.cif
#   From: 2010.06.25/outbox.cif.g09.slc.cpg/sg15_7_cif.got.tgz:12125.got - 2010.06.28 07:06:18.
