data_PCOD8130112
_publ_section_title
;
Structure prediction by ZEFSAII (Michael W. Deem and Ramdas Pophale) SiO2 
 PCOD8130112
Probable space group: C 2/C
;
_chemical_formula_sum "Si O2"
_cell_formula_units_Z 56
_cell_length_a 14.627068
_cell_length_b 27.003581
_cell_length_c 13.841651
_cell_angle_alpha 90.000000
_cell_angle_beta 40.373201
_cell_angle_gamma 90.000000
_cell_volume 3541.466186
_symmetry_space_group_name_H-M "C 2/C"
_symmetry_group_IT_number 15
_symmetry_cell_setting 'monoclinic'
loop_
_space_group_symop_operation_xyz
x,y,z
-x,y,1/2-z
-x,-y,-z
x,-y,1/2+z
1/2+x,1/2+y,z
1/2-x,1/2+y,1/2-z
1/2-x,1/2-y,-z
1/2+x,1/2-y,1/2+z
loop_
_atom_site_type_symbol
_atom_site_label
_atom_site_fract_x
_atom_site_fract_y
_atom_site_fract_z
Si Si1 0.906724 0.204600 0.955629
Si Si2 0.806142 0.606482 0.595185
Si Si3 0.483530 0.504045 0.373624
Si Si4 0.710977 0.286173 0.164783
Si Si5 0.067947 0.552849 0.294254
Si Si6 0.226832 0.024949 0.802021
Si Si7 0.664308 0.403296 0.008956
O O1 0.845643 0.211811 0.898259
O O2 0.069448 0.220146 0.842064
O O3 0.810682 0.238546 0.102860
O O4 0.900897 0.146468 0.982707
O O5 0.804509 0.665390 0.616679
O O6 0.756597 0.578035 0.730969
O O7 0.695647 0.597401 0.597944
O O8 0.960043 0.585512 0.443791
O O9 0.500000 0.522159 0.250000
O O10 0.356375 0.533819 0.529259
O O11 0.632193 0.510542 0.308649
O O12 0.449246 0.446065 0.413015
O O13 0.125620 0.504334 0.303259
O O14 0.195144 0.589185 0.165871
O O15 0.000000 0.532771 0.250000
#
# Coordination Sequence:
#
# PCOD8130112 Si02
#       7
#     8   8   8   8   8   8   8
#     4   9  17  27  39  62  85 120 160 189 229 268
#     4  10  17  29  44  61  91 123 161 191 234 274
#     4  10  18  30  47  66  91 120 162 196 239 279
#     4   9  18  26  41  59  87 121 154 198 223 269
#     4   9  19  30  43  65  90 128 162 196 233 279
#     4  10  19  29  46  67  86 125 163 199 232 281
#     4   9  17  28  45  61  89 123 162 192 224 281
#
# _framework density 15.812659999999999
#
# number of rings (size 3 to 8) (size 9 to 14) (size 15 to 20)
#    0.000    2.571    1.429    1.286    4.000    0.000 
#    0.000    0.000    0.000    0.000    0.000    0.000 
#    0.000    0.000    0.000   46.286    0.000    2.571 
#
# Total GULP energy -347011.851542 kJ/mol
# GULP energy per Si atom -12393.280412 kJ/mol
# Density = 1.577667 g / cm^3
# Si number density = 15.812660 Si / 1000 Ang^3
#
#
#
# Elastic Constant Matrix: (Units=GPa)
#
#
# Indices 1 2 3 4 5 6 
#
# 1 45.6001 24.2457 33.8816 0.0000 -5.3925 0.0000
# 2 24.2457 89.8297 44.6020 0.0000 -2.9270 0.0000
# 3 33.8816 44.6020 99.8690 0.0000 -2.8283 0.0000
# 4 0.0000 0.0000 0.0000 22.4017 0.0000 -3.1644
# 5 -5.3925 -2.9270 -2.8283 0.0000 25.8055 0.0000
# 6 0.0000 0.0000 0.0000 -3.1644 0.0000 16.0823
#
#
#
# Elastic Compliance Matrix: (Units=1/GPa)
#
#
# Indices 1 2 3 4 5 6 
#
# 1 0.031032 -0.003924 -0.008631 0.000000 0.005094 0.000000
# 2 -0.003924 0.014822 -0.005280 0.000000 0.000282 0.000000
# 3 -0.008631 -0.005280 0.015279 0.000000 -0.000728 0.000000
# 4 0.000000 0.000000 0.000000 0.045916 0.000000 0.009035
# 5 0.005094 0.000282 -0.000728 0.000000 0.039768 0.000000
# 6 0.000000 0.000000 0.000000 0.009035 0.000000 0.063958
#
#
# Mechanical properties :
#
#
# Convention : Reuss Voigt Hill
#
# Bulk Modulus (GPa) = 39.27477 48.97304 44.12390
# Shear Modulus (GPa) = 19.61299 21.69585 20.65442
#
# Velocity S-wave (km/s) = 3.52566 3.70815 3.61805
# Velocity P-wave (km/s) = 6.43935 7.02651 6.73932
#
# Compressibility (1/GPa) = 0.02546164
#
# Stress axis : x y z
#
# Youngs Moduli (GPa) = 32.22519 67.46553 65.44978
#
# Poissons Ratio (x) = 0.26475 0.56489
# Poissons Ratio (y) = 0.12646 0.34560
# Poissons Ratio (z) = 0.27813 0.35624
#
# Static dielectric constant tensor:
#      x y z
#    x 2.800250 0.000000 -0.202710 
#    y 0.000000 2.969960 0.000000 
#    z -0.202710 0.000000 3.256520 
# 
# 
# High freq. dielectric constant tensor:
#      x y z
#    x 1.563670 0.000000 -0.027470 
#    y 0.000000 1.588220 0.000000 
#    z -0.027470 0.000000 1.619260 
# 
# From -- ./inp_files/156976.got.cif
#   From: 2010.06.25/outbox.cif.g09.slc.cpg/sg15_79_cif.got.tgz:156976.got - 2010.06.28 07:06:18.
