data_PCOD8130807
_publ_section_title
;
Structure prediction by ZEFSAII (Michael W. Deem and Ramdas Pophale) SiO2 
 PCOD8130807
Probable space group: C 2/C
;
_chemical_formula_sum "Si O2"
_cell_formula_units_Z 60
_cell_length_a 25.284064
_cell_length_b 22.676090
_cell_length_c 8.725927
_cell_angle_alpha 90.000000
_cell_angle_beta 43.690763
_cell_angle_gamma 90.000000
_cell_volume 3455.870707
_symmetry_space_group_name_H-M "C 2/C"
_symmetry_group_IT_number 15
_symmetry_cell_setting 'monoclinic'
loop_
_space_group_symop_operation_xyz
x,y,z
-x,y,1/2-z
-x,-y,-z
x,-y,1/2+z
1/2+x,1/2+y,z
1/2-x,1/2+y,1/2-z
1/2-x,1/2-y,-z
1/2+x,1/2-y,1/2+z
loop_
_atom_site_type_symbol
_atom_site_label
_atom_site_fract_x
_atom_site_fract_y
_atom_site_fract_z
Si Si1 0.993372 0.195443 0.440461
Si Si2 0.838739 0.811752 0.409443
Si Si3 0.151156 0.201337 0.259047
Si Si4 0.689218 0.174888 0.068057
Si Si5 0.000000 0.507529 0.750000
Si Si6 0.426961 0.077342 0.634110
Si Si7 0.193564 0.665626 0.705977
Si Si8 0.532063 0.167892 0.517555
O O1 0.070575 0.176942 0.365558
O O2 0.000000 0.176945 0.250000
O O3 0.919006 0.164534 0.671601
O O4 0.981455 0.264386 0.488592
O O5 0.838284 0.821392 0.591303
O O6 0.768458 0.847073 0.478764
O O7 0.822342 0.744614 0.402184
O O8 0.153490 0.272594 0.240604
O O9 0.216836 0.171096 0.019840
O O10 0.620724 0.148733 0.315447
O O11 0.684423 0.152430 0.904674
O O12 0.055905 0.546248 0.739502
O O13 0.060774 0.469086 0.527104
O O14 0.343601 0.109339 0.803754
O O15 0.487155 0.130621 0.483739
O O16 0.500000 0.150156 0.750000
#
# Coordination Sequence:
#
# PCOD8130807 Si02
#       8
#     8   8   8   8   4   8   8   8
#     4  10  18  29  44  66  97 135 169 203 238 297
#     4   9  18  28  42  60  98 128 166 205 237 279
#     4  10  19  29  46  74  94 130 168 209 243 309
#     4   9  18  30  41  65  89 130 168 206 241 292
#     4  10  24  34  52  66  98 126 186 220 266 280
#     4  11  20  37  48  72  91 133 163 228 255 304
#     4  10  20  31  50  67  99 125 168 211 260 298
#     4  10  19  28  50  66  90 127 177 208 250 296
#
# _framework density 17.36176
#
# number of rings (size 3 to 8) (size 9 to 14) (size 15 to 20)
#    0.000    2.133    2.000    2.000    1.867    3.200 
#    0.000    0.000    0.000    0.000    0.000    0.000 
#    0.000    0.000    0.000   54.000    0.000    0.000 
#
# Total GULP energy -371841.042016 kJ/mol
# GULP energy per Si atom -12394.701401 kJ/mol
# Density = 1.732224 g / cm^3
# Si number density = 17.361760 Si / 1000 Ang^3
#
#
#
# Elastic Constant Matrix: (Units=GPa)
#
#
# Indices 1 2 3 4 5 6 
#
# 1 121.8823 22.3208 62.4284 0.0000 -15.0198 0.0000
# 2 22.3208 36.7934 20.8118 0.0000 2.4686 0.0000
# 3 62.4284 20.8118 137.9765 0.0000 -9.9168 0.0000
# 4 0.0000 0.0000 0.0000 8.1080 0.0000 -5.4684
# 5 -15.0198 2.4686 -9.9168 0.0000 31.5405 0.0000
# 6 0.0000 0.0000 0.0000 -5.4684 0.0000 22.4968
#
#
#
# Elastic Compliance Matrix: (Units=1/GPa)
#
#
# Indices 1 2 3 4 5 6 
#
# 1 0.011919 -0.005127 -0.004279 0.000000 0.004732 0.000000
# 2 -0.005127 0.032377 -0.002989 0.000000 -0.005915 0.000000
# 3 -0.004279 -0.002989 0.009725 0.000000 0.001254 0.000000
# 4 0.000000 0.000000 0.000000 0.147520 0.000000 0.035858
# 5 0.004732 -0.005915 0.001254 0.000000 0.034816 0.000000
# 6 0.000000 0.000000 0.000000 0.035858 0.000000 0.053167
#
#
# Mechanical properties :
#
#
# Convention : Reuss Voigt Hill
#
# Bulk Modulus (GPa) = 34.21229 56.41936 45.31582
# Shear Modulus (GPa) = 15.42941 25.16848 20.29894
#
# Velocity S-wave (km/s) = 2.98434 3.81156 3.42303
# Velocity P-wave (km/s) = 5.62347 7.20677 6.46378
#
# Compressibility (1/GPa) = 0.02922926
#
# Stress axis : x y z
#
# Youngs Moduli (GPa) = 83.90312 30.88632 102.83120
#
# Poissons Ratio (x) = 0.15837 0.44003
# Poissons Ratio (y) = 0.43020 0.30734
# Poissons Ratio (z) = 0.35903 0.09231
#
# Static dielectric constant tensor:
#      x y z
#    x 3.351830 0.000000 -0.098710 
#    y 0.000000 2.839560 0.000000 
#    z -0.098710 0.000000 3.422960 
# 
# 
# High freq. dielectric constant tensor:
#      x y z
#    x 1.681820 0.000000 0.002840 
#    y 0.000000 1.599440 0.000000 
#    z 0.002840 0.000000 1.680490 
# 
# From -- ./inp_files/67651.got.cif
#   From: 2010.06.25/outbox.cif.g09.slc.cpg/sg15_34_cif.got.tgz:67651.got - 2010.06.28 07:06:18.
