data_PCOD8130802
_publ_section_title
;
Structure prediction by ZEFSAII (Michael W. Deem and Ramdas Pophale) SiO2 
 PCOD8130802
Probable space group: C 2/C
;
_chemical_formula_sum "Si O2"
_cell_formula_units_Z 64
_cell_length_a 22.526683
_cell_length_b 27.811795
_cell_length_c 21.176175
_cell_angle_alpha 90.000000
_cell_angle_beta 19.953412
_cell_angle_gamma 90.000000
_cell_volume 4527.453732
_symmetry_space_group_name_H-M "C 2/C"
_symmetry_group_IT_number 15
_symmetry_cell_setting 'monoclinic'
loop_
_space_group_symop_operation_xyz
x,y,z
-x,y,1/2-z
-x,-y,-z
x,-y,1/2+z
1/2+x,1/2+y,z
1/2-x,1/2+y,1/2-z
1/2-x,1/2-y,-z
1/2+x,1/2-y,1/2+z
loop_
_atom_site_type_symbol
_atom_site_label
_atom_site_fract_x
_atom_site_fract_y
_atom_site_fract_z
Si Si1 0.199282 0.014188 0.477320
Si Si2 0.801747 0.014088 0.874615
Si Si3 0.501694 0.923722 0.520920
Si Si4 0.794578 0.302924 0.027187
Si Si5 0.499572 0.022044 0.901838
Si Si6 0.690967 0.391397 0.208860
Si Si7 0.194316 0.891493 0.905695
Si Si8 0.298736 0.196960 0.379205
O O1 0.243078 0.013667 0.507074
O O2 0.236901 0.067941 0.415170
O O3 0.000623 0.998417 0.662639
O O4 0.327123 0.976849 0.314484
O O5 0.764969 0.067863 0.886856
O O6 0.674338 0.976585 0.967029
O O7 0.501305 0.931321 0.445650
O O8 0.672768 0.893760 0.369784
O O9 0.330088 0.894049 0.712296
O O10 0.501812 0.974816 0.554420
O O11 0.730677 0.308828 0.018924
O O12 0.997965 0.313149 0.829042
O O13 0.694285 0.340339 0.171108
O O14 0.747209 0.250063 0.099549
O O15 0.498495 0.399261 0.429806
O O16 0.199137 0.840228 0.934674
#
# Coordination Sequence:
#
# PCOD8130802 Si02
#       8
#     8   8   8   8   8   8   8   8
#     4   9  17  27  41  61  81 104 134 166 206 250
#     4   9  17  27  41  61  81 104 134 166 206 250
#     4   9  18  30  40  58  76 102 140 174 206 243
#     4  10  19  29  41  58  80 104 134 175 217 250
#     4   9  17  28  42  56  79 103 134 174 208 239
#     4  10  18  29  43  57  78 106 137 174 208 243
#     4  10  18  29  43  57  78 106 137 174 208 243
#     4  10  19  29  41  58  80 104 134 175 217 250
#
# _framework density 14.135980999999999
#
# number of rings (size 3 to 8) (size 9 to 14) (size 15 to 20)
#    0.000    2.500    1.250    1.875    0.000    3.500 
#    0.000    5.000    0.000    0.000    0.000    0.000 
#    0.000    0.000    0.000    0.000    0.000    5.000 
#
# Total GULP energy -396808.289008 kJ/mol
# GULP energy per Si atom -12400.259032 kJ/mol
# Density = 1.410381 g / cm^3
# Si number density = 14.135981 Si / 1000 Ang^3
#
#
#
# Elastic Constant Matrix: (Units=GPa)
#
#
# Indices 1 2 3 4 5 6 
#
# 1 79.5606 41.1725 51.2120 0.1115 -1.6923 -0.0062
# 2 41.1725 49.6829 31.2929 0.0702 2.8405 -0.0360
# 3 51.2120 31.2929 97.4914 0.2929 -3.5453 -0.1683
# 4 0.1115 0.0702 0.2929 16.5711 -0.0997 1.4218
# 5 -1.6923 2.8405 -3.5453 -0.0997 17.3896 -0.0323
# 6 -0.0062 -0.0360 -0.1683 1.4218 -0.0323 21.3200
#
#
#
# Elastic Compliance Matrix: (Units=1/GPa)
#
#
# Indices 1 2 3 4 5 6 
#
# 1 0.027095 -0.017280 -0.008551 0.000072 0.003716 -0.000088
# 2 -0.017280 0.036846 -0.003052 -0.000038 -0.008323 0.000023
# 3 -0.008551 -0.003052 0.015835 -0.000204 0.002894 0.000135
# 4 0.000072 -0.000038 -0.000204 0.060699 0.000312 -0.004049
# 5 0.003716 -0.008323 0.002894 0.000312 0.059819 0.000080
# 6 -0.000088 0.000023 0.000135 -0.004049 0.000080 0.047176
#
#
# Mechanical properties :
#
#
# Convention : Reuss Voigt Hill
#
# Bulk Modulus (GPa) = 45.43696 52.67664 49.05680
# Shear Modulus (GPa) = 15.99627 17.92664 16.96145
#
# Velocity S-wave (km/s) = 3.36757 3.56498 3.46768
# Velocity P-wave (km/s) = 6.87992 7.36821 7.12825
#
# Compressibility (1/GPa) = 0.02200851
#
# Stress axis : x y z
#
# Youngs Moduli (GPa) = 36.90737 27.13986 63.15050
#
# Poissons Ratio (x) = 0.46898 0.54003
# Poissons Ratio (y) = 0.63776 0.19275
# Poissons Ratio (z) = 0.31561 0.08284
#
# Static dielectric constant tensor:
#      x y z
#    x 2.701790 -0.000110 -0.071260 
#    y -0.000110 2.524880 0.000960 
#    z -0.071260 0.000960 2.938750 
# 
# 
# High freq. dielectric constant tensor:
#      x y z
#    x 1.512290 -0.000010 -0.013320 
#    y -0.000010 1.497550 0.000070 
#    z -0.013320 0.000070 1.558370 
# 
# From -- ./inp_files/217199.got.cif
#   From: 2010.06.25/outbox.cif.g09.slc.cpg/sg15_109_cif.got.tgz:217199.got - 2010.06.28 07:06:18.
