data_PCOD8130860
_publ_section_title
;
Structure prediction by ZEFSAII (Michael W. Deem and Ramdas Pophale) SiO2 
 PCOD8130860
Probable space group: C 2/C
;
_chemical_formula_sum "Si O2"
_cell_formula_units_Z 48
_cell_length_a 17.947483
_cell_length_b 8.982864
_cell_length_c 15.926087
_cell_angle_alpha 90.000000
_cell_angle_beta 93.254709
_cell_angle_gamma 90.000000
_cell_volume 2563.459024
_symmetry_space_group_name_H-M "C 2/C"
_symmetry_group_IT_number 15
_symmetry_cell_setting 'monoclinic'
loop_
_space_group_symop_operation_xyz
x,y,z
-x,y,1/2-z
-x,-y,-z
x,-y,1/2+z
1/2+x,1/2+y,z
1/2-x,1/2+y,1/2-z
1/2-x,1/2-y,-z
1/2+x,1/2-y,1/2+z
loop_
_atom_site_type_symbol
_atom_site_label
_atom_site_fract_x
_atom_site_fract_y
_atom_site_fract_z
Si Si1 0.416830 0.653000 0.724047
Si Si2 0.678866 0.178558 0.599905
Si Si3 0.211471 0.043623 0.204451
Si Si4 0.852063 0.606893 0.324262
Si Si5 0.697145 0.345897 0.054881
Si Si6 0.656722 0.613496 0.951017
O O1 0.500000 0.600927 0.750000
O O2 0.359918 0.542139 0.765224
O O3 0.404354 0.825186 0.754171
O O4 0.404876 0.641813 0.623775
O O5 0.687584 0.291497 0.677307
O O6 0.642124 0.255695 0.517008
O O7 0.759800 0.114539 0.580360
O O8 0.623264 0.046997 0.629118
O O9 0.271890 0.063531 0.280611
O O10 0.242020 0.952949 0.124239
O O11 0.852662 0.731645 0.396251
O O12 0.750000 0.250000 0.000000
O O13 0.645036 0.452335 0.994150
#
# Coordination Sequence:
#
# PCOD8130860 Si02
#       6
#     8   8   8   8   8   8
#     4  11  23  39  56  82 116 152 184 229 285 336
#     4  10  18  32  56  84 109 139 190 235 276 314
#     4  10  19  34  55  83 112 148 187 232 272 332
#     4  11  19  34  57  85 112 144 192 232 273 330
#     4  10  18  29  53  87 113 139 184 236 279 320
#     4  10  19  33  54  83 115 142 180 234 284 329
#
# _framework density 18.724698
#
# number of rings (size 3 to 8) (size 9 to 14) (size 15 to 20)
#    0.000    1.667    5.000    1.000    0.000    0.000 
#    0.000    9.167    0.000    0.000    0.000    0.000 
#    0.000    0.000    0.000    0.000    0.000    0.000 
#
# Total GULP energy -297435.809163 kJ/mol
# GULP energy per Si atom -12393.158715 kJ/mol
# Density = 1.868208 g / cm^3
# Si number density = 18.724698 Si / 1000 Ang^3
#
#
#
# Elastic Constant Matrix: (Units=GPa)
#
#
# Indices 1 2 3 4 5 6 
#
# 1 57.3033 18.1696 32.3288 0.0000 8.7495 0.0000
# 2 18.1696 131.5486 61.5308 0.0000 -2.8589 0.0000
# 3 32.3288 61.5308 135.2975 0.0000 6.2530 0.0000
# 4 0.0000 0.0000 0.0000 34.0585 0.0000 -10.5166
# 5 8.7495 -2.8589 6.2530 0.0000 17.2495 0.0000
# 6 0.0000 0.0000 0.0000 -10.5166 0.0000 18.3356
#
#
#
# Elastic Compliance Matrix: (Units=1/GPa)
#
#
# Indices 1 2 3 4 5 6 
#
# 1 0.021677 -0.001260 -0.004159 0.000000 -0.009697 0.000000
# 2 -0.001260 0.009911 -0.004385 0.000000 0.003871 0.000000
# 3 -0.004159 -0.004385 0.010491 0.000000 -0.002420 0.000000
# 4 0.000000 0.000000 0.000000 0.035680 0.000000 0.020465
# 5 -0.009697 0.003871 -0.002420 0.000000 0.064410 0.000000
# 6 0.000000 0.000000 0.000000 0.020465 0.000000 0.066277
#
#
# Mechanical properties :
#
#
# Convention : Reuss Voigt Hill
#
# Bulk Modulus (GPa) = 44.49975 60.91200 52.70587
# Shear Modulus (GPa) = 21.22742 28.07006 24.64874
#
# Velocity S-wave (km/s) = 3.37064 3.87601 3.63213
# Velocity P-wave (km/s) = 6.24221 7.25481 6.76747
#
# Compressibility (1/GPa) = 0.02247204
#
# Stress axis : x y z
#
# Youngs Moduli (GPa) = 46.13159 100.89737 95.31942
#
# Poissons Ratio (x) = 0.12709 0.39640
# Poissons Ratio (y) = 0.05811 0.41800
# Poissons Ratio (z) = 0.19185 0.44247
#
# Static dielectric constant tensor:
#      x y z
#    x 2.822340 0.000000 -0.226510 
#    y 0.000000 3.832020 0.000000 
#    z -0.226510 0.000000 3.928250 
# 
# 
# High freq. dielectric constant tensor:
#      x y z
#    x 1.649860 0.000000 -0.017590 
#    y 0.000000 1.747530 0.000000 
#    z -0.017590 0.000000 1.752580 
# 
# From -- ./inp_files/166410.got.cif
#   From: 2010.06.25/outbox.cif.g09.slc.cpg/sg15_84_cif.got.tgz:166410.got - 2010.06.28 07:06:18.
