data_PCOD8130805
_publ_section_title
;
Structure prediction by ZEFSAII (Michael W. Deem and Ramdas Pophale) SiO2 
 PCOD8130805
Probable space group: C 2/C
;
_chemical_formula_sum "Si O2"
_cell_formula_units_Z 48
_cell_length_a 24.157015
_cell_length_b 13.571588
_cell_length_c 25.998425
_cell_angle_alpha 90.000000
_cell_angle_beta 19.103469
_cell_angle_gamma 90.000000
_cell_volume 2789.548737
_symmetry_space_group_name_H-M "C 2/C"
_symmetry_group_IT_number 15
_symmetry_cell_setting 'monoclinic'
loop_
_space_group_symop_operation_xyz
x,y,z
-x,y,1/2-z
-x,-y,-z
x,-y,1/2+z
1/2+x,1/2+y,z
1/2-x,1/2+y,1/2-z
1/2-x,1/2-y,-z
1/2+x,1/2-y,1/2+z
loop_
_atom_site_type_symbol
_atom_site_label
_atom_site_fract_x
_atom_site_fract_y
_atom_site_fract_z
Si Si1 0.101349 0.671923 0.873212
Si Si2 0.009911 0.620763 0.297646
Si Si3 0.099903 0.482940 0.816732
Si Si4 0.642268 0.333260 0.164710
Si Si5 0.736381 0.565953 0.680712
Si Si6 0.238992 0.122695 0.236100
O O1 0.131472 0.599509 0.797822
O O2 0.243502 0.646692 0.791502
O O3 0.113456 0.785000 0.845402
O O4 0.916916 0.657013 0.057698
O O5 0.825124 0.650045 0.479727
O O6 0.000000 0.570505 0.250000
O O7 0.103471 0.543955 0.253305
O O8 0.124263 0.718062 0.192528
O O9 0.239766 0.418933 0.724561
O O10 0.920865 0.455574 0.997519
O O11 0.500000 0.370881 0.250000
O O12 0.617780 0.393067 0.239466
O O13 0.659058 0.464257 0.771070
#
# Coordination Sequence:
#
# PCOD8130805 Si02
#       6
#     8   8   8   8   8   8
#     4   9  16  29  46  65  86 112 141 173 210 252
#     4  10  18  29  44  64  87 114 142 173 209 250
#     4   8  16  29  45  62  87 117 141 166 210 259
#     4  10  18  29  44  64  87 114 142 173 209 250
#     4   8  16  29  45  62  87 117 141 166 210 259
#     4   9  16  29  46  65  86 112 141 173 210 252
#
# _framework density 17.207083999999998
#
# number of rings (size 3 to 8) (size 9 to 14) (size 15 to 20)
#    0.000    3.000    0.000    5.000    0.000    0.000 
#    0.000    8.333    0.000    1.000    0.000    7.000 
#    0.000    0.000    0.000    0.000    0.000    0.000 
#
# Total GULP energy -297459.447691 kJ/mol
# GULP energy per Si atom -12394.143654 kJ/mol
# Density = 1.716792 g / cm^3
# Si number density = 17.207084 Si / 1000 Ang^3
#
#
#
# Elastic Constant Matrix: (Units=GPa)
#
#
# Indices 1 2 3 4 5 6 
#
# 1 128.5076 32.3615 11.6208 0.0165 22.2104 -0.0083
# 2 32.3615 53.4236 -4.0141 0.0068 16.2178 -0.0141
# 3 11.6208 -4.0141 23.1620 -0.0132 9.6371 -0.0186
# 4 0.0165 0.0068 -0.0132 23.5103 -0.0138 3.2493
# 5 22.2104 16.2178 9.6371 -0.0138 21.7275 0.0100
# 6 -0.0083 -0.0141 -0.0186 3.2493 0.0100 27.8719
#
#
#
# Elastic Compliance Matrix: (Units=1/GPa)
#
#
# Indices 1 2 3 4 5 6 
#
# 1 0.010260 -0.004982 -0.003917 -0.000011 -0.005032 0.000001
# 2 -0.004982 0.031264 0.019018 -0.000016 -0.026679 0.000038
# 3 -0.003917 0.019018 0.064597 0.000002 -0.038843 0.000065
# 4 -0.000011 -0.000016 0.000002 0.043231 0.000052 -0.005040
# 5 -0.005032 -0.026679 -0.038843 0.000052 0.088310 -0.000079
# 6 0.000001 0.000038 0.000065 -0.005040 -0.000079 0.036466
#
#
# Mechanical properties :
#
#
# Convention : Reuss Voigt Hill
#
# Bulk Modulus (GPa) = 7.91398 31.66996 19.79197
# Shear Modulus (GPa) = 16.89130 25.63028 21.26079
#
# Velocity S-wave (km/s) = 3.13652 3.86362 3.51890
# Velocity P-wave (km/s) = 4.21026 6.19262 5.29504
#
# Compressibility (1/GPa) = 0.12635864
#
# Stress axis : x y z
#
# Youngs Moduli (GPa) = 97.46420 31.98574 15.48062
#
# Poissons Ratio (x) = 0.15935 0.06064
# Poissons Ratio (y) = 0.48555 -0.29441
# Poissons Ratio (z) = 0.38180 -0.60831
#
# Static dielectric constant tensor:
#      x y z
#    x 3.593090 -0.000010 0.181240 
#    y -0.000010 3.309970 0.000060 
#    z 0.181240 0.000060 2.926820 
# 
# 
# High freq. dielectric constant tensor:
#      x y z
#    x 1.658170 0.000000 0.008540 
#    y 0.000000 1.650400 0.000010 
#    z 0.008540 0.000010 1.644160 
# 
# From -- ./inp_files/58398.got.cif
#   From: 2010.06.25/outbox.cif.g09.slc.cpg/sg15_30_cif.got.tgz:58398.got - 2010.06.28 07:06:18.
