data_PCOD8130304
_publ_section_title
;
Structure prediction by ZEFSAII (Michael W. Deem and Ramdas Pophale) SiO2 
 PCOD8130304
Probable space group: C 2/C
;
_chemical_formula_sum "Si O2"
_cell_formula_units_Z 64
_cell_length_a 9.253227
_cell_length_b 15.506225
_cell_length_c 25.699903
_cell_angle_alpha 90.000000
_cell_angle_beta 68.737534
_cell_angle_gamma 90.000000
_cell_volume 3436.478286
_symmetry_space_group_name_H-M "C 2/C"
_symmetry_group_IT_number 15
_symmetry_cell_setting 'monoclinic'
loop_
_space_group_symop_operation_xyz
x,y,z
-x,y,1/2-z
-x,-y,-z
x,-y,1/2+z
1/2+x,1/2+y,z
1/2-x,1/2+y,1/2-z
1/2-x,1/2-y,-z
1/2+x,1/2-y,1/2+z
loop_
_atom_site_type_symbol
_atom_site_label
_atom_site_fract_x
_atom_site_fract_y
_atom_site_fract_z
Si Si1 0.789460 0.604241 0.631185
Si Si2 0.636926 0.753236 0.937827
Si Si3 0.539791 0.606223 0.872243
Si Si4 0.449314 0.414862 0.633129
Si Si5 0.291588 0.913393 0.633784
Si Si6 0.838497 0.826634 0.249215
Si Si7 0.328889 0.346484 0.749361
Si Si8 0.517725 0.748914 0.065179
O O1 0.643726 0.618783 0.612107
O O2 0.862203 0.508413 0.614789
O O3 0.735702 0.610569 0.698088
O O4 0.919442 0.672944 0.600685
O O5 0.595599 0.671920 0.908297
O O6 0.608008 0.841785 0.909868
O O7 0.814243 0.743815 0.931256
O O8 0.524697 0.755234 0.002125
O O9 0.579591 0.509530 0.887140
O O10 0.632238 0.618377 0.806419
O O11 0.617254 0.412390 0.636615
O O12 0.324002 0.395597 0.694765
O O13 0.436905 0.342130 0.590090
O O14 0.291084 0.891400 0.695282
O O15 0.719193 0.751595 0.252716
O O16 0.000000 0.787701 0.250000
O O17 0.500000 0.345591 0.750000
#
# Coordination Sequence:
#
# PCOD8130304 Si02
#       8
#     8   8   8   8   8   8   8   8
#     4  10  20  35  55  78 106 138 174 214 261 318
#     4  10  21  37  55  77 106 139 180 226 263 302
#     4  10  20  35  55  78 106 138 174 214 261 318
#     4   9  18  33  54  78 103 137 176 211 257 319
#     4   9  18  33  54  78 103 137 176 211 257 319
#     4  10  19  31  51  80 108 130 163 219 267 300
#     4  10  17  31  57  78 100 140 179 205 253 330
#     4  10  21  37  55  77 106 139 180 226 263 302
#
# _framework density 18.623719000000001
#
# number of rings (size 3 to 8) (size 9 to 14) (size 15 to 20)
#    0.000    2.250    2.500    0.750    0.000    4.500 
#    0.000    2.500    0.000    1.500    0.000    0.000 
#    0.000    0.000    0.000    0.000    0.000    0.000 
#
# Total GULP energy -396766.316239 kJ/mol
# GULP energy per Si atom -12398.947382 kJ/mol
# Density = 1.858133 g / cm^3
# Si number density = 18.623719 Si / 1000 Ang^3
#
#
#
# Elastic Constant Matrix: (Units=GPa)
#
#
# Indices 1 2 3 4 5 6 
#
# 1 19.0393 17.6699 19.0648 0.0000 -0.1053 0.0000
# 2 17.6699 126.2329 23.4510 0.0000 9.2964 0.0000
# 3 19.0648 23.4510 82.5211 0.0000 8.9726 0.0000
# 4 0.0000 0.0000 0.0000 12.5879 0.0000 3.1234
# 5 -0.1053 9.2964 8.9726 0.0000 11.3265 0.0000
# 6 0.0000 0.0000 0.0000 3.1234 0.0000 26.3612
#
#
#
# Elastic Compliance Matrix: (Units=1/GPa)
#
#
# Indices 1 2 3 4 5 6 
#
# 1 0.079660 -0.009456 -0.018209 0.000000 0.022928 0.000000
# 2 -0.009456 0.009805 0.000309 0.000000 -0.008381 0.000000
# 3 -0.018209 0.000309 0.017818 0.000000 -0.014538 0.000000
# 4 0.000000 0.000000 0.000000 0.081848 0.000000 -0.009698
# 5 0.022928 -0.008381 -0.014538 0.000000 0.106898 0.000000
# 6 0.000000 0.000000 0.000000 -0.009698 0.000000 0.039084
#
#
# Mechanical properties :
#
#
# Convention : Reuss Voigt Hill
#
# Bulk Modulus (GPa) = 19.02206 38.68496 28.85351
# Shear Modulus (GPa) = 12.27451 21.22894 16.75172
#
# Velocity S-wave (km/s) = 2.57004 3.37988 3.00239
# Velocity P-wave (km/s) = 4.36381 6.00404 5.24840
#
# Compressibility (1/GPa) = 0.05257053
#
# Stress axis : x y z
#
# Youngs Moduli (GPa) = 12.55337 101.98593 56.12354
#
# Poissons Ratio (x) = 0.96441 1.02197
# Poissons Ratio (y) = 0.11871 -0.01737
# Poissons Ratio (z) = 0.22859 -0.03156
#
# Static dielectric constant tensor:
#      x y z
#    x 3.109480 0.000000 -0.032310 
#    y 0.000000 3.593320 0.000000 
#    z -0.032310 0.000000 3.677370 
# 
# 
# High freq. dielectric constant tensor:
#      x y z
#    x 1.685780 0.000000 -0.002790 
#    y 0.000000 1.734310 0.000000 
#    z -0.002790 0.000000 1.726650 
# 
# From -- ./inp_files/269744.got.cif
#   From: 2010.06.25/outbox.cif.g09.slc.cpg/sg15_135_cif.got.tgz:269744.got - 2010.06.28 07:06:18.
