data_PCOD8130357
_publ_section_title
;
Structure prediction by ZEFSAII (Michael W. Deem and Ramdas Pophale) SiO2 
 PCOD8130357
Probable space group: C 2/C
;
_chemical_formula_sum "Si O2"
_cell_formula_units_Z 48
_cell_length_a 22.694252
_cell_length_b 17.183918
_cell_length_c 16.169246
_cell_angle_alpha 90.000000
_cell_angle_beta 158.946247
_cell_angle_gamma 90.000000
_cell_volume 2265.254117
_symmetry_space_group_name_H-M "C 2/C"
_symmetry_group_IT_number 15
_symmetry_cell_setting 'monoclinic'
loop_
_space_group_symop_operation_xyz
x,y,z
-x,y,1/2-z
-x,-y,-z
x,-y,1/2+z
1/2+x,1/2+y,z
1/2-x,1/2+y,1/2-z
1/2-x,1/2-y,-z
1/2+x,1/2-y,1/2+z
loop_
_atom_site_type_symbol
_atom_site_label
_atom_site_fract_x
_atom_site_fract_y
_atom_site_fract_z
Si Si1 0.521572 0.378139 0.904434
Si Si2 0.071854 0.285615 0.258106
Si Si3 0.632641 0.924751 0.857648
Si Si4 0.265711 0.075287 0.589357
Si Si5 0.621557 0.347306 0.206212
Si Si6 0.047717 0.270921 0.902855
O O1 0.543026 0.284108 0.925408
O O2 0.350937 0.407469 0.642642
O O3 0.669782 0.419696 0.049872
O O4 0.534017 0.397061 0.018460
O O5 0.250000 0.250000 0.500000
O O6 0.086569 0.361028 0.217396
O O7 0.000000 0.316341 0.250000
O O8 0.500000 0.956044 0.750000
O O9 0.565420 0.846467 0.726535
O O10 0.661689 0.988861 0.825058
O O11 0.803185 0.906481 0.128225
O O12 0.762302 0.294388 0.348438
O O13 0.484709 0.293540 0.070269
O O14 0.000000 0.237356 0.750000
#
# Coordination Sequence:
#
# PCOD8130357 Si02
#       6
#     8   8   8   8   8   8
#     4  10  21  35  54  86 115 146 187 242 272 332
#     4  10  17  32  53  75 104 150 191 216 270 330
#     4   9  19  39  59  80 113 153 190 232 289 342
#     4  10  20  36  57  78 119 158 181 227 290 337
#     4  10  21  36  63  87 116 142 194 241 278 337
#     4   9  19  39  61  88 112 148 189 234 291 339
#
# _framework density 21.189675999999999
#
# number of rings (size 3 to 8) (size 9 to 14) (size 15 to 20)
#    0.000    2.667    3.333    2.500    2.333    0.667 
#    9.000    3.333    3.667    0.000    0.000    0.000 
#    0.000    0.000    0.000    0.000    0.000    0.000 
#
# Total GULP energy -297475.578117 kJ/mol
# GULP energy per Si atom -12394.815755 kJ/mol
# Density = 2.114145 g / cm^3
# Si number density = 21.189676 Si / 1000 Ang^3
#
#
#
# Elastic Constant Matrix: (Units=GPa)
#
#
# Indices 1 2 3 4 5 6 
#
# 1 82.6954 41.8579 13.5320 0.0000 9.2258 0.0000
# 2 41.8579 84.7229 -3.5116 0.0000 12.3680 0.0000
# 3 13.5320 -3.5116 25.4186 0.0000 3.6660 0.0000
# 4 0.0000 0.0000 0.0000 15.1358 0.0000 12.6923
# 5 9.2258 12.3680 3.6660 0.0000 28.8779 0.0000
# 6 0.0000 0.0000 0.0000 12.6923 0.0000 30.5788
#
#
#
# Elastic Compliance Matrix: (Units=1/GPa)
#
#
# Indices 1 2 3 4 5 6 
#
# 1 0.018947 -0.009770 -0.011375 0.000000 -0.000424 0.000000
# 2 -0.009770 0.017795 0.008464 0.000000 -0.005574 0.000000
# 3 -0.011375 0.008464 0.047433 0.000000 -0.006012 0.000000
# 4 0.000000 0.000000 0.000000 0.101342 0.000000 -0.042064
# 5 -0.000424 -0.005574 -0.006012 0.000000 0.037915 0.000000
# 6 0.000000 0.000000 0.000000 -0.042064 0.000000 0.050162
#
#
# Mechanical properties :
#
#
# Convention : Reuss Voigt Hill
#
# Bulk Modulus (GPa) = 17.00349 32.95484 24.97916
# Shear Modulus (GPa) = 15.69558 24.31573 20.00566
#
# Velocity S-wave (km/s) = 2.72457 3.39119 3.07599
# Velocity P-wave (km/s) = 4.23551 5.56054 4.94263
#
# Compressibility (1/GPa) = 0.05881147
#
# Stress axis : x y z
#
# Youngs Moduli (GPa) = 52.77945 56.19607 21.08219
#
# Poissons Ratio (x) = 0.54905 0.23981
# Poissons Ratio (y) = 0.51567 -0.17843
# Poissons Ratio (z) = 0.60038 -0.47563
#
# Static dielectric constant tensor:
#      x y z
#    x 3.646710 0.000000 0.111600 
#    y 0.000000 3.873720 0.000000 
#    z 0.111600 0.000000 3.577950 
# 
# 
# High freq. dielectric constant tensor:
#      x y z
#    x 1.819550 0.000000 0.016140 
#    y 0.000000 1.814110 0.000000 
#    z 0.016140 0.000000 1.809710 
# 
# From -- ./inp_files/219995.got.cif
#   From: 2010.06.25/outbox.cif.g09.slc.cpg/sg15_110_cif.got.tgz:219995.got - 2010.06.28 07:06:18.
