data_PCOD8130487
_publ_section_title
;
Structure prediction by ZEFSAII (Michael W. Deem and Ramdas Pophale) SiO2 
 PCOD8130487
Probable space group: C 2/C
;
_chemical_formula_sum "Si O2"
_cell_formula_units_Z 44
_cell_length_a 11.806911
_cell_length_b 12.585779
_cell_length_c 18.682733
_cell_angle_alpha 90.000000
_cell_angle_beta 57.065677
_cell_angle_gamma 90.000000
_cell_volume 2330.081357
_symmetry_space_group_name_H-M "C 2/C"
_symmetry_group_IT_number 15
_symmetry_cell_setting 'monoclinic'
loop_
_space_group_symop_operation_xyz
x,y,z
-x,y,1/2-z
-x,-y,-z
x,-y,1/2+z
1/2+x,1/2+y,z
1/2-x,1/2+y,1/2-z
1/2-x,1/2-y,-z
1/2+x,1/2-y,1/2+z
loop_
_atom_site_type_symbol
_atom_site_label
_atom_site_fract_x
_atom_site_fract_y
_atom_site_fract_z
Si Si1 0.000000 0.908003 0.750000
Si Si2 0.140897 0.335217 0.514842
Si Si3 0.910317 0.729032 0.870590
Si Si4 0.627499 0.792258 0.955099
Si Si5 0.506833 0.990309 0.667217
Si Si6 0.785674 0.496259 0.127405
O O1 0.989884 0.824439 0.687515
O O2 0.128454 0.985414 0.698969
O O3 0.250000 0.250000 0.500000
O O4 0.119075 0.423941 0.584068
O O5 0.188389 0.384979 0.422129
O O6 0.000745 0.270298 0.551752
O O7 0.765501 0.739346 0.879048
O O8 0.958244 0.613014 0.835182
O O9 0.900192 0.752008 0.957426
O O10 0.653050 0.918991 0.949742
O O11 0.500000 0.941164 0.750000
O O12 0.363392 0.990104 0.675896
#
# Coordination Sequence:
#
# PCOD8130487 Si02
#       6
#     4   8   8   8   8   8
#     4  10  22  34  58  90 114 150 186 248 292 336
#     4  11  22  40  59  83 119 165 189 227 294 355
#     4  10  17  33  62  86 106 143 202 239 279 331
#     4   9  18  35  63  80 108 153 196 234 282 347
#     4  11  21  39  61  87 115 152 196 244 288 341
#     4  10  20  41  57  79 122 159 189 230 300 346
#
# _framework density 18.883461
#
# number of rings (size 3 to 8) (size 9 to 14) (size 15 to 20)
#    0.000    1.818    4.545    1.091    0.000    1.455 
#    4.909    0.909    0.000    0.000    0.000    0.000 
#    0.000    0.000    0.000    0.000    0.000    0.000 
#
# Total GULP energy -272591.288744 kJ/mol
# GULP energy per Si atom -12390.513125 kJ/mol
# Density = 1.884048 g / cm^3
# Si number density = 18.883461 Si / 1000 Ang^3
#
#
#
# Elastic Constant Matrix: (Units=GPa)
#
#
# Indices 1 2 3 4 5 6 
#
# 1 113.1573 42.7192 39.9304 0.0000 -8.3986 0.0000
# 2 42.7192 60.1323 22.6164 0.0000 -7.2133 0.0000
# 3 39.9304 22.6164 95.9339 0.0000 5.0334 0.0000
# 4 0.0000 0.0000 0.0000 14.9415 0.0000 0.9029
# 5 -8.3986 -7.2133 5.0334 0.0000 30.5325 0.0000
# 6 0.0000 0.0000 0.0000 0.9029 0.0000 31.8288
#
#
#
# Elastic Compliance Matrix: (Units=1/GPa)
#
#
# Indices 1 2 3 4 5 6 
#
# 1 0.013281 -0.007693 -0.003844 0.000000 0.002469 0.000000
# 2 -0.007693 0.023515 -0.002544 0.000000 0.003859 0.000000
# 3 -0.003844 -0.002544 0.012821 0.000000 -0.003772 0.000000
# 4 0.000000 0.000000 0.000000 0.067043 0.000000 -0.001902
# 5 0.002469 0.003859 -0.003772 0.000000 0.034965 0.000000
# 6 0.000000 0.000000 0.000000 -0.001902 0.000000 0.031472
#
#
# Mechanical properties :
#
#
# Convention : Reuss Voigt Hill
#
# Bulk Modulus (GPa) = 46.60812 53.30615 49.95714
# Shear Modulus (GPa) = 22.89254 26.39106 24.64180
#
# Velocity S-wave (km/s) = 3.48560 3.74247 3.61632
# Velocity P-wave (km/s) = 6.39803 6.85311 6.62947
#
# Compressibility (1/GPa) = 0.02145549
#
# Stress axis : x y z
#
# Youngs Moduli (GPa) = 75.29330 42.52562 77.99433
#
# Poissons Ratio (x) = 0.32717 0.29981
# Poissons Ratio (y) = 0.57926 0.19841
# Poissons Ratio (z) = 0.28942 0.10818
#
# Static dielectric constant tensor:
#      x y z
#    x 3.565760 0.000000 -0.048210 
#    y 0.000000 3.369840 0.000000 
#    z -0.048210 0.000000 3.665310 
# 
# 
# High freq. dielectric constant tensor:
#      x y z
#    x 1.727170 0.000000 -0.006940 
#    y 0.000000 1.717110 0.000000 
#    z -0.006940 0.000000 1.737780 
# 
# From -- ./inp_files/142913.got.cif
#   From: 2010.06.25/outbox.cif.g09.slc.cpg/sg15_72_cif.got.tgz:142913.got - 2010.06.28 07:06:18.
