data_PCOD8130248
_publ_section_title
;
Structure prediction by ZEFSAII (Michael W. Deem and Ramdas Pophale) SiO2 
 PCOD8130248
Probable space group: C 2/C
;
_chemical_formula_sum "Si O2"
_cell_formula_units_Z 60
_cell_length_a 12.223137
_cell_length_b 26.575348
_cell_length_c 11.189800
_cell_angle_alpha 90.000000
_cell_angle_beta 105.085579
_cell_angle_gamma 90.000000
_cell_volume 3509.565968
_symmetry_space_group_name_H-M "C 2/C"
_symmetry_group_IT_number 15
_symmetry_cell_setting 'monoclinic'
loop_
_space_group_symop_operation_xyz
x,y,z
-x,y,1/2-z
-x,-y,-z
x,-y,1/2+z
1/2+x,1/2+y,z
1/2-x,1/2+y,1/2-z
1/2-x,1/2-y,-z
1/2+x,1/2-y,1/2+z
loop_
_atom_site_type_symbol
_atom_site_label
_atom_site_fract_x
_atom_site_fract_y
_atom_site_fract_z
Si Si1 0.500000 0.318849 0.750000
Si Si2 0.083889 0.966305 0.884711
Si Si3 0.379802 0.563689 0.474966
Si Si4 0.743185 0.763988 0.134978
Si Si5 0.002616 0.242646 0.029744
Si Si6 0.088594 0.159889 0.869756
Si Si7 0.207329 0.108741 0.273371
Si Si8 0.104499 0.686801 0.187238
O O1 0.555898 0.286481 0.875543
O O2 0.397454 0.352223 0.774226
O O3 0.180794 0.925579 0.881211
O O4 0.000000 0.978951 0.750000
O O5 0.009890 0.942240 0.969938
O O6 0.149510 0.015912 0.950081
O O7 0.362756 0.614408 0.542594
O O8 0.293315 0.570241 0.339625
O O9 0.610891 0.767555 0.127355
O O10 0.806210 0.816740 0.174672
O O11 0.799828 0.720746 0.227869
O O12 0.750000 0.750000 0.000000
O O13 0.931736 0.287865 0.949043
O O14 0.032256 0.203597 0.933222
O O15 0.000000 0.138428 0.750000
O O16 0.331144 0.134145 0.321704
O O17 0.000000 0.679179 0.250000
#
# Coordination Sequence:
#
# PCOD8130248 Si02
#       8
#     4   8   8   8   8   8   8   8
#     4  12  20  36  54  74 116 152 178 214 286 334
#     4   9  18  34  50  79 111 135 176 234 291 342
#     4  10  18  30  55  78 108 141 172 228 290 334
#     4  10  17  31  49  73 109 137 178 236 258 304
#     4  11  21  33  50  76 112 146 185 225 260 328
#     4  11  17  28  48  77 107 135 175 228 273 319
#     4  11  20  35  55  79 110 146 182 225 284 341
#     4  12  21  35  55  82 110 153 196 224 264 331
#
# _framework density 17.096131
#
# number of rings (size 3 to 8) (size 9 to 14) (size 15 to 20)
#    0.000    1.333    8.667    1.200    0.000    0.533 
#    0.000    0.000    0.000    0.800    0.000    0.000 
#    0.000    0.000    0.000    0.000    0.000    0.000 
#
# Total GULP energy -371783.862896 kJ/mol
# GULP energy per Si atom -12392.795430 kJ/mol
# Density = 1.705722 g / cm^3
# Si number density = 17.096131 Si / 1000 Ang^3
#
#
#
# Elastic Constant Matrix: (Units=GPa)
#
#
# Indices 1 2 3 4 5 6 
#
# 1 52.3487 35.4863 28.1527 0.0000 8.4164 0.0000
# 2 35.4863 98.1175 29.5515 0.0000 -0.4559 0.0000
# 3 28.1527 29.5515 65.8691 0.0000 3.2277 0.0000
# 4 0.0000 0.0000 0.0000 29.3966 0.0000 -2.8179
# 5 8.4164 -0.4559 3.2277 0.0000 22.2247 0.0000
# 6 0.0000 0.0000 0.0000 -2.8179 0.0000 25.4018
#
#
#
# Elastic Compliance Matrix: (Units=1/GPa)
#
#
# Indices 1 2 3 4 5 6 
#
# 1 0.031674 -0.008775 -0.009069 0.000000 -0.010858 0.000000
# 2 -0.008775 0.014238 -0.002835 0.000000 0.004027 0.000000
# 3 -0.009069 -0.002835 0.020308 0.000000 0.000427 0.000000
# 4 0.000000 0.000000 0.000000 0.034383 0.000000 0.003814
# 5 -0.010858 0.004027 0.000427 0.000000 0.049127 0.000000
# 6 0.000000 0.000000 0.000000 0.003814 0.000000 0.039790
#
#
# Mechanical properties :
#
#
# Convention : Reuss Voigt Hill
#
# Bulk Modulus (GPa) = 40.21890 44.74624 42.48257
# Shear Modulus (GPa) = 20.90611 23.61429 22.26020
#
# Velocity S-wave (km/s) = 3.50073 3.72057 3.61232
# Velocity P-wave (km/s) = 6.31794 6.68483 6.50397
#
# Compressibility (1/GPa) = 0.02486393
#
# Stress axis : x y z
#
# Youngs Moduli (GPa) = 31.57213 70.23539 49.24052
#
# Poissons Ratio (x) = 0.61628 0.44655
# Poissons Ratio (y) = 0.27703 0.13958
# Poissons Ratio (z) = 0.28632 0.19910
#
# Static dielectric constant tensor:
#      x y z
#    x 4.174360 0.000000 0.315670 
#    y 0.000000 3.283570 0.000000 
#    z 0.315670 0.000000 3.308680 
# 
# 
# High freq. dielectric constant tensor:
#      x y z
#    x 1.625930 0.000000 -0.008280 
#    y 0.000000 1.648150 0.000000 
#    z -0.008280 0.000000 1.660150 
# 
# From -- ./inp_files/90872.got.cif
#   From: 2010.06.25/outbox.cif.g09.slc.cpg/sg15_46_cif.got.tgz:90872.got - 2010.06.28 07:06:18.
