data_PCOD8130127
_publ_section_title
;
Structure prediction by ZEFSAII (Michael W. Deem and Ramdas Pophale) SiO2 
 PCOD8130127
Probable space group: C 2/C
;
_chemical_formula_sum "Si O2"
_cell_formula_units_Z 56
_cell_length_a 15.866287
_cell_length_b 25.753725
_cell_length_c 12.691292
_cell_angle_alpha 90.000000
_cell_angle_beta 146.542097
_cell_angle_gamma 90.000000
_cell_volume 2859.092566
_symmetry_space_group_name_H-M "C 2/C"
_symmetry_group_IT_number 15
_symmetry_cell_setting 'monoclinic'
loop_
_space_group_symop_operation_xyz
x,y,z
-x,y,1/2-z
-x,-y,-z
x,-y,1/2+z
1/2+x,1/2+y,z
1/2-x,1/2+y,1/2-z
1/2-x,1/2-y,-z
1/2+x,1/2-y,1/2+z
loop_
_atom_site_type_symbol
_atom_site_label
_atom_site_fract_x
_atom_site_fract_y
_atom_site_fract_z
Si Si1 0.539125 0.364148 0.672217
Si Si2 0.493154 0.177314 0.616240
Si Si3 0.664218 0.529912 0.054567
Si Si4 0.294506 0.262235 0.663987
Si Si5 0.846270 0.529336 0.038825
Si Si6 0.340739 0.076299 0.416254
Si Si7 0.126040 0.929787 0.151098
O O1 0.500000 0.379196 0.750000
O O2 0.564584 0.302735 0.687749
O O3 0.690156 0.397063 0.805355
O O4 0.401413 0.377910 0.446851
O O5 0.500000 0.174802 0.750000
O O6 0.642078 0.207061 0.723762
O O7 0.348209 0.211874 0.425131
O O8 0.479191 0.118421 0.558490
O O9 0.710028 0.523570 0.981197
O O10 0.808348 0.556444 0.264559
O O11 0.623686 0.474788 0.061927
O O12 0.512767 0.564822 0.909920
O O13 0.250000 0.250000 0.500000
O O14 0.000000 0.553170 0.250000
O O15 0.887916 0.472631 0.036772
O O16 0.784685 0.568036 0.882460
#
# Coordination Sequence:
#
# PCOD8130127 Si02
#       7
#     8   8   8   8   8   8   8
#     4  10  17  29  49  73  98 127 164 201 239 293
#     4   9  16  29  44  65  95 124 157 192 237 294
#     4   9  18  34  50  67  93 126 170 212 245 288
#     4   9  17  28  44  67  97 129 155 191 241 293
#     4  11  21  33  47  69 101 134 164 208 253 289
#     4   9  19  30  47  70  93 129 167 200 247 295
#     4   9  19  32  51  72  92 128 171 207 246 296
#
# _framework density 19.586634
#
# number of rings (size 3 to 8) (size 9 to 14) (size 15 to 20)
#    0.000    2.571    0.000    3.857    0.000    2.286 
#    0.000    7.143    0.000    0.000    0.000    1.000 
#    0.000    4.571    0.000    0.857    0.000    0.000 
#
# Total GULP energy -346930.246614 kJ/mol
# GULP energy per Si atom -12390.365951 kJ/mol
# Density = 1.954205 g / cm^3
# Si number density = 19.586634 Si / 1000 Ang^3
#
#
#
# Elastic Constant Matrix: (Units=GPa)
#
#
# Indices 1 2 3 4 5 6 
#
# 1 35.7500 7.8925 8.6887 0.0000 -8.5204 0.0000
# 2 7.8925 92.1603 54.6892 0.0000 -4.4152 0.0000
# 3 8.6887 54.6892 113.0164 0.0000 -4.7861 0.0000
# 4 0.0000 0.0000 0.0000 44.8588 0.0000 4.2737
# 5 -8.5204 -4.4152 -4.7861 0.0000 16.7056 0.0000
# 6 0.0000 0.0000 0.0000 4.2737 0.0000 13.2065
#
#
#
# Elastic Compliance Matrix: (Units=1/GPa)
#
#
# Indices 1 2 3 4 5 6 
#
# 1 0.032313 -0.001309 -0.001182 0.000000 0.015796 0.000000
# 2 -0.001309 0.015337 -0.007266 0.000000 0.001304 0.000000
# 3 -0.001182 -0.007266 0.012500 0.000000 0.001058 0.000000
# 4 0.000000 0.000000 0.000000 0.023001 0.000000 -0.007443
# 5 0.015796 0.001304 0.001058 0.000000 0.068564 0.000000
# 6 0.000000 0.000000 0.000000 -0.007443 0.000000 0.078129
#
#
# Mechanical properties :
#
#
# Convention : Reuss Voigt Hill
#
# Bulk Modulus (GPa) = 24.60849 42.60751 33.60800
# Shear Modulus (GPa) = 19.01839 26.26459 22.64149
#
# Velocity S-wave (km/s) = 3.11945 3.66586 3.40364
# Velocity P-wave (km/s) = 5.05626 6.30227 5.71334
#
# Compressibility (1/GPa) = 0.04063639
#
# Stress axis : x y z
#
# Youngs Moduli (GPa) = 30.94725 65.20252 80.00103
#
# Poissons Ratio (x) = 0.08537 0.09454
# Poissons Ratio (y) = 0.04052 0.58126
# Poissons Ratio (z) = 0.03657 0.47374
#
# Static dielectric constant tensor:
#      x y z
#    x 3.262110 0.000000 0.202150 
#    y 0.000000 3.776100 0.000000 
#    z 0.202150 0.000000 3.830960 
# 
# 
# High freq. dielectric constant tensor:
#      x y z
#    x 1.726260 0.000000 0.021990 
#    y 0.000000 1.746140 0.000000 
#    z 0.021990 0.000000 1.765960 
# 
# From -- ./inp_files/101088.got.cif
#   From: 2010.06.25/outbox.cif.g09.slc.cpg/sg15_51_cif.got.tgz:101088.got - 2010.06.28 07:06:18.
