data_PCOD8130949
_publ_section_title
;
Structure prediction by ZEFSAII (Michael W. Deem and Ramdas Pophale) SiO2 
 PCOD8130949
Probable space group: C 2/C
;
_chemical_formula_sum "Si O2"
_cell_formula_units_Z 64
_cell_length_a 8.539062
_cell_length_b 24.818609
_cell_length_c 19.964615
_cell_angle_alpha 90.000000
_cell_angle_beta 46.804959
_cell_angle_gamma 90.000000
_cell_volume 3084.556123
_symmetry_space_group_name_H-M "C 2/C"
_symmetry_group_IT_number 15
_symmetry_cell_setting 'monoclinic'
loop_
_space_group_symop_operation_xyz
x,y,z
-x,y,1/2-z
-x,-y,-z
x,-y,1/2+z
1/2+x,1/2+y,z
1/2-x,1/2+y,1/2-z
1/2-x,1/2-y,-z
1/2+x,1/2-y,1/2+z
loop_
_atom_site_type_symbol
_atom_site_label
_atom_site_fract_x
_atom_site_fract_y
_atom_site_fract_z
Si Si1 0.163678 0.670093 0.568170
Si Si2 0.765411 0.687210 0.475282
Si Si3 0.464087 0.446479 0.338034
Si Si4 0.323532 0.647453 0.658605
Si Si5 0.547517 0.430849 0.658765
Si Si6 0.610747 0.246415 0.785283
Si Si7 0.629030 0.663258 0.373302
Si Si8 0.018857 0.391088 0.494942
O O1 0.157629 0.643655 0.645201
O O2 0.391883 0.678292 0.467664
O O3 0.067363 0.729370 0.607711
O O4 0.001549 0.634518 0.572470
O O5 0.750000 0.750000 0.500000
O O6 0.550705 0.659603 0.560770
O O7 0.791103 0.672014 0.388527
O O8 0.959268 0.657954 0.457837
O O9 0.500000 0.437838 0.250000
O O10 0.654445 0.410669 0.314141
O O11 0.506393 0.508072 0.345641
O O12 0.225599 0.429978 0.433039
O O13 0.270117 0.696202 0.725507
O O14 0.500000 0.417779 0.750000
O O15 0.395718 0.395907 0.653011
O O16 0.802207 0.423112 0.574584
O O17 0.500000 0.267213 0.750000
O O18 0.721686 0.297649 0.787688
#
# Coordination Sequence:
#
# PCOD8130949 Si02
#       8
#     8   8   8   8   8   8   8   8
#     4   9  18  33  54  79 108 141 180 223 272 329
#     4  10  21  36  54  79 111 143 179 230 284 334
#     4  10  20  37  59  83 112 143 184 235 281 324
#     4   9  20  35  53  82 109 138 181 229 281 331
#     4  10  22  39  58  80 110 151 192 229 270 329
#     4  10  18  30  53  81 109 140 179 226 273 331
#     4  10  20  35  53  79 111 149 185 221 274 335
#     4  10  20  37  59  81 109 147 187 229 278 333
#
# _framework density 20.748526999999999
#
# number of rings (size 3 to 8) (size 9 to 14) (size 15 to 20)
#    0.000    2.250    0.000    2.625    0.000    7.000 
#    0.000   13.125    0.000    3.000    0.000    0.000 
#    0.000    0.000    0.000    0.000    0.000    0.000 
#
# Total GULP energy -396499.253238 kJ/mol
# GULP energy per Si atom -12390.601664 kJ/mol
# Density = 2.070130 g / cm^3
# Si number density = 20.748527 Si / 1000 Ang^3
#
#
#
# Elastic Constant Matrix: (Units=GPa)
#
#
# Indices 1 2 3 4 5 6 
#
# 1 89.8360 66.8744 23.1939 0.0000 25.1264 0.0000
# 2 66.8744 147.8098 40.2503 0.0000 29.4302 0.0000
# 3 23.1939 40.2503 63.2753 0.0000 22.9030 0.0000
# 4 0.0000 0.0000 0.0000 24.9330 0.0000 -0.1865
# 5 25.1264 29.4302 22.9030 0.0000 28.5503 0.0000
# 6 0.0000 0.0000 0.0000 -0.1865 0.0000 30.5204
#
#
#
# Elastic Compliance Matrix: (Units=1/GPa)
#
#
# Indices 1 2 3 4 5 6 
#
# 1 0.018779 -0.006723 0.001221 0.000000 -0.010576 0.000000
# 2 -0.006723 0.011391 -0.003767 0.000000 -0.002804 0.000000
# 3 0.001221 -0.003767 0.023584 0.000000 -0.016111 0.000000
# 4 0.000000 0.000000 0.000000 0.040109 0.000000 0.000245
# 5 -0.010576 -0.002804 -0.016111 0.000000 0.060148 0.000000
# 6 0.000000 0.000000 0.000000 0.000245 0.000000 0.032767
#
#
# Mechanical properties :
#
#
# Convention : Reuss Voigt Hill
#
# Bulk Modulus (GPa) = 28.39562 62.39537 45.39549
# Shear Modulus (GPa) = 23.03576 28.17423 25.60500
#
# Velocity S-wave (km/s) = 3.33564 3.68895 3.51673
# Velocity P-wave (km/s) = 5.34328 6.94852 6.19809
#
# Compressibility (1/GPa) = 0.03521670
#
# Stress axis : x y z
#
# Youngs Moduli (GPa) = 53.25160 87.78739 42.40177
#
# Poissons Ratio (x) = 0.59019 -0.05178
# Poissons Ratio (y) = 0.35801 0.15972
# Poissons Ratio (z) = -0.06503 0.33069
#
# Static dielectric constant tensor:
#      x y z
#    x 4.168130 0.000000 0.274270 
#    y 0.000000 3.854990 0.000000 
#    z 0.274270 0.000000 3.798570 
# 
# 
# High freq. dielectric constant tensor:
#      x y z
#    x 1.802950 0.000000 0.012760 
#    y 0.000000 1.803320 0.000000 
#    z 0.012760 0.000000 1.822020 
# 
# From -- ./inp_files/234442.got.cif
#   From: 2010.06.25/outbox.cif.g09.slc.cpg/sg15_118_cif.got.tgz:234442.got - 2010.06.28 07:06:18.
