data_PCOD8130298
_publ_section_title
;
Structure prediction by ZEFSAII (Michael W. Deem and Ramdas Pophale) SiO2 
 PCOD8130298
Probable space group: C 2/C
;
_chemical_formula_sum "Si O2"
_cell_formula_units_Z 64
_cell_length_a 20.555217
_cell_length_b 10.358714
_cell_length_c 21.602289
_cell_angle_alpha 90.000000
_cell_angle_beta 129.028751
_cell_angle_gamma 90.000000
_cell_volume 3573.170247
_symmetry_space_group_name_H-M "C 2/C"
_symmetry_group_IT_number 15
_symmetry_cell_setting 'monoclinic'
loop_
_space_group_symop_operation_xyz
x,y,z
-x,y,1/2-z
-x,-y,-z
x,-y,1/2+z
1/2+x,1/2+y,z
1/2-x,1/2+y,1/2-z
1/2-x,1/2-y,-z
1/2+x,1/2-y,1/2+z
loop_
_atom_site_type_symbol
_atom_site_label
_atom_site_fract_x
_atom_site_fract_y
_atom_site_fract_z
Si Si1 0.669975 0.143184 0.102345
Si Si2 0.080279 0.190566 0.334208
Si Si3 0.186953 0.443471 0.935835
Si Si4 0.294554 0.872695 0.158890
Si Si5 0.906900 0.739348 0.206643
Si Si6 0.703059 0.465018 0.389004
Si Si7 0.889527 0.538895 0.305834
Si Si8 0.944145 0.378521 0.075729
O O1 0.717383 0.278951 0.125150
O O2 0.646861 0.118627 0.159120
O O3 0.728676 0.026347 0.115467
O O4 0.584371 0.152647 0.011439
O O5 0.123473 0.301135 0.318547
O O6 0.048084 0.246096 0.380682
O O7 0.000000 0.136927 0.250000
O O8 0.144188 0.074342 0.383685
O O9 0.233309 0.517417 0.906985
O O10 0.129292 0.328912 0.876295
O O11 0.130132 0.544084 0.937613
O O12 0.254581 0.393185 0.026594
O O13 0.320105 0.939520 0.238823
O O14 0.848398 0.863459 0.183668
O O15 0.911604 0.641703 0.266353
O O16 0.000000 0.790043 0.250000
O O17 0.970574 0.458613 0.374930
#
# Coordination Sequence:
#
# PCOD8130298 Si02
#       8
#     8   8   8   8   8   8   8   8
#     4  10  22  35  52  79 110 139 174 215 265 316
#     4  10  17  31  56  82 106 130 172 225 266 297
#     4   9  18  34  56  78 105 133 177 220 264 304
#     4   9  19  33  54  80 103 139 176 216 262 306
#     4  11  21  35  55  78 105 140 177 215 266 310
#     4  10  21  34  52  82 109 136 168 218 270 320
#     4  11  21  34  57  76 108 145 178 215 255 317
#     4  10  18  34  57  80 102 134 180 225 258 305
#
# _framework density 17.911266000000001
#
# number of rings (size 3 to 8) (size 9 to 14) (size 15 to 20)
#    0.000    2.000    2.500    1.875    1.750    3.000 
#    0.000    0.000    0.000    0.000    0.000    3.500 
#    0.000    0.000    0.000    0.000    0.000    0.000 
#
# Total GULP energy -396770.488890 kJ/mol
# GULP energy per Si atom -12399.077778 kJ/mol
# Density = 1.787050 g / cm^3
# Si number density = 17.911266 Si / 1000 Ang^3
#
#
#
# Elastic Constant Matrix: (Units=GPa)
#
#
# Indices 1 2 3 4 5 6 
#
# 1 49.0037 6.2183 31.0544 0.0000 3.9570 0.0000
# 2 6.2183 45.6796 21.2896 0.0000 7.5019 0.0000
# 3 31.0544 21.2896 97.4216 0.0000 8.3860 0.0000
# 4 0.0000 0.0000 0.0000 22.5761 0.0000 1.7427
# 5 3.9570 7.5019 8.3860 0.0000 23.1258 0.0000
# 6 0.0000 0.0000 0.0000 1.7427 0.0000 25.3181
#
#
#
# Elastic Compliance Matrix: (Units=1/GPa)
#
#
# Indices 1 2 3 4 5 6 
#
# 1 0.025634 0.000578 -0.008158 0.000000 -0.001615 0.000000
# 2 0.000578 0.025270 -0.005153 0.000000 -0.006428 0.000000
# 3 -0.008158 -0.005153 0.014170 0.000000 -0.002071 0.000000
# 4 0.000000 0.000000 0.000000 0.044531 0.000000 -0.003065
# 5 -0.001615 -0.006428 -0.002071 0.000000 0.046354 0.000000
# 6 0.000000 0.000000 0.000000 -0.003065 0.000000 0.039708
#
#
# Mechanical properties :
#
#
# Convention : Reuss Voigt Hill
#
# Bulk Modulus (GPa) = 25.24832 34.35884 29.80358
# Shear Modulus (GPa) = 21.33681 23.10685 22.22183
#
# Velocity S-wave (km/s) = 3.45519 3.59566 3.52612
# Velocity P-wave (km/s) = 5.48131 6.03844 5.76661
#
# Compressibility (1/GPa) = 0.03960659
#
# Stress axis : x y z
#
# Youngs Moduli (GPa) = 39.01095 39.57214 70.57334
#
# Poissons Ratio (x) = -0.02288 0.57577
# Poissons Ratio (y) = -0.02255 0.36369
# Poissons Ratio (z) = 0.31827 0.20393
#
# Static dielectric constant tensor:
#      x y z
#    x 3.010010 0.000000 0.042960 
#    y 0.000000 3.228540 0.000000 
#    z 0.042960 0.000000 3.542720 
# 
# 
# High freq. dielectric constant tensor:
#      x y z
#    x 1.665880 0.000000 0.007160 
#    y 0.000000 1.686900 0.000000 
#    z 0.007160 0.000000 1.709150 
# 
# From -- ./inp_files/252403.got.cif
#   From: 2010.06.25/outbox.cif.g09.slc.cpg/sg15_127_cif.got.tgz:252403.got - 2010.06.28 07:06:18.
