data_PCOD8130152
_publ_section_title
;
Structure prediction by ZEFSAII (Michael W. Deem and Ramdas Pophale) SiO2 
 PCOD8130152
Probable space group: C 2/C
;
_chemical_formula_sum "Si O2"
_cell_formula_units_Z 48
_cell_length_a 15.340804
_cell_length_b 12.862378
_cell_length_c 22.771386
_cell_angle_alpha 90.000000
_cell_angle_beta 142.109291
_cell_angle_gamma 90.000000
_cell_volume 2759.551017
_symmetry_space_group_name_H-M "C 2/C"
_symmetry_group_IT_number 15
_symmetry_cell_setting 'monoclinic'
loop_
_space_group_symop_operation_xyz
x,y,z
-x,y,1/2-z
-x,-y,-z
x,-y,1/2+z
1/2+x,1/2+y,z
1/2-x,1/2+y,1/2-z
1/2-x,1/2-y,-z
1/2+x,1/2-y,1/2+z
loop_
_atom_site_type_symbol
_atom_site_label
_atom_site_fract_x
_atom_site_fract_y
_atom_site_fract_z
Si Si1 0.266517 0.297739 0.671656
Si Si2 0.325043 0.406368 0.518893
Si Si3 0.655569 0.082493 0.820012
Si Si4 0.723268 0.133579 0.733823
Si Si5 0.082541 0.314929 0.468701
Si Si6 0.943965 0.004759 0.782380
O O1 0.350620 0.209643 0.678135
O O2 0.229865 0.247245 0.715909
O O3 0.123852 0.324441 0.559467
O O4 0.363182 0.397339 0.729879
O O5 0.267692 0.458531 0.427915
O O6 0.190355 0.384039 0.488221
O O7 0.415481 0.302917 0.553811
O O8 0.425984 0.489660 0.603783
O O9 0.500000 0.036260 0.750000
O O10 0.705881 0.054055 0.780438
O O11 0.574843 0.140235 0.620857
O O12 0.841352 0.093101 0.752624
O O13 0.000000 0.046378 0.750000
#
# Coordination Sequence:
#
# PCOD8130152 Si02
#       6
#     8   8   8   8   8   8
#     4   9  19  33  53  80 107 137 180 225 273 318
#     4  10  17  29  58  82 107 139 177 227 281 316
#     4   9  16  31  53  80 110 135 170 224 276 318
#     4  10  22  33  52  86 115 141 180 229 279 326
#     4  10  17  31  56  84 108 141 174 232 277 323
#     4  12  22  35  54  83 112 147 186 227 269 326
#
# _framework density 17.394134000000001
#
# number of rings (size 3 to 8) (size 9 to 14) (size 15 to 20)
#    1.000    1.000    5.000    0.500    2.333    1.333 
#    0.000    0.000    0.000    2.000    0.000    0.000 
#    0.000    0.000    0.000    0.000    0.000    0.000 
#
# Total GULP energy -297415.040461 kJ/mol
# GULP energy per Si atom -12392.293353 kJ/mol
# Density = 1.735454 g / cm^3
# Si number density = 17.394134 Si / 1000 Ang^3
#
#
#
# Elastic Constant Matrix: (Units=GPa)
#
#
# Indices 1 2 3 4 5 6 
#
# 1 112.1101 31.9140 59.1265 0.0000 4.1493 0.0000
# 2 31.9140 17.6847 24.9450 0.0000 4.3669 0.0000
# 3 59.1265 24.9450 159.8238 0.0001 -3.8745 0.0000
# 4 0.0000 0.0000 0.0001 11.0374 0.0000 3.3237
# 5 4.1493 4.3669 -3.8745 0.0000 21.2322 0.0000
# 6 0.0000 0.0000 0.0000 3.3237 0.0000 23.5449
#
#
#
# Elastic Compliance Matrix: (Units=1/GPa)
#
#
# Indices 1 2 3 4 5 6 
#
# 1 0.019022 -0.032209 -0.001948 0.000000 0.002552 0.000000
# 2 -0.032209 0.133766 -0.009519 0.000000 -0.022955 0.000000
# 3 -0.001948 -0.009519 0.008558 0.000000 0.003900 0.000000
# 4 0.000000 0.000000 0.000000 0.094624 0.000000 -0.013357
# 5 0.002552 -0.022955 0.003900 0.000000 0.052032 0.000000
# 6 0.000000 0.000000 0.000000 -0.013357 0.000000 0.044358
#
#
# Mechanical properties :
#
#
# Convention : Reuss Voigt Hill
#
# Bulk Modulus (GPa) = 13.51465 57.95439 35.73452
# Shear Modulus (GPa) = 10.76717 22.73845 16.75281
#
# Velocity S-wave (km/s) = 2.49069 3.61951 3.10680
# Velocity P-wave (km/s) = 4.00723 7.13151 5.78431
#
# Compressibility (1/GPa) = 0.07399378
#
# Stress axis : x y z
#
# Youngs Moduli (GPa) = 52.57194 7.47575 116.85293
#
# Poissons Ratio (x) = 0.24079 0.22763
# Poissons Ratio (y) = 1.69329 1.11229
# Poissons Ratio (z) = 0.10241 0.07116
#
# Static dielectric constant tensor:
#      x y z
#    x 3.053440 0.000000 -0.281100 
#    y 0.000000 2.668070 0.000000 
#    z -0.281100 0.000000 3.531750 
# 
# 
# High freq. dielectric constant tensor:
#      x y z
#    x 1.646470 0.000000 -0.015540 
#    y 0.000000 1.607920 0.000000 
#    z -0.015540 0.000000 1.698600 
# 
# From -- ./inp_files/153589.got.cif
#   From: 2010.06.25/outbox.cif.g09.slc.cpg/sg15_77_cif.got.tgz:153589.got - 2010.06.28 07:06:18.
