data_PCOD8130101
_publ_section_title
;
Structure prediction by ZEFSAII (Michael W. Deem and Ramdas Pophale) SiO2 
 PCOD8130101
Probable space group: C 2/C
;
_chemical_formula_sum "Si O2"
_cell_formula_units_Z 48
_cell_length_a 23.277616
_cell_length_b 18.399306
_cell_length_c 16.357912
_cell_angle_alpha 90.000000
_cell_angle_beta 158.066419
_cell_angle_gamma 90.000000
_cell_volume 2616.947844
_symmetry_space_group_name_H-M "C 2/C"
_symmetry_group_IT_number 15
_symmetry_cell_setting 'monoclinic'
loop_
_space_group_symop_operation_xyz
x,y,z
-x,y,1/2-z
-x,-y,-z
x,-y,1/2+z
1/2+x,1/2+y,z
1/2-x,1/2+y,1/2-z
1/2-x,1/2-y,-z
1/2+x,1/2-y,1/2+z
loop_
_atom_site_type_symbol
_atom_site_label
_atom_site_fract_x
_atom_site_fract_y
_atom_site_fract_z
Si Si1 0.164777 0.279407 0.308352
Si Si2 0.806460 0.291575 0.839802
Si Si3 0.820780 0.334562 0.420732
Si Si4 0.176971 0.328378 0.896787
Si Si5 0.313927 0.079781 0.240764
Si Si6 0.822316 0.419681 0.270374
O O1 0.250000 0.250000 0.500000
O O2 0.203254 0.226940 0.282510
O O3 0.217829 0.361550 0.354266
O O4 0.985871 0.279559 0.095043
O O5 0.766473 0.241550 0.708813
O O6 0.769180 0.374390 0.762899
O O7 0.795857 0.365904 0.478798
O O8 0.755273 0.392064 0.268574
O O9 0.999295 0.317880 0.640608
O O10 0.252291 0.380072 0.927517
O O11 0.250000 0.250000 0.000000
O O12 0.496491 0.073397 0.478861
O O13 0.245195 0.998047 0.150866
#
# Coordination Sequence:
#
# PCOD8130101 Si02
#       6
#     8   8   8   8   8   8
#     4  10  20  35  55  79  99 133 178 218 252 300
#     4  10  19  33  56  76 102 136 171 212 260 303
#     4   9  18  30  48  75 102 133 163 209 259 302
#     4  10  17  28  50  77 104 127 170 210 252 304
#     4   9  16  31  50  75 101 134 169 209 253 304
#     4   8  17  32  50  71 104 133 167 213 259 293
#
# _framework density 18.341978000000001
#
# number of rings (size 3 to 8) (size 9 to 14) (size 15 to 20)
#    0.000    2.667    1.667    1.500    0.000    0.000 
#    3.000    0.000    0.000   12.000    0.000    0.000 
#    0.000    0.000    0.000    0.000    0.000    0.000 
#
# Total GULP energy -297405.998834 kJ/mol
# GULP energy per Si atom -12391.916618 kJ/mol
# Density = 1.830023 g / cm^3
# Si number density = 18.341978 Si / 1000 Ang^3
#
#
#
# Elastic Constant Matrix: (Units=GPa)
#
#
# Indices 1 2 3 4 5 6 
#
# 1 77.4712 49.9565 20.2762 0.0000 -20.9291 0.0000
# 2 49.9565 155.3103 31.0096 0.0000 -22.8285 0.0000
# 3 20.2762 31.0096 47.5677 0.0000 -23.9198 0.0000
# 4 0.0000 0.0000 0.0000 23.4906 0.0000 -5.2468
# 5 -20.9291 -22.8285 -23.9198 0.0000 27.4548 0.0000
# 6 0.0000 0.0000 0.0000 -5.2468 0.0000 21.3785
#
#
#
# Elastic Compliance Matrix: (Units=1/GPa)
#
#
# Indices 1 2 3 4 5 6 
#
# 1 0.018612 -0.004481 0.000442 0.000000 0.010848 0.000000
# 2 -0.004481 0.008672 -0.003266 0.000000 0.000950 0.000000
# 3 0.000442 -0.003266 0.038739 0.000000 0.031373 0.000000
# 4 0.000000 0.000000 0.000000 0.045039 0.000000 0.011054
# 5 0.010848 0.000950 0.031373 0.000000 0.072816 0.000000
# 6 0.000000 0.000000 0.000000 0.011054 0.000000 0.049489
#
#
# Mechanical properties :
#
#
# Convention : Reuss Voigt Hill
#
# Bulk Modulus (GPa) = 19.44948 53.64821 36.54885
# Shear Modulus (GPa) = 18.85985 26.40522 22.63253
#
# Velocity S-wave (km/s) = 3.21009 3.79833 3.51653
# Velocity P-wave (km/s) = 4.93623 6.96770 6.03801
#
# Compressibility (1/GPa) = 0.05141525
#
# Stress axis : x y z
#
# Youngs Moduli (GPa) = 53.72846 115.32023 25.81360
#
# Poissons Ratio (x) = 0.51669 -0.01142
# Poissons Ratio (y) = 0.24073 0.08430
# Poissons Ratio (z) = -0.02376 0.37659
#
# Static dielectric constant tensor:
#      x y z
#    x 3.552010 0.000000 -0.228440 
#    y 0.000000 3.673330 0.000000 
#    z -0.228440 0.000000 3.189710 
# 
# 
# High freq. dielectric constant tensor:
#      x y z
#    x 1.710200 0.000000 -0.018180 
#    y 0.000000 1.701580 0.000000 
#    z -0.018180 0.000000 1.685200 
# 
# From -- ./inp_files/127119.got.cif
#   From: 2010.06.25/outbox.cif.g09.slc.cpg/sg15_64_cif.got.tgz:127119.got - 2010.06.28 07:06:18.
