data_PCOD8130442
_publ_section_title
;
Structure prediction by ZEFSAII (Michael W. Deem and Ramdas Pophale) SiO2 
 PCOD8130442
Probable space group: C 2/C
;
_chemical_formula_sum "Si O2"
_cell_formula_units_Z 56
_cell_length_a 7.649164
_cell_length_b 26.202404
_cell_length_c 18.317737
_cell_angle_alpha 90.000000
_cell_angle_beta 114.702408
_cell_angle_gamma 90.000000
_cell_volume 3335.395783
_symmetry_space_group_name_H-M "C 2/C"
_symmetry_group_IT_number 15
_symmetry_cell_setting 'monoclinic'
loop_
_space_group_symop_operation_xyz
x,y,z
-x,y,1/2-z
-x,-y,-z
x,-y,1/2+z
1/2+x,1/2+y,z
1/2-x,1/2+y,1/2-z
1/2-x,1/2-y,-z
1/2+x,1/2-y,1/2+z
loop_
_atom_site_type_symbol
_atom_site_label
_atom_site_fract_x
_atom_site_fract_y
_atom_site_fract_z
Si Si1 0.594731 0.301282 0.045448
Si Si2 0.459580 0.409104 0.518580
Si Si3 0.093395 0.049606 0.343523
Si Si4 0.422542 0.909222 0.981468
Si Si5 0.907624 0.168767 0.657300
Si Si6 0.003342 0.698705 0.954819
Si Si7 0.163736 0.059098 0.913847
O O1 0.497311 0.349020 0.985885
O O2 0.548606 0.306233 0.122511
O O3 0.824634 0.299517 0.074148
O O4 0.496333 0.249942 0.000363
O O5 0.535422 0.426324 0.612467
O O6 0.227054 0.418234 0.477071
O O7 0.553442 0.443033 0.471874
O O8 0.310524 0.073523 0.387598
O O9 0.000000 0.064055 0.250000
O O10 0.104207 0.988808 0.354728
O O11 0.474938 0.849164 0.985872
O O12 0.609754 0.943192 0.028248
O O13 0.697465 0.194045 0.622081
O O14 0.892228 0.108328 0.642365
O O15 0.000000 0.181037 0.750000
#
# Coordination Sequence:
#
# PCOD8130442 Si02
#       7
#     8   8   8   8   8   8   8
#     4   9  17  33  54  72  93 133 168 191 235 297
#     4   8  18  31  51  73  92 124 165 196 228 290
#     4  10  19  32  48  71 101 124 155 206 243 272
#     4   8  18  31  51  73  92 124 165 196 228 290
#     4  10  20  31  48  78 103 119 157 214 249 274
#     4   9  17  33  54  72  93 133 168 191 235 297
#     4  10  17  33  54  67  92 133 163 190 241 296
#
# _framework density 16.789612000000002
#
# number of rings (size 3 to 8) (size 9 to 14) (size 15 to 20)
#    0.857    2.000    0.000    1.714    0.000    0.571 
#    0.000    2.143    0.000    1.714    0.000    0.000 
#    0.000    0.000    0.000    0.000    0.000    0.000 
#
# Total GULP energy -346961.961534 kJ/mol
# GULP energy per Si atom -12391.498626 kJ/mol
# Density = 1.675140 g / cm^3
# Si number density = 16.789612 Si / 1000 Ang^3
#
#
#
# Elastic Constant Matrix: (Units=GPa)
#
#
# Indices 1 2 3 4 5 6 
#
# 1 85.3454 37.1405 52.3471 0.0000 -0.9004 0.0000
# 2 37.1405 82.4335 51.7215 0.0000 -1.1378 0.0000
# 3 52.3471 51.7215 128.8447 0.0000 -1.5169 0.0000
# 4 0.0000 0.0000 0.0000 18.7850 0.0000 1.8439
# 5 -0.9004 -1.1378 -1.5169 0.0000 7.8169 0.0000
# 6 0.0000 0.0000 0.0000 1.8439 0.0000 42.4903
#
#
#
# Elastic Compliance Matrix: (Units=1/GPa)
#
#
# Indices 1 2 3 4 5 6 
#
# 1 0.016706 -0.004366 -0.005031 0.000000 0.000313 0.000000
# 2 -0.004366 0.017365 -0.005185 0.000000 0.001019 0.000000
# 3 -0.005031 -0.005185 0.011898 0.000000 0.000975 0.000000
# 4 0.000000 0.000000 0.000000 0.053462 0.000000 -0.002320
# 5 0.000313 0.001019 0.000975 0.000000 0.128302 0.000000
# 6 0.000000 0.000000 0.000000 -0.002320 0.000000 0.023635
#
#
# Mechanical properties :
#
#
# Convention : Reuss Voigt Hill
#
# Bulk Modulus (GPa) = 59.50445 64.33798 61.92122
# Shear Modulus (GPa) = 17.47425 24.17940 20.82682
#
# Velocity S-wave (km/s) = 3.22961 3.79904 3.52584
# Velocity P-wave (km/s) = 7.03031 7.59255 7.31684
#
# Compressibility (1/GPa) = 0.01680546
#
# Stress axis : x y z
#
# Youngs Moduli (GPa) = 59.85781 57.58550 84.04602
#
# Poissons Ratio (x) = 0.25142 0.42285
# Poissons Ratio (y) = 0.26134 0.43579
# Poissons Ratio (z) = 0.30115 0.29859
#
# Static dielectric constant tensor:
#      x y z
#    x 3.208870 0.000000 -0.000440 
#    y 0.000000 3.212850 0.000000 
#    z -0.000440 0.000000 2.767930 
# 
# 
# High freq. dielectric constant tensor:
#      x y z
#    x 1.650290 0.000000 -0.000060 
#    y 0.000000 1.658410 0.000000 
#    z -0.000060 0.000000 1.608230 
# 
# From -- ./inp_files/193524.got.cif
#   From: 2010.06.25/outbox.cif.g09.slc.cpg/sg15_97_cif.got.tgz:193524.got - 2010.06.28 07:06:18.
