data_PCOD8130319
_publ_section_title
;
Structure prediction by ZEFSAII (Michael W. Deem and Ramdas Pophale) SiO2 
 PCOD8130319
Probable space group: C 2/C
;
_chemical_formula_sum "Si O2"
_cell_formula_units_Z 36
_cell_length_a 22.408970
_cell_length_b 11.453275
_cell_length_c 14.882556
_cell_angle_alpha 90.000000
_cell_angle_beta 20.345636
_cell_angle_gamma 90.000000
_cell_volume 1328.042662
_symmetry_space_group_name_H-M "C 2/C"
_symmetry_group_IT_number 15
_symmetry_cell_setting 'monoclinic'
loop_
_space_group_symop_operation_xyz
x,y,z
-x,y,1/2-z
-x,-y,-z
x,-y,1/2+z
1/2+x,1/2+y,z
1/2-x,1/2+y,1/2-z
1/2-x,1/2-y,-z
1/2+x,1/2-y,1/2+z
loop_
_atom_site_type_symbol
_atom_site_label
_atom_site_fract_x
_atom_site_fract_y
_atom_site_fract_z
Si Si1 0.338534 0.918946 0.423035
Si Si2 0.715067 0.633349 0.754712
Si Si3 0.000000 0.269882 0.750000
Si Si4 0.876242 0.283173 0.203742
Si Si5 0.508195 0.457403 0.338341
O O1 0.500000 0.970753 0.250000
O O2 0.287365 0.794293 0.537005
O O3 0.390422 0.898282 0.246188
O O4 0.179568 0.009328 0.651109
O O5 0.834209 0.646065 0.496994
O O6 0.844992 0.676389 0.647528
O O7 0.550210 0.711559 0.970273
O O8 0.651778 0.502365 0.873605
O O9 0.007663 0.182785 0.826795
O O10 0.500000 0.518532 0.250000
#
# Coordination Sequence:
#
# PCOD8130319 Si02
#       5
#     8   8   4   8   8
#     4  10  17  31  63 101 134 175 231 284 347 411
#     4  11  21  40  69  97 142 186 229 286 355 407
#     4  10  24  44  72  96 146 188 220 298 350 404
#     4  10  19  31  62 103 131 181 229 279 345 413
#     4   9  20  41  68  99 135 181 232 283 348 417
#
# _framework density 27.107562999999999
#
# number of rings (size 3 to 8) (size 9 to 14) (size 15 to 20)
#    0.667    1.333    4.444    0.000    0.000    0.889 
#    0.000    8.889    7.333    0.000    0.000    0.000 
#    0.000    0.000    0.000    0.000    0.000    0.000 
#
# Total GULP energy -223021.711002 kJ/mol
# GULP energy per Si atom -12390.095056 kJ/mol
# Density = 2.704587 g / cm^3
# Si number density = 27.107563 Si / 1000 Ang^3
#
#
#
# Elastic Constant Matrix: (Units=GPa)
#
#
# Indices 1 2 3 4 5 6 
#
# 1 135.1730 45.7819 39.6703 -0.0002 -32.2627 0.0000
# 2 45.7819 88.0811 74.1308 0.0000 6.8942 0.0004
# 3 39.6703 74.1308 185.8978 -0.0003 -2.9803 0.0004
# 4 -0.0002 0.0000 -0.0003 63.9042 0.0002 13.1783
# 5 -32.2627 6.8942 -2.9803 0.0002 37.7753 -0.0001
# 6 0.0000 0.0004 0.0004 13.1783 -0.0001 36.6968
#
#
#
# Elastic Compliance Matrix: (Units=1/GPa)
#
#
# Indices 1 2 3 4 5 6 
#
# 1 0.013084 -0.008465 0.000788 0.000000 0.012782 0.000000
# 2 -0.008465 0.023085 -0.007592 0.000000 -0.012042 0.000000
# 3 0.000788 -0.007592 0.008282 0.000000 0.002712 0.000000
# 4 0.000000 0.000000 0.000000 0.016900 0.000000 -0.006069
# 5 0.012782 -0.012042 0.002712 0.000000 0.039801 0.000000
# 6 0.000000 0.000000 0.000000 -0.006069 0.000000 0.029430
#
#
# Mechanical properties :
#
#
# Convention : Reuss Voigt Hill
#
# Bulk Modulus (GPa) = 71.86996 80.92420 76.39708
# Shear Modulus (GPa) = 30.16450 44.31319 37.23884
#
# Velocity S-wave (km/s) = 3.33944 4.04755 3.71043
# Velocity P-wave (km/s) = 6.43736 7.19454 6.82645
#
# Compressibility (1/GPa) = 0.01391402
#
# Stress axis : x y z
#
# Youngs Moduli (GPa) = 76.42794 43.31762 120.74017
#
# Poissons Ratio (x) = 0.36667 -0.09517
# Poissons Ratio (y) = 0.64693 0.91672
# Poissons Ratio (z) = -0.06024 0.32889
#
# Static dielectric constant tensor:
#      x y z
#    x 5.059480 0.000000 0.156700 
#    y 0.000000 4.687830 0.000000 
#    z 0.156700 0.000000 4.800180 
# 
# 
# High freq. dielectric constant tensor:
#      x y z
#    x 2.107780 0.000000 0.001150 
#    y 0.000000 2.085330 0.000000 
#    z 0.001150 0.000000 2.089030 
# 
# From -- ./inp_files/173567.got.cif
#   From: 2010.06.25/outbox.cif.g09.slc.cpg/sg15_87_cif.got.tgz:173567.got - 2010.06.28 07:06:18.
