data_PCOD8130330
_publ_section_title
;
Structure prediction by ZEFSAII (Michael W. Deem and Ramdas Pophale) SiO2 
 PCOD8130330
Probable space group: C 2/C
;
_chemical_formula_sum "Si O2"
_cell_formula_units_Z 64
_cell_length_a 19.480723
_cell_length_b 18.302402
_cell_length_c 28.895078
_cell_angle_alpha 90.000000
_cell_angle_beta 157.707516
_cell_angle_gamma 90.000000
_cell_volume 3908.046345
_symmetry_space_group_name_H-M "C 2/C"
_symmetry_group_IT_number 15
_symmetry_cell_setting 'monoclinic'
loop_
_space_group_symop_operation_xyz
x,y,z
-x,y,1/2-z
-x,-y,-z
x,-y,1/2+z
1/2+x,1/2+y,z
1/2-x,1/2+y,1/2-z
1/2-x,1/2-y,-z
1/2+x,1/2-y,1/2+z
loop_
_atom_site_type_symbol
_atom_site_label
_atom_site_fract_x
_atom_site_fract_y
_atom_site_fract_z
Si Si1 0.305391 0.508863 0.934350
Si Si2 0.319964 0.166878 0.659266
Si Si3 0.917217 0.357384 0.823736
Si Si4 0.434689 0.255639 0.018330
Si Si5 0.282292 0.494230 0.811709
Si Si6 0.154078 0.365148 0.882143
Si Si7 0.569566 0.260284 0.589442
Si Si8 0.707244 0.156893 0.752832
O O1 0.198503 0.585013 0.873353
O O2 0.275258 0.483092 0.862818
O O3 0.241445 0.445760 0.929865
O O4 0.514130 0.523372 0.076595
O O5 0.500000 0.203781 0.750000
O O6 0.371725 0.170138 0.745546
O O7 0.134129 0.209281 0.531867
O O8 0.862274 0.439848 0.801456
O O9 0.724629 0.320225 0.692631
O O10 0.011218 0.321475 0.926303
O O11 0.070253 0.355477 0.880164
O O12 0.590221 0.314938 0.120068
O O13 0.277637 0.294981 0.948973
O O14 0.394381 0.233853 0.940337
O O15 0.217703 0.570900 0.751049
O O16 0.000000 0.357691 0.750000
O O17 0.589587 0.194788 0.639045
#
# Coordination Sequence:
#
# PCOD8130330 Si02
#       8
#     8   8   8   8   8   8   8   8
#     4  10  18  29  49  75 107 127 156 208 261 305
#     4  10  20  32  51  79 104 128 165 214 260 305
#     4  11  21  32  54  76 105 137 172 207 255 308
#     4  10  20  35  50  76 105 139 172 207 248 304
#     4  10  17  32  49  73 100 134 166 206 252 298
#     4  12  19  30  50  82 111 135 157 207 267 309
#     4  10  19  37  52  71 102 139 174 209 248 302
#     4   9  20  33  53  73 103 134 171 211 254 300
#
# _framework density 16.376470000000001
#
# number of rings (size 3 to 8) (size 9 to 14) (size 15 to 20)
#    0.000    1.750    5.000    0.750    1.750    0.500 
#    0.000    0.625    0.000    0.000    0.000    0.875 
#    0.000    0.000    0.000    0.000    0.000    0.000 
#
# Total GULP energy -396517.886863 kJ/mol
# GULP energy per Si atom -12391.183964 kJ/mol
# Density = 1.633920 g / cm^3
# Si number density = 16.376470 Si / 1000 Ang^3
#
#
#
# Elastic Constant Matrix: (Units=GPa)
#
#
# Indices 1 2 3 4 5 6 
#
# 1 83.3866 44.9742 43.8275 0.2500 7.0295 -0.0005
# 2 44.9742 101.9406 40.7779 0.3264 -9.4278 -0.0008
# 3 43.8275 40.7779 70.0436 0.5335 2.2207 -0.0177
# 4 0.2500 0.3264 0.5335 -167.8408 0.1357 4.6065
# 5 7.0295 -9.4278 2.2207 0.1357 30.5334 -0.0026
# 6 -0.0005 -0.0008 -0.0177 4.6065 -0.0026 21.7934
#
#
#
# Elastic Compliance Matrix: (Units=1/GPa)
#
#
# Indices 1 2 3 4 5 6 
#
# 1 0.020517 -0.005911 -0.009210 -0.000015 -0.005879 -0.000005
# 2 -0.005911 0.015139 -0.005319 0.000009 0.006422 -0.000005
# 3 -0.009210 -0.005319 0.023174 0.000049 -0.001208 0.000008
# 4 -0.000015 0.000009 0.000049 -0.005923 0.000029 0.001252
# 5 -0.005879 0.006422 -0.001208 0.000029 0.036175 -0.000003
# 6 -0.000005 -0.000005 0.000008 0.001252 -0.000003 0.045621
#
#
# Mechanical properties :
#
#
# Convention : Reuss Voigt Hill
#
# Bulk Modulus (GPa) = 55.70889 57.17001 56.43945
# Shear Modulus (GPa) = 27.53843 -14.71672 6.41085
#
# Velocity S-wave (km/s) = 4.10516 -3.00100 1.98070
# Velocity P-wave (km/s) = 7.52072 4.79350 6.30630
#
# Compressibility (1/GPa) = 0.01795046
#
# Stress axis : x y z
#
# Youngs Moduli (GPa) = 48.74071 66.05489 43.15209
#
# Poissons Ratio (x) = 0.39046 0.39742
# Poissons Ratio (y) = 0.28811 0.22951
# Poissons Ratio (z) = 0.44890 0.35132
#
# Static dielectric constant tensor:
#      x y z
#    x 2.962960 -0.000100 0.075130 
#    y -0.000100 3.053270 -0.000100 
#    z 0.075130 -0.000100 3.050570 
# 
# 
# High freq. dielectric constant tensor:
#      x y z
#    x 1.622690 0.000000 0.020720 
#    y 0.000000 1.625060 -0.000010 
#    z 0.020720 -0.000010 1.623550 
# 
# From -- ./inp_files/113657.got.cif
#   From: 2010.06.25/outbox.cif.g09.slc.cpg/sg15_57_cif.got.tgz:113657.got - 2010.06.28 07:06:18.
