data_PCOD8130379
_publ_section_title
;
Structure prediction by ZEFSAII (Michael W. Deem and Ramdas Pophale) SiO2 
 PCOD8130379
Probable space group: C 2/C
;
_chemical_formula_sum "Si O2"
_cell_formula_units_Z 56
_cell_length_a 10.160979
_cell_length_b 16.408898
_cell_length_c 30.145365
_cell_angle_alpha 90.000000
_cell_angle_beta 147.177942
_cell_angle_gamma 90.000000
_cell_volume 2724.333449
_symmetry_space_group_name_H-M "C 2/C"
_symmetry_group_IT_number 15
_symmetry_cell_setting 'monoclinic'
loop_
_space_group_symop_operation_xyz
x,y,z
-x,y,1/2-z
-x,-y,-z
x,-y,1/2+z
1/2+x,1/2+y,z
1/2-x,1/2+y,1/2-z
1/2-x,1/2-y,-z
1/2+x,1/2-y,1/2+z
loop_
_atom_site_type_symbol
_atom_site_label
_atom_site_fract_x
_atom_site_fract_y
_atom_site_fract_z
Si Si1 0.672949 0.371424 0.097116
Si Si2 0.000000 0.519923 0.750000
Si Si3 0.647795 0.638169 0.492234
Si Si4 0.669624 0.686160 0.340620
Si Si5 0.500000 0.250866 0.250000
Si Si6 0.313695 0.838734 0.501689
Si Si7 0.105682 0.689177 0.576047
Si Si8 0.849311 0.113343 0.324609
O O1 0.761682 0.276541 0.122263
O O2 0.870256 0.423055 0.178333
O O3 0.652916 0.405261 0.041335
O O4 0.411537 0.392371 0.045232
O O5 0.823751 0.464419 0.730919
O O6 0.539232 0.727220 0.470988
O O7 0.471847 0.595613 0.407027
O O8 0.921735 0.632581 0.551287
O O9 0.500000 0.692063 0.250000
O O10 0.547189 0.628068 0.342736
O O11 0.924481 0.639664 0.402062
O O12 0.640007 0.305573 0.325637
O O13 0.693873 0.196022 0.279055
O O14 0.250000 0.750000 0.500000
O O15 0.331679 0.847857 0.453852
#
# Coordination Sequence:
#
# PCOD8130379 Si02
#       8
#     8   4   8   8   4   8   8   8
#     4  11  22  38  65  97 129 165 213 275 321 381
#     4  11  26  44  62  96 136 167 210 271 330 390
#     4  10  18  35  60  85 123 169 209 255 320 379
#     4  11  21  37  66  95 126 169 219 269 319 374
#     4   9  20  26  54  86 116 157 206 261 310 360
#     4  10  20  33  56  94 127 156 209 269 320 366
#     4  10  17  32  54  91 128 153 206 265 315 365
#     4  10  22  40  59  88 127 173 216 259 314 393
#
# _framework density 20.555486999999999
#
# number of rings (size 3 to 8) (size 9 to 14) (size 15 to 20)
#    0.000    1.714    5.000    1.714    4.000    2.857 
#    0.000    0.714    3.143    0.000    0.000    0.000 
#    0.000    0.000    0.000    0.000    0.000    0.000 
#
# Total GULP energy -347001.175805 kJ/mol
# GULP energy per Si atom -12392.899136 kJ/mol
# Density = 2.050870 g / cm^3
# Si number density = 20.555487 Si / 1000 Ang^3
#
#
#
# Elastic Constant Matrix: (Units=GPa)
#
#
# Indices 1 2 3 4 5 6 
#
# 1 158.1005 24.0898 75.6349 -0.0002 3.8928 -0.0001
# 2 24.0898 38.7105 24.4689 0.0002 8.6670 -0.0001
# 3 75.6349 24.4689 186.5378 0.0025 5.7220 -0.0008
# 4 -0.0002 0.0002 0.0025 -2.0279 0.0002 2.6205
# 5 3.8928 8.6670 5.7220 0.0002 35.2508 -0.0004
# 6 -0.0001 -0.0001 -0.0008 2.6205 -0.0004 12.3653
#
#
#
# Elastic Compliance Matrix: (Units=1/GPa)
#
#
# Indices 1 2 3 4 5 6 
#
# 1 0.008217 -0.003367 -0.002902 -0.000004 0.000391 0.000001
# 2 -0.003367 0.031041 -0.002496 0.000000 -0.006855 0.000000
# 3 -0.002902 -0.002496 0.006871 0.000007 -0.000181 -0.000001
# 4 -0.000004 0.000000 0.000007 -0.387105 0.000002 0.082037
# 5 0.000391 -0.006855 -0.000181 0.000002 0.030040 0.000000
# 6 0.000001 0.000000 -0.000001 0.082037 0.000000 0.063485
#
#
# Mechanical properties :
#
#
# Convention : Reuss Voigt Hill
#
# Bulk Modulus (GPa) = 34.96774 70.19291 52.58032
# Shear Modulus (GPa) = -22.68706 26.39465 1.85380
#
# Velocity S-wave (km/s) = -3.32580 3.58728 0.95069
# Velocity P-wave (km/s) = 1.51670 7.16800 5.18076
#
# Compressibility (1/GPa) = 0.02859779
#
# Stress axis : x y z
#
# Youngs Moduli (GPa) = 121.70274 32.21591 145.54926
#
# Poissons Ratio (x) = 0.10846 0.42239
# Poissons Ratio (y) = 0.40973 0.36335
# Poissons Ratio (z) = 0.35318 0.08042
#
# Static dielectric constant tensor:
#      x y z
#    x 3.557050 0.000010 0.048600 
#    y 0.000010 3.222830 0.000000 
#    z 0.048600 0.000000 3.977480 
# 
# 
# High freq. dielectric constant tensor:
#      x y z
#    x 1.810460 0.000000 0.009980 
#    y 0.000000 1.746300 0.000000 
#    z 0.009980 0.000000 1.827750 
# 
# From -- ./inp_files/191623.got.cif
#   From: 2010.06.25/outbox.cif.g09.slc.cpg/sg15_96_cif.got.tgz:191623.got - 2010.06.28 07:06:18.
