data_PCOD8130242
_publ_section_title
;
Structure prediction by ZEFSAII (Michael W. Deem and Ramdas Pophale) SiO2 
 PCOD8130242
Probable space group: C 2/C
;
_chemical_formula_sum "Si O2"
_cell_formula_units_Z 60
_cell_length_a 29.325328
_cell_length_b 12.956489
_cell_length_c 13.130133
_cell_angle_alpha 90.000000
_cell_angle_beta 138.204390
_cell_angle_gamma 90.000000
_cell_volume 3324.937037
_symmetry_space_group_name_H-M "C 2/C"
_symmetry_group_IT_number 15
_symmetry_cell_setting 'monoclinic'
loop_
_space_group_symop_operation_xyz
x,y,z
-x,y,1/2-z
-x,-y,-z
x,-y,1/2+z
1/2+x,1/2+y,z
1/2-x,1/2+y,1/2-z
1/2-x,1/2-y,-z
1/2+x,1/2-y,1/2+z
loop_
_atom_site_type_symbol
_atom_site_label
_atom_site_fract_x
_atom_site_fract_y
_atom_site_fract_z
Si Si1 0.664978 0.250534 0.263047
Si Si2 0.968853 0.841342 0.410860
Si Si3 0.274909 0.798693 0.299857
Si Si4 0.856510 0.907141 0.935674
Si Si5 0.904231 0.061597 0.299048
Si Si6 0.000000 0.852349 0.250000
Si Si7 0.227022 0.597583 0.502280
Si Si8 0.715448 0.439129 0.038613
O O1 0.585465 0.277249 0.113595
O O2 0.703987 0.244944 0.219741
O O3 0.701198 0.338852 0.394581
O O4 0.669114 0.143850 0.331394
O O5 0.038750 0.849269 0.590937
O O6 0.982676 0.786328 0.323483
O O7 0.941228 0.954605 0.334436
O O8 0.334296 0.713431 0.392485
O O9 0.295966 0.888648 0.417535
O O10 0.259667 0.848572 0.164396
O O11 0.858888 0.954049 0.825884
O O12 0.932477 0.919821 0.109462
O O13 0.800647 0.972058 0.905326
O O14 0.856215 0.101118 0.127091
O O15 0.240467 0.482208 0.484132
#
# Coordination Sequence:
#
# PCOD8130242 Si02
#       8
#     8   8   8   8   8   4   8   8
#     4   9  15  32  49  68  99 129 169 211 240 292
#     4  10  17  31  45  75 103 136 166 191 258 308
#     4  10  21  31  52  73  99 141 170 213 253 300
#     4  11  20  35  49  79 105 130 179 202 256 312
#     4  10  21  29  46  73 109 136 155 206 253 310
#     4  10  18  28  56  72 102 140 160 216 238 308
#     4   9  16  29  49  70  92 126 172 213 239 287
#     4  12  18  33  50  73 107 136 168 207 259 301
#
# _framework density 18.045453999999999
#
# number of rings (size 3 to 8) (size 9 to 14) (size 15 to 20)
#    0.800    1.067    4.000    2.400    0.000    0.533 
#    0.000    0.000    0.000    0.000    0.000   10.267 
#    0.000    0.000    0.000    0.000    0.000    0.133 
#
# Total GULP energy -371642.614558 kJ/mol
# GULP energy per Si atom -12388.087152 kJ/mol
# Density = 1.800438 g / cm^3
# Si number density = 18.045454 Si / 1000 Ang^3
#
#
#
# Elastic Constant Matrix: (Units=GPa)
#
#
# Indices 1 2 3 4 5 6 
#
# 1 59.6217 16.4737 21.7315 0.0000 -3.2353 0.0000
# 2 16.4737 37.5275 42.4447 0.0000 -1.8364 0.0000
# 3 21.7315 42.4447 91.5153 0.0000 -10.9769 0.0000
# 4 0.0000 0.0000 0.0000 20.9316 0.0000 -1.7840
# 5 -3.2353 -1.8364 -10.9769 0.0000 24.6725 0.0000
# 6 0.0000 0.0000 0.0000 -1.7840 0.0000 19.7105
#
#
#
# Elastic Compliance Matrix: (Units=1/GPa)
#
#
# Indices 1 2 3 4 5 6 
#
# 1 0.019221 -0.007165 -0.001059 0.000000 0.001516 0.000000
# 2 -0.007165 0.060182 -0.027240 0.000000 -0.008579 0.000000
# 3 -0.001059 -0.027240 0.024880 0.000000 0.008903 0.000000
# 4 0.000000 0.000000 0.000000 0.048146 0.000000 0.004358
# 5 0.001516 -0.008579 0.008903 0.000000 0.044052 0.000000
# 6 0.000000 0.000000 0.000000 0.004358 0.000000 0.051129
#
#
# Mechanical properties :
#
#
# Convention : Reuss Voigt Hill
#
# Bulk Modulus (GPa) = 29.98127 38.88492 34.43309
# Shear Modulus (GPa) = 15.16731 20.26389 17.71560
#
# Velocity S-wave (km/s) = 2.90229 3.35466 3.13664
# Velocity P-wave (km/s) = 5.28029 6.04980 5.67810
#
# Compressibility (1/GPa) = 0.03335416
#
# Stress axis : x y z
#
# Youngs Moduli (GPa) = 52.02775 16.61631 40.19236
#
# Poissons Ratio (x) = 0.11906 0.04257
# Poissons Ratio (y) = 0.37280 1.09483
# Poissons Ratio (z) = 0.05510 0.45263
#
# Static dielectric constant tensor:
#      x y z
#    x 3.349790 0.000000 -0.068700 
#    y 0.000000 2.813490 0.000000 
#    z -0.068700 0.000000 3.306440 
# 
# 
# High freq. dielectric constant tensor:
#      x y z
#    x 1.695620 0.000000 -0.011050 
#    y 0.000000 1.631820 0.000000 
#    z -0.011050 0.000000 1.690990 
# 
# From -- ./inp_files/182034.got.cif
#   From: 2010.06.25/outbox.cif.g09.slc.cpg/sg15_92_cif.got.tgz:182034.got - 2010.06.28 07:06:18.
