data_PCOD8130855
_publ_section_title
;
Structure prediction by ZEFSAII (Michael W. Deem and Ramdas Pophale) SiO2 
 PCOD8130855
Probable space group: C 2/C
;
_chemical_formula_sum "Si O2"
_cell_formula_units_Z 64
_cell_length_a 9.198454
_cell_length_b 14.869715
_cell_length_c 26.192995
_cell_angle_alpha 90.000000
_cell_angle_beta 110.559502
_cell_angle_gamma 90.000000
_cell_volume 3354.450410
_symmetry_space_group_name_H-M "C 2/C"
_symmetry_group_IT_number 15
_symmetry_cell_setting 'monoclinic'
loop_
_space_group_symop_operation_xyz
x,y,z
-x,y,1/2-z
-x,-y,-z
x,-y,1/2+z
1/2+x,1/2+y,z
1/2-x,1/2+y,1/2-z
1/2-x,1/2-y,-z
1/2+x,1/2-y,1/2+z
loop_
_atom_site_type_symbol
_atom_site_label
_atom_site_fract_x
_atom_site_fract_y
_atom_site_fract_z
Si Si1 0.859908 0.756271 0.438972
Si Si2 0.671827 0.903355 0.750000
Si Si3 0.716826 0.103789 0.631510
Si Si4 0.334804 0.415557 0.250000
Si Si5 0.953806 0.896211 0.368490
Si Si6 0.062861 0.895534 0.643544
Si Si7 0.724227 0.104466 0.143544
Si Si8 0.981963 0.256271 0.061028
O O1 0.873142 0.665241 0.407765
O O2 0.985015 0.750000 0.500000
O O3 0.690780 0.769864 0.440780
O O4 0.891724 0.843658 0.409194
O O5 0.500000 0.889381 0.750000
O O6 0.794120 0.859616 0.804560
O O7 0.684999 0.859616 0.695439
O O8 0.713863 0.007814 0.750000
O O9 0.759434 0.140904 0.694062
O O10 0.861914 0.118071 0.611913
O O11 0.573337 0.156342 0.590806
O O12 0.672304 0.998599 0.629476
O O13 0.500000 0.457707 0.250000
O O14 0.371310 0.359096 0.305938
O O15 0.913351 0.001401 0.370524
O O16 0.907487 0.884589 0.657487
O O17 0.057612 0.834759 0.592235
#
# Coordination Sequence:
#
# PCOD8130855 Si02
#       8
#     8   8   8   8   8   8   8   8
#     4  10  22  38  54  75 104 139 181 223 260 305
#     4  10  18  29  52  85 110 130 170 219 255 303
#     4   9  18  34  56  79 105 139 173 209 259 316
#     4   8  16  33  54  77 110 144 168 201 263 327
#     4   9  18  34  56  79 105 139 173 209 259 316
#     4   9  19  37  56  75 107 145 171 204 266 324
#     4   9  19  37  56  75 107 145 171 204 266 324
#     4  10  22  38  54  75 104 139 181 223 260 305
#
# _framework density 19.079132000000001
#
# number of rings (size 3 to 8) (size 9 to 14) (size 15 to 20)
#    0.000    2.750    0.000    2.625    0.000    7.500 
#    0.000    2.500    0.000    0.000    0.000    0.000 
#    0.000    0.000    0.000    0.000    0.000    0.000 
#
# Total GULP energy -396649.208187 kJ/mol
# GULP energy per Si atom -12395.287756 kJ/mol
# Density = 1.903571 g / cm^3
# Si number density = 19.079132 Si / 1000 Ang^3
#
#
#
# Elastic Constant Matrix: (Units=GPa)
#
#
# Indices 1 2 3 4 5 6 
#
# 1 60.7968 36.1120 59.8528 0.0000 -5.8279 0.0000
# 2 36.1120 82.0112 70.7528 0.0000 -4.2199 0.0000
# 3 59.8528 70.7528 188.4583 0.0000 -9.7236 0.0000
# 4 0.0000 0.0000 0.0000 32.5917 0.0000 -1.0097
# 5 -5.8279 -4.2199 -9.7236 0.0000 24.8671 0.0000
# 6 0.0000 0.0000 0.0000 -1.0097 0.0000 24.3029
#
#
#
# Elastic Compliance Matrix: (Units=1/GPa)
#
#
# Indices 1 2 3 4 5 6 
#
# 1 0.026209 -0.006419 -0.005770 0.000000 0.002797 0.000000
# 2 -0.006419 0.019611 -0.005338 0.000000 -0.000263 0.000000
# 3 -0.005770 -0.005338 0.009212 0.000000 0.001344 0.000000
# 4 0.000000 0.000000 0.000000 0.030722 0.000000 0.001276
# 5 0.002797 -0.000263 0.001344 0.000000 0.041350 0.000000
# 6 0.000000 0.000000 0.000000 0.001276 0.000000 0.041200
#
#
# Mechanical properties :
#
#
# Convention : Reuss Voigt Hill
#
# Bulk Modulus (GPa) = 50.05106 73.85573 61.95339
# Shear Modulus (GPa) = 23.80753 27.32226 25.56490
#
# Velocity S-wave (km/s) = 3.53630 3.78835 3.66449
# Velocity P-wave (km/s) = 6.55471 7.61116 7.10260
#
# Compressibility (1/GPa) = 0.01997960
#
# Stress axis : x y z
#
# Youngs Moduli (GPa) = 38.15452 50.99098 108.55658
#
# Poissons Ratio (x) = 0.32733 0.62632
# Poissons Ratio (y) = 0.24492 0.57943
# Poissons Ratio (z) = 0.22013 0.27217
#
# Static dielectric constant tensor:
#      x y z
#    x 3.298410 0.000000 -0.065440 
#    y 0.000000 3.234810 0.000000 
#    z -0.065440 0.000000 3.835610 
# 
# 
# High freq. dielectric constant tensor:
#      x y z
#    x 1.728930 0.000000 -0.002560 
#    y 0.000000 1.722860 0.000000 
#    z -0.002560 0.000000 1.749940 
# 
# From -- ./inp_files/308050.got.cif
#   From: 2010.06.25/outbox.cif.g09.slc.cpg/sg15_155_cif.got.tgz:308050.got - 2010.06.28 07:06:18.
