data_PCOD8130308
_publ_section_title
;
Structure prediction by ZEFSAII (Michael W. Deem and Ramdas Pophale) SiO2 
 PCOD8130308
Probable space group: C 2/C
;
_chemical_formula_sum "Si O2"
_cell_formula_units_Z 48
_cell_length_a 24.947422
_cell_length_b 15.598230
_cell_length_c 5.384962
_cell_angle_alpha 90.000000
_cell_angle_beta 76.986163
_cell_angle_gamma 90.000000
_cell_volume 2041.659631
_symmetry_space_group_name_H-M "C 2/C"
_symmetry_group_IT_number 15
_symmetry_cell_setting 'monoclinic'
loop_
_space_group_symop_operation_xyz
x,y,z
-x,y,1/2-z
-x,-y,-z
x,-y,1/2+z
1/2+x,1/2+y,z
1/2-x,1/2+y,1/2-z
1/2-x,1/2-y,-z
1/2+x,1/2-y,1/2+z
loop_
_atom_site_type_symbol
_atom_site_label
_atom_site_fract_x
_atom_site_fract_y
_atom_site_fract_z
Si Si1 0.848069 0.187927 0.659126
Si Si2 0.968414 0.263922 0.531455
Si Si3 0.796978 0.552419 0.189444
Si Si4 0.883008 0.998822 0.122769
Si Si5 0.576841 0.052439 0.449075
Si Si6 0.803988 0.837389 0.704996
O O1 0.910672 0.216783 0.594541
O O2 0.844442 0.084634 0.663099
O O3 0.817395 0.219156 0.438408
O O4 0.817494 0.219327 0.943875
O O5 0.962066 0.365973 0.531169
O O6 0.000000 0.236908 0.750000
O O7 0.000000 0.233181 0.250000
O O8 0.784052 0.500011 0.453021
O O9 0.860043 0.583762 0.124430
O O10 0.760037 0.637490 0.228560
O O11 0.920383 0.000013 0.333779
O O12 0.842103 0.078623 0.165336
O O13 0.563799 0.007318 0.725749
#
# Coordination Sequence:
#
# PCOD8130308 Si02
#       6
#     8   8   8   8   8   8
#     4  10  20  34  54  84 118 153 196 239 281 343
#     4  12  26  44  64  83 112 156 202 253 314 354
#     4  10  18  32  57  92 126 154 188 233 291 350
#     4   8  14  25  47  74 104 142 185 218 251 313
#     4  10  23  42  65  92 118 144 190 253 302 360
#     4  10  17  31  57  87 120 160 193 220 271 347
#
# _framework density 23.510285
#
# number of rings (size 3 to 8) (size 9 to 14) (size 15 to 20)
#    0.000    2.000    0.000    6.000    0.000    2.000 
#    0.000    1.667    0.000   27.000    0.000    0.000 
#    0.000    0.000    0.000    0.000    0.000    0.000 
#
# Total GULP energy -297353.059492 kJ/mol
# GULP energy per Si atom -12389.710812 kJ/mol
# Density = 2.345677 g / cm^3
# Si number density = 23.510285 Si / 1000 Ang^3
#
#
#
# Elastic Constant Matrix: (Units=GPa)
#
#
# Indices 1 2 3 4 5 6 
#
# 1 57.2990 1.9111 23.0528 0.0000 22.9698 0.0000
# 2 1.9111 19.7845 2.8714 0.0000 2.9713 0.0000
# 3 23.0528 2.8714 227.4014 0.0000 71.8187 0.0000
# 4 0.0000 0.0000 0.0000 16.5966 0.0000 -1.7695
# 5 22.9698 2.9713 71.8187 0.0000 35.6505 0.0000
# 6 0.0000 0.0000 0.0000 -1.7695 0.0000 22.9026
#
#
#
# Elastic Compliance Matrix: (Units=1/GPa)
#
#
# Indices 1 2 3 4 5 6 
#
# 1 0.027823 0.001257 0.007857 0.000000 -0.033860 0.000000
# 2 0.001257 0.051551 0.002294 0.000000 -0.009728 0.000000
# 3 0.007857 0.002294 0.014381 0.000000 -0.034224 0.000000
# 4 0.000000 0.000000 0.000000 0.060754 0.000000 0.004694
# 5 -0.033860 -0.009728 -0.034224 0.000000 0.119622 0.000000
# 6 0.000000 0.000000 0.000000 0.004694 0.000000 0.044026
#
#
# Mechanical properties :
#
#
# Convention : Reuss Voigt Hill
#
# Bulk Modulus (GPa) = 8.57838 40.01728 24.29783
# Shear Modulus (GPa) = 14.96123 33.47326 24.21724
#
# Velocity S-wave (km/s) = 2.52537 3.77738 3.21295
# Velocity P-wave (km/s) = 3.48713 6.00691 4.91136
#
# Compressibility (1/GPa) = 0.11657212
#
# Stress axis : x y z
#
# Youngs Moduli (GPa) = 35.94166 19.39817 69.53715
#
# Poissons Ratio (x) = -0.02439 -0.54638
# Poissons Ratio (y) = -0.04519 -0.15951
# Poissons Ratio (z) = -0.28241 -0.04450
#
# Static dielectric constant tensor:
#      x y z
#    x 4.065600 0.000000 0.518760 
#    y 0.000000 3.845910 0.000000 
#    z 0.518760 0.000000 5.536510 
# 
# 
# High freq. dielectric constant tensor:
#      x y z
#    x 1.909300 0.000000 0.021600 
#    y 0.000000 1.906030 0.000000 
#    z 0.021600 0.000000 1.970330 
# 
# From -- ./inp_files/15422.got.cif
#   From: 2010.06.25/outbox.cif.g09.slc.cpg/sg15_8_cif.got.tgz:15422.got - 2010.06.28 07:06:18.
