data_PCOD8130820
_publ_section_title
;
Structure prediction by ZEFSAII (Michael W. Deem and Ramdas Pophale) SiO2 
 PCOD8130820
Probable space group: C 2/C
;
_chemical_formula_sum "Si O2"
_cell_formula_units_Z 60
_cell_length_a 25.138222
_cell_length_b 20.502780
_cell_length_c 23.325144
_cell_angle_alpha 90.000000
_cell_angle_beta 17.972482
_cell_angle_gamma 90.000000
_cell_volume 3709.467151
_symmetry_space_group_name_H-M "C 2/C"
_symmetry_group_IT_number 15
_symmetry_cell_setting 'monoclinic'
loop_
_space_group_symop_operation_xyz
x,y,z
-x,y,1/2-z
-x,-y,-z
x,-y,1/2+z
1/2+x,1/2+y,z
1/2-x,1/2+y,1/2-z
1/2-x,1/2-y,-z
1/2+x,1/2-y,1/2+z
loop_
_atom_site_type_symbol
_atom_site_label
_atom_site_fract_x
_atom_site_fract_y
_atom_site_fract_z
Si Si1 0.415606 0.761989 0.047073
Si Si2 0.350778 0.676225 0.754442
Si Si3 0.199996 0.321472 0.532591
Si Si4 0.196902 0.522447 0.244166
Si Si5 0.810944 0.350244 0.686480
Si Si6 0.663003 0.972944 0.905496
Si Si7 0.461514 0.536804 0.665279
Si Si8 0.500000 0.584956 0.750000
O O1 0.268443 0.812157 0.178729
O O2 0.356085 0.696052 0.140626
O O3 0.514367 0.736778 0.887667
O O4 0.527883 0.801692 0.977125
O O5 0.449273 0.607831 0.648712
O O6 0.234859 0.674523 0.929587
O O7 0.250000 0.250000 0.500000
O O8 0.328000 0.370996 0.434681
O O9 0.000000 0.338598 0.750000
O O10 0.181871 0.601407 0.265295
O O11 0.206856 0.492674 0.298865
O O12 0.032955 0.493242 0.377778
O O13 0.368666 0.501987 0.034000
O O14 0.817939 0.394169 0.621446
O O15 0.791427 0.995773 0.823603
O O16 0.477560 0.539610 0.717467
#
# Coordination Sequence:
#
# PCOD8130820 Si02
#       8
#     8   8   8   8   8   8   8   4
#     4  10  18  29  46  67 100 126 154 200 240 301
#     4  10  20  29  44  65  88 133 166 202 252 278
#     4  11  21  34  47  61  92 128 177 218 247 278
#     4   9  18  32  54  73  96 127 172 200 243 297
#     4   9  18  31  44  75  97 127 158 192 245 297
#     4   9  19  34  52  74  94 129 166 209 241 301
#     4  11  20  36  50  69  97 132 172 210 250 285
#     4  10  26  34  48  74  94 130 176 216 248 294
#
# _framework density 16.17483
#
# number of rings (size 3 to 8) (size 9 to 14) (size 15 to 20)
#    0.800    1.333    2.000    2.000    1.867    3.200 
#    2.400    0.000    0.000    0.000    0.000    0.000 
#    0.000    1.067    0.000    0.133    0.000    0.000 
#
# Total GULP energy -371710.287120 kJ/mol
# GULP energy per Si atom -12390.342904 kJ/mol
# Density = 1.613802 g / cm^3
# Si number density = 16.174830 Si / 1000 Ang^3
#
#
#
# Elastic Constant Matrix: (Units=GPa)
#
#
# Indices 1 2 3 4 5 6 
#
# 1 83.2531 39.7325 39.0533 0.0172 -14.7423 -0.0056
# 2 39.7325 58.3512 23.6785 0.0082 -6.7766 0.0020
# 3 39.0533 23.6785 101.7377 0.0594 -19.6288 0.0299
# 4 0.0172 0.0082 0.0594 25.4787 -0.0005 -3.9429
# 5 -14.7423 -6.7766 -19.6288 -0.0005 20.2832 -0.0073
# 6 -0.0056 0.0020 0.0299 -3.9429 -0.0073 26.9952
#
#
#
# Elastic Compliance Matrix: (Units=1/GPa)
#
#
# Indices 1 2 3 4 5 6 
#
# 1 0.020683 -0.011682 -0.003779 0.000000 0.007473 0.000011
# 2 -0.011682 0.025630 -0.001804 0.000003 -0.001673 -0.000002
# 3 -0.003779 -0.001804 0.013591 -0.000031 0.009803 -0.000018
# 4 0.000000 0.000003 -0.000031 0.040156 -0.000025 0.005865
# 5 0.007473 -0.001673 0.009803 -0.000025 0.063662 0.000004
# 6 0.000011 -0.000002 -0.000018 0.005865 0.000004 0.037900
#
#
# Mechanical properties :
#
#
# Convention : Reuss Voigt Hill
#
# Bulk Modulus (GPa) = 39.40934 49.80787 44.60860
# Shear Modulus (GPa) = 20.44086 23.94326 22.19206
#
# Velocity S-wave (km/s) = 3.55878 3.85161 3.70809
# Velocity P-wave (km/s) = 6.42682 7.11619 6.78027
#
# Compressibility (1/GPa) = 0.02537470
#
# Stress axis : x y z
#
# Youngs Moduli (GPa) = 48.34973 39.01725 73.57864
#
# Poissons Ratio (x) = 0.45580 0.27803
# Poissons Ratio (y) = 0.56482 0.13271
# Poissons Ratio (z) = 0.18269 0.07037
#
# Static dielectric constant tensor:
#      x y z
#    x 2.960930 -0.001100 0.100250 
#    y -0.001100 2.870200 -0.001160 
#    z 0.100250 -0.001160 3.624670 
# 
# 
# High freq. dielectric constant tensor:
#      x y z
#    x 1.584490 -0.000010 -0.028700 
#    y -0.000010 1.599490 0.000030 
#    z -0.028700 0.000030 1.629380 
# 
# From -- ./inp_files/256104.got.cif
#   From: 2010.06.25/outbox.cif.g09.slc.cpg/sg15_129_cif.got.tgz:256104.got - 2010.06.28 07:06:18.
