data_PCOD8130028
_publ_section_title
;
Structure prediction by ZEFSAII (Michael W. Deem and Ramdas Pophale) SiO2 
 PCOD8130028
Probable space group: C 2/C
;
_chemical_formula_sum "Si O2"
_cell_formula_units_Z 52
_cell_length_a 17.377895
_cell_length_b 7.982857
_cell_length_c 19.285084
_cell_angle_alpha 90.000000
_cell_angle_beta 123.017802
_cell_angle_gamma 90.000000
_cell_volume 2243.266118
_symmetry_space_group_name_H-M "C 2/C"
_symmetry_group_IT_number 15
_symmetry_cell_setting 'monoclinic'
loop_
_space_group_symop_operation_xyz
x,y,z
-x,y,1/2-z
-x,-y,-z
x,-y,1/2+z
1/2+x,1/2+y,z
1/2-x,1/2+y,1/2-z
1/2-x,1/2-y,-z
1/2+x,1/2-y,1/2+z
loop_
_atom_site_type_symbol
_atom_site_label
_atom_site_fract_x
_atom_site_fract_y
_atom_site_fract_z
Si Si1 0.011191 0.201556 0.616673
Si Si2 0.844977 0.186077 0.118519
Si Si3 0.332883 0.774122 0.259351
Si Si4 0.500000 0.545383 0.750000
Si Si5 0.484598 0.038476 0.667122
Si Si6 0.194150 0.087004 0.001376
Si Si7 0.820831 0.984160 0.353572
O O1 0.046129 0.153955 0.711209
O O2 0.996162 0.402997 0.611163
O O3 0.913934 0.123891 0.547738
O O4 0.090472 0.141196 0.601776
O O5 0.791527 0.202731 0.165633
O O6 0.886379 0.364982 0.111664
O O7 0.927816 0.062675 0.174018
O O8 0.783944 0.082907 0.032414
O O9 0.436443 0.825136 0.297537
O O10 0.347043 0.657509 0.331708
O O11 0.259408 0.919377 0.237972
O O12 0.500000 0.950990 0.750000
O O13 0.250000 0.250000 0.000000
O O14 0.221716 0.028439 0.092060
#
# Coordination Sequence:
#
# PCOD8130028 Si02
#       7
#     8   8   8   4   8   8   8
#     4  11  22  41  67  99 134 178 226 283 342 414
#     4  10  20  42  67  95 130 178 223 283 331 414
#     4  11  23  39  70  95 136 166 232 279 344 407
#     4  10  16  36  70  92 122 176 214 270 328 392
#     4  10  20  38  69 103 129 172 232 287 334 413
#     4  11  28  45  68  93 141 182 230 282 354 420
#     4  12  26  44  65 104 136 179 223 295 349 413
#
# _framework density 23.180489000000001
#
# number of rings (size 3 to 8) (size 9 to 14) (size 15 to 20)
#    0.000    1.231    4.615    2.308    6.462    0.615 
#    0.000    1.538    0.000    0.000    0.000    0.000 
#    0.000    0.000    0.000    0.000    0.000    0.000 
#
# Total GULP energy -322096.982292 kJ/mol
# GULP energy per Si atom -12388.345473 kJ/mol
# Density = 2.312773 g / cm^3
# Si number density = 23.180489 Si / 1000 Ang^3
#
#
#
# Elastic Constant Matrix: (Units=GPa)
#
#
# Indices 1 2 3 4 5 6 
#
# 1 69.2739 7.0824 13.2060 0.0000 -2.6782 0.0000
# 2 7.0824 92.9329 23.5581 0.0000 -15.2195 0.0000
# 3 13.2060 23.5581 58.1069 0.0000 -10.4003 0.0000
# 4 0.0000 0.0000 0.0000 29.4527 0.0000 -2.6672
# 5 -2.6782 -15.2195 -10.4003 0.0000 34.8059 0.0000
# 6 0.0000 0.0000 0.0000 -2.6672 0.0000 23.6163
#
#
#
# Elastic Compliance Matrix: (Units=1/GPa)
#
#
# Indices 1 2 3 4 5 6 
#
# 1 0.015097 -0.000307 -0.003299 0.000000 0.000041 0.000000
# 2 -0.000307 0.012552 -0.004269 0.000000 0.004189 0.000000
# 3 -0.003299 -0.004269 0.020402 0.000000 0.003976 0.000000
# 4 0.000000 0.000000 0.000000 0.034304 0.000000 0.003874
# 5 0.000041 0.004189 0.003976 0.000000 0.031754 0.000000
# 6 0.000000 0.000000 0.000000 0.003874 0.000000 0.042781
#
#
# Mechanical properties :
#
#
# Convention : Reuss Voigt Hill
#
# Bulk Modulus (GPa) = 30.95997 34.22295 32.59146
# Shear Modulus (GPa) = 27.26158 29.33949 28.30053
#
# Velocity S-wave (km/s) = 3.43309 3.56152 3.49790
# Velocity P-wave (km/s) = 5.39443 5.63102 5.51399
#
# Compressibility (1/GPa) = 0.03229977
#
# Stress axis : x y z
#
# Youngs Moduli (GPa) = 66.23646 79.66729 49.01502
#
# Poissons Ratio (x) = 0.02450 0.16171
# Poissons Ratio (y) = 0.02037 0.20926
# Poissons Ratio (z) = 0.21852 0.34012
#
# Static dielectric constant tensor:
#      x y z
#    x 4.266550 0.000000 -0.085060 
#    y 0.000000 4.402880 0.000000 
#    z -0.085060 0.000000 5.108160 
# 
# 
# High freq. dielectric constant tensor:
#      x y z
#    x 1.913470 0.000000 0.002700 
#    y 0.000000 1.926040 0.000000 
#    z 0.002700 0.000000 1.898170 
# 
# From -- ./inp_files/209711.got.cif
#   From: 2010.06.25/outbox.cif.g09.slc.cpg/sg15_105_cif.got.tgz:209711.got - 2010.06.28 07:06:18.
