data_PCOD8130866
_publ_section_title
;
Structure prediction by ZEFSAII (Michael W. Deem and Ramdas Pophale) SiO2 
 PCOD8130866
Probable space group: C 2/C
;
_chemical_formula_sum "Si O2"
_cell_formula_units_Z 40
_cell_length_a 8.942371
_cell_length_b 23.890266
_cell_length_c 9.216615
_cell_angle_alpha 90.000000
_cell_angle_beta 90.206509
_cell_angle_gamma 90.000000
_cell_volume 1968.984488
_symmetry_space_group_name_H-M "C 2/C"
_symmetry_group_IT_number 15
_symmetry_cell_setting 'monoclinic'
loop_
_space_group_symop_operation_xyz
x,y,z
-x,y,1/2-z
-x,-y,-z
x,-y,1/2+z
1/2+x,1/2+y,z
1/2-x,1/2+y,1/2-z
1/2-x,1/2-y,-z
1/2+x,1/2-y,1/2+z
loop_
_atom_site_type_symbol
_atom_site_label
_atom_site_fract_x
_atom_site_fract_y
_atom_site_fract_z
Si Si1 0.149449 0.966145 0.038849
Si Si2 0.907891 0.843821 0.386074
Si Si3 0.321483 0.438757 0.766603
Si Si4 0.819218 0.173060 0.427685
Si Si5 0.328793 0.210753 0.784507
O O1 0.114976 0.910239 0.128411
O O2 0.241912 0.009070 0.139589
O O3 0.242903 0.947414 0.896279
O O4 0.000000 0.000000 0.000000
O O5 0.753989 0.809167 0.364806
O O6 0.000000 0.821972 0.250000
O O7 0.002056 0.829315 0.532251
O O8 0.500000 0.438597 0.750000
O O9 0.266981 0.381391 0.838880
O O10 0.720827 0.174771 0.574216
O O11 0.791531 0.224882 0.320905
O O12 0.500000 0.200268 0.750000
#
# Coordination Sequence:
#
# PCOD8130866 Si02
#       5
#     8   8   8   8   8
#     4  10  18  29  55  94 116 140 183 255 300 332
#     4  10  19  34  58  86 113 150 198 241 292 347
#     4  10  18  30  54  89 122 136 183 251 300 332
#     4  10  20  38  57  84 115 155 196 243 284 349
#     4  10  23  37  56  82 119 159 195 241 291 348
#
# _framework density 20.315041000000001
#
# number of rings (size 3 to 8) (size 9 to 14) (size 15 to 20)
#    0.000    2.000    4.000    2.400    2.800    0.800 
#    0.000    0.000    0.000    1.200    0.000    0.000 
#    0.000    0.000    0.000    0.000    0.000    0.000 
#
# Total GULP energy -247822.359443 kJ/mol
# GULP energy per Si atom -12391.117972 kJ/mol
# Density = 2.026880 g / cm^3
# Si number density = 20.315041 Si / 1000 Ang^3
#
#
#
# Elastic Constant Matrix: (Units=GPa)
#
#
# Indices 1 2 3 4 5 6 
#
# 1 64.6218 27.6904 22.6633 0.0000 -4.0913 0.0000
# 2 27.6904 139.6377 45.7033 0.0000 2.2698 0.0000
# 3 22.6633 45.7033 86.9973 0.0000 -8.9146 0.0000
# 4 0.0000 0.0000 0.0000 44.8247 0.0000 -0.8372
# 5 -4.0913 2.2698 -8.9146 0.0000 20.7115 0.0000
# 6 0.0000 0.0000 0.0000 -0.8372 0.0000 21.0189
#
#
#
# Elastic Compliance Matrix: (Units=1/GPa)
#
#
# Indices 1 2 3 4 5 6 
#
# 1 0.017799 -0.002580 -0.003026 0.000000 0.002496 0.000000
# 2 -0.002580 0.009209 -0.004521 0.000000 -0.003465 0.000000
# 3 -0.003026 -0.004521 0.015323 0.000000 0.006493 0.000000
# 4 0.000000 0.000000 0.000000 0.022326 0.000000 0.000889
# 5 0.002496 -0.003465 0.006493 0.000000 0.051950 0.000000
# 6 0.000000 0.000000 0.000000 0.000889 0.000000 0.047612
#
#
# Mechanical properties :
#
#
# Convention : Reuss Voigt Hill
#
# Bulk Modulus (GPa) = 45.29268 53.70789 49.50028
# Shear Modulus (GPa) = 26.06459 30.32433 28.19446
#
# Velocity S-wave (km/s) = 3.58581 3.86774 3.72944
# Velocity P-wave (km/s) = 6.28392 6.81475 6.55471
#
# Compressibility (1/GPa) = 0.02207862
#
# Stress axis : x y z
#
# Youngs Moduli (GPa) = 56.18190 108.58987 65.26091
#
# Poissons Ratio (x) = 0.28015 0.19746
# Poissons Ratio (y) = 0.14494 0.29503
# Poissons Ratio (z) = 0.16999 0.49091
#
# Static dielectric constant tensor:
#      x y z
#    x 3.588690 0.000000 -4.895790 
#    y 0.000000 3.837570 0.000000 
#    z -4.895790 0.000000 78.237830 
# 
# 
# High freq. dielectric constant tensor:
#      x y z
#    x 1.723330 0.000000 -0.011820 
#    y 0.000000 1.806070 0.000000 
#    z -0.011820 0.000000 1.806720 
# 
# From -- ./inp_files/23385.got.cif
#   From: 2010.06.25/outbox.cif.g09.slc.cpg/sg15_12_cif.got.tgz:23385.got - 2010.06.28 07:06:18.
