data_PCOD8130092
_publ_section_title
;
Structure prediction by ZEFSAII (Michael W. Deem and Ramdas Pophale) SiO2 
 PCOD8130092
Probable space group: C 2/C
;
_chemical_formula_sum "Si O2"
_cell_formula_units_Z 60
_cell_length_a 27.709237
_cell_length_b 22.289631
_cell_length_c 8.621613
_cell_angle_alpha 90.000000
_cell_angle_beta 134.854709
_cell_angle_gamma 90.000000
_cell_volume 3774.848026
_symmetry_space_group_name_H-M "C 2/C"
_symmetry_group_IT_number 15
_symmetry_cell_setting 'monoclinic'
loop_
_space_group_symop_operation_xyz
x,y,z
-x,y,1/2-z
-x,-y,-z
x,-y,1/2+z
1/2+x,1/2+y,z
1/2-x,1/2+y,1/2-z
1/2-x,1/2-y,-z
1/2+x,1/2-y,1/2+z
loop_
_atom_site_type_symbol
_atom_site_label
_atom_site_fract_x
_atom_site_fract_y
_atom_site_fract_z
Si Si1 0.118204 0.321310 0.556955
Si Si2 0.348716 0.289151 0.777655
Si Si3 0.037700 0.776015 0.692038
Si Si4 0.500000 0.864948 0.750000
Si Si5 0.077812 0.449216 0.443535
Si Si6 0.610834 0.933570 0.175442
Si Si7 0.416609 0.234159 0.218720
Si Si8 0.293200 0.834407 0.028399
O O1 0.063906 0.286853 0.324376
O O2 0.085872 0.384323 0.544000
O O3 0.132705 0.282423 0.746301
O O4 0.185391 0.332575 0.605610
O O5 0.400432 0.310019 0.756281
O O6 0.317665 0.225085 0.668472
O O7 0.288976 0.338695 0.651931
O O8 0.382663 0.281719 0.024581
O O9 0.000000 0.811878 0.750000
O O10 0.985207 0.764094 0.436285
O O11 0.462260 0.906137 0.538049
O O12 0.561003 0.826400 0.816157
O O13 0.112526 0.443416 0.359355
O O14 0.121214 0.501327 0.624373
O O15 0.000000 0.469137 0.250000
O O16 0.674896 0.888716 0.296892
#
# Coordination Sequence:
#
# PCOD8130092 Si02
#       8
#     8   8   8   4   8   8   8   8
#     4   9  19  30  43  61  94 119 141 190 220 253
#     4  10  17  28  48  59  82 121 153 177 215 271
#     4   9  16  29  44  68  91 113 140 182 227 256
#     4  12  18  28  42  64  86 108 152 188 224 250
#     4  11  20  30  42  63  84 117 149 191 224 243
#     4  11  22  30  43  60  88 114 151 191 216 254
#     4  11  17  26  47  65  84 113 152 181 220 263
#     4   9  19  34  39  58  87 120 152 183 222 250
#
# _framework density 15.894679
#
# number of rings (size 3 to 8) (size 9 to 14) (size 15 to 20)
#    0.000    1.867    3.333    4.000    1.867    0.533 
#    0.000    0.000    0.000    0.000    0.000    0.000 
#    0.000    0.000    0.000   33.600    0.000    4.800 
#
# Total GULP energy -371663.860276 kJ/mol
# GULP energy per Si atom -12388.795343 kJ/mol
# Density = 1.585850 g / cm^3
# Si number density = 15.894679 Si / 1000 Ang^3
#
#
#
# Elastic Constant Matrix: (Units=GPa)
#
#
# Indices 1 2 3 4 5 6 
#
# 1 92.8953 16.6174 37.9204 0.0000 10.7532 0.0000
# 2 16.6174 37.0574 23.9664 0.0000 8.1637 0.0000
# 3 37.9204 23.9664 69.3844 0.0000 2.5924 0.0000
# 4 0.0000 0.0000 0.0000 17.1325 0.0000 -1.9885
# 5 10.7532 8.1637 2.5924 0.0000 21.9861 0.0000
# 6 0.0000 0.0000 0.0000 -1.9885 0.0000 12.0861
#
#
#
# Elastic Compliance Matrix: (Units=1/GPa)
#
#
# Indices 1 2 3 4 5 6 
#
# 1 0.014667 -0.000233 -0.007704 0.000000 -0.006178 0.000000
# 2 -0.000233 0.037932 -0.012508 0.000000 -0.012496 0.000000
# 3 -0.007704 -0.012508 0.022729 0.000000 0.005732 0.000000
# 4 0.000000 0.000000 0.000000 0.059505 0.000000 0.009790
# 5 -0.006178 -0.012496 0.005732 0.000000 0.052469 0.000000
# 6 0.000000 0.000000 0.000000 0.009790 0.000000 0.084351
#
#
# Mechanical properties :
#
#
# Convention : Reuss Voigt Hill
#
# Bulk Modulus (GPa) = 29.03852 39.59396 34.31624
# Shear Modulus (GPa) = 15.43104 18.29646 16.86375
#
# Velocity S-wave (km/s) = 3.11920 3.39648 3.26078
# Velocity P-wave (km/s) = 5.59299 6.35182 5.98445
#
# Compressibility (1/GPa) = 0.03443702
#
# Stress axis : x y z
#
# Youngs Moduli (GPa) = 68.18187 26.36307 43.99594
#
# Poissons Ratio (x) = 0.00615 0.33896
# Poissons Ratio (y) = 0.01589 0.55030
# Poissons Ratio (z) = 0.52530 0.32975
#
# Static dielectric constant tensor:
#      x y z
#    x 3.372880 0.000000 -0.016870 
#    y 0.000000 3.365460 0.000000 
#    z -0.016870 0.000000 3.055400 
# 
# 
# High freq. dielectric constant tensor:
#      x y z
#    x 1.616100 0.000000 -0.019120 
#    y 0.000000 1.557010 0.000000 
#    z -0.019120 0.000000 1.598020 
# 
# From -- ./inp_files/67675.got.cif
#   From: 2010.06.25/outbox.cif.g09.slc.cpg/sg15_34_cif.got.tgz:67675.got - 2010.06.28 07:06:18.
