data_PCOD8130295
_publ_section_title
;
Structure prediction by ZEFSAII (Michael W. Deem and Ramdas Pophale) SiO2 
 PCOD8130295
Probable space group: C 2/C
;
_chemical_formula_sum "Si O2"
_cell_formula_units_Z 56
_cell_length_a 23.567928
_cell_length_b 26.790283
_cell_length_c 14.979489
_cell_angle_alpha 90.000000
_cell_angle_beta 18.343672
_cell_angle_gamma 90.000000
_cell_volume 2976.559545
_symmetry_space_group_name_H-M "C 2/C"
_symmetry_group_IT_number 15
_symmetry_cell_setting 'monoclinic'
loop_
_space_group_symop_operation_xyz
x,y,z
-x,y,1/2-z
-x,-y,-z
x,-y,1/2+z
1/2+x,1/2+y,z
1/2-x,1/2+y,1/2-z
1/2-x,1/2-y,-z
1/2+x,1/2-y,1/2+z
loop_
_atom_site_type_symbol
_atom_site_label
_atom_site_fract_x
_atom_site_fract_y
_atom_site_fract_z
Si Si1 0.648179 0.506160 0.145010
Si Si2 0.692960 0.941982 0.434234
Si Si3 0.102620 0.220903 0.277482
Si Si4 0.751400 0.513628 0.300770
Si Si5 0.452653 0.608751 0.128548
Si Si6 0.363461 0.785408 0.534381
Si Si7 0.143275 0.396463 0.959676
O O1 0.738665 0.484454 0.098894
O O2 0.458286 0.478933 0.411833
O O3 0.612209 0.565589 0.206693
O O4 0.777680 0.497415 0.866524
O O5 0.666560 0.968121 0.378140
O O6 0.500000 0.919184 0.750000
O O7 0.836458 0.897182 0.211734
O O8 0.084960 0.163165 0.272417
O O9 0.162034 0.222864 0.293734
O O10 0.909674 0.248045 0.547521
O O11 0.250000 0.250000 0.000000
O O12 0.863575 0.563753 0.110116
O O13 0.343037 0.603126 0.201269
O O14 0.395707 0.841593 0.521709
O O15 0.500000 0.774752 0.250000
O O16 0.000000 0.411178 0.250000
#
# Coordination Sequence:
#
# PCOD8130295 Si02
#       7
#     8   8   8   8   8   8   8
#     4  10  20  35  54  80 114 148 191 234 277 343
#     4  11  21  37  53  78 117 155 192 230 278 346
#     4   9  17  33  51  81 110 141 178 232 290 353
#     4  10  19  34  53  79 108 146 192 234 281 329
#     4  10  19  36  57  76 115 156 180 227 299 340
#     4   8  16  29  49  76 108 135 178 224 284 338
#     4  10  17  31  56  80 105 149 185 228 287 345
#
# _framework density 18.813666999999999
#
# number of rings (size 3 to 8) (size 9 to 14) (size 15 to 20)
#    0.000    2.286    2.857    2.143    0.000    0.571 
#   15.429    1.429    0.000    0.000    3.714    3.000 
#    0.000    0.000    0.000    0.000    0.000    0.000 
#
# Total GULP energy -347011.076399 kJ/mol
# GULP energy per Si atom -12393.252729 kJ/mol
# Density = 1.877085 g / cm^3
# Si number density = 18.813667 Si / 1000 Ang^3
#
#
#
# Elastic Constant Matrix: (Units=GPa)
#
#
# Indices 1 2 3 4 5 6 
#
# 1 64.7366 43.9212 25.8921 0.1830 0.7843 -0.0194
# 2 43.9212 137.3852 47.0349 0.1939 1.2441 -0.0450
# 3 25.8921 47.0349 80.2805 0.1100 3.2068 -0.1095
# 4 0.1830 0.1939 0.1100 23.8433 -0.0909 -4.2212
# 5 0.7843 1.2441 3.2068 -0.0909 28.0174 0.0427
# 6 -0.0194 -0.0450 -0.1095 -4.2212 0.0427 22.0039
#
#
#
# Elastic Compliance Matrix: (Units=1/GPa)
#
#
# Indices 1 2 3 4 5 6 
#
# 1 0.020467 -0.005358 -0.003465 -0.000103 0.000061 -0.000030
# 2 -0.005358 0.010509 -0.004437 -0.000025 0.000191 -0.000010
# 3 -0.003465 -0.004437 0.016236 -0.000006 -0.001564 0.000071
# 4 -0.000103 -0.000025 -0.000006 0.043416 0.000133 0.008329
# 5 0.000061 0.000191 -0.001564 0.000133 0.035861 -0.000051
# 6 -0.000030 -0.000010 0.000071 0.008329 -0.000051 0.047045
#
#
# Mechanical properties :
#
#
# Convention : Reuss Voigt Hill
#
# Bulk Modulus (GPa) = 48.32254 57.34431 52.83343
# Shear Modulus (GPa) = 24.16044 25.80987 24.98515
#
# Velocity S-wave (km/s) = 3.58746 3.70789 3.64817
# Velocity P-wave (km/s) = 6.54984 6.99125 6.77414
#
# Compressibility (1/GPa) = 0.02069427
#
# Stress axis : x y z
#
# Youngs Moduli (GPa) = 48.85829 95.15840 61.59293
#
# Poissons Ratio (x) = 0.50982 0.21339
# Poissons Ratio (y) = 0.26176 0.27326
# Poissons Ratio (z) = 0.16927 0.42218
#
# Static dielectric constant tensor:
#      x y z
#    x 3.861130 0.002500 -0.430570 
#    y 0.002500 3.500520 -0.000880 
#    z -0.430570 -0.000880 3.562170 
# 
# 
# High freq. dielectric constant tensor:
#      x y z
#    x 1.716800 -0.000030 -0.026860 
#    y -0.000030 1.719620 0.000050 
#    z -0.026860 0.000050 1.707280 
# 
# From -- ./inp_files/174770.got.cif
#   From: 2010.06.25/outbox.cif.g09.slc.cpg/sg15_88_cif.got.tgz:174770.got - 2010.06.28 07:06:18.
