data_PCOD8130652
_publ_section_title
;
Structure prediction by ZEFSAII (Michael W. Deem and Ramdas Pophale) SiO2 
 PCOD8130652
Probable space group: C 2/C
;
_chemical_formula_sum "Si O2"
_cell_formula_units_Z 48
_cell_length_a 28.643418
_cell_length_b 16.163593
_cell_length_c 9.594574
_cell_angle_alpha 90.000000
_cell_angle_beta 143.183253
_cell_angle_gamma 90.000000
_cell_volume 2661.962961
_symmetry_space_group_name_H-M "C 2/C"
_symmetry_group_IT_number 15
_symmetry_cell_setting 'monoclinic'
loop_
_space_group_symop_operation_xyz
x,y,z
-x,y,1/2-z
-x,-y,-z
x,-y,1/2+z
1/2+x,1/2+y,z
1/2-x,1/2+y,1/2-z
1/2-x,1/2-y,-z
1/2+x,1/2-y,1/2+z
loop_
_atom_site_type_symbol
_atom_site_label
_atom_site_fract_x
_atom_site_fract_y
_atom_site_fract_z
Si Si1 0.082775 0.205730 0.122146
Si Si2 0.709594 0.595479 0.560241
Si Si3 0.784465 0.674058 0.998147
Si Si4 0.906576 0.211420 0.683558
Si Si5 0.203682 0.327566 0.455243
Si Si6 0.226370 0.907387 0.605796
O O1 0.128498 0.127532 0.298776
O O2 0.115041 0.294953 0.253921
O O3 0.092986 0.202842 0.981170
O O4 0.992925 0.202273 0.952435
O O5 0.780535 0.599088 0.617257
O O6 0.705868 0.500618 0.599921
O O7 0.727882 0.653212 0.734954
O O8 0.869839 0.699732 0.143497
O O9 0.783280 0.597450 0.105467
O O10 0.750000 0.750000 0.000000
O O11 0.855735 0.136653 0.625330
O O12 0.250000 0.250000 0.500000
O O13 0.232476 0.355630 0.674164
#
# Coordination Sequence:
#
# PCOD8130652 Si02
#       6
#     8   8   8   8   8   8
#     4  10  19  34  59  79 105 147 185 216 259 332
#     4  11  20  34  57  82 110 144 179 220 274 321
#     4  10  20  35  54  80 110 140 186 229 255 311
#     4  10  19  35  56  81 108 142 185 218 266 319
#     4  10  17  36  57  77 101 148 192 210 249 330
#     4  11  21  34  56  84 113 136 177 230 275 313
#
# _framework density 18.031807000000001
#
# number of rings (size 3 to 8) (size 9 to 14) (size 15 to 20)
#    0.000    1.667    5.000    4.000    0.000    0.667 
#    0.000    7.500    0.000    6.000    0.000    0.000 
#    0.000    0.000    0.000    0.000    0.000    0.000 
#
# Total GULP energy -297365.734848 kJ/mol
# GULP energy per Si atom -12390.238952 kJ/mol
# Density = 1.799077 g / cm^3
# Si number density = 18.031807 Si / 1000 Ang^3
#
#
#
# Elastic Constant Matrix: (Units=GPa)
#
#
# Indices 1 2 3 4 5 6 
#
# 1 76.6587 42.7285 43.0090 0.0000 -3.0632 0.0000
# 2 42.7285 90.9446 64.5050 0.0000 18.9463 0.0000
# 3 43.0090 64.5050 108.0610 0.0000 0.2407 0.0000
# 4 0.0000 0.0000 0.0000 19.8645 0.0000 -5.5474
# 5 -3.0632 18.9463 0.2407 0.0000 28.9110 0.0000
# 6 0.0000 0.0000 0.0000 -5.5474 0.0000 21.9852
#
#
#
# Elastic Compliance Matrix: (Units=1/GPa)
#
#
# Indices 1 2 3 4 5 6 
#
# 1 0.019954 -0.009483 -0.002300 0.000000 0.008348 0.000000
# 2 -0.009483 0.029376 -0.013716 0.000000 -0.020141 0.000000
# 3 -0.002300 -0.013716 0.018338 0.000000 0.008592 0.000000
# 4 0.000000 0.000000 0.000000 0.054157 0.000000 0.013665
# 5 0.008348 -0.020141 0.008592 0.000000 0.048601 0.000000
# 6 0.000000 0.000000 0.000000 0.013665 0.000000 0.048933
#
#
# Mechanical properties :
#
#
# Convention : Reuss Voigt Hill
#
# Bulk Modulus (GPa) = 59.98825 64.01658 62.00241
# Shear Modulus (GPa) = 18.12158 22.51361 20.31759
#
# Velocity S-wave (km/s) = 3.17358 3.53732 3.36037
# Velocity P-wave (km/s) = 6.83879 7.22929 7.03675
#
# Compressibility (1/GPa) = 0.01666993
#
# Stress axis : x y z
#
# Youngs Moduli (GPa) = 50.11412 34.04181 54.53219
#
# Poissons Ratio (x) = 0.32282 0.12542
# Poissons Ratio (y) = 0.47524 0.74797
# Poissons Ratio (z) = 0.11525 0.46692
#
# Static dielectric constant tensor:
#      x y z
#    x 3.806880 0.000000 0.033910 
#    y 0.000000 3.506570 0.000000 
#    z 0.033910 0.000000 3.485770 
# 
# 
# High freq. dielectric constant tensor:
#      x y z
#    x 1.693140 0.000000 -0.020700 
#    y 0.000000 1.686070 0.000000 
#    z -0.020700 0.000000 1.691630 
# 
# From -- ./inp_files/70015.got.cif
#   From: 2010.06.25/outbox.cif.g09.slc.cpg/sg15_36_cif.got.tgz:70015.got - 2010.06.28 07:06:18.
