data_PCOD8130941
_publ_section_title
;
Structure prediction by ZEFSAII (Michael W. Deem and Ramdas Pophale) SiO2 
 PCOD8130941
Probable space group: C 2/C
;
_chemical_formula_sum "Si O2"
_cell_formula_units_Z 64
_cell_length_a 9.321080
_cell_length_b 19.809932
_cell_length_c 19.490944
_cell_angle_alpha 90.000000
_cell_angle_beta 100.663445
_cell_angle_gamma 90.000000
_cell_volume 3536.851072
_symmetry_space_group_name_H-M "C 2/C"
_symmetry_group_IT_number 15
_symmetry_cell_setting 'monoclinic'
loop_
_space_group_symop_operation_xyz
x,y,z
-x,y,1/2-z
-x,-y,-z
x,-y,1/2+z
1/2+x,1/2+y,z
1/2-x,1/2+y,1/2-z
1/2-x,1/2-y,-z
1/2+x,1/2-y,1/2+z
loop_
_atom_site_type_symbol
_atom_site_label
_atom_site_fract_x
_atom_site_fract_y
_atom_site_fract_z
Si Si1 0.831206 0.934266 0.680098
Si Si2 0.418292 0.568415 0.471804
Si Si3 0.875094 0.981299 0.825752
Si Si4 0.961729 0.477366 0.897098
Si Si5 0.595219 0.178775 0.934693
Si Si6 0.631016 0.092466 0.515969
Si Si7 0.623986 0.922165 0.318725
Si Si8 0.147178 0.166857 0.437718
O O1 0.854497 0.924903 0.763878
O O2 0.665884 0.958431 0.665379
O O3 0.842001 0.865815 0.636793
O O4 0.946563 0.990963 0.660192
O O5 0.500000 0.500000 0.500000
O O6 0.331655 0.552749 0.393746
O O7 0.303419 0.598523 0.516573
O O8 0.533997 0.627782 0.475281
O O9 0.781391 0.050469 0.803127
O O10 0.039597 0.411677 0.936714
O O11 0.079704 0.518353 0.865210
O O12 0.887124 0.520264 0.950430
O O13 0.646234 0.144419 0.867474
O O14 0.589929 0.257918 0.920816
O O15 0.433083 0.152530 0.941972
O O16 0.701153 0.162267 0.007776
O O17 0.500000 0.908470 0.250000
#
# Coordination Sequence:
#
# PCOD8130941 Si02
#       8
#     8   8   8   8   8   8   8   8
#     4  10  19  34  52  79 109 140 177 230 282 317
#     4  11  21  34  56  85 109 141 180 234 282 324
#     4  10  20  31  51  81 108 137 175 226 280 325
#     4  10  18  30  52  80 110 138 169 228 277 317
#     4  10  22  37  55  79 107 153 190 221 273 338
#     4  10  19  31  53  81 110 139 180 224 271 327
#     4  11  20  34  53  81 111 140 184 225 276 334
#     4  10  21  38  56  78 110 146 190 230 274 330
#
# _framework density 18.095192000000001
#
# number of rings (size 3 to 8) (size 9 to 14) (size 15 to 20)
#    0.000    1.750    3.750    2.250    1.750    0.500 
#    4.500    0.000    0.000    0.000    0.000    3.500 
#    0.000    0.000    0.000    0.000    0.000    0.000 
#
# Total GULP energy -396423.341835 kJ/mol
# GULP energy per Si atom -12388.229432 kJ/mol
# Density = 1.805401 g / cm^3
# Si number density = 18.095192 Si / 1000 Ang^3
#
#
#
# Elastic Constant Matrix: (Units=GPa)
#
#
# Indices 1 2 3 4 5 6 
#
# 1 84.0877 42.6535 16.5302 0.0000 -5.9762 0.0000
# 2 42.6535 104.7552 33.8191 0.0000 -3.2905 0.0000
# 3 16.5302 33.8191 89.0025 0.0000 -1.3142 0.0000
# 4 0.0000 0.0000 0.0000 20.3701 0.0000 2.9566
# 5 -5.9762 -3.2905 -1.3142 0.0000 24.7386 0.0000
# 6 0.0000 0.0000 0.0000 2.9566 0.0000 19.4746
#
#
#
# Elastic Compliance Matrix: (Units=1/GPa)
#
#
# Indices 1 2 3 4 5 6 
#
# 1 0.015208 -0.005932 -0.000528 0.000000 0.002857 0.000000
# 2 -0.005932 0.013232 -0.003924 0.000000 0.000118 0.000000
# 3 -0.000528 -0.003924 0.012825 0.000000 0.000032 0.000000
# 4 0.000000 0.000000 0.000000 0.050198 0.000000 -0.007621
# 5 0.002857 0.000118 0.000032 0.000000 0.041130 0.000000
# 6 0.000000 0.000000 0.000000 -0.007621 0.000000 0.052506
#
#
# Mechanical properties :
#
#
# Convention : Reuss Voigt Hill
#
# Bulk Modulus (GPa) = 48.78971 51.53902 50.16436
# Shear Modulus (GPa) = 23.50714 25.23953 24.37333
#
# Velocity S-wave (km/s) = 3.60819 3.73878 3.67406
# Velocity P-wave (km/s) = 6.66183 6.86891 6.76617
#
# Compressibility (1/GPa) = 0.02049612
#
# Stress axis : x y z
#
# Youngs Moduli (GPa) = 65.75354 75.57356 77.97006
#
# Poissons Ratio (x) = 0.44831 0.04119
# Poissons Ratio (y) = 0.39006 0.30599
# Poissons Ratio (z) = 0.03474 0.29658
#
# Static dielectric constant tensor:
#      x y z
#    x 3.546090 0.000000 0.047800 
#    y 0.000000 3.019590 0.000000 
#    z 0.047800 0.000000 3.509220 
# 
# 
# High freq. dielectric constant tensor:
#      x y z
#    x 1.714080 0.000000 0.004200 
#    y 0.000000 1.654490 0.000000 
#    z 0.004200 0.000000 1.708880 
# 
# From -- ./inp_files/233516.got.cif
#   From: 2010.06.25/outbox.cif.g09.slc.cpg/sg15_117_cif.got.tgz:233516.got - 2010.06.28 07:06:18.
