data_PCOD8130858
_publ_section_title
;
Structure prediction by ZEFSAII (Michael W. Deem and Ramdas Pophale) SiO2 
 PCOD8130858
Probable space group: C 2/C
;
_chemical_formula_sum "Si O2"
_cell_formula_units_Z 64
_cell_length_a 19.290268
_cell_length_b 28.267262
_cell_length_c 5.320793
_cell_angle_alpha 90.000000
_cell_angle_beta 111.372107
_cell_angle_gamma 90.000000
_cell_volume 2701.822933
_symmetry_space_group_name_H-M "C 2/C"
_symmetry_group_IT_number 15
_symmetry_cell_setting 'monoclinic'
loop_
_space_group_symop_operation_xyz
x,y,z
-x,y,1/2-z
-x,-y,-z
x,-y,1/2+z
1/2+x,1/2+y,z
1/2-x,1/2+y,1/2-z
1/2-x,1/2-y,-z
1/2+x,1/2-y,1/2+z
loop_
_atom_site_type_symbol
_atom_site_label
_atom_site_fract_x
_atom_site_fract_y
_atom_site_fract_z
Si Si1 0.905156 0.482735 0.492675
Si Si2 0.302040 0.607977 0.607380
Si Si3 0.183783 0.805198 0.695807
Si Si4 0.074687 0.757080 0.231652
Si Si5 0.851036 0.620442 0.939300
Si Si6 0.423221 0.647669 0.041801
Si Si7 0.261565 0.522154 0.250903
Si Si8 0.651721 0.819670 0.548373
O O1 0.948419 0.501195 0.797703
O O2 0.901694 0.426094 0.504093
O O3 0.826868 0.512500 0.375855
O O4 0.301741 0.662462 0.527761
O O5 0.233617 0.600984 0.713399
O O6 0.285496 0.575969 0.340488
O O7 0.382240 0.602924 0.850477
O O8 0.141212 0.758619 0.530608
O O9 0.132678 0.832360 0.824486
O O10 0.267343 0.796298 0.907502
O O11 0.098613 0.725152 0.026338
O O12 0.000000 0.734583 0.250000
O O13 0.054486 0.809812 0.115256
O O14 0.875594 0.652910 0.737146
O O15 0.854899 0.646593 0.214400
O O16 0.500000 0.626767 0.250000
O O17 0.297481 0.507222 0.033019
#
# Coordination Sequence:
#
# PCOD8130858 Si02
#       8
#     8   8   8   8   8   8   8   8
#     4  10  18  29  53  82 121 160 193 234 299 355
#     4  10  21  34  55  87 119 157 195 256 303 351
#     4  10  22  38  60  85 120 153 199 252 307 349
#     4  11  24  42  60  87 116 162 208 247 295 368
#     4  11  21  36  54  90 126 157 192 248 306 356
#     4  11  22  38  63  82 113 159 212 255 297 357
#     4  10  20  30  54  84 116 158 198 236 306 355
#     4  11  25  38  61  89 127 157 196 252 310 350
#
# _framework density 23.687711
#
# number of rings (size 3 to 8) (size 9 to 14) (size 15 to 20)
#    0.000    1.500    5.000    1.125    8.750    0.500 
#    0.000    0.000    0.000    0.750    0.000    0.000 
#    0.000   10.000    0.000    0.000    0.000    0.000 
#
# Total GULP energy -396517.482025 kJ/mol
# GULP energy per Si atom -12391.171313 kJ/mol
# Density = 2.363380 g / cm^3
# Si number density = 23.687711 Si / 1000 Ang^3
#
#
#
# Elastic Constant Matrix: (Units=GPa)
#
#
# Indices 1 2 3 4 5 6 
#
# 1 80.4424 9.7195 20.7186 0.0000 -10.6915 0.0000
# 2 9.7195 67.4823 24.6449 0.0000 -0.2466 0.0000
# 3 20.7186 24.6449 121.7767 0.0000 -16.1812 0.0000
# 4 0.0000 0.0000 0.0000 30.4037 0.0000 -13.6516
# 5 -10.6915 -0.2466 -16.1812 0.0000 31.7674 0.0000
# 6 0.0000 0.0000 0.0000 -13.6516 0.0000 9.5129
#
#
#
# Elastic Compliance Matrix: (Units=1/GPa)
#
#
# Indices 1 2 3 4 5 6 
#
# 1 0.013487 -0.001375 -0.001517 0.000000 0.003756 0.000000
# 2 -0.001375 0.016221 -0.003318 0.000000 -0.002027 0.000000
# 3 -0.001517 -0.003318 0.009729 0.000000 0.004419 0.000000
# 4 0.000000 0.000000 0.000000 0.092482 0.000000 0.132717
# 5 0.003756 -0.002027 0.004419 0.000000 0.034978 0.000000
# 6 0.000000 0.000000 0.000000 0.132717 0.000000 0.295576
#
#
# Mechanical properties :
#
#
# Convention : Reuss Voigt Hill
#
# Bulk Modulus (GPa) = 37.01462 42.20748 39.61105
# Shear Modulus (GPa) = 10.33273 28.64470 19.48872
#
# Velocity S-wave (km/s) = 2.09082 3.48122 2.87145
# Velocity P-wave (km/s) = 4.63559 5.83228 5.26803
#
# Compressibility (1/GPa) = 0.02701635
#
# Stress axis : x y z
#
# Youngs Moduli (GPa) = 74.14359 61.64802 102.78940
#
# Poissons Ratio (x) = 0.08475 0.15598
# Poissons Ratio (y) = 0.10192 0.34108
# Poissons Ratio (z) = 0.11251 0.20456
#
# Static dielectric constant tensor:
#      x y z
#    x 4.192750 0.000000 -0.120250 
#    y 0.000000 4.128890 0.000000 
#    z -0.120250 0.000000 4.962430 
# 
# 
# High freq. dielectric constant tensor:
#      x y z
#    x 1.920960 0.000000 -0.014300 
#    y 0.000000 1.915330 0.000000 
#    z -0.014300 0.000000 1.955840 
# 
# From -- ./inp_files/14668.got.cif
#   From: 2010.06.25/outbox.cif.g09.slc.cpg/sg15_8_cif.got.tgz:14668.got - 2010.06.28 07:06:18.
