data_PCOD8130741
_publ_section_title
;
Structure prediction by ZEFSAII (Michael W. Deem and Ramdas Pophale) SiO2 
 PCOD8130741
Probable space group: C 2/C
;
_chemical_formula_sum "Si O2"
_cell_formula_units_Z 44
_cell_length_a 16.807112
_cell_length_b 15.586548
_cell_length_c 17.716290
_cell_angle_alpha 90.000000
_cell_angle_beta 150.668805
_cell_angle_gamma 90.000000
_cell_volume 2273.449418
_symmetry_space_group_name_H-M "C 2/C"
_symmetry_group_IT_number 15
_symmetry_cell_setting 'monoclinic'
loop_
_space_group_symop_operation_xyz
x,y,z
-x,y,1/2-z
-x,-y,-z
x,-y,1/2+z
1/2+x,1/2+y,z
1/2-x,1/2+y,1/2-z
1/2-x,1/2-y,-z
1/2+x,1/2-y,1/2+z
loop_
_atom_site_type_symbol
_atom_site_label
_atom_site_fract_x
_atom_site_fract_y
_atom_site_fract_z
Si Si1 0.065333 0.549826 0.219220
Si Si2 0.277560 0.314595 0.819375
Si Si3 0.163892 0.326383 0.014233
Si Si4 0.578116 0.852954 0.233300
Si Si5 0.402838 0.257171 0.467471
Si Si6 0.000000 0.224253 0.750000
O O1 0.226315 0.607159 0.332137
O O2 0.107913 0.452222 0.237918
O O3 0.000000 0.564757 0.250000
O O4 0.914878 0.579345 0.039806
O O5 0.308528 0.224348 0.886803
O O6 0.139439 0.296499 0.643133
O O7 0.455449 0.328923 0.928971
O O8 0.339920 0.335033 0.120552
O O9 0.024641 0.282005 0.845350
O O10 0.500000 0.841483 0.250000
O O11 0.750697 0.807039 0.375168
O O12 0.456942 0.813264 0.072551
#
# Coordination Sequence:
#
# PCOD8130741 Si02
#       6
#     8   8   8   8   8   4
#     4  11  21  35  60  92 122 153 200 237 285 341
#     4  11  20  35  59  89 124 158 190 230 294 357
#     4  11  17  32  51  84 122 160 190 222 277 351
#     4  10  23  42  68  83 109 151 202 260 292 345
#     4  10  22  41  61  86 113 158 198 238 306 349
#     4  10  18  26  54  76 118 174 184 218 268 344
#
# _framework density 19.353849
#
# number of rings (size 3 to 8) (size 9 to 14) (size 15 to 20)
#    0.000    1.455    4.545    1.636    0.000    1.455 
#    0.000    0.000   26.000    0.000    0.000    0.000 
#    0.000    0.000    0.000    0.000    0.000    0.000 
#
# Total GULP energy -272646.808911 kJ/mol
# GULP energy per Si atom -12393.036769 kJ/mol
# Density = 1.930980 g / cm^3
# Si number density = 19.353849 Si / 1000 Ang^3
#
#
#
# Elastic Constant Matrix: (Units=GPa)
#
#
# Indices 1 2 3 4 5 6 
#
# 1 92.6229 62.2875 43.9473 0.0019 -0.7137 0.0017
# 2 62.2875 111.6242 47.8111 0.0010 4.6365 0.0005
# 3 43.9473 47.8111 121.9089 0.0033 2.0484 0.0026
# 4 0.0019 0.0010 0.0033 26.0972 0.0027 0.8158
# 5 -0.7137 4.6365 2.0484 0.0027 35.3919 0.0023
# 6 0.0017 0.0005 0.0026 0.8158 0.0023 26.0742
#
#
#
# Elastic Compliance Matrix: (Units=1/GPa)
#
#
# Indices 1 2 3 4 5 6 
#
# 1 0.018310 -0.008953 -0.003118 -0.000001 0.001723 -0.000001
# 2 -0.008953 0.015194 -0.002697 0.000001 -0.002015 0.000001
# 3 -0.003118 -0.002697 0.010390 -0.000001 -0.000311 -0.000001
# 4 -0.000001 0.000001 -0.000001 0.038356 -0.000003 -0.001200
# 5 0.001723 -0.002015 -0.000311 -0.000003 0.028572 -0.000002
# 6 -0.000001 0.000001 -0.000001 -0.001200 -0.000002 0.038390
#
#
# Mechanical properties :
#
#
# Convention : Reuss Voigt Hill
#
# Bulk Modulus (GPa) = 69.65627 70.47197 70.06412
# Shear Modulus (GPa) = 27.24289 28.98667 28.11478
#
# Velocity S-wave (km/s) = 3.75590 3.87424 3.81553
# Velocity P-wave (km/s) = 7.40797 7.51694 7.46266
#
# Compressibility (1/GPa) = 0.01435621
#
# Stress axis : x y z
#
# Youngs Moduli (GPa) = 54.61435 65.81702 96.24591
#
# Poissons Ratio (x) = 0.58927 0.30012
# Poissons Ratio (y) = 0.48897 0.25961
# Poissons Ratio (z) = 0.17030 0.17753
#
# Static dielectric constant tensor:
#      x y z
#    x 3.752790 -0.000010 0.234570 
#    y -0.000010 3.343940 -0.000010 
#    z 0.234570 -0.000010 3.738030 
# 
# 
# High freq. dielectric constant tensor:
#      x y z
#    x 1.771000 0.000000 0.013470 
#    y 0.000000 1.716820 0.000000 
#    z 0.013470 0.000000 1.762350 
# 
# From -- ./inp_files/47072.got.cif
#   From: 2010.06.25/outbox.cif.g09.slc.cpg/sg15_24_cif.got.tgz:47072.got - 2010.06.28 07:06:18.
