data_PCOD8130680
_publ_section_title
;
Structure prediction by ZEFSAII (Michael W. Deem and Ramdas Pophale) SiO2 
 PCOD8130680
Probable space group: C 2/C
;
_chemical_formula_sum "Si O2"
_cell_formula_units_Z 64
_cell_length_a 23.281074
_cell_length_b 21.133855
_cell_length_c 17.715021
_cell_angle_alpha 90.000000
_cell_angle_beta 22.635484
_cell_angle_gamma 90.000000
_cell_volume 3354.548583
_symmetry_space_group_name_H-M "C 2/C"
_symmetry_group_IT_number 15
_symmetry_cell_setting 'monoclinic'
loop_
_space_group_symop_operation_xyz
x,y,z
-x,y,1/2-z
-x,-y,-z
x,-y,1/2+z
1/2+x,1/2+y,z
1/2-x,1/2+y,1/2-z
1/2-x,1/2-y,-z
1/2+x,1/2-y,1/2+z
loop_
_atom_site_type_symbol
_atom_site_label
_atom_site_fract_x
_atom_site_fract_y
_atom_site_fract_z
Si Si1 0.182859 0.996161 0.197622
Si Si2 0.937085 0.398954 0.903897
Si Si3 0.705937 0.606102 0.935590
Si Si4 0.786292 0.691714 0.704442
Si Si5 0.131477 0.121290 0.188249
Si Si6 0.115488 0.939895 0.929540
Si Si7 0.445905 0.690082 0.078912
Si Si8 0.125939 0.478112 0.788990
O O1 0.225819 0.061850 0.104809
O O2 0.166503 0.007253 0.307111
O O3 0.029091 0.966779 0.351449
O O4 0.311532 0.946560 0.027787
O O5 0.000000 0.368866 0.750000
O O6 0.060378 0.438968 0.799262
O O7 0.873161 0.342245 0.031552
O O8 0.796674 0.648671 0.766618
O O9 0.787254 0.539341 0.847364
O O10 0.698422 0.641478 0.026135
O O11 0.538753 0.596261 0.108625
O O12 0.868126 0.756729 0.623823
O O13 0.618384 0.707338 0.882955
O O14 0.137325 0.180759 0.238899
O O15 0.067528 0.874932 0.949499
O O16 0.254596 0.931088 0.816866
O O17 0.000000 0.500000 0.000000
#
# Coordination Sequence:
#
# PCOD8130680 Si02
#       8
#     8   8   8   8   8   8   8   8
#     4  10  17  36  61  88 122 156 191 238 304 366
#     4  12  25  40  60  90 126 156 195 259 309 348
#     4  10  19  36  59  91 125 153 194 239 299 364
#     4  11  23  42  62  82 115 164 207 250 296 354
#     4   9  19  35  61  91 121 157 192 240 292 370
#     4  10  19  35  64  88 115 158 202 236 294 369
#     4  10  23  39  64  85 114 160 208 248 297 348
#     4  12  21  35  62  95 124 156 195 243 304 363
#
# _framework density 19.078572000000001
#
# number of rings (size 3 to 8) (size 9 to 14) (size 15 to 20)
#    0.000    1.500    5.000    0.750    1.750    0.500 
#    0.000    0.625    0.000    0.000    0.000    0.000 
#    0.000    0.000    0.000    0.000    0.000    0.000 
#
# Total GULP energy -396782.802240 kJ/mol
# GULP energy per Si atom -12399.462570 kJ/mol
# Density = 1.903515 g / cm^3
# Si number density = 19.078572 Si / 1000 Ang^3
#
#
#
# Elastic Constant Matrix: (Units=GPa)
#
#
# Indices 1 2 3 4 5 6 
#
# 1 98.9139 37.6565 57.6906 -0.0123 4.6282 0.0107
# 2 37.6565 82.6323 36.5033 -0.0154 3.6595 0.0182
# 3 57.6906 36.5033 85.6112 -0.0132 6.4003 0.0348
# 4 -0.0123 -0.0154 -0.0132 19.8076 0.0144 -6.8643
# 5 4.6282 3.6595 6.4003 0.0144 38.3667 -0.0125
# 6 0.0107 0.0182 0.0348 -6.8643 -0.0125 31.2292
#
#
#
# Elastic Compliance Matrix: (Units=1/GPa)
#
#
# Indices 1 2 3 4 5 6 
#
# 1 0.017393 -0.003386 -0.010272 0.000004 -0.000062 0.000008
# 2 -0.003386 0.015574 -0.004333 0.000007 -0.000354 -0.000002
# 3 -0.010272 -0.004333 0.020583 -0.000001 -0.001781 -0.000018
# 4 0.000004 0.000007 -0.000001 0.054648 -0.000018 0.012012
# 5 -0.000062 -0.000354 -0.001781 -0.000018 0.026403 0.000009
# 6 0.000008 -0.000002 -0.000018 0.012012 0.000009 0.034662
#
#
# Mechanical properties :
#
#
# Convention : Reuss Voigt Hill
#
# Bulk Modulus (GPa) = 56.91705 58.98425 57.95065
# Shear Modulus (GPa) = 23.68536 26.90117 25.29327
#
# Velocity S-wave (km/s) = 3.52726 3.75910 3.64502
# Velocity P-wave (km/s) = 6.81810 7.05866 6.93942
#
# Compressibility (1/GPa) = 0.01756943
#
# Stress axis : x y z
#
# Youngs Moduli (GPa) = 57.49524 64.20816 48.58271
#
# Poissons Ratio (x) = 0.21738 0.49905
# Poissons Ratio (y) = 0.19465 0.21050
# Poissons Ratio (z) = 0.59061 0.27820
#
# Static dielectric constant tensor:
#      x y z
#    x 3.624790 -0.000050 -0.011460 
#    y -0.000050 3.225360 0.000060 
#    z -0.011460 0.000060 3.531010 
# 
# 
# High freq. dielectric constant tensor:
#      x y z
#    x 1.745260 0.000000 -0.003950 
#    y 0.000000 1.720470 0.000010 
#    z -0.003950 0.000010 1.739450 
# 
# From -- ./inp_files/220234.got.cif
#   From: 2010.06.25/outbox.cif.g09.slc.cpg/sg15_111_cif.got.tgz:220234.got - 2010.06.28 07:06:18.
