data_PCOD8130925
_publ_section_title
;
Structure prediction by ZEFSAII (Michael W. Deem and Ramdas Pophale) SiO2 
 PCOD8130925
Probable space group: C 2/C
;
_chemical_formula_sum "Si O2"
_cell_formula_units_Z 64
_cell_length_a 19.379438
_cell_length_b 9.078238
_cell_length_c 21.709290
_cell_angle_alpha 90.000000
_cell_angle_beta 112.101062
_cell_angle_gamma 90.000000
_cell_volume 3538.701565
_symmetry_space_group_name_H-M "C 2/C"
_symmetry_group_IT_number 15
_symmetry_cell_setting 'monoclinic'
loop_
_space_group_symop_operation_xyz
x,y,z
-x,y,1/2-z
-x,-y,-z
x,-y,1/2+z
1/2+x,1/2+y,z
1/2-x,1/2+y,1/2-z
1/2-x,1/2-y,-z
1/2+x,1/2-y,1/2+z
loop_
_atom_site_type_symbol
_atom_site_label
_atom_site_fract_x
_atom_site_fract_y
_atom_site_fract_z
Si Si1 0.643374 0.245506 0.160945
Si Si2 0.997953 0.581022 0.403819
Si Si3 0.853776 0.691622 0.093953
Si Si4 0.562496 0.827512 0.046741
Si Si5 0.206288 0.951446 0.491763
Si Si6 0.647626 0.458019 0.598418
Si Si7 0.222329 0.251354 0.814804
Si Si8 0.706787 0.011445 0.094188
O O1 0.567782 0.162225 0.155554
O O2 0.622253 0.410279 0.133750
O O3 0.699550 0.247620 0.236457
O O4 0.683491 0.163925 0.117365
O O5 0.974134 0.410662 0.406696
O O6 0.075193 0.587456 0.392733
O O7 0.003914 0.666242 0.471203
O O8 0.858408 0.845055 0.057784
O O9 0.849090 0.716864 0.165793
O O10 0.775076 0.630838 0.045728
O O11 0.580290 0.659659 0.070323
O O12 0.635709 0.916186 0.047095
O O13 0.167151 0.029084 0.537331
O O14 0.239863 0.049505 0.446820
O O15 0.716387 0.376835 0.654022
O O16 0.252417 0.089107 0.841454
#
# Coordination Sequence:
#
# PCOD8130925 Si02
#       8
#     8   8   8   8   8   8   8   8
#     4  11  22  30  45  78 105 133 160 199 255 303
#     4  10  18  30  51  74 103 125 163 204 248 305
#     4   9  15  30  54  73  90 125 171 214 234 291
#     4   9  17  31  50  75  97 131 161 203 256 292
#     4   9  15  29  52  74  93 124 171 207 255 275
#     4  10  19  33  52  72 103 129 166 210 246 300
#     4   9  19  34  53  69  94 134 171 207 242 289
#     4   9  17  32  53  70  95 128 171 211 243 291
#
# _framework density 18.085730000000002
#
# number of rings (size 3 to 8) (size 9 to 14) (size 15 to 20)
#    0.000    2.500    2.500    2.250    0.000    1.500 
#    0.000    0.000    0.000    0.000    0.000    5.250 
#    0.000    0.000    0.000    0.000    0.000    0.000 
#
# Total GULP energy -396512.177993 kJ/mol
# GULP energy per Si atom -12391.005562 kJ/mol
# Density = 1.804457 g / cm^3
# Si number density = 18.085730 Si / 1000 Ang^3
#
#
#
# Elastic Constant Matrix: (Units=GPa)
#
#
# Indices 1 2 3 4 5 6 
#
# 1 67.6313 21.9938 5.0687 0.0000 1.2907 0.0000
# 2 21.9938 72.3471 20.2012 0.0000 -4.1860 0.0000
# 3 5.0687 20.2012 68.2076 0.0000 -3.4736 0.0000
# 4 0.0000 0.0000 0.0000 16.7832 0.0000 0.4002
# 5 1.2907 -4.1860 -3.4736 0.0000 19.6582 0.0000
# 6 0.0000 0.0000 0.0000 0.4002 0.0000 22.6594
#
#
#
# Elastic Compliance Matrix: (Units=1/GPa)
#
#
# Indices 1 2 3 4 5 6 
#
# 1 0.016502 -0.005198 0.000204 0.000000 -0.002154 0.000000
# 2 -0.005198 0.016823 -0.004436 0.000000 0.003140 0.000000
# 3 0.000204 -0.004436 0.016056 0.000000 0.001879 0.000000
# 4 0.000000 0.000000 0.000000 0.059609 0.000000 -0.001053
# 5 -0.002154 0.003140 0.001879 0.000000 0.052011 0.000000
# 6 0.000000 0.000000 0.000000 -0.001053 0.000000 0.044150
#
#
# Mechanical properties :
#
#
# Convention : Reuss Voigt Hill
#
# Bulk Modulus (GPa) = 32.76663 33.63481 33.20072
# Shear Modulus (GPa) = 21.35052 22.54830 21.94941
#
# Velocity S-wave (km/s) = 3.43959 3.53476 3.48750
# Velocity P-wave (km/s) = 5.82504 5.94114 5.88338
#
# Compressibility (1/GPa) = 0.03051886
#
# Stress axis : x y z
#
# Youngs Moduli (GPa) = 60.59719 59.44266 62.28355
#
# Poissons Ratio (x) = 0.30900 -0.01268
# Poissons Ratio (y) = 0.31500 0.27631
# Poissons Ratio (z) = -0.01233 0.26371
#
# Static dielectric constant tensor:
#      x y z
#    x 3.298900 0.000000 -0.052700 
#    y 0.000000 3.080500 0.000000 
#    z -0.052700 0.000000 3.241680 
# 
# 
# High freq. dielectric constant tensor:
#      x y z
#    x 1.689270 0.000000 -0.000490 
#    y 0.000000 1.672490 0.000000 
#    z -0.000490 0.000000 1.691250 
# 
# From -- ./inp_files/279390.got.cif
#   From: 2010.06.25/outbox.cif.g09.slc.cpg/sg15_140_cif.got.tgz:279390.got - 2010.06.28 07:06:18.
