data_PCOD8130129
_publ_section_title
;
Structure prediction by ZEFSAII (Michael W. Deem and Ramdas Pophale) SiO2 
 PCOD8130129
Probable space group: C 2/C
;
_chemical_formula_sum "Si O2"
_cell_formula_units_Z 56
_cell_length_a 23.173985
_cell_length_b 16.249683
_cell_length_c 24.167732
_cell_angle_alpha 90.000000
_cell_angle_beta 158.827122
_cell_angle_gamma 90.000000
_cell_volume 3287.070729
_symmetry_space_group_name_H-M "C 2/C"
_symmetry_group_IT_number 15
_symmetry_cell_setting 'monoclinic'
loop_
_space_group_symop_operation_xyz
x,y,z
-x,y,1/2-z
-x,-y,-z
x,-y,1/2+z
1/2+x,1/2+y,z
1/2-x,1/2+y,1/2-z
1/2-x,1/2-y,-z
1/2+x,1/2-y,1/2+z
loop_
_atom_site_type_symbol
_atom_site_label
_atom_site_fract_x
_atom_site_fract_y
_atom_site_fract_z
Si Si1 0.955708 0.864513 0.456630
Si Si2 0.257037 0.840071 0.409612
Si Si3 0.596002 0.889596 0.708477
Si Si4 0.552631 0.443732 0.353722
Si Si5 0.372258 0.502006 0.462383
Si Si6 0.256263 0.252730 0.795940
Si Si7 0.814891 0.679713 0.098850
O O1 0.798005 0.817783 0.294887
O O2 0.014414 0.927271 0.461645
O O3 0.086881 0.796037 0.588411
O O4 0.913559 0.913193 0.474906
O O5 0.407529 0.902073 0.552415
O O6 0.292797 0.788189 0.387320
O O7 0.257749 0.775037 0.463575
O O8 0.090564 0.885639 0.253189
O O9 0.687005 0.976734 0.780449
O O10 0.621252 0.824669 0.680933
O O11 0.696346 0.849641 0.848090
O O12 0.500000 0.491671 0.250000
O O13 0.600216 0.504106 0.446386
O O14 0.700025 0.385889 0.464624
O O15 0.000000 0.676277 0.250000
#
# Coordination Sequence:
#
# PCOD8130129 Si02
#       7
#     8   8   8   8   8   8   8
#     4  10  18  34  53  70  98 128 167 206 253 296
#     4  11  18  28  44  69 101 130 170 202 235 279
#     4   9  18  29  44  64  98 129 162 202 238 287
#     4  11  21  31  46  69 100 135 171 202 237 291
#     4   9  20  35  48  68  99 138 162 201 255 297
#     4  10  17  29  50  73  93 127 164 207 247 289
#     4  10  19  29  41  64  96 136 174 198 230 272
#
# _framework density 17.036446000000002
#
# number of rings (size 3 to 8) (size 9 to 14) (size 15 to 20)
#    0.000    2.000    2.857    3.857    0.000    1.714 
#    0.000    2.143    0.000    0.000    0.000    1.000 
#    0.000    0.000    0.000    0.000    0.000    0.000 
#
# Total GULP energy -347041.257394 kJ/mol
# GULP energy per Si atom -12394.330621 kJ/mol
# Density = 1.699767 g / cm^3
# Si number density = 17.036446 Si / 1000 Ang^3
#
#
#
# Elastic Constant Matrix: (Units=GPa)
#
#
# Indices 1 2 3 4 5 6 
#
# 1 77.6053 41.3243 39.8352 -0.0022 -3.7699 -0.0011
# 2 41.3243 60.7723 37.0982 -0.0575 -2.7608 -0.0141
# 3 39.8352 37.0982 96.7945 -0.0141 9.7716 -0.0038
# 4 -0.0022 -0.0575 -0.0141 18.5807 -0.0014 0.5132
# 5 -3.7699 -2.7608 9.7716 -0.0014 29.4571 0.0034
# 6 -0.0011 -0.0141 -0.0038 0.5132 0.0034 31.3189
#
#
#
# Elastic Compliance Matrix: (Units=1/GPa)
#
#
# Indices 1 2 3 4 5 6 
#
# 1 0.021738 -0.011710 -0.004789 -0.000037 0.003273 -0.000005
# 2 -0.011710 0.028497 -0.006437 0.000082 0.003307 0.000010
# 3 -0.004789 -0.006437 0.015408 -0.000009 -0.006327 0.000000
# 4 -0.000037 0.000082 -0.000009 0.053844 0.000009 -0.000882
# 5 0.003273 0.003307 -0.006327 0.000009 0.036775 -0.000003
# 6 -0.000005 0.000010 0.000000 -0.000882 -0.000003 0.031944
#
#
# Mechanical properties :
#
#
# Convention : Reuss Voigt Hill
#
# Bulk Modulus (GPa) = 50.57556 52.40973 51.49265
# Shear Modulus (GPa) = 20.77559 23.66564 22.22062
#
# Velocity S-wave (km/s) = 3.49589 3.73113 3.61543
# Velocity P-wave (km/s) = 6.78573 7.02794 6.90789
#
# Compressibility (1/GPa) = 0.01977239
#
# Stress axis : x y z
#
# Youngs Moduli (GPa) = 46.00213 35.09153 64.90283
#
# Poissons Ratio (x) = 0.41091 0.31080
# Poissons Ratio (y) = 0.53867 0.41776
# Poissons Ratio (z) = 0.22029 0.22588
#
# Static dielectric constant tensor:
#      x y z
#    x 3.257430 -0.000020 -0.026960 
#    y -0.000020 2.818790 -0.000020 
#    z -0.026960 -0.000020 3.213890 
# 
# 
# High freq. dielectric constant tensor:
#      x y z
#    x 1.650460 0.000000 0.000300 
#    y 0.000000 1.595460 0.000000 
#    z 0.000300 0.000000 1.671930 
# 
# From -- ./inp_files/62263.got.cif
#   From: 2010.06.25/outbox.cif.g09.slc.cpg/sg15_32_cif.got.tgz:62263.got - 2010.06.28 07:06:18.
