data_PCOD8130279
_publ_section_title
;
Structure prediction by ZEFSAII (Michael W. Deem and Ramdas Pophale) SiO2 
 PCOD8130279
Probable space group: C 2/C
;
_chemical_formula_sum "Si O2"
_cell_formula_units_Z 56
_cell_length_a 14.716359
_cell_length_b 13.696706
_cell_length_c 14.249415
_cell_angle_alpha 90.000000
_cell_angle_beta 82.557372
_cell_angle_gamma 90.000000
_cell_volume 2847.994454
_symmetry_space_group_name_H-M "C 2/C"
_symmetry_group_IT_number 15
_symmetry_cell_setting 'monoclinic'
loop_
_space_group_symop_operation_xyz
x,y,z
-x,y,1/2-z
-x,-y,-z
x,-y,1/2+z
1/2+x,1/2+y,z
1/2-x,1/2+y,1/2-z
1/2-x,1/2-y,-z
1/2+x,1/2-y,1/2+z
loop_
_atom_site_type_symbol
_atom_site_label
_atom_site_fract_x
_atom_site_fract_y
_atom_site_fract_z
Si Si1 0.796150 0.627294 0.788678
Si Si2 0.518497 0.222488 0.988321
Si Si3 0.409647 0.303557 0.698460
Si Si4 0.314571 0.236300 0.079364
Si Si5 0.964168 0.564615 0.856521
Si Si6 0.263902 0.084207 0.232263
Si Si7 0.571565 0.149517 0.166369
O O1 0.852549 0.704585 0.720037
O O2 0.705460 0.679434 0.840515
O O3 0.856426 0.593382 0.871127
O O4 0.773964 0.533133 0.726885
O O5 0.558147 0.306176 0.914615
O O6 0.516850 0.119677 0.932270
O O7 0.417776 0.251170 0.034752
O O8 0.582446 0.216093 0.072247
O O9 0.500000 0.310606 0.750000
O O10 0.342100 0.393635 0.729233
O O11 0.294045 0.130163 0.128507
O O12 0.250000 0.250000 0.000000
O O13 0.979033 0.449127 0.863589
O O14 0.000000 0.600413 0.750000
O O15 0.329151 0.130342 0.303758
O O16 0.500000 0.197763 0.250000
#
# Coordination Sequence:
#
# PCOD8130279 Si02
#       7
#     8   8   8   8   8   8   8
#     4  10  19  38  59  86 123 158 200 259 310 360
#     4  12  19  32  58  86 118 157 202 248 307 370
#     4  11  21  40  66  90 120 162 213 262 310 372
#     4  11  21  36  62  92 119 160 215 261 305 372
#     4  10  17  31  53  87 117 147 195 259 307 355
#     4  10  23  40  60  87 130 158 200 261 323 367
#     4  10  21  33  51  85 125 157 187 250 325 372
#
# _framework density 19.662960000000002
#
# number of rings (size 3 to 8) (size 9 to 14) (size 15 to 20)
#    0.000    1.429    5.714    1.286    0.000    1.714 
#    0.000    0.714    6.286    0.000    0.000    0.000 
#    0.000    0.000    0.000    0.000    0.000    0.000 
#
# Total GULP energy -347059.916309 kJ/mol
# GULP energy per Si atom -12394.997011 kJ/mol
# Density = 1.961821 g / cm^3
# Si number density = 19.662960 Si / 1000 Ang^3
#
#
#
# Elastic Constant Matrix: (Units=GPa)
#
#
# Indices 1 2 3 4 5 6 
#
# 1 96.0115 22.6163 33.5331 0.0000 -10.5379 0.0000
# 2 22.6163 60.5211 12.2953 0.0000 3.0804 0.0000
# 3 33.5331 12.2953 97.5280 0.0000 -1.8557 0.0000
# 4 0.0000 0.0000 0.0000 23.1338 0.0000 0.2118
# 5 -10.5379 3.0804 -1.8557 0.0000 36.7936 0.0000
# 6 0.0000 0.0000 0.0000 0.2118 0.0000 27.6814
#
#
#
# Elastic Compliance Matrix: (Units=1/GPa)
#
#
# Indices 1 2 3 4 5 6 
#
# 1 0.013249 -0.004354 -0.003931 0.000000 0.003961 0.000000
# 2 -0.004354 0.018475 -0.000886 0.000000 -0.002838 0.000000
# 3 -0.003931 -0.000886 0.011708 0.000000 -0.000461 0.000000
# 4 0.000000 0.000000 0.000000 0.043230 0.000000 -0.000331
# 5 0.003961 -0.002838 -0.000461 0.000000 0.028527 0.000000
# 6 0.000000 0.000000 0.000000 -0.000331 0.000000 0.036128
#
#
# Mechanical properties :
#
#
# Convention : Reuss Voigt Hill
#
# Bulk Modulus (GPa) = 39.85768 43.43890 41.64829
# Shear Modulus (GPa) = 28.08646 29.89615 28.99130
#
# Velocity S-wave (km/s) = 3.78351 3.90350 3.84397
# Velocity P-wave (km/s) = 6.27703 6.51583 6.39754
#
# Compressibility (1/GPa) = 0.02508927
#
# Stress axis : x y z
#
# Youngs Moduli (GPa) = 75.47914 54.12820 85.41163
#
# Poissons Ratio (x) = 0.23567 0.33576
# Poissons Ratio (y) = 0.32863 0.07568
# Poissons Ratio (z) = 0.29671 0.04796
#
# Static dielectric constant tensor:
#      x y z
#    x 3.817810 0.000000 -0.110510 
#    y 0.000000 3.431260 0.000000 
#    z -0.110510 0.000000 3.777500 
# 
# 
# High freq. dielectric constant tensor:
#      x y z
#    x 1.762010 0.000000 -0.008820 
#    y 0.000000 1.732800 0.000000 
#    z -0.008820 0.000000 1.768240 
# 
# From -- ./inp_files/153404.got.cif
#   From: 2010.06.25/outbox.cif.g09.slc.cpg/sg15_77_cif.got.tgz:153404.got - 2010.06.28 07:06:18.
