data_PCOD8130371
_publ_section_title
;
Structure prediction by ZEFSAII (Michael W. Deem and Ramdas Pophale) SiO2 
 PCOD8130371
Probable space group: C 2/C
;
_chemical_formula_sum "Si O2"
_cell_formula_units_Z 56
_cell_length_a 23.098460
_cell_length_b 9.645008
_cell_length_c 16.799972
_cell_angle_alpha 90.000000
_cell_angle_beta 55.258700
_cell_angle_gamma 90.000000
_cell_volume 3075.566752
_symmetry_space_group_name_H-M "C 2/C"
_symmetry_group_IT_number 15
_symmetry_cell_setting 'monoclinic'
loop_
_space_group_symop_operation_xyz
x,y,z
-x,y,1/2-z
-x,-y,-z
x,-y,1/2+z
1/2+x,1/2+y,z
1/2-x,1/2+y,1/2-z
1/2-x,1/2-y,-z
1/2+x,1/2-y,1/2+z
loop_
_atom_site_type_symbol
_atom_site_label
_atom_site_fract_x
_atom_site_fract_y
_atom_site_fract_z
Si Si1 0.404281 0.625672 0.613661
Si Si2 0.733103 0.173492 0.123549
Si Si3 0.338354 0.084900 0.168866
Si Si4 0.446326 0.583664 0.952505
Si Si5 0.333317 0.416940 0.416080
Si Si6 0.189106 0.927597 0.719370
Si Si7 0.860275 0.282150 0.122735
O O1 0.391253 0.788459 0.611102
O O2 0.469470 0.595094 0.622691
O O3 0.422104 0.558645 0.514330
O O4 0.334492 0.559581 0.707984
O O5 0.688454 0.080705 0.219040
O O6 0.679263 0.271856 0.118876
O O7 0.788209 0.268950 0.128688
O O8 0.774612 0.069585 0.031777
O O9 0.272428 0.095015 0.160882
O O10 0.379750 0.942229 0.120842
O O11 0.411184 0.586996 0.893094
O O12 0.423713 0.713961 0.024377
O O13 0.328724 0.546453 0.359331
O O14 0.148149 0.793042 0.784852
#
# Coordination Sequence:
#
# PCOD8130371 Si02
#       7
#     8   8   8   8   8   8   8
#     4  10  20  37  54  77 105 142 182 217 259 333
#     4   9  18  30  50  79 109 135 176 223 273 314
#     4  11  18  33  54  78 107 140 174 222 272 326
#     4   9  21  36  54  77 104 141 186 221 259 320
#     4  10  17  32  54  77 107 137 177 229 263 310
#     4  10  18  32  53  80 103 139 180 218 270 315
#     4   9  18  32  53  76 108 140 177 223 266 326
#
# _framework density 18.208026
#
# number of rings (size 3 to 8) (size 9 to 14) (size 15 to 20)
#    0.000    2.286    2.857    1.714    0.000    1.143 
#    0.000    2.857    0.000    0.000   11.143    0.000 
#    0.000    0.000    0.000    0.000    0.000    0.000 
#
# Total GULP energy -347188.368854 kJ/mol
# GULP energy per Si atom -12399.584602 kJ/mol
# Density = 1.816658 g / cm^3
# Si number density = 18.208026 Si / 1000 Ang^3
#
#
#
# Elastic Constant Matrix: (Units=GPa)
#
#
# Indices 1 2 3 4 5 6 
#
# 1 107.7056 26.6276 29.4568 0.0000 13.0970 0.0000
# 2 26.6276 119.2695 32.3068 -0.0002 6.5291 0.0003
# 3 29.4568 32.3068 55.6788 -0.0001 10.1505 0.0001
# 4 0.0000 -0.0002 -0.0001 25.1136 0.0000 2.7227
# 5 13.0970 6.5291 10.1505 0.0000 23.0029 0.0000
# 6 0.0000 0.0003 0.0001 2.7227 0.0000 21.4372
#
#
#
# Elastic Compliance Matrix: (Units=1/GPa)
#
#
# Indices 1 2 3 4 5 6 
#
# 1 0.011307 -0.001047 -0.004628 0.000000 -0.004099 0.000000
# 2 -0.001047 0.010047 -0.005290 0.000000 0.000079 0.000000
# 3 -0.004628 -0.005290 0.024712 0.000000 -0.006768 0.000000
# 4 0.000000 0.000000 0.000000 0.040375 0.000000 -0.005128
# 5 -0.004099 0.000079 -0.006768 0.000000 0.048771 0.000000
# 6 0.000000 0.000000 0.000000 -0.005128 0.000000 0.047299
#
#
# Mechanical properties :
#
#
# Convention : Reuss Voigt Hill
#
# Bulk Modulus (GPa) = 41.42977 51.04850 46.23914
# Shear Modulus (GPa) = 23.53106 26.86160 25.19633
#
# Velocity S-wave (km/s) = 3.59882 3.84508 3.72399
# Velocity P-wave (km/s) = 6.33022 6.91448 6.62879
#
# Compressibility (1/GPa) = 0.02413723
#
# Stress axis : x y z
#
# Youngs Moduli (GPa) = 88.43794 99.53562 40.46654
#
# Poissons Ratio (x) = 0.10417 0.18727
# Poissons Ratio (y) = 0.09255 0.21407
# Poissons Ratio (z) = 0.40926 0.52655
#
# Static dielectric constant tensor:
#      x y z
#    x 3.307190 0.000000 0.094240 
#    y 0.000000 3.223270 0.000000 
#    z 0.094240 0.000000 3.319590 
# 
# 
# High freq. dielectric constant tensor:
#      x y z
#    x 1.693720 0.000000 0.002760 
#    y 0.000000 1.688200 0.000000 
#    z 0.002760 0.000000 1.695760 
# 
# From -- ./inp_files/213777.got.cif
#   From: 2010.06.25/outbox.cif.g09.slc.cpg/sg15_107_cif.got.tgz:213777.got - 2010.06.28 07:06:18.
