data_PCOD8130084
_publ_section_title
;
Structure prediction by ZEFSAII (Michael W. Deem and Ramdas Pophale) SiO2 
 PCOD8130084
Probable space group: C 2/C
;
_chemical_formula_sum "Si O2"
_cell_formula_units_Z 60
_cell_length_a 6.281762
_cell_length_b 23.232773
_cell_length_c 28.743719
_cell_angle_alpha 90.000000
_cell_angle_beta 56.882824
_cell_angle_gamma 90.000000
_cell_volume 3513.490678
_symmetry_space_group_name_H-M "C 2/C"
_symmetry_group_IT_number 15
_symmetry_cell_setting 'monoclinic'
loop_
_space_group_symop_operation_xyz
x,y,z
-x,y,1/2-z
-x,-y,-z
x,-y,1/2+z
1/2+x,1/2+y,z
1/2-x,1/2+y,1/2-z
1/2-x,1/2-y,-z
1/2+x,1/2-y,1/2+z
loop_
_atom_site_type_symbol
_atom_site_label
_atom_site_fract_x
_atom_site_fract_y
_atom_site_fract_z
Si Si1 0.531863 0.875000 0.537255
Si Si2 0.753268 0.816708 0.696903
Si Si3 0.000000 0.124999 0.250000
Si Si4 0.536461 0.683506 0.988459
Si Si5 0.771242 0.433505 0.488459
Si Si6 0.877941 0.218432 0.419681
Si Si7 0.012213 0.566711 0.196903
Si Si8 0.273649 0.031568 0.419681
O O1 0.494160 0.920076 0.499085
O O2 0.272130 0.840035 0.575338
O O3 0.601183 0.909965 0.575338
O O4 0.760416 0.829925 0.499085
O O5 0.500000 0.787831 0.750000
O O6 0.955885 0.832665 0.712088
O O7 0.675647 0.874997 0.679736
O O8 0.888189 0.774019 0.644167
O O9 0.233667 0.082662 0.212086
O O10 0.695201 0.625001 0.971920
O O11 0.691369 0.726967 0.936834
O O12 0.505889 0.713355 0.042568
O O13 0.874452 0.476966 0.436834
O O14 0.531278 0.463355 0.542567
O O15 0.140988 0.524021 0.144167
O O16 0.000000 0.537836 0.250000
#
# Coordination Sequence:
#
# PCOD8130084 Si02
#       8
#     8   8   4   8   8   8   8   8
#     4  10  17  28  46  69  96 124 154 188 232 294
#     4   9  17  28  43  66  93 119 151 185 232 278
#     4   8  16  28  40  62  92 116 142 184 228 274
#     4   9  19  31  45  68  95 124 155 188 235 283
#     4   9  19  31  45  68  95 124 155 188 235 283
#     4  10  18  30  47  68  95 124 152 192 236 282
#     4   9  17  28  43  66  93 119 151 185 232 278
#     4  10  18  30  47  68  95 124 152 192 236 282
#
# _framework density 17.077034999999999
#
# number of rings (size 3 to 8) (size 9 to 14) (size 15 to 20)
#    0.000    2.933    0.000    4.000    0.000    2.133 
#    0.000    0.000    0.000    0.000    3.467    0.000 
#    0.000    0.000    0.000    0.000    0.000    0.000 
#
# Total GULP energy -371927.523550 kJ/mol
# GULP energy per Si atom -12397.584118 kJ/mol
# Density = 1.703817 g / cm^3
# Si number density = 17.077035 Si / 1000 Ang^3
#
#
#
# Elastic Constant Matrix: (Units=GPa)
#
#
# Indices 1 2 3 4 5 6 
#
# 1 97.1462 14.9353 38.0057 0.0000 -0.0018 0.0000
# 2 14.9353 52.0191 42.2183 0.0000 -0.0004 0.0000
# 3 38.0057 42.2183 141.2343 0.0000 -0.0019 0.0000
# 4 0.0000 0.0000 0.0000 -22.1436 0.0000 -0.0015
# 5 -0.0018 -0.0004 -0.0019 0.0000 14.4202 0.0000
# 6 0.0000 0.0000 0.0000 -0.0015 0.0000 23.9749
#
#
#
# Elastic Compliance Matrix: (Units=1/GPa)
#
#
# Indices 1 2 3 4 5 6 
#
# 1 0.011548 -0.001048 -0.002794 0.000000 0.000001 0.000000
# 2 -0.001048 0.025476 -0.007334 0.000000 0.000000 0.000000
# 3 -0.002794 -0.007334 0.010025 0.000000 0.000001 0.000000
# 4 0.000000 0.000000 0.000000 -0.045160 0.000000 -0.000003
# 5 0.000001 0.000000 0.000001 0.000000 0.069347 0.000000
# 6 0.000000 0.000000 0.000000 -0.000003 0.000000 0.041710
#
#
# Mechanical properties :
#
#
# Convention : Reuss Voigt Hill
#
# Bulk Modulus (GPa) = 40.48955 53.41314 46.95135
# Shear Modulus (GPa) = 34.83581 16.26633 25.55107
#
# Velocity S-wave (km/s) = 4.52145 3.08965 3.87230
# Velocity P-wave (km/s) = 7.14279 6.63879 6.89540
#
# Compressibility (1/GPa) = 0.02469773
#
# Stress axis : x y z
#
# Youngs Moduli (GPa) = 86.59468 39.25209 99.75498
#
# Poissons Ratio (x) = 0.04112 0.27875
# Poissons Ratio (y) = 0.09073 0.73156
# Poissons Ratio (z) = 0.24198 0.28786
#
# Static dielectric constant tensor:
#      x y z
#    x -0.845940 0.000000 0.000970 
#    y 0.000000 2.977810 0.000000 
#    z 0.000970 0.000000 3.061210 
# 
# 
# High freq. dielectric constant tensor:
#      x y z
#    x 1.672540 0.000000 0.000000 
#    y 0.000000 1.621530 0.000000 
#    z 0.000000 0.000000 1.639640 
# 
# From -- ./inp_files/306084.got.cif
#   From: 2010.06.25/outbox.cif.g09.slc.cpg/sg15_154_cif.got.tgz:306084.got - 2010.06.28 07:06:18.
