data_PCOD8130239
_publ_section_title
;
Structure prediction by ZEFSAII (Michael W. Deem and Ramdas Pophale) SiO2 
 PCOD8130239
Probable space group: C 2/C
;
_chemical_formula_sum "Si O2"
_cell_formula_units_Z 56
_cell_length_a 13.224295
_cell_length_b 27.012955
_cell_length_c 12.079622
_cell_angle_alpha 90.000000
_cell_angle_beta 43.179981
_cell_angle_gamma 90.000000
_cell_volume 2952.838279
_symmetry_space_group_name_H-M "C 2/C"
_symmetry_group_IT_number 15
_symmetry_cell_setting 'monoclinic'
loop_
_space_group_symop_operation_xyz
x,y,z
-x,y,1/2-z
-x,-y,-z
x,-y,1/2+z
1/2+x,1/2+y,z
1/2-x,1/2+y,1/2-z
1/2-x,1/2-y,-z
1/2+x,1/2-y,1/2+z
loop_
_atom_site_type_symbol
_atom_site_label
_atom_site_fract_x
_atom_site_fract_y
_atom_site_fract_z
Si Si1 0.670425 0.632080 0.126910
Si Si2 0.894447 0.294084 0.048660
Si Si3 0.827882 0.360699 0.908607
Si Si4 0.917201 0.454860 0.922857
Si Si5 0.883682 0.362066 0.263162
Si Si6 0.409938 0.938666 0.509178
Si Si7 0.759671 0.304896 0.755315
O O1 0.500000 0.619750 0.250000
O O2 0.754500 0.588458 0.122089
O O3 0.696597 0.679890 0.185037
O O4 0.731085 0.635373 0.952824
O O5 0.853149 0.331872 0.178024
O O6 0.834867 0.240666 0.126050
O O7 0.810588 0.314640 0.006719
O O8 0.069427 0.289936 0.890742
O O9 0.785852 0.414709 0.996954
O O10 0.741706 0.347815 0.863949
O O11 0.000000 0.370653 0.750000
O O12 0.000000 0.475294 0.750000
O O13 0.035009 0.428539 0.910377
O O14 0.863203 0.504333 0.027409
O O15 0.000000 0.333218 0.250000
O O16 0.961507 0.415348 0.172924
#
# Coordination Sequence:
#
# PCOD8130239 Si02
#       7
#     8   8   8   8   8   8   8
#     4  11  23  38  56  81 120 156 187 236 291 348
#     4  11  21  37  58  83 114 150 192 245 292 338
#     4   9  18  36  57  85 117 143 190 250 286 338
#     4  10  17  30  65  93 112 145 197 240 291 342
#     4  10  19  37  56  79 119 145 191 245 283 337
#     4  10  19  36  60  93 115 149 193 242 290 342
#     4  11  23  37  58  83 112 156 197 239 290 345
#
# _framework density 18.964804000000001
#
# number of rings (size 3 to 8) (size 9 to 14) (size 15 to 20)
#    0.000    1.714    4.286    3.429    2.000    1.143 
#    0.000    0.000    0.000   15.429    0.000    0.000 
#    0.000    0.000    0.000    0.000    0.000    0.000 
#
# Total GULP energy -346878.097264 kJ/mol
# GULP energy per Si atom -12388.503474 kJ/mol
# Density = 1.892164 g / cm^3
# Si number density = 18.964804 Si / 1000 Ang^3
#
#
#
# Elastic Constant Matrix: (Units=GPa)
#
#
# Indices 1 2 3 4 5 6 
#
# 1 75.0461 30.9974 48.7545 0.0000 9.5462 0.0000
# 2 30.9974 114.2879 30.1056 0.0000 0.6433 0.0000
# 3 48.7545 30.1056 89.6237 0.0000 1.1414 0.0000
# 4 0.0000 0.0000 0.0000 24.4950 0.0000 4.8187
# 5 9.5462 0.6433 1.1414 0.0000 30.4710 0.0000
# 6 0.0000 0.0000 0.0000 4.8187 0.0000 19.3950
#
#
#
# Elastic Compliance Matrix: (Units=1/GPa)
#
#
# Indices 1 2 3 4 5 6 
#
# 1 0.022790 -0.003182 -0.011244 0.000000 -0.006652 0.000000
# 2 -0.003182 0.010044 -0.001654 0.000000 0.000847 0.000000
# 3 -0.011244 -0.001654 0.017793 0.000000 0.002891 0.000000
# 4 0.000000 0.000000 0.000000 0.042923 0.000000 -0.010664
# 5 -0.006652 0.000847 0.002891 0.000000 0.034776 0.000000
# 6 0.000000 0.000000 0.000000 -0.010664 0.000000 0.054209
#
#
# Mechanical properties :
#
#
# Convention : Reuss Voigt Hill
#
# Bulk Modulus (GPa) = 54.14847 55.40807 54.77827
# Shear Modulus (GPa) = 22.63976 26.14554 24.39265
#
# Velocity S-wave (km/s) = 3.45886 3.71703 3.59026
# Velocity P-wave (km/s) = 6.67575 6.90662 6.79217
#
# Compressibility (1/GPa) = 0.01846774
#
# Stress axis : x y z
#
# Youngs Moduli (GPa) = 43.87794 99.56519 56.20125
#
# Poissons Ratio (x) = 0.31681 0.63194
# Poissons Ratio (y) = 0.13961 0.09294
# Poissons Ratio (z) = 0.49338 0.16465
#
# Static dielectric constant tensor:
#      x y z
#    x 3.555380 0.000000 0.451480 
#    y 0.000000 3.590420 0.000000 
#    z 0.451480 0.000000 3.499600 
# 
# 
# High freq. dielectric constant tensor:
#      x y z
#    x 1.730730 0.000000 0.043430 
#    y 0.000000 1.739570 0.000000 
#    z 0.043430 0.000000 1.719180 
# 
# From -- ./inp_files/91972.got.cif
#   From: 2010.06.25/outbox.cif.g09.slc.cpg/sg15_46_cif.got.tgz:91972.got - 2010.06.28 07:06:18.
