data_PCOD8130533
_publ_section_title
;
Structure prediction by ZEFSAII (Michael W. Deem and Ramdas Pophale) SiO2 
 PCOD8130533
Probable space group: C 2/C
;
_chemical_formula_sum "Si O2"
_cell_formula_units_Z 60
_cell_length_a 9.060960
_cell_length_b 17.317392
_cell_length_c 18.669422
_cell_angle_alpha 90.000000
_cell_angle_beta 101.689061
_cell_angle_gamma 90.000000
_cell_volume 2868.707429
_symmetry_space_group_name_H-M "C 2/C"
_symmetry_group_IT_number 15
_symmetry_cell_setting 'monoclinic'
loop_
_space_group_symop_operation_xyz
x,y,z
-x,y,1/2-z
-x,-y,-z
x,-y,1/2+z
1/2+x,1/2+y,z
1/2-x,1/2+y,1/2-z
1/2-x,1/2-y,-z
1/2+x,1/2-y,1/2+z
loop_
_atom_site_type_symbol
_atom_site_label
_atom_site_fract_x
_atom_site_fract_y
_atom_site_fract_z
Si Si1 0.795581 0.829242 0.846663
Si Si2 0.768405 0.053621 0.993538
Si Si3 0.422938 0.935213 0.615314
Si Si4 0.971637 0.673539 0.498275
Si Si5 0.750251 0.335715 0.376908
Si Si6 0.032432 0.841509 0.488743
Si Si7 0.500000 0.602499 0.250000
Si Si8 0.747328 0.001553 0.150844
O O1 0.663180 0.893884 0.826485
O O2 0.727409 0.743060 0.829023
O O3 0.927549 0.842486 0.802547
O O4 0.857231 0.840081 0.932892
O O5 0.932834 0.080165 0.981997
O O6 0.683086 0.002727 0.926416
O O7 0.685044 0.134133 0.998525
O O8 0.773230 0.006051 0.067817
O O9 0.450113 0.868558 0.560321
O O10 0.581159 0.970042 0.657000
O O11 0.080594 0.666664 0.576725
O O12 0.935490 0.762693 0.477015
O O13 0.628540 0.342605 0.426887
O O14 0.735420 0.411509 0.325208
O O15 0.371263 0.550382 0.203588
#
# Coordination Sequence:
#
# PCOD8130533 Si02
#       8
#     8   8   8   8   8   8   4   8
#     4  11  23  42  63  92 128 168 209 253 315 380
#     4  11  20  33  62 103 131 153 200 257 333 363
#     4  11  20  39  65  95 123 161 198 266 326 368
#     4  10  17  34  56  98 132 155 189 245 340 375
#     4  11  20  40  67  95 125 157 203 271 320 365
#     4  11  20  33  63 103 130 158 193 267 330 373
#     4  12  28  46  62  86 122 180 220 254 296 378
#     4  11  23  42  63  90 127 166 210 256 303 382
#
# _framework density 20.915343
#
# number of rings (size 3 to 8) (size 9 to 14) (size 15 to 20)
#    0.000    1.067    6.667    2.000    1.867    1.600 
#    0.000    2.667    0.000    0.000    0.000    0.000 
#    0.000    0.000    0.000    0.000    0.000    0.000 
#
# Total GULP energy -371964.814182 kJ/mol
# GULP energy per Si atom -12398.827139 kJ/mol
# Density = 2.086774 g / cm^3
# Si number density = 20.915343 Si / 1000 Ang^3
#
#
#
# Elastic Constant Matrix: (Units=GPa)
#
#
# Indices 1 2 3 4 5 6 
#
# 1 90.3482 67.0785 23.5522 0.0000 -5.6903 0.0000
# 2 67.0785 164.2031 25.1929 0.0000 -8.6168 0.0000
# 3 23.5522 25.1929 20.5475 0.0000 -6.4109 0.0000
# 4 0.0000 0.0000 0.0000 -6.9455 0.0000 0.3102
# 5 -5.6903 -8.6168 -6.4109 0.0000 22.9682 0.0000
# 6 0.0000 0.0000 0.0000 0.3102 0.0000 33.5242
#
#
#
# Elastic Compliance Matrix: (Units=1/GPa)
#
#
# Indices 1 2 3 4 5 6 
#
# 1 0.019143 -0.005495 -0.015739 0.000000 -0.001712 0.000000
# 2 -0.005495 0.009080 -0.004596 0.000000 0.000762 0.000000
# 3 -0.015739 -0.004596 0.077323 0.000000 0.015959 0.000000
# 4 0.000000 0.000000 0.000000 -0.143919 0.000000 0.001332
# 5 -0.001712 0.000762 0.015959 0.000000 0.047855 0.000000
# 6 0.000000 0.000000 0.000000 0.001332 0.000000 0.029817
#
#
# Mechanical properties :
#
#
# Convention : Reuss Voigt Hill
#
# Bulk Modulus (GPa) = 18.55800 56.30513 37.43156
# Shear Modulus (GPa) = 45.90417 20.52773 33.21595
#
# Velocity S-wave (km/s) = 4.68991 3.13624 3.98944
# Velocity P-wave (km/s) = 6.18217 6.33195 6.25751
#
# Compressibility (1/GPa) = 0.05388511
#
# Stress axis : x y z
#
# Youngs Moduli (GPa) = 52.23740 110.13129 12.93271
#
# Poissons Ratio (x) = 0.60520 0.20355
# Poissons Ratio (y) = 0.28706 0.05944
# Poissons Ratio (z) = 0.82218 0.50619
#
# Static dielectric constant tensor:
#      x y z
#    x 3.885420 0.000000 -0.080860 
#    y 0.000000 4.227590 0.000000 
#    z -0.080860 0.000000 3.292760 
# 
# 
# High freq. dielectric constant tensor:
#      x y z
#    x 1.830030 0.000000 -0.011190 
#    y 0.000000 1.844100 0.000000 
#    z -0.011190 0.000000 1.765840 
# 
# From -- ./inp_files/190984.got.cif
#   From: 2010.06.25/outbox.cif.g09.slc.cpg/sg15_96_cif.got.tgz:190984.got - 2010.06.28 07:06:18.
