data_PCOD8130715
_publ_section_title
;
Structure prediction by ZEFSAII (Michael W. Deem and Ramdas Pophale) SiO2 
 PCOD8130715
Probable space group: C 2/C
;
_chemical_formula_sum "Si O2"
_cell_formula_units_Z 40
_cell_length_a 12.368368
_cell_length_b 8.244024
_cell_length_c 28.056591
_cell_angle_alpha 90.000000
_cell_angle_beta 40.251339
_cell_angle_gamma 90.000000
_cell_volume 1848.478464
_symmetry_space_group_name_H-M "C 2/C"
_symmetry_group_IT_number 15
_symmetry_cell_setting 'monoclinic'
loop_
_space_group_symop_operation_xyz
x,y,z
-x,y,1/2-z
-x,-y,-z
x,-y,1/2+z
1/2+x,1/2+y,z
1/2-x,1/2+y,1/2-z
1/2-x,1/2-y,-z
1/2+x,1/2-y,1/2+z
loop_
_atom_site_type_symbol
_atom_site_label
_atom_site_fract_x
_atom_site_fract_y
_atom_site_fract_z
Si Si1 0.451741 0.642841 0.051386
Si Si2 0.809908 0.339003 0.586906
Si Si3 0.026044 0.621444 0.099914
Si Si4 0.359874 0.526921 0.934352
Si Si5 0.114310 0.505140 0.665753
O O1 0.533866 0.615184 0.075633
O O2 0.249979 0.642802 0.122890
O O3 0.500000 0.500000 0.000000
O O4 0.526467 0.805984 0.002116
O O5 0.690395 0.467227 0.601218
O O6 0.874357 0.417440 0.614674
O O7 0.707199 0.176445 0.631616
O O8 0.025678 0.814535 0.109027
O O9 0.997161 0.525122 0.158927
O O10 0.202162 0.563414 0.020366
O O11 0.000000 0.500447 0.750000
#
# Coordination Sequence:
#
# PCOD8130715 Si02
#       5
#     8   8   8   8   8
#     4  10  17  38  65  85 121 156 194 251 301 344
#     4  11  22  41  64  94 119 157 205 251 301 363
#     4  11  21  39  62  93 125 154 197 256 304 357
#     4  11  20  37  67  96 122 149 202 260 303 354
#     4  11  24  44  60  84 127 167 200 247 303 357
#
# _framework density 21.639417999999999
#
# number of rings (size 3 to 8) (size 9 to 14) (size 15 to 20)
#    0.000    1.200    8.000    2.400    0.000    0.000 
#    3.600    1.000    0.000    0.000    0.000    0.000 
#    0.000    0.000    0.000    0.000    0.000    0.000 
#
# Total GULP energy -248004.900131 kJ/mol
# GULP energy per Si atom -12400.245007 kJ/mol
# Density = 2.159017 g / cm^3
# Si number density = 21.639418 Si / 1000 Ang^3
#
#
#
# Elastic Constant Matrix: (Units=GPa)
#
#
# Indices 1 2 3 4 5 6 
#
# 1 190.8457 28.0058 39.9366 0.0000 34.9217 -0.0001
# 2 28.0058 18.8289 17.4873 -0.0001 7.8364 -0.0003
# 3 39.9366 17.4873 99.7917 -0.0001 13.9286 0.0000
# 4 0.0000 -0.0001 -0.0001 10.6025 0.0000 6.9413
# 5 34.9217 7.8364 13.9286 0.0000 26.5695 0.0000
# 6 -0.0001 -0.0003 0.0000 6.9413 0.0000 42.5517
#
#
#
# Elastic Compliance Matrix: (Units=1/GPa)
#
#
# Indices 1 2 3 4 5 6 
#
# 1 0.007980 -0.007977 -0.000712 0.000000 -0.007762 0.000000
# 2 -0.007977 0.076551 -0.009208 0.000000 -0.007266 0.000000
# 3 -0.000712 -0.009208 0.012311 0.000000 -0.002802 0.000000
# 4 0.000000 0.000000 0.000000 0.105594 0.000000 -0.017225
# 5 -0.007762 -0.007266 -0.002802 0.000000 0.051451 0.000000
# 6 0.000000 0.000000 0.000000 -0.017225 0.000000 0.026311
#
#
# Mechanical properties :
#
#
# Convention : Reuss Voigt Hill
#
# Bulk Modulus (GPa) = 16.38092 53.36953 34.87522
# Shear Modulus (GPa) = 14.86586 30.88052 22.87319
#
# Velocity S-wave (km/s) = 2.62387 3.78173 3.25470
# Velocity P-wave (km/s) = 4.09463 6.61704 5.50233
#
# Compressibility (1/GPa) = 0.06104665
#
# Stress axis : x y z
#
# Youngs Moduli (GPa) = 125.31600 13.06319 81.23110
#
# Poissons Ratio (x) = 0.10421 0.05785
# Poissons Ratio (y) = 0.99965 0.74798
# Poissons Ratio (z) = 0.08925 0.12029
#
# Static dielectric constant tensor:
#      x y z
#    x 4.456570 0.000000 -0.048000 
#    y 0.000000 3.993510 0.000000 
#    z -0.048000 0.000000 3.633490 
# 
# 
# High freq. dielectric constant tensor:
#      x y z
#    x 1.874770 0.000000 0.014580 
#    y 0.000000 1.840380 0.000000 
#    z 0.014580 0.000000 1.790340 
# 
# From -- ./inp_files/195091.got.cif
#   From: 2010.06.25/outbox.cif.g09.slc.cpg/sg15_98_cif.got.tgz:195091.got - 2010.06.28 07:06:18.
