data_PCOD8130798
_publ_section_title
;
Structure prediction by ZEFSAII (Michael W. Deem and Ramdas Pophale) SiO2 
 PCOD8130798
Probable space group: C 2/C
;
_chemical_formula_sum "Si O2"
_cell_formula_units_Z 60
_cell_length_a 16.635507
_cell_length_b 17.018104
_cell_length_c 16.132827
_cell_angle_alpha 90.000000
_cell_angle_beta 130.812222
_cell_angle_gamma 90.000000
_cell_volume 3456.772126
_symmetry_space_group_name_H-M "C 2/C"
_symmetry_group_IT_number 15
_symmetry_cell_setting 'monoclinic'
loop_
_space_group_symop_operation_xyz
x,y,z
-x,y,1/2-z
-x,-y,-z
x,-y,1/2+z
1/2+x,1/2+y,z
1/2-x,1/2+y,1/2-z
1/2-x,1/2-y,-z
1/2+x,1/2-y,1/2+z
loop_
_atom_site_type_symbol
_atom_site_label
_atom_site_fract_x
_atom_site_fract_y
_atom_site_fract_z
Si Si1 0.102631 0.364016 0.164961
Si Si2 0.623806 0.392094 0.321953
Si Si3 0.425937 0.934099 0.597781
Si Si4 0.500000 0.924480 0.250000
Si Si5 0.742634 0.831583 0.948739
Si Si6 0.711749 0.011952 0.642384
Si Si7 0.780992 0.754117 0.224299
Si Si8 0.089034 0.364188 0.593156
O O1 0.069810 0.367063 0.239360
O O2 0.168556 0.445074 0.195907
O O3 0.179694 0.290589 0.201899
O O4 0.997646 0.354138 0.037366
O O5 0.500000 0.400746 0.250000
O O6 0.672070 0.388277 0.448221
O O7 0.665744 0.469228 0.298916
O O8 0.654086 0.315856 0.287877
O O9 0.375529 0.869058 0.624729
O O10 0.351506 0.939008 0.468840
O O11 0.539955 0.904446 0.642367
O O12 0.430548 0.018684 0.644541
O O13 0.763626 0.816146 0.865280
O O14 0.750000 0.750000 0.000000
O O15 0.685223 0.919991 0.625725
O O16 0.859959 0.719135 0.347314
#
# Coordination Sequence:
#
# PCOD8130798 Si02
#       8
#     8   8   8   4   8   8   8   8
#     4  10  21  35  51  79 109 139 174 230 262 314
#     4   9  19  31  52  77 109 145 166 208 268 317
#     4  10  18  28  54  84 100 134 171 223 268 308
#     4  12  18  32  56  76 102 132 192 224 256 296
#     4   9  18  31  46  80 116 128 169 215 257 333
#     4   9  17  35  50  78 108 135 173 213 269 309
#     4  10  22  31  51  79 110 141 172 212 270 324
#     4  11  18  34  57  76 108 140 171 216 280 307
#
# _framework density 17.357233999999998
#
# number of rings (size 3 to 8) (size 9 to 14) (size 15 to 20)
#    0.000    2.133    2.667    4.000    5.600    0.000 
#    0.000    0.667    1.467    2.400    0.000    0.000 
#    0.000    0.000    0.000    0.000    0.000    0.000 
#
# Total GULP energy -371734.347813 kJ/mol
# GULP energy per Si atom -12391.144927 kJ/mol
# Density = 1.731773 g / cm^3
# Si number density = 17.357234 Si / 1000 Ang^3
#
#
#
# Elastic Constant Matrix: (Units=GPa)
#
#
# Indices 1 2 3 4 5 6 
#
# 1 136.6078 52.7039 48.3484 0.0000 6.1017 0.0000
# 2 52.7039 67.2832 20.3768 0.0000 8.7126 0.0000
# 3 48.3484 20.3768 49.1234 0.0000 6.5203 0.0000
# 4 0.0000 0.0000 0.0000 22.4197 0.0000 1.4810
# 5 6.1017 8.7126 6.5203 0.0000 25.8672 0.0000
# 6 0.0000 0.0000 0.0000 1.4810 0.0000 31.7916
#
#
#
# Elastic Compliance Matrix: (Units=1/GPa)
#
#
# Indices 1 2 3 4 5 6 
#
# 1 0.014213 -0.008105 -0.010909 0.000000 0.002127 0.000000
# 2 -0.008105 0.022047 -0.000452 0.000000 -0.005400 0.000000
# 3 -0.010909 -0.000452 0.031990 0.000000 -0.005338 0.000000
# 4 0.000000 0.000000 0.000000 0.044741 0.000000 -0.002084
# 5 0.002127 -0.005400 -0.005338 0.000000 0.041322 0.000000
# 6 0.000000 0.000000 0.000000 -0.002084 0.000000 0.031552
#
#
# Mechanical properties :
#
#
# Convention : Reuss Voigt Hill
#
# Bulk Modulus (GPa) = 34.10771 55.09696 44.60234
# Shear Modulus (GPa) = 21.31564 24.78808 23.05186
#
# Velocity S-wave (km/s) = 3.50816 3.78314 3.64824
# Velocity P-wave (km/s) = 6.00855 7.13405 6.59535
#
# Compressibility (1/GPa) = 0.02931888
#
# Stress axis : x y z
#
# Youngs Moduli (GPa) = 70.35741 45.35706 31.25990
#
# Poissons Ratio (x) = 0.36762 0.34102
# Poissons Ratio (y) = 0.57024 0.01411
# Poissons Ratio (z) = 0.76755 0.02048
#
# Static dielectric constant tensor:
#      x y z
#    x 3.448180 0.000000 -0.189520 
#    y 0.000000 3.189490 0.000000 
#    z -0.189520 0.000000 3.315650 
# 
# 
# High freq. dielectric constant tensor:
#      x y z
#    x 1.660150 0.000000 -0.005930 
#    y 0.000000 1.645580 0.000000 
#    z -0.005930 0.000000 1.658910 
# 
# From -- ./inp_files/178713.got.cif
#   From: 2010.06.25/outbox.cif.g09.slc.cpg/sg15_90_cif.got.tgz:178713.got - 2010.06.28 07:06:18.
