data_PCOD8130589
_publ_section_title
;
Structure prediction by ZEFSAII (Michael W. Deem and Ramdas Pophale) SiO2 
 PCOD8130589
Probable space group: C 2/C
;
_chemical_formula_sum "Si O2"
_cell_formula_units_Z 48
_cell_length_a 22.286030
_cell_length_b 17.215085
_cell_length_c 8.536907
_cell_angle_alpha 90.000000
_cell_angle_beta 49.071138
_cell_angle_gamma 90.000000
_cell_volume 2474.517002
_symmetry_space_group_name_H-M "C 2/C"
_symmetry_group_IT_number 15
_symmetry_cell_setting 'monoclinic'
loop_
_space_group_symop_operation_xyz
x,y,z
-x,y,1/2-z
-x,-y,-z
x,-y,1/2+z
1/2+x,1/2+y,z
1/2-x,1/2+y,1/2-z
1/2-x,1/2-y,-z
1/2+x,1/2-y,1/2+z
loop_
_atom_site_type_symbol
_atom_site_label
_atom_site_fract_x
_atom_site_fract_y
_atom_site_fract_z
Si Si1 0.195397 0.088489 0.292416
Si Si2 0.050731 0.204874 0.009181
Si Si3 0.323571 0.579156 0.811465
Si Si4 0.670335 0.198268 0.471243
Si Si5 0.717706 0.795554 0.404562
Si Si6 0.101009 0.763255 0.894149
O O1 0.170453 0.082317 0.513879
O O2 0.288994 0.113077 0.118426
O O3 0.140469 0.152416 0.303414
O O4 0.174836 0.009065 0.242794
O O5 0.000000 0.183452 0.250000
O O6 0.993733 0.225020 0.959556
O O7 0.104175 0.129578 0.881213
O O8 0.104582 0.281719 0.949557
O O9 0.239427 0.614526 0.892466
O O10 0.739957 0.262197 0.325495
O O11 0.630071 0.204927 0.708341
O O12 0.750000 0.750000 0.500000
O O13 0.625034 0.777029 0.521819
#
# Coordination Sequence:
#
# PCOD8130589 Si02
#       6
#     8   8   8   8   8   8
#     4  11  23  36  55  87 115 157 190 232 288 334
#     4   9  21  39  59  86 114 153 191 237 286 345
#     4  11  24  36  55  84 123 149 191 236 283 350
#     4   9  19  37  60  79 112 148 200 237 269 337
#     4  10  17  35  55  80 106 143 194 242 269 322
#     4  10  20  37  61  83 110 152 193 233 291 336
#
# _framework density 19.397725000000001
#
# number of rings (size 3 to 8) (size 9 to 14) (size 15 to 20)
#    0.000    2.000    3.333    2.000    9.333    1.333 
#    0.000    0.000    0.000    1.000    0.000    0.000 
#    0.000    0.000    0.000    0.000    0.000    0.000 
#
# Total GULP energy -297349.176342 kJ/mol
# GULP energy per Si atom -12389.549014 kJ/mol
# Density = 1.935357 g / cm^3
# Si number density = 19.397725 Si / 1000 Ang^3
#
#
#
# Elastic Constant Matrix: (Units=GPa)
#
#
# Indices 1 2 3 4 5 6 
#
# 1 160.4385 48.5007 25.2277 0.0000 -18.4272 0.0000
# 2 48.5007 38.5172 36.5937 0.0000 -18.0065 0.0000
# 3 25.2277 36.5937 60.4803 0.0000 -7.1641 0.0000
# 4 0.0000 0.0000 0.0000 24.9922 0.0000 -1.9119
# 5 -18.4272 -18.0065 -7.1641 0.0000 26.1430 0.0000
# 6 0.0000 0.0000 0.0000 -1.9119 0.0000 18.8186
#
#
#
# Elastic Compliance Matrix: (Units=1/GPa)
#
#
# Indices 1 2 3 4 5 6 
#
# 1 0.013978 -0.038718 0.016128 0.000000 -0.012396 0.000000
# 2 -0.038718 0.218530 -0.104880 0.000000 0.094486 0.000000
# 3 0.016128 -0.104880 0.068271 0.000000 -0.042162 0.000000
# 4 0.000000 0.000000 0.000000 0.040326 0.000000 0.004097
# 5 -0.012396 0.094486 -0.042162 0.000000 0.083039 0.000000
# 6 0.000000 0.000000 0.000000 0.004097 0.000000 0.053555
#
#
# Mechanical properties :
#
#
# Convention : Reuss Voigt Hill
#
# Bulk Modulus (GPa) = 21.81600 53.34224 37.57912
# Shear Modulus (GPa) = 6.68523 23.93170 15.30846
#
# Velocity S-wave (km/s) = 1.85846 3.51627 2.81230
# Velocity P-wave (km/s) = 3.98450 6.63660 5.47361
#
# Compressibility (1/GPa) = 0.04583792
#
# Stress axis : x y z
#
# Youngs Moduli (GPa) = 71.54252 4.57604 14.64757
#
# Poissons Ratio (x) = 0.17717 -0.23623
# Poissons Ratio (y) = 2.76998 1.53623
# Poissons Ratio (z) = -1.15382 0.47993
#
# Static dielectric constant tensor:
#      x y z
#    x 3.997000 0.000000 -0.137070 
#    y 0.000000 3.680160 0.000000 
#    z -0.137070 0.000000 3.639290 
# 
# 
# High freq. dielectric constant tensor:
#      x y z
#    x 1.770820 0.000000 0.011320 
#    y 0.000000 1.716850 0.000000 
#    z 0.011320 0.000000 1.752080 
# 
# From -- ./inp_files/56401.got.cif
#   From: 2010.06.25/outbox.cif.g09.slc.cpg/sg15_29_cif.got.tgz:56401.got - 2010.06.28 07:06:18.
