data_PCOD8130745
_publ_section_title
;
Structure prediction by ZEFSAII (Michael W. Deem and Ramdas Pophale) SiO2 
 PCOD8130745
Probable space group: C 2/C
;
_chemical_formula_sum "Si O2"
_cell_formula_units_Z 48
_cell_length_a 21.966284
_cell_length_b 15.665565
_cell_length_c 8.695900
_cell_angle_alpha 90.000000
_cell_angle_beta 80.204227
_cell_angle_gamma 90.000000
_cell_volume 2948.755515
_symmetry_space_group_name_H-M "C 2/C"
_symmetry_group_IT_number 15
_symmetry_cell_setting 'monoclinic'
loop_
_space_group_symop_operation_xyz
x,y,z
-x,y,1/2-z
-x,-y,-z
x,-y,1/2+z
1/2+x,1/2+y,z
1/2-x,1/2+y,1/2-z
1/2-x,1/2-y,-z
1/2+x,1/2-y,1/2+z
loop_
_atom_site_type_symbol
_atom_site_label
_atom_site_fract_x
_atom_site_fract_y
_atom_site_fract_z
Si Si1 0.948318 0.558128 0.884942
Si Si2 0.773691 0.119479 0.074232
Si Si3 0.822839 0.594434 0.798877
Si Si4 0.035228 0.374240 0.578518
Si Si5 0.743762 0.031447 0.382267
Si Si6 0.663399 0.208876 0.977112
O O1 0.893618 0.600842 0.816248
O O2 0.930123 0.466232 0.966459
O O3 0.000000 0.522964 0.750000
O O4 0.978641 0.630105 0.981049
O O5 0.784044 0.087153 0.245450
O O6 0.825240 0.190123 0.014766
O O7 0.704204 0.158675 0.087614
O O8 0.783903 0.042724 0.947205
O O9 0.810408 0.510510 0.699630
O O10 0.810960 0.678368 0.701368
O O11 0.782957 0.592772 0.972663
O O12 0.090238 0.306125 0.530748
O O13 0.000000 0.353787 0.750000
#
# Coordination Sequence:
#
# PCOD8130745 Si02
#       6
#     8   8   8   8   8   8
#     4  10  18  27  41  66  95 134 158 178 211 282
#     4   9  19  32  52  65  97 121 162 195 242 274
#     4  10  18  28  45  67 101 121 159 188 227 271
#     4  10  20  28  44  65  97 129 163 184 223 275
#     4   9  18  31  49  69  88 130 161 194 227 281
#     4  10  19  33  43  72  99 129 148 201 237 273
#
# _framework density 16.278053
#
# number of rings (size 3 to 8) (size 9 to 14) (size 15 to 20)
#    0.000    2.333    1.667    3.000    7.000    0.667 
#    0.000    0.000    0.000    0.000    0.000    1.167 
#    0.000    0.000    0.000    0.000    0.000    0.000 
#
# Total GULP energy -297326.405312 kJ/mol
# GULP energy per Si atom -12388.600221 kJ/mol
# Density = 1.624100 g / cm^3
# Si number density = 16.278053 Si / 1000 Ang^3
#
#
#
# Elastic Constant Matrix: (Units=GPa)
#
#
# Indices 1 2 3 4 5 6 
#
# 1 63.1362 33.7703 26.4572 0.0000 1.7446 0.0000
# 2 33.7703 75.7344 41.1512 0.0000 -3.0025 0.0000
# 3 26.4572 41.1512 100.3893 0.0000 8.0344 0.0000
# 4 0.0000 0.0000 0.0000 16.6397 0.0000 -1.6195
# 5 1.7446 -3.0025 8.0344 0.0000 19.3532 0.0000
# 6 0.0000 0.0000 0.0000 -1.6195 0.0000 20.7757
#
#
#
# Elastic Compliance Matrix: (Units=1/GPa)
#
#
# Indices 1 2 3 4 5 6 
#
# 1 0.021278 -0.008549 -0.001907 0.000000 -0.002453 0.000000
# 2 -0.008549 0.021057 -0.006932 0.000000 0.006915 0.000000
# 3 -0.001907 -0.006932 0.013837 0.000000 -0.006648 0.000000
# 4 0.000000 0.000000 0.000000 0.060557 0.000000 0.004720
# 5 -0.002453 0.006915 -0.006648 0.000000 0.055725 0.000000
# 6 0.000000 0.000000 0.000000 0.004720 0.000000 0.048501
#
#
# Mechanical properties :
#
#
# Convention : Reuss Voigt Hill
#
# Bulk Modulus (GPa) = 46.73685 49.11302 47.92493
# Shear Modulus (GPa) = 19.02124 20.54579 19.78352
#
# Velocity S-wave (km/s) = 3.42207 3.55657 3.48997
# Velocity P-wave (km/s) = 6.66243 6.86312 6.76352
#
# Compressibility (1/GPa) = 0.02139639
#
# Stress axis : x y z
#
# Youngs Moduli (GPa) = 46.99583 47.49061 72.26802
#
# Poissons Ratio (x) = 0.40600 0.13782
# Poissons Ratio (y) = 0.40177 0.50095
# Poissons Ratio (z) = 0.08963 0.32920
#
# Static dielectric constant tensor:
#      x y z
#    x 2.894630 0.000000 0.287430 
#    y 0.000000 2.810470 0.000000 
#    z 0.287430 0.000000 3.262300 
# 
# 
# High freq. dielectric constant tensor:
#      x y z
#    x 1.599170 0.000000 0.022580 
#    y 0.000000 1.585520 0.000000 
#    z 0.022580 0.000000 1.638830 
# 
# From -- ./inp_files/47938.got.cif
#   From: 2010.06.25/outbox.cif.g09.slc.cpg/sg15_24_cif.got.tgz:47938.got - 2010.06.28 07:06:18.
