data_PCOD8130881
_publ_section_title
;
Structure prediction by ZEFSAII (Michael W. Deem and Ramdas Pophale) SiO2 
 PCOD8130881
Probable space group: C 2/C
;
_chemical_formula_sum "Si O2"
_cell_formula_units_Z 44
_cell_length_a 13.855056
_cell_length_b 16.395246
_cell_length_c 13.926736
_cell_angle_alpha 90.000000
_cell_angle_beta 125.014270
_cell_angle_gamma 90.000000
_cell_volume 2590.981592
_symmetry_space_group_name_H-M "C 2/C"
_symmetry_group_IT_number 15
_symmetry_cell_setting 'monoclinic'
loop_
_space_group_symop_operation_xyz
x,y,z
-x,y,1/2-z
-x,-y,-z
x,-y,1/2+z
1/2+x,1/2+y,z
1/2-x,1/2+y,1/2-z
1/2-x,1/2-y,-z
1/2+x,1/2-y,1/2+z
loop_
_atom_site_type_symbol
_atom_site_label
_atom_site_fract_x
_atom_site_fract_y
_atom_site_fract_z
Si Si1 0.256443 0.058389 0.572126
Si Si2 0.000000 0.146628 0.250000
Si Si3 0.661119 0.026722 0.675967
Si Si4 0.929333 0.387506 0.003512
Si Si5 0.136940 0.219051 0.490534
Si Si6 0.871674 0.990680 0.167700
O O1 0.313008 0.015865 0.696735
O O2 0.359228 0.087411 0.559410
O O3 0.175118 0.134347 0.563305
O O4 0.175843 0.991735 0.469537
O O5 0.887258 0.087116 0.206357
O O6 0.027944 0.203707 0.356064
O O7 0.567314 0.098233 0.603122
O O8 0.611225 0.940357 0.610667
O O9 0.779953 0.051610 0.686959
O O10 0.907626 0.291861 0.965151
O O11 0.250000 0.250000 0.500000
O O12 0.000000 0.946412 0.250000
#
# Coordination Sequence:
#
# PCOD8130881 Si02
#       6
#     8   4   8   8   8   8
#     4   9  17  30  49  72  97 130 157 189 249 291
#     4   8  16  30  46  68 104 126 146 202 248 288
#     4  10  18  30  47  70 101 129 160 192 240 293
#     4   9  19  30  45  75 105 121 157 200 239 291
#     4   9  17  28  46  71 101 128 148 194 251 297
#     4   8  17  32  44  68 101 125 162 199 228 280
#
# _framework density 16.981981999999999
#
# number of rings (size 3 to 8) (size 9 to 14) (size 15 to 20)
#    0.545    2.545    0.000    1.636    5.091    0.727 
#    0.000    0.000    0.000    0.000    0.000   14.000 
#    0.000    0.000    0.000    0.000    0.000    0.000 
#
# Total GULP energy -272543.272354 kJ/mol
# GULP energy per Si atom -12388.330562 kJ/mol
# Density = 1.694333 g / cm^3
# Si number density = 16.981982 Si / 1000 Ang^3
#
#
#
# Elastic Constant Matrix: (Units=GPa)
#
#
# Indices 1 2 3 4 5 6 
#
# 1 83.9271 23.0860 39.0401 0.0000 15.5630 0.0000
# 2 23.0860 53.9958 31.1391 0.0000 -4.6138 0.0000
# 3 39.0401 31.1391 124.5215 0.0000 4.0364 0.0000
# 4 0.0000 0.0000 0.0000 17.1126 0.0000 -0.3755
# 5 15.5630 -4.6138 4.0364 0.0000 23.3888 0.0000
# 6 0.0000 0.0000 0.0000 -0.3755 0.0000 24.4352
#
#
#
# Elastic Compliance Matrix: (Units=1/GPa)
#
#
# Indices 1 2 3 4 5 6 
#
# 1 0.017662 -0.006608 -0.003481 0.000000 -0.012455 0.000000
# 2 -0.006608 0.024769 -0.004448 0.000000 0.010051 0.000000
# 3 -0.003481 -0.004448 0.010245 0.000000 -0.000329 0.000000
# 4 0.000000 0.000000 0.000000 0.058456 0.000000 0.000898
# 5 -0.012455 0.010051 -0.000329 0.000000 0.053082 0.000000
# 6 0.000000 0.000000 0.000000 0.000898 0.000000 0.040938
#
#
# Mechanical properties :
#
#
# Convention : Reuss Voigt Hill
#
# Bulk Modulus (GPa) = 42.36994 49.88608 46.12801
# Shear Modulus (GPa) = 20.65309 24.26595 22.45952
#
# Velocity S-wave (km/s) = 3.49116 3.78421 3.64063
# Velocity P-wave (km/s) = 6.42301 6.96659 6.70031
#
# Compressibility (1/GPa) = 0.02360164
#
# Stress axis : x y z
#
# Youngs Moduli (GPa) = 56.61991 40.37272 97.60723
#
# Poissons Ratio (x) = 0.26678 0.33978
# Poissons Ratio (y) = 0.37414 0.43417
# Poissons Ratio (z) = 0.19710 0.17958
#
# Static dielectric constant tensor:
#      x y z
#    x 3.090880 0.000000 0.297540 
#    y 0.000000 3.146170 0.000000 
#    z 0.297540 0.000000 3.126810 
# 
# 
# High freq. dielectric constant tensor:
#      x y z
#    x 1.636310 0.000000 0.035500 
#    y 0.000000 1.620910 0.000000 
#    z 0.035500 0.000000 1.654180 
# 
# From -- ./inp_files/97717.got.cif
#   From: 2010.06.25/outbox.cif.g09.slc.cpg/sg15_49_cif.got.tgz:97717.got - 2010.06.28 07:06:18.
