data_PCOD8130200
_publ_section_title
;
Structure prediction by ZEFSAII (Michael W. Deem and Ramdas Pophale) SiO2 
 PCOD8130200
Probable space group: C 2/C
;
_chemical_formula_sum "Si O2"
_cell_formula_units_Z 60
_cell_length_a 18.249777
_cell_length_b 23.196511
_cell_length_c 9.211955
_cell_angle_alpha 90.000000
_cell_angle_beta 121.321802
_cell_angle_gamma 90.000000
_cell_volume 3331.368377
_symmetry_space_group_name_H-M "C 2/C"
_symmetry_group_IT_number 15
_symmetry_cell_setting 'monoclinic'
loop_
_space_group_symop_operation_xyz
x,y,z
-x,y,1/2-z
-x,-y,-z
x,-y,1/2+z
1/2+x,1/2+y,z
1/2-x,1/2+y,1/2-z
1/2-x,1/2-y,-z
1/2+x,1/2-y,1/2+z
loop_
_atom_site_type_symbol
_atom_site_label
_atom_site_fract_x
_atom_site_fract_y
_atom_site_fract_z
Si Si1 0.000000 0.384805 0.750000
Si Si2 0.148514 0.303516 0.975104
Si Si3 0.873955 0.464655 0.788073
Si Si4 0.903734 0.818409 0.189441
Si Si5 0.231561 0.666042 0.061553
Si Si6 0.402006 0.071353 0.633207
Si Si7 0.761499 0.875409 0.891651
Si Si8 0.799727 0.790245 0.351907
O O1 0.934596 0.344433 0.590353
O O2 0.953060 0.425959 0.815226
O O3 0.119659 0.238131 0.925586
O O4 0.199605 0.323586 0.884071
O O5 0.210796 0.305014 0.177801
O O6 0.876502 0.530472 0.740918
O O7 0.785206 0.436814 0.637593
O O8 0.881588 0.465871 0.968888
O O9 0.882193 0.807496 0.337862
O O10 0.000000 0.835288 0.250000
O O11 0.848587 0.872851 0.074176
O O12 0.281016 0.633375 0.241565
O O13 0.193700 0.724788 0.088521
O O14 0.151075 0.629982 0.920036
O O15 0.298991 0.672852 0.999649
O O16 0.500000 0.089714 0.750000
#
# Coordination Sequence:
#
# PCOD8130200 Si02
#       8
#     4   8   8   8   8   8   8   8
#     4  10  20  30  52  82 106 154 178 226 264 306
#     4  10  17  30  53  72 107 140 189 213 259 324
#     4  10  22  35  53  74 114 145 184 218 267 321
#     4  11  19  32  54  80 105 136 185 231 263 319
#     4  10  20  35  54  73 111 146 177 219 271 325
#     4  11  23  36  53  80 111 142 184 225 262 318
#     4   9  18  36  52  72 103 145 178 220 267 321
#     4  10  20  35  51  77 109 148 181 215 273 332
#
# _framework density 18.010618000000001
#
# number of rings (size 3 to 8) (size 9 to 14) (size 15 to 20)
#    0.000    1.867    4.000    1.200    1.867    2.133 
#    0.000    0.667    0.000    0.000    0.000    8.400 
#    0.000    0.000    0.000    0.000    0.000    0.000 
#
# Total GULP energy -371898.136800 kJ/mol
# GULP energy per Si atom -12396.604560 kJ/mol
# Density = 1.796963 g / cm^3
# Si number density = 18.010618 Si / 1000 Ang^3
#
#
#
# Elastic Constant Matrix: (Units=GPa)
#
#
# Indices 1 2 3 4 5 6 
#
# 1 111.0528 28.5068 44.1813 0.0000 -1.4088 0.0000
# 2 28.5068 58.3886 26.6107 0.0000 4.0420 0.0000
# 3 44.1813 26.6107 56.8412 0.0000 -2.8033 0.0000
# 4 0.0000 0.0000 0.0000 23.0302 0.0000 -1.1592
# 5 -1.4088 4.0420 -2.8033 0.0000 32.1562 0.0000
# 6 0.0000 0.0000 0.0000 -1.1592 0.0000 13.5958
#
#
#
# Elastic Compliance Matrix: (Units=1/GPa)
#
#
# Indices 1 2 3 4 5 6 
#
# 1 0.013266 -0.002267 -0.009248 0.000000 0.000060 0.000000
# 2 -0.002267 0.022592 -0.008999 0.000000 -0.003724 0.000000
# 3 -0.009248 -0.008999 0.029155 0.000000 0.003268 0.000000
# 4 0.000000 0.000000 0.000000 0.043608 0.000000 0.003718
# 5 0.000060 -0.003724 0.003268 0.000000 0.031854 0.000000
# 6 0.000000 0.000000 0.000000 0.003718 0.000000 0.073869
#
#
# Mechanical properties :
#
#
# Convention : Reuss Voigt Hill
#
# Bulk Modulus (GPa) = 41.68793 47.20892 44.44842
# Shear Modulus (GPa) = 18.98502 22.22204 20.60353
#
# Velocity S-wave (km/s) = 3.25021 3.51640 3.38593
# Velocity P-wave (km/s) = 6.10588 6.53876 6.32602
#
# Compressibility (1/GPa) = 0.02398776
#
# Stress axis : x y z
#
# Youngs Moduli (GPa) = 75.37877 44.26330 34.29981
#
# Poissons Ratio (x) = 0.10032 0.31719
# Poissons Ratio (y) = 0.17085 0.30865
# Poissons Ratio (z) = 0.69707 0.39831
#
# Static dielectric constant tensor:
#      x y z
#    x 3.401000 0.000000 -0.114280 
#    y 0.000000 3.200230 0.000000 
#    z -0.114280 0.000000 3.437570 
# 
# 
# High freq. dielectric constant tensor:
#      x y z
#    x 1.680710 0.000000 -0.016320 
#    y 0.000000 1.679320 0.000000 
#    z -0.016320 0.000000 1.697010 
# 
# From -- ./inp_files/51506.got.cif
#   From: 2010.06.25/outbox.cif.g09.slc.cpg/sg15_26_cif.got.tgz:51506.got - 2010.06.28 07:06:18.
