data_PCOD8130316
_publ_section_title
;
Structure prediction by ZEFSAII (Michael W. Deem and Ramdas Pophale) SiO2 
 PCOD8130316
Probable space group: C 2/C
;
_chemical_formula_sum "Si O2"
_cell_formula_units_Z 48
_cell_length_a 14.104952
_cell_length_b 17.958296
_cell_length_c 13.896964
_cell_angle_alpha 90.000000
_cell_angle_beta 131.011839
_cell_angle_gamma 90.000000
_cell_volume 2656.186158
_symmetry_space_group_name_H-M "C 2/C"
_symmetry_group_IT_number 15
_symmetry_cell_setting 'monoclinic'
loop_
_space_group_symop_operation_xyz
x,y,z
-x,y,1/2-z
-x,-y,-z
x,-y,1/2+z
1/2+x,1/2+y,z
1/2-x,1/2+y,1/2-z
1/2-x,1/2-y,-z
1/2+x,1/2-y,1/2+z
loop_
_atom_site_type_symbol
_atom_site_label
_atom_site_fract_x
_atom_site_fract_y
_atom_site_fract_z
Si Si1 0.643130 0.479269 0.374136
Si Si2 0.906680 0.795343 0.815630
Si Si3 0.175710 0.146449 0.428947
Si Si4 0.678227 0.454134 0.188937
Si Si5 0.090788 0.901740 0.524949
Si Si6 0.371707 0.858574 0.209954
O O1 0.500000 0.492448 0.250000
O O2 0.690697 0.556981 0.449517
O O3 0.716807 0.454118 0.327543
O O4 0.656795 0.415451 0.465521
O O5 0.809903 0.829546 0.672642
O O6 0.870168 0.823273 0.899174
O O7 0.902199 0.706043 0.807893
O O8 0.044483 0.825484 0.883320
O O9 0.289106 0.178848 0.569252
O O10 0.635867 0.536281 0.130604
O O11 0.800306 0.425936 0.214028
O O12 0.560104 0.400364 0.089116
O O13 0.500000 0.890421 0.250000
#
# Coordination Sequence:
#
# PCOD8130316 Si02
#       6
#     8   8   8   8   8   8
#     4  10  17  31  60  87 104 131 182 245 275 307
#     4  11  20  32  56  85 111 143 180 231 281 320
#     4  11  18  34  53  81 111 136 187 225 274 324
#     4  10  19  33  55  85 110 139 189 230 276 323
#     4  10  17  33  60  82 107 139 185 244 269 308
#     4  12  24  34  51  82 123 151 174 223 281 340
#
# _framework density 18.071021999999999
#
# number of rings (size 3 to 8) (size 9 to 14) (size 15 to 20)
#    0.000    1.333    8.333    1.500    0.000    0.000 
#    0.000    1.667    0.000    0.000    0.000    0.000 
#    0.000    0.000    0.000    0.000    0.000    0.000 
#
# Total GULP energy -297503.511414 kJ/mol
# GULP energy per Si atom -12395.979642 kJ/mol
# Density = 1.802989 g / cm^3
# Si number density = 18.071022 Si / 1000 Ang^3
#
#
#
# Elastic Constant Matrix: (Units=GPa)
#
#
# Indices 1 2 3 4 5 6 
#
# 1 86.7138 26.6424 39.7569 0.0000 -9.6490 0.0000
# 2 26.6424 53.8211 19.2486 0.0000 -0.5209 0.0000
# 3 39.7569 19.2486 71.9217 0.0000 -12.2437 0.0000
# 4 0.0000 0.0000 0.0000 13.5764 0.0000 -10.5235
# 5 -9.6490 -0.5209 -12.2437 0.0000 28.0227 0.0000
# 6 0.0000 0.0000 0.0000 -10.5235 0.0000 22.9647
#
#
#
# Elastic Compliance Matrix: (Units=1/GPa)
#
#
# Indices 1 2 3 4 5 6 
#
# 1 0.016972 -0.005722 -0.007426 0.000000 0.002493 0.000000
# 2 -0.005722 0.022600 -0.003403 0.000000 -0.003037 0.000000
# 3 -0.007426 -0.003403 0.019958 0.000000 0.006100 0.000000
# 4 0.000000 0.000000 0.000000 0.114233 0.000000 0.052347
# 5 0.002493 -0.003037 0.006100 0.000000 0.039152 0.000000
# 6 0.000000 0.000000 0.000000 0.052347 0.000000 0.067533
#
#
# Mechanical properties :
#
#
# Convention : Reuss Voigt Hill
#
# Bulk Modulus (GPa) = 37.83668 42.63916 40.23792
# Shear Modulus (GPa) = 15.51065 21.36668 18.43866
#
# Velocity S-wave (km/s) = 2.93288 3.44229 3.19775
# Velocity P-wave (km/s) = 5.69669 6.28058 5.99575
#
# Compressibility (1/GPa) = 0.02642938
#
# Stress axis : x y z
#
# Youngs Moduli (GPa) = 58.91940 44.24805 50.10478
#
# Poissons Ratio (x) = 0.25317 0.37209
# Poissons Ratio (y) = 0.33711 0.17049
# Poissons Ratio (z) = 0.43755 0.15056
#
# Static dielectric constant tensor:
#      x y z
#    x 3.249040 0.000000 -0.354950 
#    y 0.000000 3.098110 0.000000 
#    z -0.354950 0.000000 3.552780 
# 
# 
# High freq. dielectric constant tensor:
#      x y z
#    x 1.670130 0.000000 -0.025000 
#    y 0.000000 1.675150 0.000000 
#    z -0.025000 0.000000 1.697980 
# 
# From -- ./inp_files/113384.got.cif
#   From: 2010.06.25/outbox.cif.g09.slc.cpg/sg15_57_cif.got.tgz:113384.got - 2010.06.28 07:06:18.
