data_PCOD8130952
_publ_section_title
;
Structure prediction by ZEFSAII (Michael W. Deem and Ramdas Pophale) SiO2 
 PCOD8130952
Probable space group: C 2/C
;
_chemical_formula_sum "Si O2"
_cell_formula_units_Z 64
_cell_length_a 13.761796
_cell_length_b 15.754330
_cell_length_c 24.100453
_cell_angle_alpha 90.000000
_cell_angle_beta 44.815293
_cell_angle_gamma 90.000000
_cell_volume 3682.821620
_symmetry_space_group_name_H-M "C 2/C"
_symmetry_group_IT_number 15
_symmetry_cell_setting 'monoclinic'
loop_
_space_group_symop_operation_xyz
x,y,z
-x,y,1/2-z
-x,-y,-z
x,-y,1/2+z
1/2+x,1/2+y,z
1/2-x,1/2+y,1/2-z
1/2-x,1/2-y,-z
1/2+x,1/2-y,1/2+z
loop_
_atom_site_type_symbol
_atom_site_label
_atom_site_fract_x
_atom_site_fract_y
_atom_site_fract_z
Si Si1 0.911374 0.759189 0.999553
Si Si2 0.894945 0.020972 0.590014
Si Si3 0.049166 0.313591 0.787245
Si Si4 0.122691 0.791729 0.365616
Si Si5 0.925357 0.754638 0.726953
Si Si6 0.139866 0.142892 0.344625
Si Si7 0.355579 0.855292 0.425708
Si Si8 0.597799 0.011085 0.160830
O O1 0.919761 0.738604 0.061959
O O2 0.797517 0.833545 0.035229
O O3 0.866446 0.672155 0.986167
O O4 0.059141 0.793154 0.918824
O O5 0.925395 0.111808 0.605276
O O6 0.916773 0.952283 0.629353
O O7 0.748187 0.998356 0.624358
O O8 0.000000 0.000000 0.500000
O O9 0.052947 0.250237 0.838881
O O10 0.197638 0.350195 0.710439
O O11 0.000000 0.266311 0.750000
O O12 0.947726 0.394122 0.839665
O O13 0.287333 0.798295 0.294844
O O14 0.885989 0.836943 0.708639
O O15 0.000000 0.791335 0.750000
O O16 0.032497 0.698067 0.651701
O O17 0.399539 0.952508 0.396039
O O18 0.500000 0.976129 0.250000
#
# Coordination Sequence:
#
# PCOD8130952 Si02
#       8
#     8   8   8   8   8   8   8   8
#     4  10  19  32  51  82 117 137 170 233 295 332
#     4  12  20  34  56  83 109 135 194 240 274 322
#     4  10  22  39  57  78 111 152 193 230 274 338
#     4  11  21  34  56  84 113 143 186 237 282 330
#     4  10  18  31  52  80 111 139 176 223 288 336
#     4  10  20  34  52  80 110 140 180 237 273 324
#     4  10  18  30  53  83 109 139 179 226 283 338
#     4  11  19  34  58  79 105 144 198 228 261 335
#
# _framework density 17.377980000000001
#
# number of rings (size 3 to 8) (size 9 to 14) (size 15 to 20)
#    0.000    1.500    6.250    1.125    0.000    0.000 
#    0.000    3.750    0.000    0.000    0.000    0.000 
#    0.000    0.000    0.000    0.000    0.000    0.000 
#
# Total GULP energy -396429.489384 kJ/mol
# GULP energy per Si atom -12388.421543 kJ/mol
# Density = 1.733843 g / cm^3
# Si number density = 17.377980 Si / 1000 Ang^3
#
#
#
# Elastic Constant Matrix: (Units=GPa)
#
#
# Indices 1 2 3 4 5 6 
#
# 1 98.4742 42.8567 32.0740 0.0000 18.2064 0.0000
# 2 42.8567 94.0865 33.1766 0.0000 11.2226 0.0000
# 3 32.0740 33.1766 86.1184 0.0000 5.9868 0.0000
# 4 0.0000 0.0000 0.0000 31.5760 0.0000 5.3302
# 5 18.2064 11.2226 5.9868 0.0000 32.5173 0.0000
# 6 0.0000 0.0000 0.0000 5.3302 0.0000 19.4527
#
#
#
# Elastic Compliance Matrix: (Units=1/GPa)
#
#
# Indices 1 2 3 4 5 6 
#
# 1 0.014294 -0.004726 -0.003100 0.000000 -0.005801 0.000000
# 2 -0.004726 0.014248 -0.003617 0.000000 -0.001605 0.000000
# 3 -0.003100 -0.003617 0.014133 0.000000 0.000382 0.000000
# 4 0.000000 0.000000 0.000000 0.033206 0.000000 -0.009099
# 5 -0.005801 -0.001605 0.000382 0.000000 0.034485 0.000000
# 6 0.000000 0.000000 0.000000 -0.009099 0.000000 0.053900
#
#
# Mechanical properties :
#
#
# Convention : Reuss Voigt Hill
#
# Bulk Modulus (GPa) = 50.53149 54.98818 52.75983
# Shear Modulus (GPa) = 25.80671 28.08065 26.94368
#
# Velocity S-wave (km/s) = 3.85778 4.02416 3.94185
# Velocity P-wave (km/s) = 6.99888 7.30088 7.15148
#
# Compressibility (1/GPa) = 0.01978964
#
# Stress axis : x y z
#
# Youngs Moduli (GPa) = 69.95997 70.18425 70.75455
#
# Poissons Ratio (x) = 0.33169 0.21932
# Poissons Ratio (y) = 0.33063 0.25594
# Poissons Ratio (z) = 0.21685 0.25388
#
# Static dielectric constant tensor:
#      x y z
#    x 2.916300 0.000000 -0.002910 
#    y 0.000000 3.445920 0.000000 
#    z -0.002910 0.000000 3.510630 
# 
# 
# High freq. dielectric constant tensor:
#      x y z
#    x 1.661760 0.000000 -0.006890 
#    y 0.000000 1.648690 0.000000 
#    z -0.006890 0.000000 1.689230 
# 
# From -- ./inp_files/296397.got.cif
#   From: 2010.06.25/outbox.cif.g09.slc.cpg/sg15_149_cif.got.tgz:296397.got - 2010.06.28 07:06:18.
