data_PCOD8130793
_publ_section_title
;
Structure prediction by ZEFSAII (Michael W. Deem and Ramdas Pophale) SiO2 
 PCOD8130793
Probable space group: C 2/C
;
_chemical_formula_sum "Si O2"
_cell_formula_units_Z 60
_cell_length_a 13.839580
_cell_length_b 20.877446
_cell_length_c 14.360678
_cell_angle_alpha 90.000000
_cell_angle_beta 125.808373
_cell_angle_gamma 90.000000
_cell_volume 3364.995376
_symmetry_space_group_name_H-M "C 2/C"
_symmetry_group_IT_number 15
_symmetry_cell_setting 'monoclinic'
loop_
_space_group_symop_operation_xyz
x,y,z
-x,y,1/2-z
-x,-y,-z
x,-y,1/2+z
1/2+x,1/2+y,z
1/2-x,1/2+y,1/2-z
1/2-x,1/2-y,-z
1/2+x,1/2-y,1/2+z
loop_
_atom_site_type_symbol
_atom_site_label
_atom_site_fract_x
_atom_site_fract_y
_atom_site_fract_z
Si Si1 0.587253 0.802321 0.382335
Si Si2 0.194554 0.039651 0.420733
Si Si3 0.054289 0.471311 0.679311
Si Si4 0.858462 0.832787 0.517997
Si Si5 0.945454 0.583549 0.509834
Si Si6 0.977230 0.095364 0.933466
Si Si7 0.000000 0.943903 0.250000
Si Si8 0.189353 0.980498 0.610973
O O1 0.500000 0.820529 0.250000
O O2 0.719299 0.820050 0.423251
O O3 0.576419 0.727433 0.398904
O O4 0.552422 0.843008 0.454742
O O5 0.121555 0.104517 0.406455
O O6 0.311206 0.056642 0.428571
O O7 0.237749 0.005150 0.539175
O O8 0.113332 0.991421 0.316374
O O9 0.006473 0.423320 0.569811
O O10 0.196771 0.463619 0.763185
O O11 0.000000 0.454273 0.750000
O O12 0.022398 0.543156 0.628014
O O13 0.917901 0.843752 0.450069
O O14 0.995560 0.105368 0.833739
O O15 0.891231 0.034357 0.887862
O O16 0.105462 0.081929 0.053312
#
# Coordination Sequence:
#
# PCOD8130793 Si02
#       8
#     8   8   8   8   8   8   4   8
#     4  10  21  38  55  79 103 139 176 231 264 310
#     4   9  17  31  49  80 107 135 171 223 258 328
#     4  11  20  33  52  77 108 143 170 219 267 328
#     4   9  20  36  54  76 107 134 184 213 267 312
#     4  10  21  32  52  78 106 137 179 214 268 319
#     4   9  18  32  49  77 105 142 170 220 256 327
#     4  10  18  28  52  80 112 136 174 210 270 316
#     4   9  17  31  49  73 108 139 170 208 276 309
#
# _framework density 17.830632999999999
#
# number of rings (size 3 to 8) (size 9 to 14) (size 15 to 20)
#    0.000    2.400    1.333    2.000    4.667    0.000 
#    4.800    0.000    1.467    0.000    0.000    1.867 
#    0.000    0.000    0.000    0.000    0.000    0.000 
#
# Total GULP energy -371845.698292 kJ/mol
# GULP energy per Si atom -12394.856610 kJ/mol
# Density = 1.779005 g / cm^3
# Si number density = 17.830633 Si / 1000 Ang^3
#
#
#
# Elastic Constant Matrix: (Units=GPa)
#
#
# Indices 1 2 3 4 5 6 
#
# 1 76.4355 28.9508 41.2956 0.0000 -14.1274 0.0000
# 2 28.9508 73.2817 27.5798 0.0000 -9.6020 0.0000
# 3 41.2956 27.5798 92.5347 0.0000 -4.6246 0.0000
# 4 0.0000 0.0000 0.0000 16.5412 0.0000 -3.5705
# 5 -14.1274 -9.6020 -4.6246 0.0000 27.3836 0.0000
# 6 0.0000 0.0000 0.0000 -3.5705 0.0000 20.0974
#
#
#
# Elastic Compliance Matrix: (Units=1/GPa)
#
#
# Indices 1 2 3 4 5 6 
#
# 1 0.020020 -0.004156 -0.007314 0.000000 0.007636 0.000000
# 2 -0.004156 0.016845 -0.003003 0.000000 0.003255 0.000000
# 3 -0.007314 -0.003003 0.014850 0.000000 -0.002318 0.000000
# 4 0.000000 0.000000 0.000000 0.062866 0.000000 0.011169
# 5 0.007636 0.003255 -0.002318 0.000000 0.041207 0.000000
# 6 0.000000 0.000000 0.000000 0.011169 0.000000 0.051742
#
#
# Mechanical properties :
#
#
# Convention : Reuss Voigt Hill
#
# Bulk Modulus (GPa) = 43.92070 48.65605 46.28838
# Shear Modulus (GPa) = 20.48633 22.43283 21.45958
#
# Velocity S-wave (km/s) = 3.39328 3.55083 3.47295
# Velocity P-wave (km/s) = 6.32757 6.64517 6.48831
#
# Compressibility (1/GPa) = 0.02276831
#
# Stress axis : x y z
#
# Youngs Moduli (GPa) = 49.95040 59.36625 67.34009
#
# Poissons Ratio (x) = 0.24672 0.49253
# Poissons Ratio (y) = 0.20759 0.20223
# Poissons Ratio (z) = 0.36534 0.17829
#
# Static dielectric constant tensor:
#      x y z
#    x 3.377200 0.000000 -0.049720 
#    y 0.000000 3.032410 0.000000 
#    z -0.049720 0.000000 3.294830 
# 
# 
# High freq. dielectric constant tensor:
#      x y z
#    x 1.691040 0.000000 -0.000890 
#    y 0.000000 1.645020 0.000000 
#    z -0.000890 0.000000 1.697770 
# 
# From -- ./inp_files/156010.got.cif
#   From: 2010.06.25/outbox.cif.g09.slc.cpg/sg15_79_cif.got.tgz:156010.got - 2010.06.28 07:06:18.
