data_PCOD8130176
_publ_section_title
;
Structure prediction by ZEFSAII (Michael W. Deem and Ramdas Pophale) SiO2 
 PCOD8130176
Probable space group: C 2/C
;
_chemical_formula_sum "Si O2"
_cell_formula_units_Z 56
_cell_length_a 13.934118
_cell_length_b 15.883515
_cell_length_c 14.682313
_cell_angle_alpha 90.000000
_cell_angle_beta 123.562704
_cell_angle_gamma 90.000000
_cell_volume 2707.772724
_symmetry_space_group_name_H-M "C 2/C"
_symmetry_group_IT_number 15
_symmetry_cell_setting 'monoclinic'
loop_
_space_group_symop_operation_xyz
x,y,z
-x,y,1/2-z
-x,-y,-z
x,-y,1/2+z
1/2+x,1/2+y,z
1/2-x,1/2+y,1/2-z
1/2-x,1/2-y,-z
1/2+x,1/2-y,1/2+z
loop_
_atom_site_type_symbol
_atom_site_label
_atom_site_fract_x
_atom_site_fract_y
_atom_site_fract_z
Si Si1 0.756912 0.944462 0.344196
Si Si2 0.628018 0.791399 0.351034
Si Si3 0.531259 0.596122 0.170311
Si Si4 0.765481 0.485943 0.846396
Si Si5 0.338970 0.807531 0.925008
Si Si6 0.153498 0.049112 0.957716
Si Si7 0.518736 0.662132 0.546118
O O1 0.683152 0.882687 0.367202
O O2 0.775637 0.029351 0.413115
O O3 0.880743 0.905189 0.384430
O O4 0.683393 0.962204 0.212563
O O5 0.500000 0.791836 0.250000
O O6 0.629616 0.773416 0.458834
O O7 0.706025 0.721772 0.337428
O O8 0.500000 0.645034 0.250000
O O9 0.651766 0.550289 0.239367
O O10 0.431700 0.527376 0.106876
O O11 0.529026 0.657731 0.082707
O O12 0.849309 0.408294 0.918493
O O13 0.740339 0.550433 0.916558
O O14 0.430362 0.756498 0.908684
O O15 0.084003 0.137121 0.936832
#
# Coordination Sequence:
#
# PCOD8130176 Si02
#       7
#     8   8   8   8   8   8   8
#     4  10  18  34  52  79 113 150 195 237 290 344
#     4  10  22  37  54  80 118 154 181 244 301 350
#     4   9  17  24  47  76 110 144 177 221 291 333
#     4  11  19  31  53  86 113 146 189 241 278 348
#     4  10  23  33  52  87 122 141 193 236 299 352
#     4  10  17  30  50  84 118 140 198 237 289 342
#     4  10  18  32  47  81 123 149 178 240 295 355
#
# _framework density 20.681203
#
# number of rings (size 3 to 8) (size 9 to 14) (size 15 to 20)
#    0.000    2.000    4.286    0.857    8.000    0.000 
#    0.000    0.714    0.000    0.000    7.429    5.000 
#    0.000    0.000    0.000    0.000    0.000    0.000 
#
# Total GULP energy -346942.851061 kJ/mol
# GULP energy per Si atom -12390.816109 kJ/mol
# Density = 2.063413 g / cm^3
# Si number density = 20.681203 Si / 1000 Ang^3
#
#
#
# Elastic Constant Matrix: (Units=GPa)
#
#
# Indices 1 2 3 4 5 6 
#
# 1 56.0253 39.0898 20.0942 0.0000 -6.8130 0.0000
# 2 39.0898 60.6563 6.9987 0.0000 -9.0414 0.0000
# 3 20.0942 6.9987 60.7751 0.0000 -11.5981 0.0000
# 4 0.0000 0.0000 0.0000 18.8563 0.0000 -2.6371
# 5 -6.8130 -9.0414 -11.5981 0.0000 27.4715 0.0000
# 6 0.0000 0.0000 0.0000 -2.6371 0.0000 32.2161
#
#
#
# Elastic Compliance Matrix: (Units=1/GPa)
#
#
# Indices 1 2 3 4 5 6 
#
# 1 0.037514 -0.023400 -0.010227 0.000000 -0.002716 0.000000
# 2 -0.023400 0.031988 0.005389 0.000000 0.007000 0.000000
# 3 -0.010227 0.005389 0.020740 0.000000 0.007994 0.000000
# 4 0.000000 0.000000 0.000000 0.053647 0.000000 0.004391
# 5 -0.002716 0.007000 0.007994 0.000000 0.041406 0.000000
# 6 0.000000 0.000000 0.000000 0.004391 0.000000 0.031400
#
#
# Mechanical properties :
#
#
# Convention : Reuss Voigt Hill
#
# Bulk Modulus (GPa) = 29.61556 34.42469 32.02013
# Shear Modulus (GPa) = 17.57923 23.12706 20.35314
#
# Velocity S-wave (km/s) = 2.91866 3.34767 3.14050
# Velocity P-wave (km/s) = 5.07042 5.62353 5.35412
#
# Compressibility (1/GPa) = 0.03376603
#
# Stress axis : x y z
#
# Youngs Moduli (GPa) = 26.65700 31.26152 48.21539
#
# Poissons Ratio (x) = 0.73153 0.49309
# Poissons Ratio (y) = 0.62378 -0.25983
# Poissons Ratio (z) = 0.27261 -0.16847
#
# Static dielectric constant tensor:
#      x y z
#    x 3.547070 0.000000 -0.204240 
#    y 0.000000 3.660760 0.000000 
#    z -0.204240 0.000000 3.854240 
# 
# 
# High freq. dielectric constant tensor:
#      x y z
#    x 1.771270 0.000000 -0.009670 
#    y 0.000000 1.781380 0.000000 
#    z -0.009670 0.000000 1.807340 
# 
# From -- ./inp_files/146156.got.cif
#   From: 2010.06.25/outbox.cif.g09.slc.cpg/sg15_74_cif.got.tgz:146156.got - 2010.06.28 07:06:18.
