data_PCOD8130803
_publ_section_title
;
Structure prediction by ZEFSAII (Michael W. Deem and Ramdas Pophale) SiO2 
 PCOD8130803
Probable space group: C 2/C
;
_chemical_formula_sum "Si O2"
_cell_formula_units_Z 60
_cell_length_a 33.793185
_cell_length_b 16.511959
_cell_length_c 9.640649
_cell_angle_alpha 90.000000
_cell_angle_beta 138.103341
_cell_angle_gamma 90.000000
_cell_volume 3592.306290
_symmetry_space_group_name_H-M "C 2/C"
_symmetry_group_IT_number 15
_symmetry_cell_setting 'monoclinic'
loop_
_space_group_symop_operation_xyz
x,y,z
-x,y,1/2-z
-x,-y,-z
x,-y,1/2+z
1/2+x,1/2+y,z
1/2-x,1/2+y,1/2-z
1/2-x,1/2-y,-z
1/2+x,1/2-y,1/2+z
loop_
_atom_site_type_symbol
_atom_site_label
_atom_site_fract_x
_atom_site_fract_y
_atom_site_fract_z
Si Si1 0.336693 0.802715 0.991076
Si Si2 0.248278 0.513156 0.856171
Si Si3 0.073573 0.557285 0.694539
Si Si4 0.173546 0.557832 0.407238
Si Si5 0.797570 0.819185 0.593488
Si Si6 0.681896 0.765846 0.853774
Si Si7 0.200466 0.138063 0.107995
Si Si8 0.500000 0.987040 0.750000
O O1 0.355873 0.773614 0.886619
O O2 0.269940 0.837362 0.806430
O O3 0.381201 0.868598 0.170002
O O4 0.342593 0.722550 0.103085
O O5 0.207580 0.516731 0.618615
O O6 0.207273 0.467360 0.857426
O O7 0.303289 0.454494 0.957235
O O8 0.268438 0.601784 0.950685
O O9 0.106802 0.474334 0.739293
O O10 0.033656 0.570873 0.450861
O O11 0.039845 0.544956 0.753475
O O12 0.173078 0.654073 0.421876
O O13 0.750000 0.750000 0.500000
O O14 0.829260 0.848949 0.818186
O O15 0.750000 0.750000 0.000000
O O16 0.662308 0.691324 0.899973
#
# Coordination Sequence:
#
# PCOD8130803 Si02
#       8
#     8   8   8   8   8   8   8   4
#     4  10  18  33  48  63  93 128 170 200 235 298
#     4  12  19  29  45  69  97 137 172 203 224 272
#     4  11  21  37  51  73  92 127 167 209 266 302
#     4  12  19  30  50  65  94 135 176 196 235 301
#     4  10  20  30  42  66  97 127 170 207 229 270
#     4  10  18  29  43  67  95 130 173 203 226 265
#     4  10  19  30  41  70  99 132 174 199 230 263
#     4  10  24  36  52  70  96 114 160 232 268 302
#
# _framework density 16.702361
#
# number of rings (size 3 to 8) (size 9 to 14) (size 15 to 20)
#    0.000    1.333    5.333    4.800    0.000    1.067 
#    0.000    0.000    0.000    0.000    0.000    0.000 
#    0.000    0.000    0.000   40.800    0.000    0.000 
#
# Total GULP energy -371662.287952 kJ/mol
# GULP energy per Si atom -12388.742932 kJ/mol
# Density = 1.666435 g / cm^3
# Si number density = 16.702361 Si / 1000 Ang^3
#
#
#
# Elastic Constant Matrix: (Units=GPa)
#
#
# Indices 1 2 3 4 5 6 
#
# 1 47.9568 23.7448 19.3908 0.0000 -17.5445 0.0000
# 2 23.7448 110.6978 29.1486 0.0000 -4.2479 0.0000
# 3 19.3908 29.1486 80.3773 0.0000 -22.2712 0.0000
# 4 0.0000 0.0000 0.0000 22.7021 0.0000 -8.9208
# 5 -17.5445 -4.2479 -22.2712 0.0000 28.9552 0.0000
# 6 0.0000 0.0000 0.0000 -8.9208 0.0000 21.3884
#
#
#
# Elastic Compliance Matrix: (Units=1/GPa)
#
#
# Indices 1 2 3 4 5 6 
#
# 1 0.030084 -0.005673 -0.000483 0.000000 0.017025 0.000000
# 2 -0.005673 0.011121 -0.004022 0.000000 -0.004899 0.000000
# 3 -0.000483 -0.004022 0.017502 0.000000 0.012579 0.000000
# 4 0.000000 0.000000 0.000000 0.052683 0.000000 0.021974
# 5 0.017025 -0.004899 0.012579 0.000000 0.053808 0.000000
# 6 0.000000 0.000000 0.000000 0.021974 0.000000 0.055919
#
#
# Mechanical properties :
#
#
# Convention : Reuss Voigt Hill
#
# Bulk Modulus (GPa) = 26.07451 42.62226 34.34838
# Shear Modulus (GPa) = 19.66504 25.72568 22.69536
#
# Velocity S-wave (km/s) = 3.43502 3.92885 3.69020
# Velocity P-wave (km/s) = 5.60158 6.79377 6.22627
#
# Compressibility (1/GPa) = 0.03835164
#
# Stress axis : x y z
#
# Youngs Moduli (GPa) = 33.23974 89.91615 57.13650
#
# Poissons Ratio (x) = 0.51005 0.02762
# Poissons Ratio (y) = 0.18855 0.22981
# Poissons Ratio (z) = 0.01607 0.36166
#
# Static dielectric constant tensor:
#      x y z
#    x 3.396100 0.000000 -0.706760 
#    y 0.000000 3.372610 0.000000 
#    z -0.706760 0.000000 3.432520 
# 
# 
# High freq. dielectric constant tensor:
#      x y z
#    x 1.619840 0.000000 -0.058220 
#    y 0.000000 1.645320 0.000000 
#    z -0.058220 0.000000 1.624780 
# 
# From -- ./inp_files/70404.got.cif
#   From: 2010.06.25/outbox.cif.g09.slc.cpg/sg15_36_cif.got.tgz:70404.got - 2010.06.28 07:06:18.
