data_PCOD8130800
_publ_section_title
;
Structure prediction by ZEFSAII (Michael W. Deem and Ramdas Pophale) SiO2 
 PCOD8130800
Probable space group: C 2/C
;
_chemical_formula_sum "Si O2"
_cell_formula_units_Z 64
_cell_length_a 19.957599
_cell_length_b 8.731037
_cell_length_c 26.750293
_cell_angle_alpha 90.000000
_cell_angle_beta 48.426552
_cell_angle_gamma 90.000000
_cell_volume 3487.109783
_symmetry_space_group_name_H-M "C 2/C"
_symmetry_group_IT_number 15
_symmetry_cell_setting 'monoclinic'
loop_
_space_group_symop_operation_xyz
x,y,z
-x,y,1/2-z
-x,-y,-z
x,-y,1/2+z
1/2+x,1/2+y,z
1/2-x,1/2+y,1/2-z
1/2-x,1/2-y,-z
1/2+x,1/2-y,1/2+z
loop_
_atom_site_type_symbol
_atom_site_label
_atom_site_fract_x
_atom_site_fract_y
_atom_site_fract_z
Si Si1 0.086307 0.682556 0.179468
Si Si2 0.371035 0.061135 0.763716
Si Si3 0.390935 0.731596 0.606858
Si Si4 0.257257 0.143957 0.629287
Si Si5 0.296493 0.364185 0.780927
Si Si6 0.681243 0.579766 0.339499
Si Si7 0.086082 0.448259 0.988057
Si Si8 0.508803 0.069589 0.119541
O O1 0.097520 0.517451 0.200677
O O2 0.176623 0.780950 0.138154
O O3 0.071504 0.657761 0.127984
O O4 0.000000 0.761941 0.250000
O O5 0.358194 0.242424 0.780949
O O6 0.279148 0.990599 0.790515
O O7 0.437224 0.029844 0.684968
O O8 0.302468 0.796564 0.677308
O O9 0.390877 0.546431 0.605717
O O10 0.471176 0.799735 0.600682
O O11 0.391502 0.783671 0.548014
O O12 0.319259 0.268559 0.626511
O O13 0.326509 0.055660 0.559932
O O14 0.207388 0.030077 0.692047
O O15 0.344848 0.377557 0.703755
O O16 0.063712 0.446991 0.058204
O O17 0.000000 0.500000 0.000000
#
# Coordination Sequence:
#
# PCOD8130800 Si02
#       8
#     8   8   8   8   8   8   8   8
#     4   9  20  34  55  75 107 142 175 223 267 321
#     4   9  18  32  51  79 103 132 176 217 274 322
#     4   9  18  32  51  81 106 132 177 217 274 321
#     4  10  20  35  52  81 108 139 181 220 269 320
#     4  10  18  28  55  79 104 131 169 228 276 322
#     4  10  18  28  55  80 107 132 166 229 281 322
#     4   9  20  34  55  76 107 146 181 225 264 320
#     4  10  18  35  55  71 108 146 183 210 271 326
#
# _framework density 18.353308999999999
#
# number of rings (size 3 to 8) (size 9 to 14) (size 15 to 20)
#    0.000    2.500    1.250    1.500    7.000    0.500 
#    0.000    4.375    0.000   12.000    0.000    0.000 
#    0.000    0.000    0.000    0.000    0.000    0.000 
#
# Total GULP energy -396531.176435 kJ/mol
# GULP energy per Si atom -12391.599264 kJ/mol
# Density = 1.831154 g / cm^3
# Si number density = 18.353309 Si / 1000 Ang^3
#
#
#
# Elastic Constant Matrix: (Units=GPa)
#
#
# Indices 1 2 3 4 5 6 
#
# 1 84.2708 28.6524 31.2484 -0.0003 8.4956 -0.0005
# 2 28.6524 91.8183 15.1373 -0.0009 3.5101 -0.0009
# 3 31.2484 15.1373 72.7540 0.0000 9.8224 0.0000
# 4 -0.0003 -0.0009 0.0000 12.1557 0.0000 -4.5644
# 5 8.4956 3.5101 9.8224 0.0000 25.8970 0.0000
# 6 -0.0005 -0.0009 0.0000 -4.5644 0.0000 19.2695
#
#
#
# Elastic Compliance Matrix: (Units=1/GPa)
#
#
# Indices 1 2 3 4 5 6 
#
# 1 0.015458 -0.003821 -0.005512 0.000000 -0.002463 0.000000
# 2 -0.003821 0.012234 -0.000895 0.000001 -0.000065 0.000001
# 3 -0.005512 -0.000895 0.016904 0.000000 -0.004482 0.000000
# 4 0.000000 0.000001 0.000000 0.090297 0.000000 0.021389
# 5 -0.002463 -0.000065 -0.004482 0.000000 0.041131 0.000000
# 6 0.000000 0.000001 0.000000 0.021389 0.000000 0.056962
#
#
# Mechanical properties :
#
#
# Convention : Reuss Voigt Hill
#
# Bulk Modulus (GPa) = 41.42718 44.32439 42.87578
# Shear Modulus (GPa) = 19.12140 23.05144 21.08642
#
# Velocity S-wave (km/s) = 3.23127 3.54783 3.39324
# Velocity P-wave (km/s) = 6.04504 6.40202 6.22609
#
# Compressibility (1/GPa) = 0.02413874
#
# Stress axis : x y z
#
# Youngs Moduli (GPa) = 64.69280 81.74274 59.15874
#
# Poissons Ratio (x) = 0.31233 0.32607
# Poissons Ratio (y) = 0.24718 0.05297
# Poissons Ratio (z) = 0.35657 0.07320
#
# Static dielectric constant tensor:
#      x y z
#    x 3.289930 0.000000 -0.050880 
#    y 0.000000 3.577550 0.000000 
#    z -0.050880 0.000000 3.459440 
# 
# 
# High freq. dielectric constant tensor:
#      x y z
#    x 1.694240 0.000000 -0.003120 
#    y 0.000000 1.702330 0.000000 
#    z -0.003120 0.000000 1.702870 
# 
# From -- ./inp_files/300352.got.cif
#   From: 2010.06.25/outbox.cif.g09.slc.cpg/sg15_151_cif.got.tgz:300352.got - 2010.06.28 07:06:18.
