data_PCOD8130703
_publ_section_title
;
Structure prediction by ZEFSAII (Michael W. Deem and Ramdas Pophale) SiO2 
 PCOD8130703
Probable space group: C 2/C
;
_chemical_formula_sum "Si O2"
_cell_formula_units_Z 60
_cell_length_a 24.484616
_cell_length_b 10.725434
_cell_length_c 12.667462
_cell_angle_alpha 90.000000
_cell_angle_beta 57.306893
_cell_angle_gamma 90.000000
_cell_volume 2799.567899
_symmetry_space_group_name_H-M "C 2/C"
_symmetry_group_IT_number 15
_symmetry_cell_setting 'monoclinic'
loop_
_space_group_symop_operation_xyz
x,y,z
-x,y,1/2-z
-x,-y,-z
x,-y,1/2+z
1/2+x,1/2+y,z
1/2-x,1/2+y,1/2-z
1/2-x,1/2-y,-z
1/2+x,1/2-y,1/2+z
loop_
_atom_site_type_symbol
_atom_site_label
_atom_site_fract_x
_atom_site_fract_y
_atom_site_fract_z
Si Si1 0.023983 0.419357 0.833668
Si Si2 0.279793 0.641993 0.038422
Si Si3 0.812762 0.784158 0.726621
Si Si4 0.463907 0.826811 0.460300
Si Si5 0.324435 0.794889 0.528971
Si Si6 0.664579 0.036790 0.679051
Si Si7 0.860830 0.935708 0.856534
Si Si8 0.500000 0.639444 0.250000
O O1 0.098602 0.459693 0.752995
O O2 0.000000 0.354567 0.750000
O O3 0.977594 0.538017 0.897705
O O4 0.013748 0.321906 0.940593
O O5 0.320622 0.699316 0.093066
O O6 0.224104 0.553451 0.144371
O O7 0.250000 0.750000 0.000000
O O8 0.329464 0.569192 0.910478
O O9 0.737087 0.797851 0.832195
O O10 0.839808 0.648442 0.731084
O O11 0.853074 0.894609 0.742487
O O12 0.387513 0.799637 0.536229
O O13 0.502773 0.725371 0.351618
O O14 0.324549 0.911531 0.449846
O O15 0.322130 0.667900 0.464229
O O16 0.936067 0.944923 0.812120
#
# Coordination Sequence:
#
# PCOD8130703 Si02
#       8
#     8   8   8   8   8   8   8   4
#     4  11  20  34  56  93 140 168 211 274 329 383
#     4  12  27  41  64 100 132 162 218 285 329 386
#     4  11  22  39  67  93 130 176 216 270 335 401
#     4  10  19  32  58  95 125 171 221 269 320 380
#     4  10  17  37  67  91 127 173 227 257 321 408
#     4  11  21  41  63  94 129 175 211 266 334 399
#     4  10  21  42  69  97 126 173 225 268 321 397
#     4  10  20  42  70  92 122 176 242 260 314 418
#
# _framework density 21.431878000000001
#
# number of rings (size 3 to 8) (size 9 to 14) (size 15 to 20)
#    0.000    1.333    4.667    3.200    1.867    1.067 
#    2.400    0.667    1.467    1.600    0.000    0.000 
#    0.000    0.000    0.000    0.000    0.000    0.000 
#
# Total GULP energy -372098.077836 kJ/mol
# GULP energy per Si atom -12403.269261 kJ/mol
# Density = 2.138310 g / cm^3
# Si number density = 21.431878 Si / 1000 Ang^3
#
#
#
# Elastic Constant Matrix: (Units=GPa)
#
#
# Indices 1 2 3 4 5 6 
#
# 1 94.6605 44.2005 50.5459 0.0000 17.7533 0.0000
# 2 44.2005 81.0127 35.7679 0.0000 10.5247 0.0000
# 3 50.5459 35.7679 85.2901 0.0000 27.4653 0.0000
# 4 0.0000 0.0000 0.0000 13.9382 0.0000 0.9870
# 5 17.7533 10.5247 27.4653 0.0000 49.3513 0.0000
# 6 0.0000 0.0000 0.0000 0.9870 0.0000 24.7803
#
#
#
# Elastic Compliance Matrix: (Units=1/GPa)
#
#
# Indices 1 2 3 4 5 6 
#
# 1 0.017666 -0.006168 -0.007627 0.000000 -0.000795 0.000000
# 2 -0.006168 0.017308 -0.003812 0.000000 0.000649 0.000000
# 3 -0.007627 -0.003812 0.020344 0.000000 -0.007765 0.000000
# 4 0.000000 0.000000 0.000000 0.071948 0.000000 -0.002866
# 5 -0.000795 0.000649 -0.007765 0.000000 0.024732 0.000000
# 6 0.000000 0.000000 0.000000 -0.002866 0.000000 0.040469
#
#
# Mechanical properties :
#
#
# Convention : Reuss Voigt Hill
#
# Bulk Modulus (GPa) = 49.74141 57.99911 53.87026
# Shear Modulus (GPa) = 21.33287 26.31056 23.82171
#
# Velocity S-wave (km/s) = 3.15839 3.50757 3.33755
# Velocity P-wave (km/s) = 6.04649 6.59734 6.32791
#
# Compressibility (1/GPa) = 0.02010397
#
# Stress axis : x y z
#
# Youngs Moduli (GPa) = 56.60741 57.77812 49.15514
#
# Poissons Ratio (x) = 0.35636 0.37489
# Poissons Ratio (y) = 0.34914 0.18738
# Poissons Ratio (z) = 0.43172 0.22025
#
# Static dielectric constant tensor:
#      x y z
#    x 4.048390 0.000000 0.100640 
#    y 0.000000 3.590120 0.000000 
#    z 0.100640 0.000000 3.859660 
# 
# 
# High freq. dielectric constant tensor:
#      x y z
#    x 1.857310 0.000000 0.001600 
#    y 0.000000 1.808530 0.000000 
#    z 0.001600 0.000000 1.831850 
# 
# From -- ./inp_files/117535.got.cif
#   From: 2010.06.25/outbox.cif.g09.slc.cpg/sg15_59_cif.got.tgz:117535.got - 2010.06.28 07:06:18.
