data_PCOD8130906
_publ_section_title
;
Structure prediction by ZEFSAII (Michael W. Deem and Ramdas Pophale) SiO2 
 PCOD8130906
Probable space group: C 2/C
;
_chemical_formula_sum "Si O2"
_cell_formula_units_Z 56
_cell_length_a 11.286321
_cell_length_b 19.423898
_cell_length_c 17.821882
_cell_angle_alpha 90.000000
_cell_angle_beta 45.018330
_cell_angle_gamma 90.000000
_cell_volume 2763.543134
_symmetry_space_group_name_H-M "C 2/C"
_symmetry_group_IT_number 15
_symmetry_cell_setting 'monoclinic'
loop_
_space_group_symop_operation_xyz
x,y,z
-x,y,1/2-z
-x,-y,-z
x,-y,1/2+z
1/2+x,1/2+y,z
1/2-x,1/2+y,1/2-z
1/2-x,1/2-y,-z
1/2+x,1/2-y,1/2+z
loop_
_atom_site_type_symbol
_atom_site_label
_atom_site_fract_x
_atom_site_fract_y
_atom_site_fract_z
Si Si1 0.576421 0.962163 0.356680
Si Si2 0.253732 0.336414 0.649061
Si Si3 0.500000 0.278476 0.250000
Si Si4 0.000000 0.540718 0.250000
Si Si5 0.880935 0.867807 0.740765
Si Si6 0.036803 0.400109 0.953759
Si Si7 0.679141 0.632710 0.544228
Si Si8 0.554196 0.526538 0.806386
O O1 0.491462 0.899471 0.442447
O O2 0.766078 0.941824 0.248690
O O3 0.468453 0.989161 0.334281
O O4 0.597254 0.023468 0.406593
O O5 0.158124 0.410541 0.697108
O O6 0.393430 0.334202 0.652271
O O7 0.328556 0.328548 0.532358
O O8 0.141184 0.271348 0.719914
O O9 0.427586 0.322764 0.350278
O O10 0.693604 0.854651 0.857078
O O11 0.000000 0.832747 0.750000
O O12 0.946272 0.944762 0.695986
O O13 0.871864 0.376075 0.982926
O O14 0.589141 0.557954 0.574508
O O15 0.500000 0.556694 0.750000
#
# Coordination Sequence:
#
# PCOD8130906 Si02
#       8
#     8   8   4   4   8   8   8   8
#     4  10  18  30  49  80 116 162 183 233 295 352
#     4  11  22  38  56  86 115 151 203 246 296 345
#     4  11  24  40  62  90 118 150 199 264 296 335
#     4  11  18  34  48  80 122 150 191 244 280 339
#     4  10  22  38  57  85 123 158 193 241 292 366
#     4  10  18  32  57  79 114 157 194 233 298 357
#     4  12  21  37  64  88 117 154 201 254 297 347
#     4  10  18  33  54  86 123 151 191 236 295 357
#
# _framework density 20.263840999999999
#
# number of rings (size 3 to 8) (size 9 to 14) (size 15 to 20)
#    0.000    1.429    6.429    1.286    2.000    0.571 
#    2.571    0.000    0.000    3.429    1.857    0.000 
#    0.000    0.000    0.000    0.000    0.000    0.000 
#
# Total GULP energy -346883.706523 kJ/mol
# GULP energy per Si atom -12388.703804 kJ/mol
# Density = 2.021772 g / cm^3
# Si number density = 20.263841 Si / 1000 Ang^3
#
#
#
# Elastic Constant Matrix: (Units=GPa)
#
#
# Indices 1 2 3 4 5 6 
#
# 1 131.1003 33.5903 59.9965 -0.0025 14.0762 0.0018
# 2 33.5903 43.6057 29.4772 -0.0009 1.2826 0.0006
# 3 59.9965 29.4772 106.6447 -0.0032 1.7436 0.0027
# 4 -0.0025 -0.0009 -0.0032 20.4885 0.0035 -0.0225
# 5 14.0762 1.2826 1.7436 0.0035 34.2375 -0.0032
# 6 0.0018 0.0006 0.0027 -0.0225 -0.0032 10.5164
#
#
#
# Elastic Compliance Matrix: (Units=1/GPa)
#
#
# Indices 1 2 3 4 5 6 
#
# 1 0.011839 -0.005579 -0.005047 0.000001 -0.004402 -0.000002
# 2 -0.005579 0.030846 -0.005411 0.000000 0.001414 0.000001
# 3 -0.005047 -0.005411 0.013686 0.000001 0.001581 -0.000002
# 4 0.000001 0.000000 0.000001 0.048808 -0.000006 0.000105
# 5 -0.004402 0.001414 0.001581 -0.000006 0.030884 0.000010
# 6 -0.000002 0.000001 -0.000002 0.000105 0.000010 0.095089
#
#
# Mechanical properties :
#
#
# Convention : Reuss Voigt Hill
#
# Bulk Modulus (GPa) = 41.15394 58.60874 49.88134
# Shear Modulus (GPa) = 18.42811 23.60094 21.01453
#
# Velocity S-wave (km/s) = 3.01891 3.41645 3.22381
# Velocity P-wave (km/s) = 5.70131 6.67446 6.20699
#
# Compressibility (1/GPa) = 0.02429901
#
# Stress axis : x y z
#
# Youngs Moduli (GPa) = 84.46455 32.41872 73.06910
#
# Poissons Ratio (x) = 0.18087 0.36874
# Poissons Ratio (y) = 0.47124 0.39534
# Poissons Ratio (z) = 0.42625 0.17540
#
# Static dielectric constant tensor:
#      x y z
#    x 3.686090 0.000000 0.010610 
#    y 0.000000 3.351990 0.000000 
#    z 0.010610 0.000000 4.014660 
# 
# 
# High freq. dielectric constant tensor:
#      x y z
#    x 1.778730 0.000000 0.005520 
#    y 0.000000 1.743470 0.000000 
#    z 0.005520 0.000000 1.796800 
# 
# From -- ./inp_files/199489.got.cif
#   From: 2010.06.25/outbox.cif.g09.slc.cpg/sg15_100_cif.got.tgz:199489.got - 2010.06.28 07:06:18.
