data_PCOD8130367
_publ_section_title
;
Structure prediction by ZEFSAII (Michael W. Deem and Ramdas Pophale) SiO2 
 PCOD8130367
Probable space group: C 2/C
;
_chemical_formula_sum "Si O2"
_cell_formula_units_Z 56
_cell_length_a 24.970854
_cell_length_b 9.515794
_cell_length_c 17.845210
_cell_angle_alpha 90.000000
_cell_angle_beta 136.479451
_cell_angle_gamma 90.000000
_cell_volume 2919.956425
_symmetry_space_group_name_H-M "C 2/C"
_symmetry_group_IT_number 15
_symmetry_cell_setting 'monoclinic'
loop_
_space_group_symop_operation_xyz
x,y,z
-x,y,1/2-z
-x,-y,-z
x,-y,1/2+z
1/2+x,1/2+y,z
1/2-x,1/2+y,1/2-z
1/2-x,1/2-y,-z
1/2+x,1/2-y,1/2+z
loop_
_atom_site_type_symbol
_atom_site_label
_atom_site_fract_x
_atom_site_fract_y
_atom_site_fract_z
Si Si1 0.879367 0.768294 0.753979
Si Si2 0.680674 0.008701 0.730943
Si Si3 0.846660 0.904063 0.439874
Si Si4 0.756382 0.506043 0.369078
Si Si5 0.635470 0.294845 0.210507
Si Si6 0.495025 0.493488 0.407475
Si Si7 0.671439 0.811526 0.451019
O O1 0.874801 0.642260 0.809963
O O2 0.803546 0.862997 0.693378
O O3 0.956304 0.860976 0.840514
O O4 0.885970 0.694865 0.678355
O O5 0.693250 0.992516 0.655413
O O6 0.637022 0.872190 0.719411
O O7 0.762323 0.023258 0.858988
O O8 0.858336 0.842856 0.369013
O O9 0.858685 0.780473 0.510807
O O10 0.915602 0.015602 0.530640
O O11 0.709501 0.360610 0.329847
O O12 0.813122 0.531673 0.498611
O O13 0.556302 0.357146 0.167797
O O14 0.500000 0.500000 0.500000
O O15 0.750000 0.750000 0.500000
#
# Coordination Sequence:
#
# PCOD8130367 Si02
#       7
#     8   8   8   8   8   8   8
#     4  10  20  33  55  81 109 145 185 240 273 335
#     4  11  17  31  57  86 108 141 191 231 282 325
#     4  10  18  32  56  81 106 148 190 225 267 339
#     4   9  16  30  51  78 109 141 182 233 269 329
#     4   9  18  31  53  81 114 144 178 237 284 327
#     4   9  20  36  53  79 112 144 185 228 285 332
#     4  10  17  32  53  83 107 135 194 236 267 322
#
# _framework density 19.178367999999999
#
# number of rings (size 3 to 8) (size 9 to 14) (size 15 to 20)
#    0.000    2.286    4.286    1.714    0.000    0.571 
#    0.000    3.571    3.143    0.000    3.714    0.000 
#    0.000    0.000    0.000    0.000    0.000    0.000 
#
# Total GULP energy -346876.351329 kJ/mol
# GULP energy per Si atom -12388.441119 kJ/mol
# Density = 1.913472 g / cm^3
# Si number density = 19.178368 Si / 1000 Ang^3
#
#
#
# Elastic Constant Matrix: (Units=GPa)
#
#
# Indices 1 2 3 4 5 6 
#
# 1 32.0757 0.1215 12.7914 0.0000 4.3996 0.0000
# 2 0.1215 75.0047 7.3468 0.0000 7.2558 0.0000
# 3 12.7914 7.3468 71.8125 0.0000 -8.4515 0.0000
# 4 0.0000 0.0000 0.0000 28.4781 0.0000 -7.0704
# 5 4.3996 7.2558 -8.4515 0.0000 33.2577 0.0000
# 6 0.0000 0.0000 0.0000 -7.0704 0.0000 20.2517
#
#
#
# Elastic Compliance Matrix: (Units=1/GPa)
#
#
# Indices 1 2 3 4 5 6 
#
# 1 0.034944 0.001294 -0.007148 0.000000 -0.006721 0.000000
# 2 0.001294 0.013897 -0.002092 0.000000 -0.003734 0.000000
# 3 -0.007148 -0.002092 0.016058 0.000000 0.005482 0.000000
# 4 0.000000 0.000000 0.000000 0.038447 0.000000 0.013423
# 5 -0.006721 -0.003734 0.005482 0.000000 0.033165 0.000000
# 6 0.000000 0.000000 0.000000 0.013423 0.000000 0.054065
#
#
# Mechanical properties :
#
#
# Convention : Reuss Voigt Hill
#
# Bulk Modulus (GPa) = 20.40540 24.37914 22.39227
# Shear Modulus (GPa) = 22.44147 26.97304 24.70725
#
# Velocity S-wave (km/s) = 3.42445 3.75431 3.59317
# Velocity P-wave (km/s) = 5.12823 5.61538 5.37732
#
# Compressibility (1/GPa) = 0.04900662
#
# Stress axis : x y z
#
# Youngs Moduli (GPa) = 28.61750 71.96031 62.27613
#
# Poissons Ratio (x) = -0.09310 0.44513
# Poissons Ratio (y) = -0.03702 0.13026
# Poissons Ratio (z) = 0.20455 0.15051
#
# Static dielectric constant tensor:
#      x y z
#    x 28.082600 0.000000 -64.800080 
#    y 0.000000 3.538760 0.000000 
#    z -64.800080 0.000000 174.642030 
# 
# 
# High freq. dielectric constant tensor:
#      x y z
#    x 1.727400 0.000000 -0.000850 
#    y 0.000000 1.724940 0.000000 
#    z -0.000850 0.000000 1.732100 
# 
# From -- ./inp_files/218644.got.cif
#   From: 2010.06.25/outbox.cif.g09.slc.cpg/sg15_110_cif.got.tgz:218644.got - 2010.06.28 07:06:18.
