data_PCOD8130796
_publ_section_title
;
Structure prediction by ZEFSAII (Michael W. Deem and Ramdas Pophale) SiO2 
 PCOD8130796
Probable space group: C 2/C
;
_chemical_formula_sum "Si O2"
_cell_formula_units_Z 64
_cell_length_a 21.675265
_cell_length_b 8.393759
_cell_length_c 23.697707
_cell_angle_alpha 90.000000
_cell_angle_beta 126.369143
_cell_angle_gamma 90.000000
_cell_volume 3471.667794
_symmetry_space_group_name_H-M "C 2/C"
_symmetry_group_IT_number 15
_symmetry_cell_setting 'monoclinic'
loop_
_space_group_symop_operation_xyz
x,y,z
-x,y,1/2-z
-x,-y,-z
x,-y,1/2+z
1/2+x,1/2+y,z
1/2-x,1/2+y,1/2-z
1/2-x,1/2-y,-z
1/2+x,1/2-y,1/2+z
loop_
_atom_site_type_symbol
_atom_site_label
_atom_site_fract_x
_atom_site_fract_y
_atom_site_fract_z
Si Si1 0.260338 0.801311 0.420561
Si Si2 0.916627 0.988837 0.402812
Si Si3 0.498854 0.824187 0.903054
Si Si4 0.136177 0.137804 0.936147
Si Si5 0.110578 0.466263 0.527431
Si Si6 0.219248 0.803398 0.695271
Si Si7 0.144609 0.524708 0.175162
Si Si8 0.429748 0.374103 0.530824
O O1 0.175107 0.848239 0.395767
O O2 0.298760 0.669501 0.481450
O O3 0.254960 0.737219 0.354084
O O4 0.310351 0.960634 0.451831
O O5 0.836464 0.043431 0.332220
O O6 0.977637 0.127037 0.419957
O O7 0.947745 0.821811 0.397580
O O8 0.903590 0.980841 0.463020
O O9 0.565783 0.764046 0.897885
O O10 0.437601 0.942186 0.837907
O O11 0.539917 0.912398 0.978249
O O12 0.103335 0.961105 0.931146
O O13 0.119914 0.432128 0.598175
O O14 0.099848 0.305186 0.486289
O O15 0.175737 0.653279 0.700006
O O16 0.293256 0.845976 0.771731
#
# Coordination Sequence:
#
# PCOD8130796 Si02
#       8
#     8   8   8   8   8   8   8   8
#     4   9  19  35  51  73 106 141 175 217 261 316
#     4  10  19  30  51  80 111 138 170 219 275 321
#     4  10  19  34  54  81 108 136 181 222 270 321
#     4   9  18  33  54  76 101 139 181 213 260 318
#     4  10  20  32  52  81 112 137 175 228 274 319
#     4  11  22  36  51  78 110 140 178 221 272 336
#     4  11  22  32  51  75 108 140 175 218 278 326
#     4  10  18  28  53  79 107 137 172 221 270 314
#
# _framework density 18.434944000000002
#
# number of rings (size 3 to 8) (size 9 to 14) (size 15 to 20)
#    0.000    2.000    2.500    1.875    5.250    0.500 
#    0.000    0.625    0.000    0.000    0.000    7.000 
#    0.000    0.000    0.000    0.000    0.000    0.000 
#
# Total GULP energy -396598.547406 kJ/mol
# GULP energy per Si atom -12393.704606 kJ/mol
# Density = 1.839299 g / cm^3
# Si number density = 18.434944 Si / 1000 Ang^3
#
#
#
# Elastic Constant Matrix: (Units=GPa)
#
#
# Indices 1 2 3 4 5 6 
#
# 1 109.0047 54.9469 43.7880 0.0000 22.3255 0.0000
# 2 54.9469 104.3427 42.8126 0.0000 8.8770 0.0000
# 3 43.7880 42.8126 84.6824 0.0000 27.5227 0.0000
# 4 0.0000 0.0000 0.0000 29.3511 0.0000 9.9183
# 5 22.3255 8.8770 27.5227 0.0000 23.4413 0.0000
# 6 0.0000 0.0000 0.0000 9.9183 0.0000 21.9307
#
#
#
# Elastic Compliance Matrix: (Units=1/GPa)
#
#
# Indices 1 2 3 4 5 6 
#
# 1 0.015113 -0.006651 -0.000959 0.000000 -0.010750 0.000000
# 2 -0.006651 0.015280 -0.007219 0.000000 0.009024 0.000000
# 3 -0.000959 -0.007219 0.023882 0.000000 -0.024394 0.000000
# 4 0.000000 0.000000 0.000000 0.040216 0.000000 -0.018188
# 5 -0.010750 0.009024 -0.024394 0.000000 0.078121 0.000000
# 6 0.000000 0.000000 0.000000 -0.018188 0.000000 0.053824
#
#
# Mechanical properties :
#
#
# Convention : Reuss Voigt Hill
#
# Bulk Modulus (GPa) = 40.61867 64.56944 52.59405
# Shear Modulus (GPa) = 18.91782 25.37678 22.14730
#
# Velocity S-wave (km/s) = 3.20690 3.71423 3.46985
# Velocity P-wave (km/s) = 5.98278 7.31407 6.68166
#
# Compressibility (1/GPa) = 0.02461922
#
# Stress axis : x y z
#
# Youngs Moduli (GPa) = 66.16757 65.44328 41.87172
#
# Poissons Ratio (x) = 0.43524 0.04014
# Poissons Ratio (y) = 0.44006 0.30227
# Poissons Ratio (z) = 0.06343 0.47244
#
# Static dielectric constant tensor:
#      x y z
#    x 3.474780 0.000000 0.318720 
#    y 0.000000 3.412680 0.000000 
#    z 0.318720 0.000000 3.208880 
# 
# 
# High freq. dielectric constant tensor:
#      x y z
#    x 1.703900 0.000000 0.033710 
#    y 0.000000 1.721550 0.000000 
#    z 0.033710 0.000000 1.685400 
# 
# From -- ./inp_files/279597.got.cif
#   From: 2010.06.25/outbox.cif.g09.slc.cpg/sg15_140_cif.got.tgz:279597.got - 2010.06.28 07:06:18.
