data_PCOD8130633
_publ_section_title
;
Structure prediction by ZEFSAII (Michael W. Deem and Ramdas Pophale) SiO2 
 PCOD8130633
Probable space group: C 2/C
;
_chemical_formula_sum "Si O2"
_cell_formula_units_Z 48
_cell_length_a 9.930327
_cell_length_b 15.172607
_cell_length_c 27.945271
_cell_angle_alpha 90.000000
_cell_angle_beta 145.989183
_cell_angle_gamma 90.000000
_cell_volume 2355.132080
_symmetry_space_group_name_H-M "C 2/C"
_symmetry_group_IT_number 15
_symmetry_cell_setting 'monoclinic'
loop_
_space_group_symop_operation_xyz
x,y,z
-x,y,1/2-z
-x,-y,-z
x,-y,1/2+z
1/2+x,1/2+y,z
1/2-x,1/2+y,1/2-z
1/2-x,1/2-y,-z
1/2+x,1/2-y,1/2+z
loop_
_atom_site_type_symbol
_atom_site_label
_atom_site_fract_x
_atom_site_fract_y
_atom_site_fract_z
Si Si1 0.036079 0.254019 0.080125
Si Si2 0.504678 0.573975 0.109198
Si Si3 0.008507 0.439034 0.404556
Si Si4 0.181597 0.903403 0.844310
Si Si5 0.973530 0.757999 0.030974
Si Si6 0.820911 0.050400 0.911898
O O1 0.129983 0.169221 0.137031
O O2 0.132098 0.345888 0.130494
O O3 0.750000 0.250000 0.000000
O O4 0.125388 0.247036 0.051979
O O5 0.469010 0.559735 0.155022
O O6 0.687581 0.501030 0.141253
O O7 0.247431 0.563685 0.007341
O O8 0.845264 0.518602 0.373040
O O9 0.066835 0.449363 0.365161
O O10 0.339405 0.820383 0.905924
O O11 0.000000 0.871750 0.750000
O O12 0.102444 0.850539 0.077262
O O13 0.750000 0.750000 0.000000
O O14 0.000000 0.000000 0.000000
#
# Coordination Sequence:
#
# PCOD8130633 Si02
#       6
#     8   8   8   8   8   8
#     4  10  17  35  63  92 116 152 194 266 302 350
#     4  10  19  37  64  90 120 155 205 252 309 363
#     4  10  19  36  62  86 118 157 211 247 301 368
#     4  12  26  41  57  89 133 167 201 262 322 372
#     4  12  22  36  65  96 122 155 214 259 306 371
#     4  10  18  34  62  98 117 144 201 264 300 353
#
# _framework density 20.381024
#
# number of rings (size 3 to 8) (size 9 to 14) (size 15 to 20)
#    0.000    1.333    8.333    2.500    2.333    0.000 
#    0.000    4.167    0.000    0.000    0.000    0.000 
#    0.000    0.000    0.000    0.000    0.000    0.000 
#
# Total GULP energy -297507.827835 kJ/mol
# GULP energy per Si atom -12396.159493 kJ/mol
# Density = 2.033464 g / cm^3
# Si number density = 20.381024 Si / 1000 Ang^3
#
#
#
# Elastic Constant Matrix: (Units=GPa)
#
#
# Indices 1 2 3 4 5 6 
#
# 1 210.0928 69.4899 16.9329 0.0000 -13.3274 0.0000
# 2 69.4899 177.9795 5.0676 0.0000 5.6681 0.0000
# 3 16.9329 5.0676 21.6278 -0.0001 -7.5846 -0.0001
# 4 0.0000 0.0000 -0.0001 5.3161 0.0000 1.1568
# 5 -13.3274 5.6681 -7.5846 0.0000 9.7561 0.0000
# 6 0.0000 0.0000 -0.0001 1.1568 0.0000 39.2917
#
#
#
# Elastic Compliance Matrix: (Units=1/GPa)
#
#
# Indices 1 2 3 4 5 6 
#
# 1 0.006355 -0.002756 -0.000995 0.000000 0.009508 0.000000
# 2 -0.002756 0.007113 -0.003132 0.000000 -0.010332 0.000000
# 3 -0.000995 -0.003132 0.065869 0.000001 0.051669 0.000000
# 4 0.000000 0.000000 0.000001 0.189319 0.000001 -0.005574
# 5 0.009508 -0.010332 0.051669 0.000001 0.161659 0.000000
# 6 0.000000 0.000000 0.000000 -0.005574 0.000000 0.025615
#
#
# Mechanical properties :
#
#
# Convention : Reuss Voigt Hill
#
# Bulk Modulus (GPa) = 15.25077 65.85344 40.55210
# Shear Modulus (GPa) = 10.17184 32.08677 21.12931
#
# Velocity S-wave (km/s) = 2.23644 3.97211 3.22330
# Velocity P-wave (km/s) = 3.76404 7.30877 5.81318
#
# Compressibility (1/GPa) = 0.06557047
#
# Stress axis : x y z
#
# Youngs Moduli (GPa) = 157.36731 140.59348 15.18155
#
# Poissons Ratio (x) = 0.38741 0.01511
# Poissons Ratio (y) = 0.43363 0.04755
# Poissons Ratio (z) = 0.15661 0.44040
#
# Static dielectric constant tensor:
#      x y z
#    x 4.315080 0.000020 -0.065880 
#    y 0.000020 7.572650 0.000070 
#    z -0.065880 0.000070 2.994660 
# 
# 
# High freq. dielectric constant tensor:
#      x y z
#    x 1.824510 0.000000 -0.004980 
#    y 0.000000 1.822820 0.000000 
#    z -0.004980 0.000000 1.717870 
# 
# From -- ./inp_files/308109.got.cif
#   From: 2010.06.25/outbox.cif.g09.slc.cpg/sg15_155_cif.got.tgz:308109.got - 2010.06.28 07:06:18.
