data_PCOD8130875
_publ_section_title
;
Structure prediction by ZEFSAII (Michael W. Deem and Ramdas Pophale) SiO2 
 PCOD8130875
Probable space group: C 2/C
;
_chemical_formula_sum "Si O2"
_cell_formula_units_Z 64
_cell_length_a 27.643890
_cell_length_b 14.007116
_cell_length_c 9.162590
_cell_angle_alpha 90.000000
_cell_angle_beta 76.521083
_cell_angle_gamma 90.000000
_cell_volume 3450.134181
_symmetry_space_group_name_H-M "C 2/C"
_symmetry_group_IT_number 15
_symmetry_cell_setting 'monoclinic'
loop_
_space_group_symop_operation_xyz
x,y,z
-x,y,1/2-z
-x,-y,-z
x,-y,1/2+z
1/2+x,1/2+y,z
1/2-x,1/2+y,1/2-z
1/2-x,1/2-y,-z
1/2+x,1/2-y,1/2+z
loop_
_atom_site_type_symbol
_atom_site_label
_atom_site_fract_x
_atom_site_fract_y
_atom_site_fract_z
Si Si1 0.986956 0.360195 0.912494
Si Si2 0.151532 0.784219 0.627018
Si Si3 0.771162 0.615188 0.397978
Si Si4 0.220657 0.699212 0.809604
Si Si5 0.549793 0.773137 0.285611
Si Si6 0.066482 0.443781 0.067075
Si Si7 0.267669 0.416947 0.034910
Si Si8 0.830123 0.617125 0.082896
O O1 0.953994 0.451329 0.890409
O O2 0.000000 0.308157 0.750000
O O3 0.956489 0.286000 0.035492
O O4 0.037603 0.391467 0.956463
O O5 0.172990 0.719078 0.743147
O O6 0.094134 0.800615 0.713198
O O7 0.181938 0.883379 0.584591
O O8 0.153798 0.724523 0.474157
O O9 0.791831 0.628336 0.548017
O O10 0.739990 0.703509 0.362878
O O11 0.731922 0.527164 0.417064
O O12 0.819753 0.603452 0.262355
O O13 0.262765 0.650925 0.679233
O O14 0.500000 0.728883 0.250000
O O15 0.559670 0.880385 0.217869
O O16 0.124892 0.453661 0.988097
O O17 0.220769 0.407579 0.962353
#
# Coordination Sequence:
#
# PCOD8130875 Si02
#       8
#     8   8   8   8   8   8   8   8
#     4  10  18  30  45  69  99 131 172 220 265 309
#     4  10  19  37  55  69 106 147 180 215 269 319
#     4  11  21  33  52  80 113 138 184 224 262 308
#     4  10  21  35  51  78 113 140 176 231 260 311
#     4   9  19  33  50  71  94 133 178 219 263 323
#     4   9  18  29  46  66 100 137 175 214 253 310
#     4  11  20  35  54  74 105 150 182 214 266 326
#     4  10  19  34  49  73 106 144 183 218 258 312
#
# _framework density 18.550001000000002
#
# number of rings (size 3 to 8) (size 9 to 14) (size 15 to 20)
#    0.000    2.000    2.500    3.375    0.000    6.000 
#    0.000    0.000    0.000    0.000    0.000    0.875 
#    0.000    0.000    0.000    0.000    0.000    0.000 
#
# Total GULP energy -396658.232506 kJ/mol
# GULP energy per Si atom -12395.569766 kJ/mol
# Density = 1.850778 g / cm^3
# Si number density = 18.550001 Si / 1000 Ang^3
#
#
#
# Elastic Constant Matrix: (Units=GPa)
#
#
# Indices 1 2 3 4 5 6 
#
# 1 100.3771 33.3300 50.6786 0.0000 -27.0715 0.0000
# 2 33.3300 65.8158 29.9653 0.0000 -11.7214 0.0000
# 3 50.6786 29.9653 141.4516 0.0000 -15.5285 0.0000
# 4 0.0000 0.0000 0.0000 15.9192 0.0000 -3.0535
# 5 -27.0715 -11.7214 -15.5285 0.0000 24.0239 0.0000
# 6 0.0000 0.0000 0.0000 -3.0535 0.0000 21.6778
#
#
#
# Elastic Compliance Matrix: (Units=1/GPa)
#
#
# Indices 1 2 3 4 5 6 
#
# 1 0.017309 -0.004450 -0.003612 0.000000 0.014999 0.000000
# 2 -0.004450 0.018911 -0.002098 0.000000 0.002856 0.000000
# 3 -0.003612 -0.002098 0.008879 0.000000 0.000645 0.000000
# 4 0.000000 0.000000 0.000000 0.064561 0.000000 0.009094
# 5 0.014999 0.002856 0.000645 0.000000 0.060337 0.000000
# 6 0.000000 0.000000 0.000000 0.009094 0.000000 0.047411
#
#
# Mechanical properties :
#
#
# Convention : Reuss Voigt Hill
#
# Bulk Modulus (GPa) = 40.35709 59.51024 49.93366
# Shear Modulus (GPa) = 20.32610 25.23555 22.78083
#
# Velocity S-wave (km/s) = 3.31380 3.69237 3.50819
# Velocity P-wave (km/s) = 6.03695 7.09428 6.58686
#
# Compressibility (1/GPa) = 0.02477880
#
# Stress axis : x y z
#
# Youngs Moduli (GPa) = 57.77425 52.87821 112.62486
#
# Poissons Ratio (x) = 0.23529 0.40681
# Poissons Ratio (y) = 0.25707 0.23634
# Poissons Ratio (z) = 0.20869 0.11096
#
# Static dielectric constant tensor:
#      x y z
#    x 3.353050 0.000000 -0.076790 
#    y 0.000000 3.137880 0.000000 
#    z -0.076790 0.000000 3.870120 
# 
# 
# High freq. dielectric constant tensor:
#      x y z
#    x 1.704080 0.000000 -0.002150 
#    y 0.000000 1.669730 0.000000 
#    z -0.002150 0.000000 1.737600 
# 
# From -- ./inp_files/66218.got.cif
#   From: 2010.06.25/outbox.cif.g09.slc.cpg/sg15_34_cif.got.tgz:66218.got - 2010.06.28 07:06:18.
