data_PCOD8130466
_publ_section_title
;
Structure prediction by ZEFSAII (Michael W. Deem and Ramdas Pophale) SiO2 
 PCOD8130466
Probable space group: C 2/C
;
_chemical_formula_sum "Si O2"
_cell_formula_units_Z 56
_cell_length_a 15.656257
_cell_length_b 8.279869
_cell_length_c 30.319836
_cell_angle_alpha 90.000000
_cell_angle_beta 44.585490
_cell_angle_gamma 90.000000
_cell_volume 2759.043102
_symmetry_space_group_name_H-M "C 2/C"
_symmetry_group_IT_number 15
_symmetry_cell_setting 'monoclinic'
loop_
_space_group_symop_operation_xyz
x,y,z
-x,y,1/2-z
-x,-y,-z
x,-y,1/2+z
1/2+x,1/2+y,z
1/2-x,1/2+y,1/2-z
1/2-x,1/2-y,-z
1/2+x,1/2-y,1/2+z
loop_
_atom_site_type_symbol
_atom_site_label
_atom_site_fract_x
_atom_site_fract_y
_atom_site_fract_z
Si Si1 0.868894 0.537409 0.067724
Si Si2 0.941805 0.752221 0.121661
Si Si3 0.533489 0.945271 0.334573
Si Si4 0.055146 0.973997 0.527840
Si Si5 0.719496 0.818898 0.092663
Si Si6 0.852272 0.258804 0.131951
Si Si7 0.783580 0.446650 0.307046
O O1 0.773947 0.634936 0.071073
O O2 0.812055 0.367458 0.104537
O O3 0.890590 0.647525 0.101310
O O4 0.000000 0.500000 0.000000
O O5 0.991165 0.633919 0.142421
O O6 0.826374 0.860519 0.179690
O O7 0.046670 0.869594 0.063072
O O8 0.412691 0.835128 0.380569
O O9 0.632204 0.872302 0.331392
O O10 0.589012 0.930976 0.265131
O O11 0.195639 0.930437 0.469283
O O12 0.000000 0.000000 0.500000
O O13 0.981362 0.826878 0.576156
O O14 0.708305 0.879810 0.146687
O O15 0.743312 0.136580 0.180448
#
# Coordination Sequence:
#
# PCOD8130466 Si02
#       7
#     8   8   8   8   8   8   8
#     4  10  17  33  57  86 109 147 193 232 287 359
#     4   9  20  34  58  84 107 155 195 233 287 350
#     4  11  23  37  53  91 119 145 193 247 298 336
#     4  11  17  37  61  84 110 152 201 232 287 362
#     4  11  22  35  61  85 118 153 187 248 297 338
#     4  10  20  35  62  84 110 153 197 239 286 350
#     4  10  20  40  62  76 112 165 199 226 281 367
#
# _framework density 20.296893000000001
#
# number of rings (size 3 to 8) (size 9 to 14) (size 15 to 20)
#    0.000    1.714    5.714    1.286    0.000    1.143 
#    0.000    2.857    0.000    5.143    0.000    0.000 
#    0.000    0.000    0.000    0.000    0.000    0.000 
#
# Total GULP energy -346957.592799 kJ/mol
# GULP energy per Si atom -12391.342600 kJ/mol
# Density = 2.025070 g / cm^3
# Si number density = 20.296893 Si / 1000 Ang^3
#
#
#
# Elastic Constant Matrix: (Units=GPa)
#
#
# Indices 1 2 3 4 5 6 
#
# 1 44.1759 20.3163 8.8324 -0.0003 -10.5783 -0.0014
# 2 20.3163 112.2709 26.2900 -0.0004 -3.1096 -0.0010
# 3 8.8324 26.2900 103.6446 0.0002 -9.6819 0.0000
# 4 -0.0003 -0.0004 0.0002 23.1731 -0.0002 4.2959
# 5 -10.5783 -3.1096 -9.6819 -0.0002 26.9237 -0.0005
# 6 -0.0014 -0.0010 0.0000 4.2959 -0.0005 29.4133
#
#
#
# Elastic Compliance Matrix: (Units=1/GPa)
#
#
# Indices 1 2 3 4 5 6 
#
# 1 0.027206 -0.004594 -0.000211 0.000000 0.010083 0.000001
# 2 -0.004594 0.010247 -0.002344 0.000000 -0.001465 0.000000
# 3 -0.000211 -0.002344 0.010584 0.000000 0.003452 0.000000
# 4 0.000000 0.000000 0.000000 0.044354 0.000000 -0.006478
# 5 0.010083 -0.001465 0.003452 0.000000 0.042176 0.000001
# 6 0.000001 0.000000 0.000000 -0.006478 0.000001 0.034944
#
#
# Mechanical properties :
#
#
# Convention : Reuss Voigt Hill
#
# Bulk Modulus (GPa) = 29.64152 41.21877 35.43015
# Shear Modulus (GPa) = 25.63353 29.54552 27.58952
#
# Velocity S-wave (km/s) = 3.55763 3.81946 3.69087
# Velocity P-wave (km/s) = 5.61349 6.30897 5.97136
#
# Compressibility (1/GPa) = 0.03373646
#
# Stress axis : x y z
#
# Youngs Moduli (GPa) = 36.75611 97.59087 94.48650
#
# Poissons Ratio (x) = 0.44838 0.01995
# Poissons Ratio (y) = 0.16888 0.22152
# Poissons Ratio (z) = 0.00776 0.22880
#
# Static dielectric constant tensor:
#      x y z
#    x 3.408980 0.000000 0.051540 
#    y 0.000000 4.542220 0.000000 
#    z 0.051540 0.000000 3.829380 
# 
# 
# High freq. dielectric constant tensor:
#      x y z
#    x 1.745680 0.000000 0.006600 
#    y 0.000000 1.804190 0.000000 
#    z 0.006600 0.000000 1.801900 
# 
# From -- ./inp_files/312862.got.cif
#   From: 2010.06.25/outbox.cif.g09.slc.cpg/sg15_157_cif.got.tgz:312862.got - 2010.06.28 07:06:18.
