data_PCOD8130488
_publ_section_title
;
Structure prediction by ZEFSAII (Michael W. Deem and Ramdas Pophale) SiO2 
 PCOD8130488
Probable space group: C 2/C
;
_chemical_formula_sum "Si O2"
_cell_formula_units_Z 64
_cell_length_a 12.123393
_cell_length_b 13.148062
_cell_length_c 21.233012
_cell_angle_alpha 90.000000
_cell_angle_beta 113.027386
_cell_angle_gamma 90.000000
_cell_volume 3114.837847
_symmetry_space_group_name_H-M "C 2/C"
_symmetry_group_IT_number 15
_symmetry_cell_setting 'monoclinic'
loop_
_space_group_symop_operation_xyz
x,y,z
-x,y,1/2-z
-x,-y,-z
x,-y,1/2+z
1/2+x,1/2+y,z
1/2-x,1/2+y,1/2-z
1/2-x,1/2-y,-z
1/2+x,1/2-y,1/2+z
loop_
_atom_site_type_symbol
_atom_site_label
_atom_site_fract_x
_atom_site_fract_y
_atom_site_fract_z
Si Si1 0.100657 0.135662 0.823392
Si Si2 0.124834 0.110797 0.153113
Si Si3 0.368817 0.451063 0.581388
Si Si4 0.203107 0.897457 0.533715
Si Si5 0.869683 0.277876 0.247188
Si Si6 0.076698 0.272877 0.933593
Si Si7 0.731442 0.969428 0.227481
Si Si8 0.312473 0.849264 0.868762
O O1 0.104265 0.234132 0.868815
O O2 0.221734 0.114192 0.812031
O O3 0.000000 0.154994 0.750000
O O4 0.079528 0.037750 0.861502
O O5 0.205641 0.094855 0.109423
O O6 0.152958 0.217621 0.192822
O O7 0.986090 0.118321 0.100720
O O8 0.159524 0.017039 0.207369
O O9 0.330300 0.494372 0.504804
O O10 0.255257 0.392319 0.584976
O O11 0.106185 0.813140 0.491333
O O12 0.334804 0.868397 0.536818
O O13 0.860251 0.400645 0.252181
O O14 0.767758 0.242141 0.175880
O O15 0.000000 0.248148 0.250000
O O16 0.940881 0.305256 0.916131
O O17 0.664629 0.061597 0.177309
#
# Coordination Sequence:
#
# PCOD8130488 Si02
#       8
#     8   8   8   8   8   8   8   8
#     4  10  17  33  62  87 114 149 204 246 298 350
#     4  11  21  40  63  88 124 158 206 243 305 367
#     4  10  20  37  60  88 117 162 202 245 288 365
#     4  10  23  39  60  85 120 164 207 253 291 346
#     4  11  22  39  61  91 127 154 193 251 316 366
#     4  10  22  40  59  88 122 157 207 254 298 355
#     4  10  22  35  62  95 118 156 195 252 310 359
#     4  10  22  39  64  91 121 159 202 248 309 359
#
# _framework density 20.546817000000001
#
# number of rings (size 3 to 8) (size 9 to 14) (size 15 to 20)
#    0.000    1.750    2.500    1.875    1.750    3.500 
#    0.000    1.875    0.000    0.000    0.000    0.000 
#    0.000    0.000    0.000    0.000    0.000    0.000 
#
# Total GULP energy -396694.436233 kJ/mol
# GULP energy per Si atom -12396.701132 kJ/mol
# Density = 2.050005 g / cm^3
# Si number density = 20.546817 Si / 1000 Ang^3
#
#
#
# Elastic Constant Matrix: (Units=GPa)
#
#
# Indices 1 2 3 4 5 6 
#
# 1 99.2013 30.9182 25.4728 0.0000 16.3928 0.0000
# 2 30.9182 70.1855 9.9956 0.0000 3.1266 0.0000
# 3 25.4728 9.9956 65.6735 0.0000 -3.5964 0.0000
# 4 0.0000 0.0000 0.0000 7.5981 0.0000 -0.9264
# 5 16.3928 3.1266 -3.5964 0.0000 37.2492 0.0000
# 6 0.0000 0.0000 0.0000 -0.9264 0.0000 30.2041
#
#
#
# Elastic Compliance Matrix: (Units=1/GPa)
#
#
# Indices 1 2 3 4 5 6 
#
# 1 0.014000 -0.005181 -0.004982 0.000000 -0.006207 0.000000
# 2 -0.005181 0.016559 -0.000464 0.000000 0.000846 0.000000
# 3 -0.004982 -0.000464 0.017444 0.000000 0.003916 0.000000
# 4 0.000000 0.000000 0.000000 0.132106 0.000000 0.004052
# 5 -0.006207 0.000846 0.003916 0.000000 0.029885 0.000000
# 6 0.000000 0.000000 0.000000 0.004052 0.000000 0.033232
#
#
# Mechanical properties :
#
#
# Convention : Reuss Voigt Hill
#
# Bulk Modulus (GPa) = 37.38489 40.87039 39.12764
# Shear Modulus (GPa) = 18.28834 26.25519 22.27176
#
# Velocity S-wave (km/s) = 2.98666 3.57854 3.29591
# Velocity P-wave (km/s) = 5.48890 6.08351 5.79384
#
# Compressibility (1/GPa) = 0.02674877
#
# Stress axis : x y z
#
# Youngs Moduli (GPa) = 71.42670 60.39027 57.32576
#
# Poissons Ratio (x) = 0.31291 0.28558
# Poissons Ratio (y) = 0.37010 0.02661
# Poissons Ratio (z) = 0.35582 0.02804
#
# Static dielectric constant tensor:
#      x y z
#    x 3.488240 0.000000 -0.055000 
#    y 0.000000 3.584030 0.000000 
#    z -0.055000 0.000000 3.698890 
# 
# 
# High freq. dielectric constant tensor:
#      x y z
#    x 1.795810 0.000000 -0.000730 
#    y 0.000000 1.793000 0.000000 
#    z -0.000730 0.000000 1.800330 
# 
# From -- ./inp_files/238789.got.cif
#   From: 2010.06.25/outbox.cif.g09.slc.cpg/sg15_120_cif.got.tgz:238789.got - 2010.06.28 07:06:18.
