data_PCOD8130100
_publ_section_title
;
Structure prediction by ZEFSAII (Michael W. Deem and Ramdas Pophale) SiO2 
 PCOD8130100
Probable space group: C 2/C
;
_chemical_formula_sum "Si O2"
_cell_formula_units_Z 64
_cell_length_a 29.734070
_cell_length_b 17.734471
_cell_length_c 14.585758
_cell_angle_alpha 90.000000
_cell_angle_beta 27.656995
_cell_angle_gamma 90.000000
_cell_volume 3570.142517
_symmetry_space_group_name_H-M "C 2/C"
_symmetry_group_IT_number 15
_symmetry_cell_setting 'monoclinic'
loop_
_space_group_symop_operation_xyz
x,y,z
-x,y,1/2-z
-x,-y,-z
x,-y,1/2+z
1/2+x,1/2+y,z
1/2-x,1/2+y,1/2-z
1/2-x,1/2-y,-z
1/2+x,1/2-y,1/2+z
loop_
_atom_site_type_symbol
_atom_site_label
_atom_site_fract_x
_atom_site_fract_y
_atom_site_fract_z
Si Si1 0.394666 0.208563 0.974993
Si Si2 0.392767 0.390987 0.288030
Si Si3 0.105029 0.862165 0.903759
Si Si4 0.269197 0.583497 0.653396
Si Si5 0.569462 0.562064 0.280116
Si Si6 0.255119 0.583350 0.201662
Si Si7 0.875731 0.147755 0.621627
Si Si8 0.763285 0.731180 0.870703
O O1 0.500000 0.182728 0.750000
O O2 0.338211 0.134253 0.110575
O O3 0.405922 0.267737 0.037848
O O4 0.338779 0.249754 0.993314
O O5 0.427010 0.474809 0.197629
O O6 0.310901 0.384818 0.512258
O O7 0.348405 0.350180 0.278513
O O8 0.493899 0.352993 0.137773
O O9 0.114411 0.889779 0.782087
O O10 0.167570 0.918149 0.854871
O O11 0.150850 0.779361 0.828850
O O12 0.372304 0.572552 0.418589
O O13 0.216779 0.502151 0.754412
O O14 0.284648 0.618153 0.726905
O O15 0.209218 0.643498 0.699418
O O16 0.462320 0.588939 0.450085
O O17 0.750000 0.750000 0.000000
#
# Coordination Sequence:
#
# PCOD8130100 Si02
#       8
#     8   8   8   8   8   8   8   8
#     4  10  22  36  56  78 102 140 187 227 268 304
#     4  10  20  30  50  80 112 141 167 204 275 345
#     4  10  18  30  50  78 111 137 172 216 268 318
#     4  10  18  31  51  75 109 138 176 222 265 309
#     4  10  17  28  49  82 108 135 166 214 276 330
#     4  10  21  35  50  75 108 148 173 217 262 325
#     4  10  18  30  51  79 107 135 171 217 271 325
#     4  10  19  33  54  84 104 134 180 228 269 306
#
# _framework density 17.926455000000001
#
# number of rings (size 3 to 8) (size 9 to 14) (size 15 to 20)
#    0.000    2.000    1.250    5.250    1.750    2.500 
#    0.000    0.000    0.000    5.250    0.000    0.000 
#    0.000    0.000    0.000    0.000    0.000    0.000 
#
# Total GULP energy -396745.309773 kJ/mol
# GULP energy per Si atom -12398.290930 kJ/mol
# Density = 1.788565 g / cm^3
# Si number density = 17.926455 Si / 1000 Ang^3
#
#
#
# Elastic Constant Matrix: (Units=GPa)
#
#
# Indices 1 2 3 4 5 6 
#
# 1 92.1684 42.8185 27.9169 0.0000 7.8090 0.0000
# 2 42.8185 118.6464 45.7691 0.0000 2.2358 0.0000
# 3 27.9169 45.7691 79.2211 0.0000 -1.3582 0.0000
# 4 0.0000 0.0000 0.0000 22.3283 0.0000 3.0952
# 5 7.8090 2.2358 -1.3582 0.0000 16.2967 0.0000
# 6 0.0000 0.0000 0.0000 3.0952 0.0000 26.2557
#
#
#
# Elastic Compliance Matrix: (Units=1/GPa)
#
#
# Indices 1 2 3 4 5 6 
#
# 1 0.014044 -0.003854 -0.002832 0.000000 -0.006437 0.000000
# 2 -0.003854 0.011970 -0.005562 0.000000 -0.000259 0.000000
# 3 -0.002832 -0.005562 0.016895 0.000000 0.003528 0.000000
# 4 0.000000 0.000000 0.000000 0.045530 0.000000 -0.005367
# 5 -0.006437 -0.000259 0.003528 0.000000 0.064776 0.000000
# 6 0.000000 0.000000 0.000000 -0.005367 0.000000 0.038720
#
#
# Mechanical properties :
#
#
# Convention : Reuss Voigt Hill
#
# Bulk Modulus (GPa) = 54.31434 58.11611 56.21523
# Shear Modulus (GPa) = 22.46509 24.54490 23.50500
#
# Velocity S-wave (km/s) = 3.54387 3.70428 3.62496
# Velocity P-wave (km/s) = 6.86364 7.12637 6.99624
#
# Compressibility (1/GPa) = 0.01841134
#
# Stress axis : x y z
#
# Youngs Moduli (GPa) = 71.20715 83.54433 59.19028
#
# Poissons Ratio (x) = 0.32200 0.16765
# Poissons Ratio (y) = 0.27445 0.32919
# Poissons Ratio (z) = 0.20169 0.46464
#
# Static dielectric constant tensor:
#      x y z
#    x 3.404700 0.000000 0.146810 
#    y 0.000000 3.506050 0.000000 
#    z 0.146810 0.000000 3.046550 
# 
# 
# High freq. dielectric constant tensor:
#      x y z
#    x 1.698360 0.000000 0.020320 
#    y 0.000000 1.693780 0.000000 
#    z 0.020320 0.000000 1.661820 
# 
# From -- ./inp_files/182756.got.cif
#   From: 2010.06.25/outbox.cif.g09.slc.cpg/sg15_92_cif.got.tgz:182756.got - 2010.06.28 07:06:18.
