data_PCOD8130922
_publ_section_title
;
Structure prediction by ZEFSAII (Michael W. Deem and Ramdas Pophale) SiO2 
 PCOD8130922
Probable space group: C 2/C
;
_chemical_formula_sum "Si O2"
_cell_formula_units_Z 56
_cell_length_a 4.932636
_cell_length_b 22.891564
_cell_length_c 20.380920
_cell_angle_alpha 90.000000
_cell_angle_beta 77.898146
_cell_angle_gamma 90.000000
_cell_volume 2250.183276
_symmetry_space_group_name_H-M "C 2/C"
_symmetry_group_IT_number 15
_symmetry_cell_setting 'monoclinic'
loop_
_space_group_symop_operation_xyz
x,y,z
-x,y,1/2-z
-x,-y,-z
x,-y,1/2+z
1/2+x,1/2+y,z
1/2-x,1/2+y,1/2-z
1/2-x,1/2-y,-z
1/2+x,1/2-y,1/2+z
loop_
_atom_site_type_symbol
_atom_site_label
_atom_site_fract_x
_atom_site_fract_y
_atom_site_fract_z
Si Si1 0.610637 0.658631 0.174666
Si Si2 0.861462 0.530765 0.069378
Si Si3 0.109561 0.418661 0.676195
Si Si4 0.393044 0.125200 0.976179
Si Si5 0.389291 0.321711 0.324615
Si Si6 0.829686 0.274589 0.394335
Si Si7 0.039545 0.922210 0.096635
O O1 0.500000 0.685040 0.250000
O O2 0.925731 0.638729 0.169657
O O3 0.595663 0.706150 0.116019
O O4 0.429013 0.601413 0.164854
O O5 0.070797 0.533800 0.120382
O O6 0.595015 0.491525 0.102334
O O7 0.779717 0.597916 0.051179
O O8 0.000000 0.500000 0.000000
O O9 0.000000 0.446591 0.750000
O O10 0.329327 0.195197 0.968256
O O11 0.720845 0.111674 0.957294
O O12 0.249885 0.087493 0.925414
O O13 0.500000 0.299557 0.250000
O O14 0.533607 0.283692 0.374887
O O15 0.464327 0.390217 0.332279
O O16 0.060553 0.312162 0.343713
#
# Coordination Sequence:
#
# PCOD8130922 Si02
#       7
#     8   8   8   8   8   8   8
#     4  10  20  37  58  82 117 159 192 230 288 347
#     4  10  21  41  64  83 111 155 194 238 294 343
#     4  10  23  40  59  87 118 149 195 241 280 343
#     4   9  19  34  55  83 111 141 189 237 277 336
#     4  10  18  30  50  82 116 148 189 237 282 341
#     4  10  19  33  55  83 115 150 190 234 286 342
#     4   9  19  33  52  80 111 146 187 231 283 338
#
# _framework density 24.886859999999999
#
# number of rings (size 3 to 8) (size 9 to 14) (size 15 to 20)
#    0.000    2.286    0.000    2.571    0.000    5.714 
#    0.000   10.714    0.000    0.000    0.000    0.000 
#    0.000    0.000    0.000    0.000    0.000    0.000 
#
# Total GULP energy -346949.917492 kJ/mol
# GULP energy per Si atom -12391.068482 kJ/mol
# Density = 2.483022 g / cm^3
# Si number density = 24.886860 Si / 1000 Ang^3
#
#
#
# Elastic Constant Matrix: (Units=GPa)
#
#
# Indices 1 2 3 4 5 6 
#
# 1 77.2982 -4.8859 0.6027 0.0000 5.5474 0.0000
# 2 -4.8859 79.6816 9.3218 0.0000 8.6713 0.0000
# 3 0.6027 9.3218 53.7575 0.0000 21.8811 0.0000
# 4 0.0000 0.0000 0.0000 7.8199 0.0000 20.4186
# 5 5.5474 8.6713 21.8811 0.0000 25.9393 0.0000
# 6 0.0000 0.0000 0.0000 20.4186 0.0000 16.1640
#
#
#
# Elastic Compliance Matrix: (Units=1/GPa)
#
#
# Indices 1 2 3 4 5 6 
#
# 1 0.013318 0.001131 0.001474 0.000000 -0.004469 0.000000
# 2 0.001131 0.013139 -0.000616 0.000000 -0.004114 0.000000
# 3 0.001474 -0.000616 0.028534 0.000000 -0.024179 0.000000
# 4 0.000000 0.000000 0.000000 -0.055638 0.000000 0.070283
# 5 -0.004469 -0.004114 -0.024179 0.000000 0.061279 0.000000
# 6 0.000000 0.000000 0.000000 0.070283 0.000000 -0.026917
#
#
# Mechanical properties :
#
#
# Convention : Reuss Voigt Hill
#
# Bulk Modulus (GPa) = 16.95876 24.53493 20.74684
# Shear Modulus (GPa) = 101.22562 23.69788 62.46175
#
# Velocity S-wave (km/s) = 6.38456 3.08916 5.01525
# Velocity P-wave (km/s) = 7.82172 4.75435 6.47237
#
# Compressibility (1/GPa) = 0.05896658
#
# Stress axis : x y z
#
# Youngs Moduli (GPa) = 75.08851 76.10868 35.04570
#
# Poissons Ratio (x) = -0.08605 -0.05165
# Poissons Ratio (y) = -0.08489 0.02161
# Poissons Ratio (z) = -0.11066 0.04692
#
# Static dielectric constant tensor:
#      x y z
#    x 4.304220 0.000000 0.093010 
#    y 0.000000 4.537120 0.000000 
#    z 0.093010 0.000000 4.570920 
# 
# 
# High freq. dielectric constant tensor:
#      x y z
#    x 1.996220 0.000000 0.003310 
#    y 0.000000 1.981210 0.000000 
#    z 0.003310 0.000000 1.971900 
# 
# From -- ./inp_files/227859.got.cif
#   From: 2010.06.25/outbox.cif.g09.slc.cpg/sg15_114_cif.got.tgz:227859.got - 2010.06.28 07:06:18.
