data_PCOD8130776
_publ_section_title
;
Structure prediction by ZEFSAII (Michael W. Deem and Ramdas Pophale) SiO2 
 PCOD8130776
Probable space group: C 2/C
;
_chemical_formula_sum "Si O2"
_cell_formula_units_Z 56
_cell_length_a 25.264961
_cell_length_b 9.886057
_cell_length_c 15.422240
_cell_angle_alpha 90.000000
_cell_angle_beta 138.596904
_cell_angle_gamma 90.000000
_cell_volume 2547.546568
_symmetry_space_group_name_H-M "C 2/C"
_symmetry_group_IT_number 15
_symmetry_cell_setting 'monoclinic'
loop_
_space_group_symop_operation_xyz
x,y,z
-x,y,1/2-z
-x,-y,-z
x,-y,1/2+z
1/2+x,1/2+y,z
1/2-x,1/2+y,1/2-z
1/2-x,1/2-y,-z
1/2+x,1/2-y,1/2+z
loop_
_atom_site_type_symbol
_atom_site_label
_atom_site_fract_x
_atom_site_fract_y
_atom_site_fract_z
Si Si1 0.279790 0.919201 0.953556
Si Si2 0.615187 0.511016 0.699795
Si Si3 0.991943 0.818507 0.145796
Si Si4 0.056925 0.710964 0.590194
Si Si5 0.443263 0.158870 0.601229
Si Si6 0.118799 0.059417 0.511662
Si Si7 0.783076 0.380236 0.150503
O O1 0.363316 0.934921 0.003398
O O2 0.298061 0.951526 0.076471
O O3 0.210442 0.018607 0.833836
O O4 0.244653 0.771272 0.899070
O O5 0.571802 0.597786 0.720359
O O6 0.577655 0.360527 0.652032
O O7 0.597159 0.582226 0.585993
O O8 0.000000 0.745432 0.250000
O O9 0.971373 0.711165 0.044890
O O10 0.919082 0.921965 0.069272
O O11 0.135535 0.617130 0.693651
O O12 0.987927 0.643632 0.564377
O O13 0.500000 0.116147 0.750000
O O14 0.414777 0.313547 0.583399
O O15 0.214233 0.040472 0.618017
#
# Coordination Sequence:
#
# PCOD8130776 Si02
#       7
#     8   8   8   8   8   8   8
#     4   9  18  26  43  71  98 126 155 194 239 292
#     4  10  18  30  43  71 102 124 159 194 241 290
#     4  11  19  29  48  72 100 130 158 195 240 288
#     4  10  18  30  45  73  99 122 164 198 237 285
#     4  11  17  27  47  73  98 124 154 197 244 283
#     4  10  18  28  46  68  99 130 149 193 246 284
#     4   9  17  28  43  69  97 125 156 193 245 282
#
# _framework density 21.981933000000001
#
# number of rings (size 3 to 8) (size 9 to 14) (size 15 to 20)
#    0.000    2.000    4.286    2.143    2.000    0.000 
#    0.000    0.000    0.000    1.714    3.714    0.000 
#    0.000    0.000    0.000    0.000    0.000    0.000 
#
# Total GULP energy -347133.922914 kJ/mol
# GULP energy per Si atom -12397.640104 kJ/mol
# Density = 2.193190 g / cm^3
# Si number density = 21.981933 Si / 1000 Ang^3
#
#
#
# Elastic Constant Matrix: (Units=GPa)
#
#
# Indices 1 2 3 4 5 6 
#
# 1 156.1348 8.2487 71.5011 0.0000 12.3178 0.0000
# 2 8.2487 6.5357 13.9086 0.0000 6.7019 0.0000
# 3 71.5011 13.9086 149.5722 0.0000 3.0740 0.0000
# 4 0.0000 0.0000 0.0000 13.6221 0.0000 6.7580
# 5 12.3178 6.7019 3.0740 0.0000 52.4721 0.0000
# 6 0.0000 0.0000 0.0000 6.7580 0.0000 12.9677
#
#
#
# Elastic Compliance Matrix: (Units=1/GPa)
#
#
# Indices 1 2 3 4 5 6 
#
# 1 0.008355 -0.000509 -0.003912 0.000000 -0.001667 0.000000
# 2 -0.000509 0.224406 -0.020061 0.000000 -0.027367 0.000000
# 3 -0.003912 -0.020061 0.010362 0.000000 0.002874 0.000000
# 4 0.000000 0.000000 0.000000 0.099008 0.000000 -0.051598
# 5 -0.001667 -0.027367 0.002874 0.000000 0.022776 0.000000
# 6 0.000000 0.000000 0.000000 -0.051598 0.000000 0.104005
#
#
# Mechanical properties :
#
#
# Convention : Reuss Voigt Hill
#
# Bulk Modulus (GPa) = 5.15047 55.50660 30.32853
# Shear Modulus (GPa) = 8.58225 30.38466 19.48345
#
# Velocity S-wave (km/s) = 1.97806 3.72190 2.98038
# Velocity P-wave (km/s) = 2.75047 6.61634 5.06661
#
# Compressibility (1/GPa) = 0.19415716
#
# Stress axis : x y z
#
# Youngs Moduli (GPa) = 119.69254 4.45620 96.50294
#
# Poissons Ratio (x) = 0.00227 0.37754
# Poissons Ratio (y) = 0.06097 1.93599
# Poissons Ratio (z) = 0.46827 0.08940
#
# Static dielectric constant tensor:
#      x y z
#    x 4.132030 0.000000 0.229260 
#    y 0.000000 3.190010 0.000000 
#    z 0.229260 0.000000 4.169150 
# 
# 
# High freq. dielectric constant tensor:
#      x y z
#    x 1.878440 0.000000 0.011280 
#    y 0.000000 1.791030 0.000000 
#    z 0.011280 0.000000 1.870420 
# 
# From -- ./inp_files/173492.got.cif
#   From: 2010.06.25/outbox.cif.g09.slc.cpg/sg15_87_cif.got.tgz:173492.got - 2010.06.28 07:06:18.
