data_PCOD8130032
_publ_section_title
;
Structure prediction by ZEFSAII (Michael W. Deem and Ramdas Pophale) SiO2 
 PCOD8130032
Probable space group: C 2/C
;
_chemical_formula_sum "Si O2"
_cell_formula_units_Z 48
_cell_length_a 21.772204
_cell_length_b 9.484386
_cell_length_c 19.874210
_cell_angle_alpha 90.000000
_cell_angle_beta 142.174988
_cell_angle_gamma 90.000000
_cell_volume 2516.751954
_symmetry_space_group_name_H-M "C 2/C"
_symmetry_group_IT_number 15
_symmetry_cell_setting 'monoclinic'
loop_
_space_group_symop_operation_xyz
x,y,z
-x,y,1/2-z
-x,-y,-z
x,-y,1/2+z
1/2+x,1/2+y,z
1/2-x,1/2+y,1/2-z
1/2-x,1/2-y,-z
1/2+x,1/2-y,1/2+z
loop_
_atom_site_type_symbol
_atom_site_label
_atom_site_fract_x
_atom_site_fract_y
_atom_site_fract_z
Si Si1 0.797986 0.342899 0.793342
Si Si2 0.002260 0.799325 0.448476
Si Si3 0.578236 0.983431 0.007427
Si Si4 0.537723 0.599609 0.439480
Si Si5 0.969731 0.348089 0.299738
Si Si6 0.258264 0.097908 0.671468
O O1 0.895607 0.274841 0.842846
O O2 0.726677 0.216121 0.756909
O O3 0.744150 0.442858 0.692342
O O4 0.821831 0.439659 0.880063
O O5 0.011330 0.844211 0.534095
O O6 0.089533 0.685474 0.505576
O O7 0.013613 0.934232 0.409761
O O8 0.540032 0.056252 0.906883
O O9 0.500000 0.000000 0.000000
O O10 0.487238 0.684196 0.334463
O O11 0.657199 0.627627 0.542550
O O12 0.854132 0.394180 0.206519
O O13 0.000000 0.374812 0.250000
#
# Coordination Sequence:
#
# PCOD8130032 Si02
#       6
#     8   8   8   8   8   8
#     4  10  20  31  59  95 118 146 199 262 299 346
#     4   9  17  34  61  80 119 146 194 255 313 329
#     4  10  16  38  57  82 115 153 203 249 296 342
#     4  10  21  36  56  93 119 156 196 263 298 354
#     4  12  24  40  59  84 128 175 199 240 312 374
#     4  11  22  35  60  95 120 154 209 250 307 358
#
# _framework density 19.072201
#
# number of rings (size 3 to 8) (size 9 to 14) (size 15 to 20)
#    0.000    1.667    8.333    0.000    9.333    0.667 
#    0.000    0.833    0.000    1.000    0.000    0.000 
#    0.000    0.000    0.000    0.000    0.000    0.000 
#
# Total GULP energy -297505.690759 kJ/mol
# GULP energy per Si atom -12396.070448 kJ/mol
# Density = 1.902879 g / cm^3
# Si number density = 19.072201 Si / 1000 Ang^3
#
#
#
# Elastic Constant Matrix: (Units=GPa)
#
#
# Indices 1 2 3 4 5 6 
#
# 1 73.4761 23.2544 19.5248 0.0000 -9.1201 0.0000
# 2 23.2544 130.5254 9.1367 0.0000 -8.5587 0.0000
# 3 19.5248 9.1367 44.0863 0.0000 -10.4414 0.0000
# 4 0.0000 0.0000 0.0000 29.4203 0.0000 3.9602
# 5 -9.1201 -8.5587 -10.4414 0.0000 25.5913 0.0000
# 6 0.0000 0.0000 0.0000 3.9602 0.0000 20.1752
#
#
#
# Elastic Compliance Matrix: (Units=1/GPa)
#
#
# Indices 1 2 3 4 5 6 
#
# 1 0.016284 -0.002306 -0.006135 0.000000 0.002529 0.000000
# 2 -0.002306 0.008209 -0.000248 0.000000 0.001822 0.000000
# 3 -0.006135 -0.000248 0.027579 0.000000 0.008983 0.000000
# 4 0.000000 0.000000 0.000000 0.034913 0.000000 -0.006853
# 5 0.002529 0.001822 0.008983 0.000000 0.044252 0.000000
# 6 0.000000 0.000000 0.000000 -0.006853 0.000000 0.050911
#
#
# Mechanical properties :
#
#
# Convention : Reuss Voigt Hill
#
# Bulk Modulus (GPa) = 28.82415 39.10219 33.96317
# Shear Modulus (GPa) = 23.68661 28.11548 25.90104
#
# Velocity S-wave (km/s) = 3.52795 3.84364 3.68917
# Velocity P-wave (km/s) = 5.63393 6.34388 5.99942
#
# Compressibility (1/GPa) = 0.03469313
#
# Stress axis : x y z
#
# Youngs Moduli (GPa) = 61.41083 121.81698 36.25971
#
# Poissons Ratio (x) = 0.28089 0.22245
# Poissons Ratio (y) = 0.14160 0.00901
# Poissons Ratio (z) = 0.37675 0.03027
#
# Static dielectric constant tensor:
#      x y z
#    x 3.066920 0.000000 0.226990 
#    y 0.000000 4.243520 0.000000 
#    z 0.226990 0.000000 3.340360 
# 
# 
# High freq. dielectric constant tensor:
#      x y z
#    x 1.687430 0.000000 0.030400 
#    y 0.000000 1.770350 0.000000 
#    z 0.030400 0.000000 1.716410 
# 
# From -- ./inp_files/214084.got.cif
#   From: 2010.06.25/outbox.cif.g09.slc.cpg/sg15_108_cif.got.tgz:214084.got - 2010.06.28 07:06:18.
