data_PCOD8130758
_publ_section_title
;
Structure prediction by ZEFSAII (Michael W. Deem and Ramdas Pophale) SiO2 
 PCOD8130758
Probable space group: C 2/C
;
_chemical_formula_sum "Si O2"
_cell_formula_units_Z 64
_cell_length_a 27.460372
_cell_length_b 17.158869
_cell_length_c 8.833242
_cell_angle_alpha 90.000000
_cell_angle_beta 94.524097
_cell_angle_gamma 90.000000
_cell_volume 4149.157657
_symmetry_space_group_name_H-M "C 2/C"
_symmetry_group_IT_number 15
_symmetry_cell_setting 'monoclinic'
loop_
_space_group_symop_operation_xyz
x,y,z
-x,y,1/2-z
-x,-y,-z
x,-y,1/2+z
1/2+x,1/2+y,z
1/2-x,1/2+y,1/2-z
1/2-x,1/2-y,-z
1/2+x,1/2-y,1/2+z
loop_
_atom_site_type_symbol
_atom_site_label
_atom_site_fract_x
_atom_site_fract_y
_atom_site_fract_z
Si Si1 0.665320 0.605842 0.150530
Si Si2 0.223300 0.443128 0.825548
Si Si3 0.717018 0.900421 0.164443
Si Si4 0.326438 0.653706 0.681367
Si Si5 0.901392 0.043577 0.842921
Si Si6 0.189826 0.746191 0.822936
Si Si7 0.534540 0.470245 0.877220
Si Si8 0.301443 0.203745 0.347257
O O1 0.718195 0.565275 0.176779
O O2 0.623385 0.542204 0.164334
O O3 0.658739 0.677706 0.266289
O O4 0.657530 0.644914 0.986351
O O5 0.206156 0.529401 0.777547
O O6 0.195415 0.385586 0.703533
O O7 0.205335 0.424971 0.990398
O O8 0.773487 0.881009 0.197014
O O9 0.684323 0.825596 0.203045
O O10 0.362565 0.609262 0.801241
O O11 0.328253 0.744358 0.726673
O O12 0.942956 0.039540 0.722547
O O13 0.921685 0.068894 0.015246
O O14 0.245511 0.771918 0.842293
O O15 0.172819 0.716516 0.983923
O O16 0.500000 0.419726 0.750000
O O17 0.500000 0.500000 0.000000
#
# Coordination Sequence:
#
# PCOD8130758 Si02
#       8
#     8   8   8   8   8   8   8   8
#     4  10  19  28  41  63  83 106 146 188 220 247
#     4  10  18  28  41  57  83 113 148 184 220 256
#     4  10  18  28  41  57  83 113 148 184 220 256
#     4  10  19  28  41  63  83 106 146 188 220 247
#     4  11  18  30  48  66  84 112 146 186 214 254
#     4   9  18  29  40  55  81 111 140 183 225 252
#     4   9  20  34  46  62  86 110 138 172 222 278
#     4   9  18  29  40  55  81 111 140 183 225 252
#
# _framework density 15.424818
#
# number of rings (size 3 to 8) (size 9 to 14) (size 15 to 20)
#    0.000    2.250    2.500    1.500    1.750    4.000 
#    0.000    0.000    0.000    0.000    0.000    0.000 
#    0.000    0.000    0.000    0.000    0.000   25.000 
#
# Total GULP energy -396453.526112 kJ/mol
# GULP energy per Si atom -12389.172691 kJ/mol
# Density = 1.538971 g / cm^3
# Si number density = 15.424818 Si / 1000 Ang^3
#
#
#
# Elastic Constant Matrix: (Units=GPa)
#
#
# Indices 1 2 3 4 5 6 
#
# 1 31.1474 11.8668 19.8482 0.0000 6.6235 0.0000
# 2 11.8668 67.1176 23.0822 0.0000 4.0050 0.0000
# 3 19.8482 23.0822 86.8771 0.0000 14.4787 0.0000
# 4 0.0000 0.0000 0.0000 26.4044 0.0000 -2.1650
# 5 6.6235 4.0050 14.4787 0.0000 24.7368 0.0000
# 6 0.0000 0.0000 0.0000 -2.1650 0.0000 2.4163
#
#
#
# Elastic Compliance Matrix: (Units=1/GPa)
#
#
# Indices 1 2 3 4 5 6 
#
# 1 0.039351 -0.004239 -0.006895 0.000000 -0.005815 0.000000
# 2 -0.004239 0.016854 -0.003595 0.000000 0.000510 0.000000
# 3 -0.006895 -0.003595 0.015110 0.000000 -0.006416 0.000000
# 4 0.000000 0.000000 0.000000 0.040875 0.000000 0.036624
# 5 -0.005815 0.000510 -0.006416 0.000000 0.045655 0.000000
# 6 0.000000 0.000000 0.000000 0.036624 0.000000 0.446673
#
#
# Mechanical properties :
#
#
# Convention : Reuss Voigt Hill
#
# Bulk Modulus (GPa) = 23.89039 32.74851 28.31945
# Shear Modulus (GPa) = 7.71690 19.40114 13.55902
#
# Velocity S-wave (km/s) = 2.23915 3.55038 2.96808
# Velocity P-wave (km/s) = 4.71242 6.17123 5.49049
#
# Compressibility (1/GPa) = 0.04185784
#
# Stress axis : x y z
#
# Youngs Moduli (GPa) = 25.41255 59.33135 66.18134
#
# Poissons Ratio (x) = 0.25152 0.45631
# Poissons Ratio (y) = 0.10773 0.23789
# Poissons Ratio (z) = 0.17521 0.21327
#
# Static dielectric constant tensor:
#      x y z
#    x 2.772030 0.000000 0.217960 
#    y 0.000000 1.313190 0.000000 
#    z 0.217960 0.000000 3.440970 
# 
# 
# High freq. dielectric constant tensor:
#      x y z
#    x 1.531870 0.000000 0.002200 
#    y 0.000000 1.573100 0.000000 
#    z 0.002200 0.000000 1.620460 
# 
# From -- ./inp_files/69721.got.cif
#   From: 2010.06.25/outbox.cif.g09.slc.cpg/sg15_35_cif.got.tgz:69721.got - 2010.06.28 07:06:18.
