data_PCOD8130770
_publ_section_title
;
Structure prediction by ZEFSAII (Michael W. Deem and Ramdas Pophale) SiO2 
 PCOD8130770
Probable space group: C 2/C
;
_chemical_formula_sum "Si O2"
_cell_formula_units_Z 48
_cell_length_a 5.130873
_cell_length_b 23.850449
_cell_length_c 24.810173
_cell_angle_alpha 90.000000
_cell_angle_beta 62.311381
_cell_angle_gamma 90.000000
_cell_volume 2688.433436
_symmetry_space_group_name_H-M "C 2/C"
_symmetry_group_IT_number 15
_symmetry_cell_setting 'monoclinic'
loop_
_space_group_symop_operation_xyz
x,y,z
-x,y,1/2-z
-x,-y,-z
x,-y,1/2+z
1/2+x,1/2+y,z
1/2-x,1/2+y,1/2-z
1/2-x,1/2-y,-z
1/2+x,1/2-y,1/2+z
loop_
_atom_site_type_symbol
_atom_site_label
_atom_site_fract_x
_atom_site_fract_y
_atom_site_fract_z
Si Si1 0.728974 0.882258 0.997073
Si Si2 0.670056 0.472063 0.435439
Si Si3 0.621799 0.633344 0.178726
Si Si4 0.924436 0.272342 0.033770
Si Si5 0.278741 0.320476 0.617686
Si Si6 0.250204 0.031382 0.096719
O O1 0.631145 0.932582 0.966184
O O2 0.022350 0.853741 0.945012
O O3 0.793822 0.906711 0.050954
O O4 0.451458 0.839868 0.030411
O O5 0.500000 0.500000 0.500000
O O6 0.484986 0.483534 0.398789
O O7 0.986334 0.500936 0.398042
O O8 0.500000 0.630723 0.250000
O O9 0.418332 0.675609 0.163724
O O10 0.594206 0.572223 0.154585
O O11 0.955817 0.653915 0.146234
O O12 0.770195 0.245579 0.101852
O O13 0.750000 0.250000 0.000000
O O14 0.250000 0.250000 0.000000
#
# Coordination Sequence:
#
# PCOD8130770 Si02
#       6
#     8   8   8   8   8   8
#     4   9  18  30  48  71 103 132 152 185 244 301
#     4  10  18  28  44  68  99 129 154 186 232 291
#     4  11  21  35  52  69  94 130 167 211 255 283
#     4  10  19  30  47  71 102 134 157 190 241 300
#     4  10  20  33  48  74 101 125 164 204 240 300
#     4  10  19  30  44  69  98 124 160 196 230 287
#
# _framework density 17.854263
#
# number of rings (size 3 to 8) (size 9 to 14) (size 15 to 20)
#    0.000    2.000    0.000    8.500    0.000    6.667 
#    0.000    0.000    0.000    0.000    0.000    4.667 
#    0.000    0.000    0.000    0.000    0.000    0.000 
#
# Total GULP energy -297428.219597 kJ/mol
# GULP energy per Si atom -12392.842483 kJ/mol
# Density = 1.781363 g / cm^3
# Si number density = 17.854263 Si / 1000 Ang^3
#
#
#
# Elastic Constant Matrix: (Units=GPa)
#
#
# Indices 1 2 3 4 5 6 
#
# 1 124.0337 33.6229 31.0667 0.0000 13.0461 0.0000
# 2 33.6229 91.2175 42.2149 0.0000 7.5937 0.0000
# 3 31.0667 42.2149 83.5642 0.0000 17.0687 0.0000
# 4 0.0000 0.0000 0.0000 15.5216 0.0000 -2.9589
# 5 13.0461 7.5937 17.0687 0.0000 21.1416 0.0000
# 6 0.0000 0.0000 0.0000 -2.9589 0.0000 0.4710
#
#
#
# Elastic Compliance Matrix: (Units=1/GPa)
#
#
# Indices 1 2 3 4 5 6 
#
# 1 0.009512 -0.002495 -0.001509 0.000000 -0.003755 0.000000
# 2 -0.002495 0.014975 -0.007009 0.000000 0.001820 0.000000
# 3 -0.001509 -0.007009 0.018398 0.000000 -0.011405 0.000000
# 4 0.000000 0.000000 0.000000 -0.326209 0.000000 -2.049191
# 5 -0.003755 0.001820 -0.011405 0.000000 0.058172 0.000000
# 6 0.000000 0.000000 0.000000 -2.049191 0.000000-10.749626
#
#
# Mechanical properties :
#
#
# Convention : Reuss Voigt Hill
#
# Bulk Modulus (GPa) = 47.94114 56.95825 52.44969
# Shear Modulus (GPa) = -0.45680 20.22091 9.88206
#
# Velocity S-wave (km/s) = -0.50636 3.36899 2.35518
# Velocity P-wave (km/s) = 5.15439 6.86327 6.06928
#
# Compressibility (1/GPa) = 0.02085891
#
# Stress axis : x y z
#
# Youngs Moduli (GPa) = 105.13540 66.77901 54.35338
#
# Poissons Ratio (x) = 0.16663 0.08199
# Poissons Ratio (y) = 0.26233 0.38096
# Poissons Ratio (z) = 0.15860 0.46805
#
# Static dielectric constant tensor:
#      x y z
#    x 3.671690 0.000000 -0.005080 
#    y 0.000000 4.301180 0.000000 
#    z -0.005080 0.000000 1.228360 
# 
# 
# High freq. dielectric constant tensor:
#      x y z
#    x 1.715290 0.000000 0.006480 
#    y 0.000000 1.682840 0.000000 
#    z 0.006480 0.000000 1.632580 
# 
# From -- ./inp_files/261516.got.cif
#   From: 2010.06.25/outbox.cif.g09.slc.cpg/sg15_131_cif.got.tgz:261516.got - 2010.06.28 07:06:18.
