data_PCOD8130927
_publ_section_title
;
Structure prediction by ZEFSAII (Michael W. Deem and Ramdas Pophale) SiO2 
 PCOD8130927
Probable space group: C 2/C
;
_chemical_formula_sum "Si O2"
_cell_formula_units_Z 56
_cell_length_a 21.874927
_cell_length_b 18.929009
_cell_length_c 9.129767
_cell_angle_alpha 90.000000
_cell_angle_beta 55.802681
_cell_angle_gamma 90.000000
_cell_volume 3126.769123
_symmetry_space_group_name_H-M "C 2/C"
_symmetry_group_IT_number 15
_symmetry_cell_setting 'monoclinic'
loop_
_space_group_symop_operation_xyz
x,y,z
-x,y,1/2-z
-x,-y,-z
x,-y,1/2+z
1/2+x,1/2+y,z
1/2-x,1/2+y,1/2-z
1/2-x,1/2-y,-z
1/2+x,1/2-y,1/2+z
loop_
_atom_site_type_symbol
_atom_site_label
_atom_site_fract_x
_atom_site_fract_y
_atom_site_fract_z
Si Si1 0.315082 0.001676 0.493298
Si Si2 0.146608 0.207379 0.485381
Si Si3 0.135860 0.730532 0.315350
Si Si4 0.745955 0.292758 0.357268
Si Si5 0.640198 0.906231 0.308600
Si Si6 0.021968 0.703683 0.059202
Si Si7 0.258345 0.904751 0.818122
O O1 0.372149 0.958315 0.312787
O O2 0.266435 0.950057 0.659757
O O3 0.362430 0.052520 0.534215
O O4 0.262662 0.047321 0.457365
O O5 0.148747 0.226289 0.651489
O O6 0.203851 0.260207 0.335807
O O7 0.065498 0.221694 0.525411
O O8 0.175365 0.127594 0.423891
O O9 0.161918 0.783463 0.411210
O O10 0.179407 0.656243 0.259926
O O11 0.048711 0.714879 0.449118
O O12 0.750000 0.250000 0.500000
O O13 0.777656 0.372080 0.331124
O O14 0.574518 0.849972 0.400784
O O15 0.000000 0.673533 0.250000
#
# Coordination Sequence:
#
# PCOD8130927 Si02
#       7
#     8   8   8   8   8   8   8
#     4  10  20  31  49  69  97 137 168 191 230 282
#     4   9  17  31  52  71  94 124 159 205 247 283
#     4  10  18  32  53  74  96 126 159 200 249 290
#     4  10  18  30  51  75  96 121 157 210 255 278
#     4  10  19  34  48  71 102 129 165 201 232 285
#     4   9  18  32  51  75  98 124 161 206 247 287
#     4  10  18  32  48  73  98 125 165 199 233 287
#
# _framework density 17.909859000000001
#
# number of rings (size 3 to 8) (size 9 to 14) (size 15 to 20)
#    0.000    2.286    0.000    6.857    0.000    0.000 
#    0.000   14.286    0.000    0.000    0.000   27.000 
#    0.000    0.000    0.000    0.000    0.000    0.000 
#
# Total GULP energy -346968.057454 kJ/mol
# GULP energy per Si atom -12391.716338 kJ/mol
# Density = 1.786910 g / cm^3
# Si number density = 17.909859 Si / 1000 Ang^3
#
#
#
# Elastic Constant Matrix: (Units=GPa)
#
#
# Indices 1 2 3 4 5 6 
#
# 1 122.0500 50.0962 48.2377 0.0000 -4.1329 0.0000
# 2 50.0962 57.9193 33.5569 0.0000 -16.1837 0.0000
# 3 48.2377 33.5569 71.9006 0.0000 5.4760 0.0000
# 4 0.0000 0.0000 0.0000 33.1779 0.0000 2.4553
# 5 -4.1329 -16.1837 5.4760 0.0000 22.7649 0.0000
# 6 0.0000 0.0000 0.0000 2.4553 0.0000 15.6547
#
#
#
# Elastic Compliance Matrix: (Units=1/GPa)
#
#
# Indices 1 2 3 4 5 6 
#
# 1 0.014227 -0.011275 -0.003941 0.000000 -0.004485 0.000000
# 2 -0.011275 0.046609 -0.016865 0.000000 0.035144 0.000000
# 3 -0.003941 -0.016865 0.025865 0.000000 -0.018927 0.000000
# 4 0.000000 0.000000 0.000000 0.030494 0.000000 -0.004783
# 5 -0.004485 0.035144 -0.018927 0.000000 0.072650 0.000000
# 6 0.000000 0.000000 0.000000 -0.004783 0.000000 0.064629
#
#
# Mechanical properties :
#
#
# Convention : Reuss Voigt Hill
#
# Bulk Modulus (GPa) = 44.36948 57.29463 50.83205
# Shear Modulus (GPa) = 15.33039 22.31810 18.82425
#
# Velocity S-wave (km/s) = 2.92888 3.53389 3.24551
# Velocity P-wave (km/s) = 6.02207 6.97934 6.51830
#
# Compressibility (1/GPa) = 0.02253801
#
# Stress axis : x y z
#
# Youngs Moduli (GPa) = 70.28835 21.45510 38.66276
#
# Poissons Ratio (x) = 0.24191 0.15237
# Poissons Ratio (y) = 0.79252 0.65205
# Poissons Ratio (z) = 0.27701 0.36184
#
# Static dielectric constant tensor:
#      x y z
#    x 3.532730 0.000000 0.046570 
#    y 0.000000 3.572250 0.000000 
#    z 0.046570 0.000000 3.321210 
# 
# 
# High freq. dielectric constant tensor:
#      x y z
#    x 1.678390 0.000000 0.019170 
#    y 0.000000 1.681380 0.000000 
#    z 0.019170 0.000000 1.693530 
# 
# From -- ./inp_files/50099.got.cif
#   From: 2010.06.25/outbox.cif.g09.slc.cpg/sg15_26_cif.got.tgz:50099.got - 2010.06.28 07:06:18.
