data_PCOD8130672
_publ_section_title
;
Structure prediction by ZEFSAII (Michael W. Deem and Ramdas Pophale) SiO2 
 PCOD8130672
Probable space group: C 2/C
;
_chemical_formula_sum "Si O2"
_cell_formula_units_Z 56
_cell_length_a 15.054226
_cell_length_b 11.137555
_cell_length_c 16.164928
_cell_angle_alpha 90.000000
_cell_angle_beta 85.927945
_cell_angle_gamma 90.000000
_cell_volume 2703.487219
_symmetry_space_group_name_H-M "C 2/C"
_symmetry_group_IT_number 15
_symmetry_cell_setting 'monoclinic'
loop_
_space_group_symop_operation_xyz
x,y,z
-x,y,1/2-z
-x,-y,-z
x,-y,1/2+z
1/2+x,1/2+y,z
1/2-x,1/2+y,1/2-z
1/2-x,1/2-y,-z
1/2+x,1/2-y,1/2+z
loop_
_atom_site_type_symbol
_atom_site_label
_atom_site_fract_x
_atom_site_fract_y
_atom_site_fract_z
Si Si1 0.627573 0.599020 0.423288
Si Si2 0.686847 0.485337 0.078094
Si Si3 0.958841 0.668417 0.528978
Si Si4 0.313202 0.208811 0.403106
Si Si5 0.598955 0.796722 0.763222
Si Si6 0.099742 0.012113 0.751788
Si Si7 0.878074 0.427422 0.570982
O O1 0.615822 0.509369 0.504280
O O2 0.552660 0.703907 0.423265
O O3 0.722430 0.655487 0.445317
O O4 0.639891 0.538772 0.334329
O O5 0.703518 0.349272 0.103819
O O6 0.647643 0.540703 0.166184
O O7 0.777673 0.552510 0.044578
O O8 0.899626 0.673646 0.450304
O O9 0.925172 0.556075 0.586310
O O10 0.062739 0.647541 0.499172
O O11 0.333498 0.155065 0.311060
O O12 0.500000 0.842116 0.750000
O O13 0.602267 0.653666 0.763498
O O14 0.631750 0.850717 0.846259
O O15 0.000000 0.965365 0.750000
#
# Coordination Sequence:
#
# PCOD8130672 Si02
#       7
#     8   8   8   8   8   8   8
#     4  11  20  39  64  85 119 166 201 245 309 365
#     4  10  20  37  64  92 118 152 204 258 297 360
#     4  10  20  33  61  88 119 153 197 245 307 374
#     4  10  17  36  60  87 114 158 204 239 301 372
#     4  10  20  35  57  82 115 156 205 251 293 353
#     4  10  24  41  60  84 115 161 213 245 293 371
#     4  11  19  35  58  90 121 147 193 262 297 357
#
# _framework density 20.713985999999998
#
# number of rings (size 3 to 8) (size 9 to 14) (size 15 to 20)
#    0.000    1.714    4.286    1.714    2.000    0.571 
#    0.000    1.429    6.286    0.000    0.000    0.000 
#    0.000    0.000    0.000    0.000    0.000    0.000 
#
# Total GULP energy -346963.731407 kJ/mol
# GULP energy per Si atom -12391.561836 kJ/mol
# Density = 2.066684 g / cm^3
# Si number density = 20.713986 Si / 1000 Ang^3
#
#
#
# Elastic Constant Matrix: (Units=GPa)
#
#
# Indices 1 2 3 4 5 6 
#
# 1 92.9319 31.9991 28.4041 0.0000 -16.5164 0.0000
# 2 31.9991 32.0184 17.3814 0.0000 -5.4750 0.0000
# 3 28.4041 17.3814 116.1739 0.0000 -19.6758 0.0000
# 4 0.0000 0.0000 0.0000 31.4431 0.0000 -1.6001
# 5 -16.5164 -5.4750 -19.6758 0.0000 33.1424 0.0000
# 6 0.0000 0.0000 0.0000 -1.6001 0.0000 26.5418
#
#
#
# Elastic Compliance Matrix: (Units=1/GPa)
#
#
# Indices 1 2 3 4 5 6 
#
# 1 0.017582 -0.016108 -0.000951 0.000000 0.005536 0.000000
# 2 -0.016108 0.049001 -0.003760 0.000000 -0.002165 0.000000
# 3 -0.000951 -0.003760 0.010248 0.000000 0.004989 0.000000
# 4 0.000000 0.000000 0.000000 0.031901 0.000000 0.001923
# 5 0.005536 -0.002165 0.004989 0.000000 0.035536 0.000000
# 6 0.000000 0.000000 0.000000 0.001923 0.000000 0.037792
#
#
# Mechanical properties :
#
#
# Convention : Reuss Voigt Hill
#
# Bulk Modulus (GPa) = 28.41453 44.07703 36.24578
# Shear Modulus (GPa) = 21.23784 29.11477 25.17631
#
# Velocity S-wave (km/s) = 3.20549 3.75315 3.49008
# Velocity P-wave (km/s) = 5.23904 6.33297 5.81180
#
# Compressibility (1/GPa) = 0.03519326
#
# Stress axis : x y z
#
# Youngs Moduli (GPa) = 56.87747 20.40762 97.58273
#
# Poissons Ratio (x) = 0.32873 0.09280
# Poissons Ratio (y) = 0.91619 0.36687
# Poissons Ratio (z) = 0.05409 0.07672
#
# Static dielectric constant tensor:
#      x y z
#    x 3.809300 0.000000 -0.369880 
#    y 0.000000 3.599830 0.000000 
#    z -0.369880 0.000000 3.923690 
# 
# 
# High freq. dielectric constant tensor:
#      x y z
#    x 1.805210 0.000000 -0.025200 
#    y 0.000000 1.784720 0.000000 
#    z -0.025200 0.000000 1.816110 
# 
# From -- ./inp_files/152623.got.cif
#   From: 2010.06.25/outbox.cif.g09.slc.cpg/sg15_77_cif.got.tgz:152623.got - 2010.06.28 07:06:18.
