data_PCOD8130888
_publ_section_title
;
Structure prediction by ZEFSAII (Michael W. Deem and Ramdas Pophale) SiO2 
 PCOD8130888
Probable space group: C 2/C
;
_chemical_formula_sum "Si O2"
_cell_formula_units_Z 56
_cell_length_a 18.030189
_cell_length_b 19.154854
_cell_length_c 22.798170
_cell_angle_alpha 90.000000
_cell_angle_beta 22.869202
_cell_angle_gamma 90.000000
_cell_volume 3059.947809
_symmetry_space_group_name_H-M "C 2/C"
_symmetry_group_IT_number 15
_symmetry_cell_setting 'monoclinic'
loop_
_space_group_symop_operation_xyz
x,y,z
-x,y,1/2-z
-x,-y,-z
x,-y,1/2+z
1/2+x,1/2+y,z
1/2-x,1/2+y,1/2-z
1/2-x,1/2-y,-z
1/2+x,1/2-y,1/2+z
loop_
_atom_site_type_symbol
_atom_site_label
_atom_site_fract_x
_atom_site_fract_y
_atom_site_fract_z
Si Si1 0.360117 0.340020 0.896946
Si Si2 0.449117 0.661032 0.934419
Si Si3 0.030993 0.445646 0.159705
Si Si4 0.135050 0.592641 0.095825
Si Si5 0.577060 0.777706 0.756677
Si Si6 0.254871 0.156887 0.802507
Si Si7 0.412397 0.259998 0.966948
O O1 0.500000 0.380006 0.750000
O O2 0.472291 0.317086 0.874109
O O3 0.194156 0.390145 0.036040
O O4 0.281397 0.273864 0.917394
O O5 0.567358 0.715624 0.809577
O O6 0.606721 0.627338 0.862424
O O7 0.352352 0.603217 0.961608
O O8 0.293878 0.697246 0.089951
O O9 0.101940 0.521231 0.082595
O O10 0.000000 0.459527 0.250000
O O11 0.843865 0.413942 0.265184
O O12 0.000000 0.593221 0.250000
O O13 0.061221 0.661245 0.114767
O O14 0.500000 0.751513 0.750000
O O15 0.416616 0.203851 0.652338
O O16 0.139244 0.202919 0.934330
#
# Coordination Sequence:
#
# PCOD8130888 Si02
#       7
#     8   8   8   8   8   8   8
#     4  10  18  30  48  70  99 135 182 213 236 297
#     4  10  19  33  55  82 108 129 171 218 270 302
#     4  10  19  33  52  73 102 143 180 204 250 312
#     4   8  17  34  53  75 103 133 179 216 245 308
#     4   9  17  34  57  81 103 132 174 218 255 309
#     4  11  20  31  51  80 109 137 165 219 267 303
#     4  10  19  29  47  74 103 134 172 212 253 299
#
# _framework density 18.300965000000001
#
# number of rings (size 3 to 8) (size 9 to 14) (size 15 to 20)
#    0.000    2.571    2.857    2.571    0.000    0.000 
#    0.000    8.571    0.000    0.000    0.000    8.000 
#    0.000    0.000    0.000    0.000    0.000    0.000 
#
# Total GULP energy -346881.174860 kJ/mol
# GULP energy per Si atom -12388.613388 kJ/mol
# Density = 1.825931 g / cm^3
# Si number density = 18.300965 Si / 1000 Ang^3
#
#
#
# Elastic Constant Matrix: (Units=GPa)
#
#
# Indices 1 2 3 4 5 6 
#
# 1 69.3551 37.7128 29.2080 0.0044 -20.7395 0.0044
# 2 37.7128 79.9847 14.7911 0.0728 -6.0195 0.0050
# 3 29.2080 14.7911 62.0896 0.2040 -15.4156 0.0285
# 4 0.0044 0.0728 0.2040 46.3034 0.0095 2.1345
# 5 -20.7395 -6.0195 -15.4156 0.0095 26.4161 0.0181
# 6 0.0044 0.0050 0.0285 2.1345 0.0181 13.8053
#
#
#
# Elastic Compliance Matrix: (Units=1/GPa)
#
#
# Indices 1 2 3 4 5 6 
#
# 1 0.027581 -0.010622 -0.006629 0.000041 0.015365 -0.000018
# 2 -0.010622 0.017211 -0.000234 -0.000024 -0.004554 0.000007
# 3 -0.006629 -0.000234 0.021021 -0.000091 0.007009 -0.000036
# 4 0.000041 -0.000024 -0.000091 0.021752 -0.000032 -0.003363
# 5 0.015365 -0.004554 0.007009 -0.000032 0.052971 -0.000082
# 6 -0.000018 0.000007 -0.000036 -0.003363 -0.000082 0.072956
#
#
# Mechanical properties :
#
#
# Convention : Reuss Voigt Hill
#
# Bulk Modulus (GPa) = 32.42356 41.65038 37.03697
# Shear Modulus (GPa) = 19.32408 25.95277 22.63843
#
# Velocity S-wave (km/s) = 3.25299 3.76986 3.52093
# Velocity P-wave (km/s) = 5.64488 6.46198 6.06720
#
# Compressibility (1/GPa) = 0.03084177
#
# Stress axis : x y z
#
# Youngs Moduli (GPa) = 36.25671 58.10126 47.57251
#
# Poissons Ratio (x) = 0.61717 0.31538
# Poissons Ratio (y) = 0.38513 0.01112
# Poissons Ratio (z) = 0.24036 0.01359
#
# Static dielectric constant tensor:
#      x y z
#    x 3.644750 0.000150 -0.320760 
#    y 0.000150 3.899360 -0.000020 
#    z -0.320760 -0.000020 3.488540 
# 
# 
# High freq. dielectric constant tensor:
#      x y z
#    x 1.686220 0.000000 -0.005110 
#    y 0.000000 1.689450 0.000010 
#    z -0.005110 0.000010 1.710290 
# 
# From -- ./inp_files/278018.got.cif
#   From: 2010.06.25/outbox.cif.g09.slc.cpg/sg15_140_cif.got.tgz:278018.got - 2010.06.28 07:06:18.
