data_PCOD8130491
_publ_section_title
;
Structure prediction by ZEFSAII (Michael W. Deem and Ramdas Pophale) SiO2 
 PCOD8130491
Probable space group: C 2/C
;
_chemical_formula_sum "Si O2"
_cell_formula_units_Z 56
_cell_length_a 19.641221
_cell_length_b 9.238138
_cell_length_c 24.205578
_cell_angle_alpha 90.000000
_cell_angle_beta 43.518597
_cell_angle_gamma 90.000000
_cell_volume 3024.329352
_symmetry_space_group_name_H-M "C 2/C"
_symmetry_group_IT_number 15
_symmetry_cell_setting 'monoclinic'
loop_
_space_group_symop_operation_xyz
x,y,z
-x,y,1/2-z
-x,-y,-z
x,-y,1/2+z
1/2+x,1/2+y,z
1/2-x,1/2+y,1/2-z
1/2-x,1/2-y,-z
1/2+x,1/2-y,1/2+z
loop_
_atom_site_type_symbol
_atom_site_label
_atom_site_fract_x
_atom_site_fract_y
_atom_site_fract_z
Si Si1 0.499692 0.971445 0.184247
Si Si2 0.298814 0.584615 0.391312
Si Si3 0.292881 0.392603 0.062835
Si Si4 0.671894 0.588120 0.250753
Si Si5 0.194402 0.402056 0.536174
Si Si6 0.544864 0.652408 0.115443
Si Si7 0.284169 0.078501 0.777219
O O1 0.500000 0.964813 0.250000
O O2 0.533887 0.817898 0.140050
O O3 0.387903 0.001959 0.229770
O O4 0.575090 0.096976 0.117464
O O5 0.275590 0.753878 0.406192
O O6 0.314685 0.532601 0.319703
O O7 0.211412 0.489147 0.469136
O O8 0.396199 0.564769 0.371726
O O9 0.243162 0.521779 0.059504
O O10 0.293876 0.438484 0.126458
O O11 0.401414 0.357556 0.975637
O O12 0.557557 0.569733 0.333255
O O13 0.701681 0.753053 0.242365
O O14 0.739495 0.489007 0.248761
O O15 0.250000 0.250000 0.500000
#
# Coordination Sequence:
#
# PCOD8130491 Si02
#       7
#     8   8   8   8   8   8   8
#     4  11  18  37  63  85 112 154 199 228 291 357
#     4  10  18  37  61  82 114 145 197 237 278 345
#     4  10  18  36  62  86 113 147 191 244 283 344
#     4  10  22  37  56  82 116 157 195 237 283 345
#     4  11  21  34  56  94 118 141 182 248 301 335
#     4  10  17  33  65  89 104 146 201 242 277 341
#     4  10  22  38  60  81 116 158 195 237 287 342
#
# _framework density 18.516501999999999
#
# number of rings (size 3 to 8) (size 9 to 14) (size 15 to 20)
#    0.000    1.714    4.286    3.000    0.000    1.714 
#    5.143    0.714    0.000    0.000    0.000    0.000 
#    0.000    0.000    0.000    0.000    0.000    0.000 
#
# Total GULP energy -347100.636702 kJ/mol
# GULP energy per Si atom -12396.451311 kJ/mol
# Density = 1.847436 g / cm^3
# Si number density = 18.516502 Si / 1000 Ang^3
#
#
#
# Elastic Constant Matrix: (Units=GPa)
#
#
# Indices 1 2 3 4 5 6 
#
# 1 103.1184 22.3826 66.3607 0.0000 0.7745 -0.0001
# 2 22.3826 53.4048 34.1390 -0.0001 5.0598 -0.0003
# 3 66.3607 34.1390 156.3447 0.0000 -1.3841 0.0000
# 4 0.0000 -0.0001 0.0000 23.2491 0.0000 1.2545
# 5 0.7745 5.0598 -1.3841 0.0000 24.0937 0.0000
# 6 -0.0001 -0.0003 0.0000 1.2545 0.0000 27.4363
#
#
#
# Elastic Compliance Matrix: (Units=1/GPa)
#
#
# Indices 1 2 3 4 5 6 
#
# 1 0.013589 -0.002304 -0.005267 0.000000 -0.000255 0.000000
# 2 -0.002304 0.022734 -0.004030 0.000000 -0.004932 0.000000
# 3 -0.005267 -0.004030 0.009526 0.000000 0.001563 0.000000
# 4 0.000000 0.000000 0.000000 0.043119 0.000000 -0.001972
# 5 -0.000255 -0.004932 0.001563 0.000000 0.042638 0.000000
# 6 0.000000 0.000000 0.000000 -0.001972 0.000000 0.036538
#
#
# Mechanical properties :
#
#
# Convention : Reuss Voigt Hill
#
# Bulk Modulus (GPa) = 44.15689 62.07026 53.11358
# Shear Modulus (GPa) = 25.13891 27.62152 26.38021
#
# Velocity S-wave (km/s) = 3.68863 3.86648 3.77860
# Velocity P-wave (km/s) = 6.48385 7.31623 6.91258
#
# Compressibility (1/GPa) = 0.02264652
#
# Stress axis : x y z
#
# Youngs Moduli (GPa) = 73.58770 43.98724 104.98136
#
# Poissons Ratio (x) = 0.10136 0.55295
# Poissons Ratio (y) = 0.16956 0.42305
# Poissons Ratio (z) = 0.38759 0.17726
#
# Static dielectric constant tensor:
#      x y z
#    x 3.265310 0.000000 -0.065610 
#    y 0.000000 3.172920 0.000000 
#    z -0.065610 0.000000 3.965400 
# 
# 
# High freq. dielectric constant tensor:
#      x y z
#    x 1.699810 0.000000 -0.000550 
#    y 0.000000 1.692160 0.000000 
#    z -0.000550 0.000000 1.741180 
# 
# From -- ./inp_files/213344.got.cif
#   From: 2010.06.25/outbox.cif.g09.slc.cpg/sg15_107_cif.got.tgz:213344.got - 2010.06.28 07:06:18.
