data_PCOD8130085
_publ_section_title
;
Structure prediction by ZEFSAII (Michael W. Deem and Ramdas Pophale) SiO2 
 PCOD8130085
Probable space group: C 2/C
;
_chemical_formula_sum "Si O2"
_cell_formula_units_Z 48
_cell_length_a 19.496381
_cell_length_b 19.553850
_cell_length_c 9.155191
_cell_angle_alpha 90.000000
_cell_angle_beta 127.308340
_cell_angle_gamma 90.000000
_cell_volume 2776.075240
_symmetry_space_group_name_H-M "C 2/C"
_symmetry_group_IT_number 15
_symmetry_cell_setting 'monoclinic'
loop_
_space_group_symop_operation_xyz
x,y,z
-x,y,1/2-z
-x,-y,-z
x,-y,1/2+z
1/2+x,1/2+y,z
1/2-x,1/2+y,1/2-z
1/2-x,1/2-y,-z
1/2+x,1/2-y,1/2+z
loop_
_atom_site_type_symbol
_atom_site_label
_atom_site_fract_x
_atom_site_fract_y
_atom_site_fract_z
Si Si1 0.500000 0.027380 0.750000
Si Si2 0.919904 0.418816 0.855794
Si Si3 0.079758 0.819544 0.439736
Si Si4 0.363740 0.516277 0.805467
Si Si5 0.013969 0.897822 0.610492
Si Si6 0.721480 0.422286 0.564964
Si Si7 0.000000 0.311237 0.750000
O O1 0.448356 0.071936 0.562347
O O2 0.435783 0.982938 0.768333
O O3 0.818854 0.404678 0.729486
O O4 0.969819 0.354851 0.850066
O O5 0.061268 0.837463 0.583861
O O6 0.170409 0.850598 0.506768
O O7 0.000000 0.855526 0.250000
O O8 0.078290 0.737605 0.408496
O O9 0.425195 0.464407 0.796728
O O10 0.319073 0.478136 0.880841
O O11 0.286819 0.545624 0.606465
O O12 0.420969 0.580763 0.927950
O O13 0.000000 0.865181 0.750000
#
# Coordination Sequence:
#
# PCOD8130085 Si02
#       7
#     4   8   8   8   8   8   4
#     4   9  20  40  58  84 104 125 170 218 274 333
#     4  10  20  36  62  79 102 134 169 219 273 305
#     4   9  19  34  49  73 109 140 183 202 244 311
#     4  10  18  26  44  77 112 136 171 205 254 313
#     4  10  17  28  46  70 107 155 168 194 255 308
#     4  11  19  30  52  82 107 138 175 220 250 310
#     4   9  20  40  54  74  98 149 176 214 260 307
#
# _framework density 17.290597000000002
#
# number of rings (size 3 to 8) (size 9 to 14) (size 15 to 20)
#    0.500    1.667    3.333    1.000    0.000    0.667 
#    1.500    0.000    0.000    1.000    0.000    0.000 
#    0.000    0.000    0.000    0.000    0.000    0.000 
#
# Total GULP energy -297423.832043 kJ/mol
# GULP energy per Si atom -12392.659668 kJ/mol
# Density = 1.725124 g / cm^3
# Si number density = 17.290597 Si / 1000 Ang^3
#
#
#
# Elastic Constant Matrix: (Units=GPa)
#
#
# Indices 1 2 3 4 5 6 
#
# 1 69.5821 27.5748 43.6938 0.0000 6.6246 0.0000
# 2 27.5748 86.5087 44.9803 0.0000 -1.2129 0.0000
# 3 43.6938 44.9803 116.3662 0.0000 -0.4986 0.0000
# 4 0.0000 0.0000 0.0000 13.0494 0.0000 -2.5023
# 5 6.6246 -1.2129 -0.4986 0.0000 37.5136 0.0000
# 6 0.0000 0.0000 0.0000 -2.5023 0.0000 10.9514
#
#
#
# Elastic Compliance Matrix: (Units=1/GPa)
#
#
# Indices 1 2 3 4 5 6 
#
# 1 0.019909 -0.003132 -0.006281 0.000000 -0.003701 0.000000
# 2 -0.003132 0.014966 -0.004605 0.000000 0.000976 0.000000
# 3 -0.006281 -0.004605 0.012737 0.000000 0.001130 0.000000
# 4 0.000000 0.000000 0.000000 0.080143 0.000000 0.018312
# 5 -0.003701 0.000976 0.001130 0.000000 0.027357 0.000000
# 6 0.000000 0.000000 0.000000 0.018312 0.000000 0.095497
#
#
# Mechanical properties :
#
#
# Convention : Reuss Voigt Hill
#
# Bulk Modulus (GPa) = 51.08208 56.10608 53.59408
# Shear Modulus (GPa) = 17.53345 22.71675 20.12510
#
# Velocity S-wave (km/s) = 3.18786 3.62860 3.41535
# Velocity P-wave (km/s) = 6.56943 7.07637 6.82760
#
# Compressibility (1/GPa) = 0.01957634
#
# Stress axis : x y z
#
# Youngs Moduli (GPa) = 50.22850 66.81905 78.51419
#
# Poissons Ratio (x) = 0.20930 0.49312
# Poissons Ratio (y) = 0.15733 0.36153
# Poissons Ratio (z) = 0.31547 0.30767
#
# Static dielectric constant tensor:
#      x y z
#    x 3.146200 0.000000 -0.087310 
#    y 0.000000 2.941990 0.000000 
#    z -0.087310 0.000000 3.214340 
# 
# 
# High freq. dielectric constant tensor:
#      x y z
#    x 1.665140 0.000000 -0.012390 
#    y 0.000000 1.640080 0.000000 
#    z -0.012390 0.000000 1.665950 
# 
# From -- ./inp_files/49873.got.cif
#   From: 2010.06.25/outbox.cif.g09.slc.cpg/sg15_25_cif.got.tgz:49873.got - 2010.06.28 07:06:18.
