data_PCOD8130353
_publ_section_title
;
Structure prediction by ZEFSAII (Michael W. Deem and Ramdas Pophale) SiO2 
 PCOD8130353
Probable space group: C 2/C
;
_chemical_formula_sum "Si O2"
_cell_formula_units_Z 56
_cell_length_a 20.504109
_cell_length_b 11.228777
_cell_length_c 13.053068
_cell_angle_alpha 90.000000
_cell_angle_beta 94.739739
_cell_angle_gamma 90.000000
_cell_volume 2995.009915
_symmetry_space_group_name_H-M "C 2/C"
_symmetry_group_IT_number 15
_symmetry_cell_setting 'monoclinic'
loop_
_space_group_symop_operation_xyz
x,y,z
-x,y,1/2-z
-x,-y,-z
x,-y,1/2+z
1/2+x,1/2+y,z
1/2-x,1/2+y,1/2-z
1/2-x,1/2-y,-z
1/2+x,1/2-y,1/2+z
loop_
_atom_site_type_symbol
_atom_site_label
_atom_site_fract_x
_atom_site_fract_y
_atom_site_fract_z
Si Si1 0.850031 0.297556 0.262562
Si Si2 0.821790 0.960698 0.105539
Si Si3 0.206466 0.236265 0.768082
Si Si4 0.181198 0.463301 0.650964
Si Si5 0.350201 0.580323 0.910955
Si Si6 0.174766 0.295512 0.475350
Si Si7 0.575242 0.568096 0.234465
O O1 0.783064 0.237815 0.294395
O O2 0.862363 0.422741 0.322891
O O3 0.844533 0.324376 0.141808
O O4 0.907952 0.204633 0.294083
O O5 0.826276 0.818862 0.132656
O O6 0.757817 0.006538 0.156939
O O7 0.883241 0.031819 0.160129
O O8 0.817113 0.981742 0.982610
O O9 0.170105 0.357904 0.732847
O O10 0.200854 0.134476 0.678014
O O11 0.160390 0.416007 0.536546
O O12 0.410422 0.519560 0.859446
O O13 0.372267 0.690250 0.986871
O O14 0.250000 0.250000 0.500000
O O15 0.500000 0.555992 0.250000
#
# Coordination Sequence:
#
# PCOD8130353 Si02
#       7
#     8   8   8   8   8   8   8
#     4  11  19  33  53  76 112 142 172 214 267 319
#     4  10  17  32  52  78 107 135 167 218 273 308
#     4   9  17  29  53  80 108 129 168 216 270 320
#     4  10  18  31  53  82 108 140 170 214 268 327
#     4  10  18  33  56  78 109 131 178 220 266 323
#     4  11  16  32  55  81 109 141 169 210 282 331
#     4  11  23  36  52  77 107 144 183 219 257 309
#
# _framework density 18.697768
#
# number of rings (size 3 to 8) (size 9 to 14) (size 15 to 20)
#    0.000    1.714    7.143    0.000    0.000    0.571 
#    2.571    1.429    0.000    8.571    0.000    0.000 
#    0.000    0.000    0.000    0.000    0.000    0.000 
#
# Total GULP energy -346931.346938 kJ/mol
# GULP energy per Si atom -12390.405248 kJ/mol
# Density = 1.865521 g / cm^3
# Si number density = 18.697768 Si / 1000 Ang^3
#
#
#
# Elastic Constant Matrix: (Units=GPa)
#
#
# Indices 1 2 3 4 5 6 
#
# 1 63.8603 37.6571 24.1481 0.0000 -15.9198 0.0000
# 2 37.6571 102.5482 37.1138 0.0000 -18.9717 0.0000
# 3 24.1481 37.1138 72.0687 0.0000 -14.3759 0.0000
# 4 0.0000 0.0000 0.0000 41.1778 0.0000 -3.8877
# 5 -15.9198 -18.9717 -14.3759 0.0000 16.1947 0.0000
# 6 0.0000 0.0000 0.0000 -3.8877 0.0000 17.6115
#
#
#
# Elastic Compliance Matrix: (Units=1/GPa)
#
#
# Indices 1 2 3 4 5 6 
#
# 1 0.023143 -0.004914 -0.002229 0.000000 0.015015 0.000000
# 2 -0.004914 0.014669 -0.004184 0.000000 0.008639 0.000000
# 3 -0.002229 -0.004184 0.018668 0.000000 0.009479 0.000000
# 4 0.000000 0.000000 0.000000 0.024802 0.000000 0.005475
# 5 0.015015 0.008639 0.009479 0.000000 0.095043 0.000000
# 6 0.000000 0.000000 0.000000 0.005475 0.000000 0.057990
#
#
# Mechanical properties :
#
#
# Convention : Reuss Voigt Hill
#
# Bulk Modulus (GPa) = 29.56360 48.47945 39.02153
# Shear Modulus (GPa) = 18.63986 24.30069 21.47028
#
# Velocity S-wave (km/s) = 3.16080 3.60899 3.39230
# Velocity P-wave (km/s) = 5.40060 6.58412 6.02151
#
# Compressibility (1/GPa) = 0.03382538
#
# Stress axis : x y z
#
# Youngs Moduli (GPa) = 43.21030 68.17311 53.56759
#
# Poissons Ratio (x) = 0.33499 0.11939
# Poissons Ratio (y) = 0.21233 0.22414
# Poissons Ratio (z) = 0.09631 0.28525
#
# Static dielectric constant tensor:
#      x y z
#    x 2.816140 0.000000 -0.090390 
#    y 0.000000 3.819870 0.000000 
#    z -0.090390 0.000000 3.707820 
# 
# 
# High freq. dielectric constant tensor:
#      x y z
#    x 1.649350 0.000000 -0.003870 
#    y 0.000000 1.734760 0.000000 
#    z -0.003870 0.000000 1.732420 
# 
# From -- ./inp_files/110990.got.cif
#   From: 2010.06.25/outbox.cif.g09.slc.cpg/sg15_56_cif.got.tgz:110990.got - 2010.06.28 07:06:18.
