data_PCOD8130560
_publ_section_title
;
Structure prediction by ZEFSAII (Michael W. Deem and Ramdas Pophale) SiO2 
 PCOD8130560
Probable space group: C 2/C
;
_chemical_formula_sum "Si O2"
_cell_formula_units_Z 60
_cell_length_a 13.664474
_cell_length_b 12.316834
_cell_length_c 21.675297
_cell_angle_alpha 90.000000
_cell_angle_beta 56.431693
_cell_angle_gamma 90.000000
_cell_volume 3039.628537
_symmetry_space_group_name_H-M "C 2/C"
_symmetry_group_IT_number 15
_symmetry_cell_setting 'monoclinic'
loop_
_space_group_symop_operation_xyz
x,y,z
-x,y,1/2-z
-x,-y,-z
x,-y,1/2+z
1/2+x,1/2+y,z
1/2-x,1/2+y,1/2-z
1/2-x,1/2-y,-z
1/2+x,1/2-y,1/2+z
loop_
_atom_site_type_symbol
_atom_site_label
_atom_site_fract_x
_atom_site_fract_y
_atom_site_fract_z
Si Si1 0.917325 0.545674 0.474062
Si Si2 0.590407 0.780731 0.880159
Si Si3 0.682036 0.585289 0.193734
Si Si4 0.900721 0.664206 0.904617
Si Si5 0.000000 0.743890 0.750000
Si Si6 0.848495 0.990196 0.423681
Si Si7 0.365355 0.671784 0.512145
Si Si8 0.558546 0.618617 0.792845
O O1 0.913965 0.458526 0.420960
O O2 0.780203 0.565372 0.539955
O O3 0.000000 0.500000 0.500000
O O4 0.965095 0.658976 0.429958
O O5 0.682183 0.881069 0.852773
O O6 0.593917 0.686843 0.931492
O O7 0.617960 0.722201 0.805108
O O8 0.603654 0.684726 0.244013
O O9 0.640293 0.573126 0.137389
O O10 0.652210 0.478124 0.245625
O O11 0.769650 0.707086 0.938676
O O12 0.966798 0.666196 0.817320
O O13 0.945319 0.746171 0.942906
O O14 0.955629 0.907589 0.378173
O O15 0.870496 0.050274 0.481723
O O16 0.500000 0.657619 0.750000
#
# Coordination Sequence:
#
# PCOD8130560 Si02
#       8
#     8   8   8   8   4   8   8   8
#     4  11  21  36  59  87 120 158 201 253 300 353
#     4  12  23  38  61  92 119 154 207 254 298 360
#     4  11  19  37  63  86 115 158 201 242 297 367
#     4  10  19  32  56  90 121 147 192 252 308 343
#     4  12  18  34  62  92 114 158 200 250 304 364
#     4  10  19  39  62  84 119 160 199 243 305 363
#     4  10  17  34  60  87 118 150 193 256 297 347
#     4  10  24  44  60  82 126 172 197 239 307 375
#
# _framework density 19.739253999999999
#
# number of rings (size 3 to 8) (size 9 to 14) (size 15 to 20)
#    0.000    1.333    7.333    0.800    0.000    2.133 
#    1.200    1.333    0.000    0.000    0.000    0.000 
#    0.000    0.000    0.000    0.000    0.000    0.000 
#
# Total GULP energy -371702.531398 kJ/mol
# GULP energy per Si atom -12390.084380 kJ/mol
# Density = 1.969433 g / cm^3
# Si number density = 19.739254 Si / 1000 Ang^3
#
#
#
# Elastic Constant Matrix: (Units=GPa)
#
#
# Indices 1 2 3 4 5 6 
#
# 1 54.5808 28.3905 28.8891 0.0000 1.3620 0.0000
# 2 28.3905 62.2022 33.5138 0.0000 10.1865 0.0000
# 3 28.8891 33.5138 112.7880 0.0000 5.3045 0.0000
# 4 0.0000 0.0000 0.0000 39.1106 0.0000 -3.3229
# 5 1.3620 10.1865 5.3045 0.0000 33.0765 0.0000
# 6 0.0000 0.0000 0.0000 -3.3229 0.0000 21.1853
#
#
#
# Elastic Compliance Matrix: (Units=1/GPa)
#
#
# Indices 1 2 3 4 5 6 
#
# 1 0.025423 -0.010073 -0.003643 0.000000 0.002640 0.000000
# 2 -0.010073 0.023997 -0.004254 0.000000 -0.006293 0.000000
# 3 -0.003643 -0.004254 0.011078 0.000000 -0.000316 0.000000
# 4 0.000000 0.000000 0.000000 0.025914 0.000000 0.004065
# 5 0.002640 -0.006293 -0.000316 0.000000 0.032113 0.000000
# 6 0.000000 0.000000 0.000000 0.004065 0.000000 0.047840
#
#
# Mechanical properties :
#
#
# Convention : Reuss Voigt Hill
#
# Bulk Modulus (GPa) = 40.72041 45.68419 43.20230
# Shear Modulus (GPa) = 23.75378 27.92633 25.84005
#
# Velocity S-wave (km/s) = 3.47274 3.76541 3.62203
# Velocity P-wave (km/s) = 6.06249 6.48834 6.27902
#
# Compressibility (1/GPa) = 0.02455771
#
# Stress axis : x y z
#
# Youngs Moduli (GPa) = 39.33385 41.67164 90.26690
#
# Poissons Ratio (x) = 0.41977 0.32882
# Poissons Ratio (y) = 0.39623 0.38403
# Poissons Ratio (z) = 0.14329 0.17729
#
# Static dielectric constant tensor:
#      x y z
#    x 3.479110 0.000000 -0.162310 
#    y 0.000000 3.311810 0.000000 
#    z -0.162310 0.000000 3.754210 
# 
# 
# High freq. dielectric constant tensor:
#      x y z
#    x 1.748090 0.000000 -0.007120 
#    y 0.000000 1.748520 0.000000 
#    z -0.007120 0.000000 1.777670 
# 
# From -- ./inp_files/243690.got.cif
#   From: 2010.06.25/outbox.cif.g09.slc.cpg/sg15_122_cif.got.tgz:243690.got - 2010.06.28 07:06:18.
