data_PCOD8130093
_publ_section_title
;
Structure prediction by ZEFSAII (Michael W. Deem and Ramdas Pophale) SiO2 
 PCOD8130093
Probable space group: C 2/C
;
_chemical_formula_sum "Si O2"
_cell_formula_units_Z 64
_cell_length_a 28.539984
_cell_length_b 10.276925
_cell_length_c 22.115234
_cell_angle_alpha 90.000000
_cell_angle_beta 26.084935
_cell_angle_gamma 90.000000
_cell_volume 2852.120778
_symmetry_space_group_name_H-M "C 2/C"
_symmetry_group_IT_number 15
_symmetry_cell_setting 'monoclinic'
loop_
_space_group_symop_operation_xyz
x,y,z
-x,y,1/2-z
-x,-y,-z
x,-y,1/2+z
1/2+x,1/2+y,z
1/2-x,1/2+y,1/2-z
1/2-x,1/2-y,-z
1/2+x,1/2-y,1/2+z
loop_
_atom_site_type_symbol
_atom_site_label
_atom_site_fract_x
_atom_site_fract_y
_atom_site_fract_z
Si Si1 0.648405 0.566774 0.748130
Si Si2 0.485799 0.737936 0.991820
Si Si3 0.111304 0.533487 0.836083
Si Si4 0.833312 0.538333 0.968924
Si Si5 0.950168 0.438977 0.216801
Si Si6 0.225633 0.902806 0.766614
Si Si7 0.998429 0.841532 0.612707
Si Si8 0.711108 0.276244 0.404621
O O1 0.753382 0.576834 0.584272
O O2 0.680791 0.521271 0.778337
O O3 0.578085 0.464341 0.791188
O O4 0.582447 0.701603 0.833874
O O5 0.477531 0.897460 0.013987
O O6 0.374296 0.683804 0.093784
O O7 0.511259 0.672870 0.026011
O O8 0.062692 0.476362 0.830169
O O9 0.200159 0.444658 0.763648
O O10 0.173187 0.660116 0.736307
O O11 0.849880 0.533656 0.877463
O O12 0.943512 0.510568 0.875030
O O13 0.789719 0.683941 0.035385
O O14 0.956994 0.285023 0.195819
O O15 0.306086 0.820386 0.632409
O O16 0.112892 0.877148 0.511471
#
# Coordination Sequence:
#
# PCOD8130093 Si02
#       8
#     8   8   8   8   8   8   8   8
#     4  10  17  28  48  68  95 132 166 200 240 298
#     4   9  17  28  45  68  93 130 166 196 244 299
#     4  10  18  29  48  70 100 131 159 205 248 293
#     4   9  18  31  45  64  94 130 170 201 233 293
#     4   9  18  31  45  65  96 133 167 199 242 293
#     4   9  17  29  46  68  96 127 161 199 246 298
#     4   9  16  28  46  68  98 128 156 192 235 294
#     4   9  17  28  45  71 100 130 159 194 241 295
#
# _framework density 22.439444000000002
#
# number of rings (size 3 to 8) (size 9 to 14) (size 15 to 20)
#    0.000    2.750    0.000    5.250    0.000    2.000 
#    0.000   10.000    0.000    2.250    0.000    0.000 
#    0.000  116.000    0.000    1.750    0.000    5.375 
#
# Total GULP energy -396460.604021 kJ/mol
# GULP energy per Si atom -12389.393876 kJ/mol
# Density = 2.238837 g / cm^3
# Si number density = 22.439444 Si / 1000 Ang^3
#
#
#
# Elastic Constant Matrix: (Units=GPa)
#
#
# Indices 1 2 3 4 5 6 
#
# 1 95.6468 24.1612 52.8694 -0.0008 4.9084 0.0002
# 2 24.1612 61.3976 46.8590 -0.0013 3.6743 0.0012
# 3 52.8694 46.8590 142.3261 0.0002 19.5167 0.0007
# 4 -0.0008 -0.0013 0.0002 14.5647 0.0005 -1.9434
# 5 4.9084 3.6743 19.5167 0.0005 30.2215 -0.0002
# 6 0.0002 0.0012 0.0007 -1.9434 -0.0002 24.9715
#
#
#
# Elastic Compliance Matrix: (Units=1/GPa)
#
#
# Indices 1 2 3 4 5 6 
#
# 1 0.013355 -0.001906 -0.004463 0.000001 0.000945 0.000000
# 2 -0.001906 0.022156 -0.006868 0.000002 0.002051 -0.000001
# 3 -0.004463 -0.006868 0.011774 -0.000001 -0.006044 0.000000
# 4 0.000001 0.000002 -0.000001 0.069380 -0.000001 0.005400
# 5 0.000945 0.002051 -0.006044 -0.000001 0.036589 0.000000
# 6 0.000000 -0.000001 0.000000 0.005400 0.000000 0.040466
#
#
# Mechanical properties :
#
#
# Convention : Reuss Voigt Hill
#
# Bulk Modulus (GPa) = 48.05026 60.79442 54.42234
# Shear Modulus (GPa) = 22.01375 25.65025 23.83200
#
# Velocity S-wave (km/s) = 3.13554 3.38463 3.26246
# Velocity P-wave (km/s) = 5.87950 6.51350 6.20461
#
# Compressibility (1/GPa) = 0.02081154
#
# Stress axis : x y z
#
# Youngs Moduli (GPa) = 74.87800 45.13414 84.93351
#
# Poissons Ratio (x) = 0.08602 0.37906
# Poissons Ratio (y) = 0.14270 0.58332
# Poissons Ratio (z) = 0.33419 0.30998
#
# Static dielectric constant tensor:
#      x y z
#    x 3.945070 0.000000 -0.188130 
#    y 0.000000 3.815470 0.000000 
#    z -0.188130 0.000000 4.507300 
# 
# 
# High freq. dielectric constant tensor:
#      x y z
#    x 1.863970 0.000000 -0.029190 
#    y 0.000000 1.845050 0.000000 
#    z -0.029190 0.000000 1.899990 
# 
# From -- ./inp_files/257501.got.cif
#   From: 2010.06.25/outbox.cif.g09.slc.cpg/sg15_129_cif.got.tgz:257501.got - 2010.06.28 07:06:18.
