data_PCOD8130446
_publ_section_title
;
Structure prediction by ZEFSAII (Michael W. Deem and Ramdas Pophale) SiO2 
 PCOD8130446
Probable space group: C 2/C
;
_chemical_formula_sum "Si O2"
_cell_formula_units_Z 60
_cell_length_a 8.944778
_cell_length_b 18.588592
_cell_length_c 26.343810
_cell_angle_alpha 90.000000
_cell_angle_beta 136.810944
_cell_angle_gamma 90.000000
_cell_volume 2997.848156
_symmetry_space_group_name_H-M "C 2/C"
_symmetry_group_IT_number 15
_symmetry_cell_setting 'monoclinic'
loop_
_space_group_symop_operation_xyz
x,y,z
-x,y,1/2-z
-x,-y,-z
x,-y,1/2+z
1/2+x,1/2+y,z
1/2-x,1/2+y,1/2-z
1/2-x,1/2-y,-z
1/2+x,1/2-y,1/2+z
loop_
_atom_site_type_symbol
_atom_site_label
_atom_site_fract_x
_atom_site_fract_y
_atom_site_fract_z
Si Si1 0.217893 0.198792 0.333607
Si Si2 0.913686 0.168738 0.829801
Si Si3 0.909200 0.172312 0.339231
Si Si4 0.955109 0.430274 0.294167
Si Si5 0.355404 0.922048 0.799686
Si Si6 0.139688 0.088674 0.079804
Si Si7 0.560220 0.573594 0.573183
Si Si8 0.000000 0.773086 0.250000
O O1 0.388428 0.260744 0.359476
O O2 0.310134 0.119598 0.341400
O O3 0.000000 0.216885 0.250000
O O4 0.141877 0.199547 0.373733
O O5 0.686428 0.141147 0.748907
O O6 0.016947 0.107533 0.892020
O O7 0.064026 0.182728 0.817230
O O8 0.819120 0.104016 0.285166
O O9 0.966385 0.149415 0.410661
O O10 0.715297 0.230007 0.287201
O O11 0.834913 0.490794 0.299382
O O12 0.000000 0.466598 0.250000
O O13 0.186354 0.406043 0.375522
O O14 0.603958 0.906865 0.844887
O O15 0.033737 0.012256 0.068631
O O16 0.087690 0.106489 0.008330
#
# Coordination Sequence:
#
# PCOD8130446 Si02
#       8
#     8   8   8   8   8   8   8   4
#     4  10  19  32  55  76 111 138 176 227 283 314
#     4  11  20  37  54  82 108 146 180 229 274 327
#     4  11  19  33  56  81 106 143 181 232 267 327
#     4   9  18  31  56  78 106 139 182 221 269 325
#     4  10  17  33  54  81 103 145 182 226 261 323
#     4  10  18  36  57  81 109 143 192 219 265 329
#     4   9  20  33  59  79 109 150 178 225 272 329
#     4  12  22  32  58  82 110 140 184 232 280 314
#
# _framework density 20.014355999999999
#
# number of rings (size 3 to 8) (size 9 to 14) (size 15 to 20)
#    0.000    1.867    4.000    3.600    0.000    0.000 
#    6.000    3.333    2.933    2.400    0.000    0.000 
#    0.000    0.000    0.000    0.000    0.000    0.000 
#
# Total GULP energy -371707.075513 kJ/mol
# GULP energy per Si atom -12390.235850 kJ/mol
# Density = 1.996880 g / cm^3
# Si number density = 20.014356 Si / 1000 Ang^3
#
#
#
# Elastic Constant Matrix: (Units=GPa)
#
#
# Indices 1 2 3 4 5 6 
#
# 1 99.8549 38.8904 10.8851 0.0001 -26.7179 0.0001
# 2 38.8904 71.3903 13.7931 0.0001 -12.8334 0.0000
# 3 10.8851 13.7931 60.9126 0.0001 -16.6427 0.0001
# 4 0.0001 0.0001 0.0001 21.5100 0.0001 -8.5031
# 5 -26.7179 -12.8334 -16.6427 0.0001 24.9093 0.0001
# 6 0.0001 0.0000 0.0001 -8.5031 0.0001 27.1563
#
#
#
# Elastic Compliance Matrix: (Units=1/GPa)
#
#
# Indices 1 2 3 4 5 6 
#
# 1 0.016718 -0.006730 0.003044 0.000000 0.016499 0.000000
# 2 -0.006730 0.018278 -0.002857 0.000000 0.000289 0.000000
# 3 0.003044 -0.002857 0.020808 0.000000 0.015696 0.000000
# 4 0.000000 0.000000 0.000000 0.053057 -0.000001 0.016613
# 5 0.016499 0.000289 0.015696 -0.000001 0.068478 -0.000001
# 6 0.000000 0.000000 0.000000 0.016613 -0.000001 0.042026
#
#
# Mechanical properties :
#
#
# Convention : Reuss Voigt Hill
#
# Bulk Modulus (GPa) = 23.40874 39.92167 31.66521
# Shear Modulus (GPa) = 20.26829 25.95440 23.11134
#
# Velocity S-wave (km/s) = 3.18573 3.60500 3.40183
# Velocity P-wave (km/s) = 5.02525 6.10884 5.59335
#
# Compressibility (1/GPa) = 0.04271908
#
# Stress axis : x y z
#
# Youngs Moduli (GPa) = 59.81497 54.71180 48.05747
#
# Poissons Ratio (x) = 0.36819 -0.14630
# Poissons Ratio (y) = 0.40253 0.13731
# Poissons Ratio (z) = -0.18209 0.15632
#
# Static dielectric constant tensor:
#      x y z
#    x 4.006330 0.000000 -0.274030 
#    y 0.000000 3.662740 0.000000 
#    z -0.274030 0.000000 3.437840 
# 
# 
# High freq. dielectric constant tensor:
#      x y z
#    x 1.760240 0.000000 -0.016350 
#    y 0.000000 1.780210 0.000000 
#    z -0.016350 0.000000 1.742920 
# 
# From -- ./inp_files/290001.got.cif
#   From: 2010.06.25/outbox.cif.g09.slc.cpg/sg15_146_cif.got.tgz:290001.got - 2010.06.28 07:06:18.
