data_PCOD8130974
_publ_section_title
;
Structure prediction by ZEFSAII (Michael W. Deem and Ramdas Pophale) SiO2 
 PCOD8130974
Probable space group: C 2/C
;
_chemical_formula_sum "Si O2"
_cell_formula_units_Z 64
_cell_length_a 19.181325
_cell_length_b 9.611021
_cell_length_c 18.351994
_cell_angle_alpha 90.000000
_cell_angle_beta 87.333770
_cell_angle_gamma 90.000000
_cell_volume 3379.566491
_symmetry_space_group_name_H-M "C 2/C"
_symmetry_group_IT_number 15
_symmetry_cell_setting 'monoclinic'
loop_
_space_group_symop_operation_xyz
x,y,z
-x,y,1/2-z
-x,-y,-z
x,-y,1/2+z
1/2+x,1/2+y,z
1/2-x,1/2+y,1/2-z
1/2-x,1/2-y,-z
1/2+x,1/2-y,1/2+z
loop_
_atom_site_type_symbol
_atom_site_label
_atom_site_fract_x
_atom_site_fract_y
_atom_site_fract_z
Si Si1 0.922830 0.853321 0.834688
Si Si2 0.183312 0.722218 0.423130
Si Si3 0.921383 0.510993 0.594664
Si Si4 0.176392 0.334263 0.083944
Si Si5 0.407235 0.519487 0.566810
Si Si6 0.915326 0.210455 0.174660
Si Si7 0.922595 0.429965 0.923110
Si Si8 0.942502 0.116066 0.913826
O O1 0.885679 0.775975 0.903230
O O2 0.889688 0.808815 0.759062
O O3 0.002301 0.808283 0.835899
O O4 0.914115 0.018309 0.849784
O O5 0.130786 0.618260 0.382709
O O6 0.199155 0.646791 0.499023
O O7 0.255626 0.767307 0.377795
O O8 0.151883 0.870328 0.443787
O O9 0.894410 0.638013 0.645816
O O10 0.918808 0.551320 0.510102
O O11 0.001628 0.476679 0.610970
O O12 0.141393 0.482045 0.110972
O O13 0.380209 0.410703 0.628811
O O14 0.473910 0.607972 0.590186
O O15 0.418014 0.432854 0.493631
O O16 0.913203 0.269784 0.900909
#
# Coordination Sequence:
#
# PCOD8130974 Si02
#       8
#     8   8   8   8   8   8   8   8
#     4  10  20  35  54  78 113 149 179 224 295 335
#     4  10  20  34  54  81 112 143 182 228 282 331
#     4  10  18  31  54  84 108 137 190 233 268 330
#     4  10  20  35  53  79 114 148 175 226 290 335
#     4  10  18  31  53  81 106 139 185 234 277 322
#     4  10  20  34  55  81 110 145 184 232 280 336
#     4  10  18  30  55  84 108 137 186 237 275 318
#     4  10  18  30  55  83 106 139 185 238 275 324
#
# _framework density 18.937339999999999
#
# number of rings (size 3 to 8) (size 9 to 14) (size 15 to 20)
#    0.000    2.000    5.000    0.000    0.000    0.000 
#    0.000    4.375    2.750    0.000    0.000    0.000 
#    0.000    0.000    0.000    0.000    0.000    0.000 
#
# Total GULP energy -396451.201229 kJ/mol
# GULP energy per Si atom -12389.100038 kJ/mol
# Density = 1.889424 g / cm^3
# Si number density = 18.937340 Si / 1000 Ang^3
#
#
#
# Elastic Constant Matrix: (Units=GPa)
#
#
# Indices 1 2 3 4 5 6 
#
# 1 62.6735 53.2311 10.6340 0.0000 -4.9909 0.0000
# 2 53.2311 150.6925 16.8737 0.0000 -0.4566 0.0000
# 3 10.6340 16.8737 41.4121 0.0000 1.1060 0.0000
# 4 0.0000 0.0000 0.0000 24.6434 0.0000 3.7612
# 5 -4.9909 -0.4566 1.1060 0.0000 10.6823 0.0000
# 6 0.0000 0.0000 0.0000 3.7612 0.0000 28.0474
#
#
#
# Elastic Compliance Matrix: (Units=1/GPa)
#
#
# Indices 1 2 3 4 5 6 
#
# 1 0.024390 -0.008221 -0.003217 0.000000 0.011377 0.000000
# 2 -0.008221 0.009728 -0.001766 0.000000 -0.003242 0.000000
# 3 -0.003217 -0.001766 0.025807 0.000000 -0.004251 0.000000
# 4 0.000000 0.000000 0.000000 0.041427 0.000000 -0.005555
# 5 0.011377 -0.003242 -0.004251 0.000000 0.099230 0.000000
# 6 0.000000 0.000000 0.000000 -0.005555 0.000000 0.036399
#
#
# Mechanical properties :
#
#
# Convention : Reuss Voigt Hill
#
# Bulk Modulus (GPa) = 29.83622 46.25062 38.04342
# Shear Modulus (GPa) = 18.21092 24.27725 21.24409
#
# Velocity S-wave (km/s) = 3.10440 3.58436 3.35298
# Velocity P-wave (km/s) = 5.35156 6.45028 5.92644
#
# Compressibility (1/GPa) = 0.03351631
#
# Stress axis : x y z
#
# Youngs Moduli (GPa) = 41.00070 102.79696 38.74947
#
# Poissons Ratio (x) = 0.84508 0.12466
# Poissons Ratio (y) = 0.33706 0.06844
# Poissons Ratio (z) = 0.13191 0.18155
#
# Static dielectric constant tensor:
#      x y z
#    x 3.456690 0.000000 -0.084640 
#    y 0.000000 3.602980 0.000000 
#    z -0.084640 0.000000 3.286600 
# 
# 
# High freq. dielectric constant tensor:
#      x y z
#    x 1.712170 0.000000 -0.010680 
#    y 0.000000 1.747600 0.000000 
#    z -0.010680 0.000000 1.695720 
# 
# From -- ./inp_files/251582.got.cif
#   From: 2010.06.25/outbox.cif.g09.slc.cpg/sg15_126_cif.got.tgz:251582.got - 2010.06.28 07:06:18.
