data_PCOD8130706
_publ_section_title
;
Structure prediction by ZEFSAII (Michael W. Deem and Ramdas Pophale) SiO2 
 PCOD8130706
Probable space group: C 2/C
;
_chemical_formula_sum "Si O2"
_cell_formula_units_Z 56
_cell_length_a 14.831565
_cell_length_b 10.886583
_cell_length_c 16.455306
_cell_angle_alpha 90.000000
_cell_angle_beta 75.092614
_cell_angle_gamma 90.000000
_cell_volume 2567.531623
_symmetry_space_group_name_H-M "C 2/C"
_symmetry_group_IT_number 15
_symmetry_cell_setting 'monoclinic'
loop_
_space_group_symop_operation_xyz
x,y,z
-x,y,1/2-z
-x,-y,-z
x,-y,1/2+z
1/2+x,1/2+y,z
1/2-x,1/2+y,1/2-z
1/2-x,1/2-y,-z
1/2+x,1/2-y,1/2+z
loop_
_atom_site_type_symbol
_atom_site_label
_atom_site_fract_x
_atom_site_fract_y
_atom_site_fract_z
Si Si1 0.807103 0.936255 0.536269
Si Si2 0.571984 0.676300 0.995638
Si Si3 0.000000 0.034069 0.250000
Si Si4 0.570743 0.962278 0.363941
Si Si5 0.436783 0.328585 0.382798
Si Si6 0.630832 0.067498 0.511311
Si Si7 0.099800 0.188265 0.346793
Si Si8 0.000000 0.366592 0.750000
O O1 0.840301 0.842681 0.456508
O O2 0.812839 0.865569 0.621593
O O3 0.880566 0.045890 0.521251
O O4 0.705982 0.994460 0.547338
O O5 0.522739 0.707015 0.921523
O O6 0.645685 0.785062 0.000323
O O7 0.494660 0.667140 0.082084
O O8 0.044721 0.954548 0.168246
O O9 0.085139 0.117471 0.264988
O O10 0.466764 0.954381 0.422611
O O11 0.613624 0.832272 0.325763
O O12 0.636814 0.013095 0.419400
O O13 0.570462 0.050458 0.286206
O O14 0.430455 0.216667 0.320753
#
# Coordination Sequence:
#
# PCOD8130706 Si02
#       8
#     8   8   4   8   8   8   8   4
#     4  11  20  37  59  95 119 150 204 261 299 351
#     4  10  17  38  58  89 116 157 196 244 308 364
#     4  11  17  34  56  90 117 155 196 248 306 363
#     4  10  22  41  58  84 114 166 205 240 304 372
#     4  10  20  34  64  86 117 156 201 248 303 369
#     4  10  22  37  63  84 120 156 204 246 299 362
#     4  10  20  33  62  85 119 158 203 252 301 362
#     4  11  21  40  66  80 115 163 204 246 306 379
#
# _framework density 21.810832000000001
#
# number of rings (size 3 to 8) (size 9 to 14) (size 15 to 20)
#    0.000    1.714    4.286    1.714    2.000    0.571 
#    0.000    1.429    0.000    0.000    0.000    0.000 
#    0.000    0.000    0.000    0.000    0.000    0.000 
#
# Total GULP energy -347165.218169 kJ/mol
# GULP energy per Si atom -12398.757792 kJ/mol
# Density = 2.176119 g / cm^3
# Si number density = 21.810832 Si / 1000 Ang^3
#
#
#
# Elastic Constant Matrix: (Units=GPa)
#
#
# Indices 1 2 3 4 5 6 
#
# 1 60.8919 20.2275 16.8856 0.0000 22.4986 0.0000
# 2 20.2275 133.0319 37.9999 0.0000 18.5361 0.0000
# 3 16.8856 37.9999 81.7153 0.0000 26.2983 0.0000
# 4 0.0000 0.0000 0.0000 43.9781 0.0000 10.5156
# 5 22.4986 18.5361 26.2983 0.0000 25.0536 0.0000
# 6 0.0000 0.0000 0.0000 10.5156 0.0000 27.1717
#
#
#
# Elastic Compliance Matrix: (Units=1/GPa)
#
#
# Indices 1 2 3 4 5 6 
#
# 1 0.025289 -0.001318 0.003597 0.000000 -0.025510 0.000000
# 2 -0.001318 0.008921 -0.003221 0.000000 -0.002035 0.000000
# 3 0.003597 -0.003221 0.020032 0.000000 -0.021874 0.000000
# 4 0.000000 0.000000 0.000000 0.025057 0.000000 -0.009697
# 5 -0.025510 -0.002035 -0.021874 0.000000 0.087290 0.000000
# 6 0.000000 0.000000 0.000000 -0.009697 0.000000 0.040556
#
#
# Mechanical properties :
#
#
# Convention : Reuss Voigt Hill
#
# Bulk Modulus (GPa) = 19.09936 47.31835 33.20885
# Shear Modulus (GPa) = 22.07682 32.60908 27.34295
#
# Velocity S-wave (km/s) = 3.18495 3.87083 3.54452
# Velocity P-wave (km/s) = 4.72240 6.45908 5.65777
#
# Compressibility (1/GPa) = 0.05235778
#
# Stress axis : x y z
#
# Youngs Moduli (GPa) = 39.54356 112.09343 49.92010
#
# Poissons Ratio (x) = 0.14776 -0.17958
# Poissons Ratio (y) = 0.05212 0.16080
# Poissons Ratio (z) = -0.14225 0.36107
#
# Static dielectric constant tensor:
#      x y z
#    x 3.493010 0.000000 0.385720 
#    y 0.000000 4.343380 0.000000 
#    z 0.385720 0.000000 4.048520 
# 
# 
# High freq. dielectric constant tensor:
#      x y z
#    x 1.810240 0.000000 0.026600 
#    y 0.000000 1.884780 0.000000 
#    z 0.026600 0.000000 1.854030 
# 
# From -- ./inp_files/152637.got.cif
#   From: 2010.06.25/outbox.cif.g09.slc.cpg/sg15_77_cif.got.tgz:152637.got - 2010.06.28 07:06:18.
