data_PCOD8130171
_publ_section_title
;
Structure prediction by ZEFSAII (Michael W. Deem and Ramdas Pophale) SiO2 
 PCOD8130171
Probable space group: C 2/C
;
_chemical_formula_sum "Si O2"
_cell_formula_units_Z 52
_cell_length_a 8.478536
_cell_length_b 29.796105
_cell_length_c 13.907519
_cell_angle_alpha 90.000000
_cell_angle_beta 135.923345
_cell_angle_gamma 90.000000
_cell_volume 2444.005473
_symmetry_space_group_name_H-M "C 2/C"
_symmetry_group_IT_number 15
_symmetry_cell_setting 'monoclinic'
loop_
_space_group_symop_operation_xyz
x,y,z
-x,y,1/2-z
-x,-y,-z
x,-y,1/2+z
1/2+x,1/2+y,z
1/2-x,1/2+y,1/2-z
1/2-x,1/2-y,-z
1/2+x,1/2-y,1/2+z
loop_
_atom_site_type_symbol
_atom_site_label
_atom_site_fract_x
_atom_site_fract_y
_atom_site_fract_z
Si Si1 0.706201 0.544008 0.715197
Si Si2 0.736064 0.830194 0.462649
Si Si3 0.000000 0.967858 0.750000
Si Si4 0.787883 0.431554 0.045444
Si Si5 0.000000 0.116100 0.750000
Si Si6 0.410279 0.259758 0.389740
Si Si7 0.000000 0.198259 0.250000
Si Si8 0.213274 0.697429 0.634796
O O1 0.642120 0.497570 0.737619
O O2 0.688142 0.539411 0.591201
O O3 0.542421 0.584592 0.676546
O O4 0.957102 0.553812 0.862738
O O5 0.709372 0.880574 0.413297
O O6 0.873472 0.799248 0.449755
O O7 0.494310 0.807257 0.379899
O O8 0.887255 0.834243 0.623669
O O9 0.843317 0.937229 0.612742
O O10 0.783050 0.147775 0.629101
O O11 0.429274 0.282668 0.292127
O O12 0.633164 0.230172 0.513334
O O13 0.192056 0.228389 0.285509
#
# Coordination Sequence:
#
# PCOD8130171 Si02
#       8
#     8   8   4   8   4   8   4   8
#     4  10  23  41  65  92 125 159 201 249 305 371
#     4  11  19  32  57  88 114 150 207 253 292 353
#     4  11  23  42  66  96 130 150 194 254 322 372
#     4  11  22  40  66  96 118 163 202 248 305 373
#     4  11  22  40  59  88 120 168 206 255 294 371
#     4  11  19  34  54  84 113 159 202 258 294 350
#     4  10  17  30  49  86 118 148 194 263 300 325
#     4  11  21  34  56  77 120 159 204 243 310 340
#
# _framework density 21.276547000000001
#
# number of rings (size 3 to 8) (size 9 to 14) (size 15 to 20)
#    0.000    1.231    4.615    3.231    2.154    0.615 
#    0.000    0.000    0.000    1.846    0.000    0.000 
#    0.000    0.000    0.000    0.000    0.000    0.000 
#
# Total GULP energy -322370.526765 kJ/mol
# GULP energy per Si atom -12398.866414 kJ/mol
# Density = 2.122812 g / cm^3
# Si number density = 21.276547 Si / 1000 Ang^3
#
#
#
# Elastic Constant Matrix: (Units=GPa)
#
#
# Indices 1 2 3 4 5 6 
#
# 1 63.2839 17.7593 20.6901 0.0000 -18.5792 0.0000
# 2 17.7593 84.3300 21.3647 0.0000 -2.1968 0.0000
# 3 20.6901 21.3647 124.2713 0.0000 -7.3759 0.0000
# 4 0.0000 0.0000 0.0000 27.4708 0.0000 5.1393
# 5 -18.5792 -2.1968 -7.3759 0.0000 25.9928 0.0000
# 6 0.0000 0.0000 0.0000 5.1393 0.0000 25.3682
#
#
#
# Elastic Compliance Matrix: (Units=1/GPa)
#
#
# Indices 1 2 3 4 5 6 
#
# 1 0.021847 -0.003678 -0.002133 0.000000 0.014700 0.000000
# 2 -0.003678 0.013022 -0.001747 0.000000 -0.002024 0.000000
# 3 -0.002133 -0.001747 0.008750 0.000000 0.000811 0.000000
# 4 0.000000 0.000000 0.000000 0.037836 0.000000 -0.007665
# 5 0.014700 -0.002024 0.000811 0.000000 0.049038 0.000000
# 6 0.000000 0.000000 0.000000 -0.007665 0.000000 0.040972
#
#
# Mechanical properties :
#
#
# Convention : Reuss Voigt Hill
#
# Bulk Modulus (GPa) = 35.08041 43.50148 39.29095
# Shear Modulus (GPa) = 25.49956 29.90445 27.70201
#
# Velocity S-wave (km/s) = 3.46567 3.75308 3.61223
# Velocity P-wave (km/s) = 5.70422 6.26666 5.99204
#
# Compressibility (1/GPa) = 0.02850594
#
# Stress axis : x y z
#
# Youngs Moduli (GPa) = 45.77366 76.79059 114.28064
#
# Poissons Ratio (x) = 0.28240 0.24371
# Poissons Ratio (y) = 0.16833 0.19961
# Poissons Ratio (z) = 0.09762 0.13413
#
# Static dielectric constant tensor:
#      x y z
#    x 3.913650 0.000000 0.034350 
#    y 0.000000 3.726500 0.000000 
#    z 0.034350 0.000000 3.881870 
# 
# 
# High freq. dielectric constant tensor:
#      x y z
#    x 1.847060 0.000000 0.001360 
#    y 0.000000 1.830150 0.000000 
#    z 0.001360 0.000000 1.834780 
# 
# From -- ./inp_files/139752.got.cif
#   From: 2010.06.25/outbox.cif.g09.slc.cpg/sg15_70_cif.got.tgz:139752.got - 2010.06.28 07:06:18.
