data_PCOD8130937
_publ_section_title
;
Structure prediction by ZEFSAII (Michael W. Deem and Ramdas Pophale) SiO2 
 PCOD8130937
Probable space group: C 2/C
;
_chemical_formula_sum "Si O2"
_cell_formula_units_Z 64
_cell_length_a 24.804841
_cell_length_b 20.783550
_cell_length_c 8.757423
_cell_angle_alpha 90.000000
_cell_angle_beta 55.122090
_cell_angle_gamma 90.000000
_cell_volume 3703.766058
_symmetry_space_group_name_H-M "C 2/C"
_symmetry_group_IT_number 15
_symmetry_cell_setting 'monoclinic'
loop_
_space_group_symop_operation_xyz
x,y,z
-x,y,1/2-z
-x,-y,-z
x,-y,1/2+z
1/2+x,1/2+y,z
1/2-x,1/2+y,1/2-z
1/2-x,1/2-y,-z
1/2+x,1/2-y,1/2+z
loop_
_atom_site_type_symbol
_atom_site_label
_atom_site_fract_x
_atom_site_fract_y
_atom_site_fract_z
Si Si1 0.741404 0.141277 0.836009
Si Si2 0.151597 0.731776 0.859483
Si Si3 0.841928 0.055184 0.559258
Si Si4 0.147795 0.922521 0.812037
Si Si5 0.463975 0.681951 0.957275
Si Si6 0.757063 0.165109 0.167154
Si Si7 0.829062 0.246839 0.520776
Si Si8 0.940200 0.834775 0.943656
O O1 0.667494 0.158565 0.892579
O O2 0.768586 0.070505 0.746028
O O3 0.786452 0.190632 0.666314
O O4 0.743819 0.146961 0.014155
O O5 0.190082 0.777213 0.917595
O O6 0.182556 0.745335 0.641667
O O7 0.074601 0.749651 0.994501
O O8 0.837651 0.059158 0.384795
O O9 0.890869 0.106881 0.556675
O O10 0.869330 0.986165 0.564976
O O11 0.212698 0.893831 0.786212
O O12 0.087184 0.872784 0.906366
O O13 0.500000 0.657411 0.750000
O O14 0.526969 0.693694 0.959575
O O15 0.689284 0.187064 0.360967
O O16 0.905054 0.225918 0.417849
O O17 0.000000 0.863619 0.750000
#
# Coordination Sequence:
#
# PCOD8130937 Si02
#       8
#     8   8   8   8   8   8   8   8
#     4  10  19  31  50  72  93 122 162 209 256 296
#     4  10  18  32  48  71  95 127 161 205 256 293
#     4  11  23  36  54  68 100 133 173 214 245 295
#     4  11  23  38  50  72  96 135 174 211 252 288
#     4  11  24  33  50  71 104 136 172 207 241 297
#     4  10  19  31  50  72  93 121 164 208 256 298
#     4  10  18  30  52  68  97 126 160 207 251 298
#     4  11  20  37  48  72 101 138 172 201 247 291
#
# _framework density 17.279709
#
# number of rings (size 3 to 8) (size 9 to 14) (size 15 to 20)
#    0.000    1.500    2.500    6.750   10.500    1.000 
#    0.000    0.000    0.000    0.000    0.000    0.000 
#    0.000    2.000    0.000    0.125    0.000    0.125 
#
# Total GULP energy -396451.007508 kJ/mol
# GULP energy per Si atom -12389.093985 kJ/mol
# Density = 1.724038 g / cm^3
# Si number density = 17.279709 Si / 1000 Ang^3
#
#
#
# Elastic Constant Matrix: (Units=GPa)
#
#
# Indices 1 2 3 4 5 6 
#
# 1 92.4190 37.1854 17.0547 0.0000 8.4694 0.0000
# 2 37.1854 38.4491 19.5074 0.0000 -11.0199 0.0000
# 3 17.0547 19.5074 65.9592 0.0000 13.9430 0.0000
# 4 0.0000 0.0000 0.0000 31.3201 0.0000 -6.5246
# 5 8.4694 -11.0199 13.9430 0.0000 27.4771 0.0000
# 6 0.0000 0.0000 0.0000 -6.5246 0.0000 35.3438
#
#
#
# Elastic Compliance Matrix: (Units=1/GPa)
#
#
# Indices 1 2 3 4 5 6 
#
# 1 0.029321 -0.044168 0.012474 0.000000 -0.033082 0.000000
# 2 -0.044168 0.109394 -0.037061 0.000000 0.076294 0.000000
# 3 0.012474 -0.037061 0.030077 0.000000 -0.033971 0.000000
# 4 0.000000 0.000000 0.000000 0.033205 0.000000 0.006130
# 5 -0.033082 0.076294 -0.033971 0.000000 0.094427 0.000000
# 6 0.000000 0.000000 0.000000 0.006130 0.000000 0.029425
#
#
# Mechanical properties :
#
#
# Convention : Reuss Voigt Hill
#
# Bulk Modulus (GPa) = 31.96517 38.25803 35.11160
# Shear Modulus (GPa) = 10.55326 27.03353 18.79339
#
# Velocity S-wave (km/s) = 2.47398 3.95962 3.30145
# Velocity P-wave (km/s) = 5.16717 6.56455 5.90732
#
# Compressibility (1/GPa) = 0.03128405
#
# Stress axis : x y z
#
# Youngs Moduli (GPa) = 34.10483 9.14125 33.24785
#
# Poissons Ratio (x) = 0.40375 -0.41475
# Poissons Ratio (y) = 1.50635 1.23218
# Poissons Ratio (z) = -0.42544 0.33878
#
# Static dielectric constant tensor:
#      x y z
#    x -2.007410 0.000000 -3.881710 
#    y 0.000000 3.327120 0.000000 
#    z -3.881710 0.000000 0.707740 
# 
# 
# High freq. dielectric constant tensor:
#      x y z
#    x 1.669570 0.000000 0.022670 
#    y 0.000000 1.626200 0.000000 
#    z 0.022670 0.000000 1.670920 
# 
# From -- ./inp_files/57858.got.cif
#   From: 2010.06.25/outbox.cif.g09.slc.cpg/sg15_29_cif.got.tgz:57858.got - 2010.06.28 07:06:18.
