data_PCOD8130926
_publ_section_title
;
Structure prediction by ZEFSAII (Michael W. Deem and Ramdas Pophale) SiO2 
 PCOD8130926
Probable space group: C 2/C
;
_chemical_formula_sum "Si O2"
_cell_formula_units_Z 64
_cell_length_a 12.210086
_cell_length_b 24.522784
_cell_length_c 13.502618
_cell_angle_alpha 90.000000
_cell_angle_beta 110.296510
_cell_angle_gamma 90.000000
_cell_volume 3791.994280
_symmetry_space_group_name_H-M "C 2/C"
_symmetry_group_IT_number 15
_symmetry_cell_setting 'monoclinic'
loop_
_space_group_symop_operation_xyz
x,y,z
-x,y,1/2-z
-x,-y,-z
x,-y,1/2+z
1/2+x,1/2+y,z
1/2-x,1/2+y,1/2-z
1/2-x,1/2-y,-z
1/2+x,1/2-y,1/2+z
loop_
_atom_site_type_symbol
_atom_site_label
_atom_site_fract_x
_atom_site_fract_y
_atom_site_fract_z
Si Si1 0.081160 0.303551 0.191639
Si Si2 0.576677 0.446625 0.518864
Si Si3 0.130741 0.089271 0.252617
Si Si4 0.310551 0.636297 0.703595
Si Si5 0.578021 0.253090 0.997532
Si Si6 0.983040 0.158311 0.592417
Si Si7 0.802112 0.793773 0.656854
Si Si8 0.635003 0.522763 0.829474
O O1 0.182818 0.342637 0.187478
O O2 0.129413 0.245514 0.246138
O O3 0.000000 0.331842 0.250000
O O4 0.995313 0.295674 0.072532
O O5 0.500000 0.500000 0.500000
O O6 0.640822 0.429803 0.640916
O O7 0.496065 0.395119 0.467567
O O8 0.659816 0.460316 0.451434
O O9 0.200200 0.145007 0.298209
O O10 0.000000 0.099408 0.250000
O O11 0.187431 0.037691 0.328976
O O12 0.358884 0.653292 0.610065
O O13 0.403205 0.663826 0.804757
O O14 0.304210 0.570656 0.715072
O O15 0.639144 0.291294 0.933425
O O16 0.481330 0.288608 0.023949
O O17 0.669971 0.227205 0.103101
O O18 0.500000 0.522409 0.750000
#
# Coordination Sequence:
#
# PCOD8130926 Si02
#       8
#     8   8   8   8   8   8   8   8
#     4  10  20  35  52  75 104 138 183 226 266 324
#     4  11  17  28  47  77 109 140 171 212 284 339
#     4  11  19  30  49  77 112 142 174 229 283 332
#     4  10  18  33  51  72 106 135 173 222 264 322
#     4  10  20  33  50  76 103 143 185 221 274 325
#     4  10  18  30  51  74 103 140 170 214 271 330
#     4  10  20  34  50  76 111 140 181 232 274 322
#     4  10  18  31  48  77 110 139 173 224 274 334
#
# _framework density 16.877661
#
# number of rings (size 3 to 8) (size 9 to 14) (size 15 to 20)
#    0.000    1.750    6.250    2.625    0.000    0.500 
#    0.000    0.000    0.000    0.750    0.000    1.750 
#    0.000    0.000    0.000    0.000    0.000    0.000 
#
# Total GULP energy -396428.357484 kJ/mol
# GULP energy per Si atom -12388.386171 kJ/mol
# Density = 1.683925 g / cm^3
# Si number density = 16.877661 Si / 1000 Ang^3
#
#
#
# Elastic Constant Matrix: (Units=GPa)
#
#
# Indices 1 2 3 4 5 6 
#
# 1 80.7920 44.4065 19.4276 0.0000 1.0431 0.0000
# 2 44.4065 109.7214 29.6355 0.0000 -7.2768 0.0000
# 3 19.4276 29.6355 76.2272 0.0000 -6.8036 0.0000
# 4 0.0000 0.0000 0.0000 22.7069 0.0000 -0.8514
# 5 1.0431 -7.2768 -6.8036 0.0000 17.1883 0.0000
# 6 0.0000 0.0000 0.0000 -0.8514 0.0000 16.9811
#
#
#
# Elastic Compliance Matrix: (Units=1/GPa)
#
#
# Indices 1 2 3 4 5 6 
#
# 1 0.016457 -0.006390 -0.002115 0.000000 -0.004541 0.000000
# 2 -0.006390 0.012801 -0.002933 0.000000 0.004646 0.000000
# 3 -0.002115 -0.002933 0.015237 0.000000 0.004918 0.000000
# 4 0.000000 0.000000 0.000000 0.044122 0.000000 0.002212
# 5 -0.004541 0.004646 0.004918 0.000000 0.062368 0.000000
# 6 0.000000 0.000000 0.000000 0.002212 0.000000 0.059000
#
#
# Mechanical properties :
#
#
# Convention : Reuss Voigt Hill
#
# Bulk Modulus (GPa) = 46.25959 50.40886 48.33423
# Shear Modulus (GPa) = 20.82735 22.92668 21.87702
#
# Velocity S-wave (km/s) = 3.51667 3.68965 3.60420
# Velocity P-wave (km/s) = 6.63005 6.93422 6.78384
#
# Compressibility (1/GPa) = 0.02161714
#
# Stress axis : x y z
#
# Youngs Moduli (GPa) = 60.76380 78.12049 65.62924
#
# Poissons Ratio (x) = 0.49922 0.13882
# Poissons Ratio (y) = 0.38831 0.19251
# Poissons Ratio (z) = 0.12853 0.22915
#
# Static dielectric constant tensor:
#      x y z
#    x 2.869920 0.000000 -0.193420 
#    y 0.000000 3.295850 0.000000 
#    z -0.193420 0.000000 3.117210 
# 
# 
# High freq. dielectric constant tensor:
#      x y z
#    x 1.601910 0.000000 -0.020740 
#    y 0.000000 1.654180 0.000000 
#    z -0.020740 0.000000 1.655770 
# 
# From -- ./inp_files/147879.got.cif
#   From: 2010.06.25/outbox.cif.g09.slc.cpg/sg15_74_cif.got.tgz:147879.got - 2010.06.28 07:06:18.
