data_PCOD8130792
_publ_section_title
;
Structure prediction by ZEFSAII (Michael W. Deem and Ramdas Pophale) SiO2 
 PCOD8130792
Probable space group: C 2/C
;
_chemical_formula_sum "Si O2"
_cell_formula_units_Z 52
_cell_length_a 15.536204
_cell_length_b 21.225185
_cell_length_c 12.697017
_cell_angle_alpha 90.000000
_cell_angle_beta 142.277421
_cell_angle_gamma 90.000000
_cell_volume 2561.740371
_symmetry_space_group_name_H-M "C 2/C"
_symmetry_group_IT_number 15
_symmetry_cell_setting 'monoclinic'
loop_
_space_group_symop_operation_xyz
x,y,z
-x,y,1/2-z
-x,-y,-z
x,-y,1/2+z
1/2+x,1/2+y,z
1/2-x,1/2+y,1/2-z
1/2-x,1/2-y,-z
1/2+x,1/2-y,1/2+z
loop_
_atom_site_type_symbol
_atom_site_label
_atom_site_fract_x
_atom_site_fract_y
_atom_site_fract_z
Si Si1 0.307699 0.188644 0.836475
Si Si2 0.341409 0.014929 0.612035
Si Si3 0.589282 0.483580 0.739836
Si Si4 0.000000 0.180268 0.750000
Si Si5 0.089543 0.718453 0.168229
Si Si6 0.791235 0.370041 0.547005
Si Si7 0.834804 0.932976 0.378840
O O1 0.228206 0.255277 0.743762
O O2 0.227708 0.136895 0.689351
O O3 0.472324 0.199322 0.966533
O O4 0.323814 0.170249 0.974829
O O5 0.500000 0.041400 0.750000
O O6 0.231616 0.049031 0.424448
O O7 0.282898 0.025897 0.673565
O O8 0.339962 0.941491 0.582371
O O9 0.500000 0.513685 0.750000
O O10 0.487967 0.432831 0.584108
O O11 0.639931 0.539555 0.712683
O O12 0.037639 0.222245 0.686286
O O13 0.874553 0.134548 0.591780
O O14 0.122988 0.658488 0.272652
#
# Coordination Sequence:
#
# PCOD8130792 Si02
#       7
#     8   8   8   4   8   8   8
#     4  11  20  36  54  83 119 152 187 239 280 359
#     4  11  23  38  59  87 123 158 192 242 299 340
#     4   9  20  39  57  84 114 156 199 235 285 347
#     4  10  18  28  52  78 108 164 192 218 272 364
#     4  11  19  34  50  81 116 156 194 222 293 348
#     4  11  20  32  54  81 123 156 189 229 290 353
#     4  10  22  38  60  84 120 157 201 237 286 352
#
# _framework density 20.2987
#
# number of rings (size 3 to 8) (size 9 to 14) (size 15 to 20)
#    0.000    1.538    4.615    1.846    3.231    1.846 
#    0.000    0.000    0.000    0.000    0.000   14.000 
#    0.000    0.000    0.000    0.000    0.000    0.000 
#
# Total GULP energy -322203.900328 kJ/mol
# GULP energy per Si atom -12392.457705 kJ/mol
# Density = 2.025250 g / cm^3
# Si number density = 20.298700 Si / 1000 Ang^3
#
#
#
# Elastic Constant Matrix: (Units=GPa)
#
#
# Indices 1 2 3 4 5 6 
#
# 1 72.9968 1.6972 49.5303 0.0000 8.7921 0.0000
# 2 1.6972 53.0523 40.9569 0.0000 3.2422 0.0000
# 3 49.5303 40.9569 156.9745 0.0000 34.5224 0.0000
# 4 0.0000 0.0000 0.0000 36.0136 0.0000 3.0502
# 5 8.7921 3.2422 34.5224 0.0000 35.8389 0.0000
# 6 0.0000 0.0000 0.0000 3.0502 0.0000 12.1672
#
#
#
# Elastic Compliance Matrix: (Units=1/GPa)
#
#
# Indices 1 2 3 4 5 6 
#
# 1 0.018548 0.005248 -0.007761 0.000000 0.002451 0.000000
# 2 0.005248 0.025763 -0.009620 0.000000 0.005649 0.000000
# 3 -0.007761 -0.009620 0.013600 0.000000 -0.010326 0.000000
# 4 0.000000 0.000000 0.000000 0.028370 0.000000 -0.007112
# 5 0.002451 0.005649 -0.010326 0.000000 0.036738 0.000000
# 6 0.000000 0.000000 0.000000 -0.007112 0.000000 0.083971
#
#
# Mechanical properties :
#
#
# Convention : Reuss Voigt Hill
#
# Bulk Modulus (GPa) = 29.72129 51.93252 40.82690
# Shear Modulus (GPa) = 20.62110 29.52656 25.07383
#
# Velocity S-wave (km/s) = 3.19075 3.81806 3.51842
# Velocity P-wave (km/s) = 5.31491 6.71390 6.05495
#
# Compressibility (1/GPa) = 0.03364592
#
# Stress axis : x y z
#
# Youngs Moduli (GPa) = 53.91445 38.81516 73.52779
#
# Poissons Ratio (x) = -0.20371 0.57063
# Poissons Ratio (y) = -0.28296 0.70735
# Poissons Ratio (z) = 0.41842 0.37341
#
# Static dielectric constant tensor:
#      x y z
#    x 3.653720 0.000000 0.503870 
#    y 0.000000 3.295290 0.000000 
#    z 0.503870 0.000000 4.296800 
# 
# 
# High freq. dielectric constant tensor:
#      x y z
#    x 1.760950 0.000000 0.037210 
#    y 0.000000 1.756430 0.000000 
#    z 0.037210 0.000000 1.810190 
# 
# From -- ./inp_files/100699.got.cif
#   From: 2010.06.25/outbox.cif.g09.slc.cpg/sg15_51_cif.got.tgz:100699.got - 2010.06.28 07:06:18.
