data_PCOD8130391
_publ_section_title
;
Structure prediction by ZEFSAII (Michael W. Deem and Ramdas Pophale) SiO2 
 PCOD8130391
Probable space group: C 2/C
;
_chemical_formula_sum "Si O2"
_cell_formula_units_Z 52
_cell_length_a 21.606640
_cell_length_b 8.679258
_cell_length_c 18.886671
_cell_angle_alpha 90.000000
_cell_angle_beta 50.035783
_cell_angle_gamma 90.000000
_cell_volume 2714.605103
_symmetry_space_group_name_H-M "C 2/C"
_symmetry_group_IT_number 15
_symmetry_cell_setting 'monoclinic'
loop_
_space_group_symop_operation_xyz
x,y,z
-x,y,1/2-z
-x,-y,-z
x,-y,1/2+z
1/2+x,1/2+y,z
1/2-x,1/2+y,1/2-z
1/2-x,1/2-y,-z
1/2+x,1/2-y,1/2+z
loop_
_atom_site_type_symbol
_atom_site_label
_atom_site_fract_x
_atom_site_fract_y
_atom_site_fract_z
Si Si1 0.409001 0.527983 0.224745
Si Si2 0.093659 0.210732 0.895790
Si Si3 0.153216 0.689758 0.878993
Si Si4 0.496704 0.778038 0.405854
Si Si5 0.542816 0.884020 0.583359
Si Si6 0.747047 0.605252 0.219627
Si Si7 0.500000 0.699923 0.750000
O O1 0.409466 0.444593 0.147320
O O2 0.478531 0.659879 0.175015
O O3 0.319681 0.604669 0.295926
O O4 0.427767 0.405328 0.272064
O O5 0.184107 0.268764 0.842354
O O6 0.038952 0.341977 0.898471
O O7 0.059319 0.180887 0.999395
O O8 0.076571 0.665730 0.886153
O O9 0.216228 0.563108 0.805917
O O10 0.198954 0.851603 0.828540
O O11 0.123476 0.673554 0.982180
O O12 0.452003 0.931097 0.409833
O O13 0.542988 0.804667 0.659777
#
# Coordination Sequence:
#
# PCOD8130391 Si02
#       7
#     8   8   8   8   8   8   4
#     4  10  22  34  55  81 118 153 185 230 284 334
#     4  10  17  32  55  86 115 136 181 242 297 333
#     4  10  19  32  54  91 115 139 176 237 299 341
#     4  10  18  32  59  85 107 143 190 239 290 331
#     4  10  19  36  58  78 111 156 196 227 272 339
#     4  11  18  31  56  86 120 138 171 237 300 332
#     4  10  24  42  52  76 116 164 206 224 260 336
#
# _framework density 19.155640999999999
#
# number of rings (size 3 to 8) (size 9 to 14) (size 15 to 20)
#    0.000    1.846    4.615    1.385    0.000    1.846 
#    0.000    0.769    0.000    0.923    0.000    0.000 
#    0.000    0.000    0.000    0.000    0.000    0.000 
#
# Total GULP energy -322126.244884 kJ/mol
# GULP energy per Si atom -12389.470957 kJ/mol
# Density = 1.911204 g / cm^3
# Si number density = 19.155641 Si / 1000 Ang^3
#
#
#
# Elastic Constant Matrix: (Units=GPa)
#
#
# Indices 1 2 3 4 5 6 
#
# 1 59.7569 29.6230 50.3903 -0.0006 -9.5129 0.0002
# 2 29.6230 79.4893 54.9444 -0.0017 3.2930 0.0018
# 3 50.3903 54.9444 118.1772 0.0000 -5.4912 0.0003
# 4 -0.0006 -0.0017 0.0000 29.5401 0.0003 -7.6719
# 5 -9.5129 3.2930 -5.4912 0.0003 26.2734 -0.0003
# 6 0.0002 0.0018 0.0003 -7.6719 -0.0003 31.7285
#
#
#
# Elastic Compliance Matrix: (Units=1/GPa)
#
#
# Indices 1 2 3 4 5 6 
#
# 1 0.028461 -0.004221 -0.009764 0.000000 0.008793 0.000000
# 2 -0.004221 0.019627 -0.007584 0.000001 -0.005573 -0.000001
# 3 -0.009764 -0.007584 0.016188 -0.000001 0.000799 0.000000
# 4 0.000000 0.000001 -0.000001 0.036121 0.000000 0.008734
# 5 0.008793 -0.005573 0.000799 0.000000 0.042111 0.000001
# 6 0.000000 -0.000001 0.000000 0.008734 0.000001 0.033629
#
#
# Mechanical properties :
#
#
# Convention : Reuss Voigt Hill
#
# Bulk Modulus (GPa) = 47.31177 58.59321 52.95249
# Shear Modulus (GPa) = 22.09251 25.67280 23.88266
#
# Velocity S-wave (km/s) = 3.39974 3.66487 3.53479
# Velocity P-wave (km/s) = 6.33744 6.96870 6.66055
#
# Compressibility (1/GPa) = 0.02113639
#
# Stress axis : x y z
#
# Youngs Moduli (GPa) = 35.13618 50.95132 61.77227
#
# Poissons Ratio (x) = 0.21508 0.60316
# Poissons Ratio (y) = 0.14832 0.46848
# Poissons Ratio (z) = 0.34308 0.38642
#
# Static dielectric constant tensor:
#      x y z
#    x 3.304560 0.000000 -0.333050 
#    y 0.000000 3.657350 0.000000 
#    z -0.333050 0.000000 3.692080 
# 
# 
# High freq. dielectric constant tensor:
#      x y z
#    x 1.704280 0.000000 -0.029890 
#    y 0.000000 1.759240 0.000000 
#    z -0.029890 0.000000 1.737000 
# 
# From -- ./inp_files/176722.got.cif
#   From: 2010.06.25/outbox.cif.g09.slc.cpg/sg15_89_cif.got.tgz:176722.got - 2010.06.28 07:06:18.
