data_PCOD8130655
_publ_section_title
;
Structure prediction by ZEFSAII (Michael W. Deem and Ramdas Pophale) SiO2 
 PCOD8130655
Probable space group: C 2/C
;
_chemical_formula_sum "Si O2"
_cell_formula_units_Z 52
_cell_length_a 15.933541
_cell_length_b 11.130545
_cell_length_c 17.840341
_cell_angle_alpha 90.000000
_cell_angle_beta 63.022192
_cell_angle_gamma 90.000000
_cell_volume 2819.670981
_symmetry_space_group_name_H-M "C 2/C"
_symmetry_group_IT_number 15
_symmetry_cell_setting 'monoclinic'
loop_
_space_group_symop_operation_xyz
x,y,z
-x,y,1/2-z
-x,-y,-z
x,-y,1/2+z
1/2+x,1/2+y,z
1/2-x,1/2+y,1/2-z
1/2-x,1/2-y,-z
1/2+x,1/2-y,1/2+z
loop_
_atom_site_type_symbol
_atom_site_label
_atom_site_fract_x
_atom_site_fract_y
_atom_site_fract_z
Si Si1 0.049578 0.630949 0.808921
Si Si2 0.842417 0.422771 0.802280
Si Si3 0.984324 0.001773 0.338297
Si Si4 0.500000 0.728572 0.750000
Si Si5 0.659214 0.633807 0.289949
Si Si6 0.696144 0.366808 0.605509
Si Si7 0.851592 0.606322 0.928950
O O1 0.107922 0.508254 0.778801
O O2 0.121454 0.730832 0.807956
O O3 0.000000 0.665456 0.750000
O O4 0.963292 0.614393 0.902482
O O5 0.905955 0.305149 0.783406
O O6 0.740234 0.380668 0.817890
O O7 0.831999 0.490172 0.885535
O O8 0.885103 0.057388 0.406227
O O9 0.000000 0.063299 0.250000
O O10 0.073673 0.045855 0.350817
O O11 0.986460 0.856758 0.329265
O O12 0.699731 0.599322 0.191608
O O13 0.795379 0.406463 0.529273
O O14 0.681855 0.224470 0.602571
#
# Coordination Sequence:
#
# PCOD8130655 Si02
#       7
#     8   8   8   4   8   8   8
#     4  10  17  36  58  78 107 146 189 225 269 329
#     4  11  22  33  56  84 109 140 190 232 269 327
#     4   8  18  32  54  77 105 149 180 217 269 341
#     4  10  20  34  54  72 112 150 182 212 280 328
#     4  11  19  33  58  85 105 140 191 234 266 319
#     4  10  18  35  61  85 107 146 188 227 280 327
#     4  10  19  35  61  83 109 147 185 231 277 329
#
# _framework density 18.441867999999999
#
# number of rings (size 3 to 8) (size 9 to 14) (size 15 to 20)
#    0.462    1.538    6.923    0.462    2.154    0.000 
#    0.000    2.308    3.385    0.000    0.000    0.000 
#    0.000    0.000    0.000    0.000    0.000    0.000 
#
# Total GULP energy -322232.078811 kJ/mol
# GULP energy per Si atom -12393.541493 kJ/mol
# Density = 1.839989 g / cm^3
# Si number density = 18.441868 Si / 1000 Ang^3
#
#
#
# Elastic Constant Matrix: (Units=GPa)
#
#
# Indices 1 2 3 4 5 6 
#
# 1 108.1123 43.6770 24.2140 0.0000 -24.3603 0.0000
# 2 43.6770 122.7292 19.7803 0.0000 -11.8760 0.0000
# 3 24.2140 19.7803 75.5271 0.0000 -26.9215 0.0000
# 4 0.0000 0.0000 0.0000 13.7914 0.0000 -9.3235
# 5 -24.3603 -11.8760 -26.9215 0.0000 25.8563 0.0000
# 6 0.0000 0.0000 0.0000 -9.3235 0.0000 30.8311
#
#
#
# Elastic Compliance Matrix: (Units=1/GPa)
#
#
# Indices 1 2 3 4 5 6 
#
# 1 0.013168 -0.003705 0.000897 0.000000 0.011638 0.000000
# 2 -0.003705 0.009654 -0.001597 0.000000 -0.000719 0.000000
# 3 0.000897 -0.001597 0.021325 0.000000 0.022316 0.000000
# 4 0.000000 0.000000 0.000000 0.091142 0.000000 0.027562
# 5 0.011638 -0.000719 0.022316 0.000000 0.072545 0.000000
# 6 0.000000 0.000000 0.000000 0.027562 0.000000 0.040770
#
#
# Mechanical properties :
#
#
# Convention : Reuss Voigt Hill
#
# Bulk Modulus (GPa) = 28.29767 53.52346 40.91057
# Shear Modulus (GPa) = 18.57413 28.67559 23.62486
#
# Velocity S-wave (km/s) = 3.17704 3.94752 3.58305
# Velocity P-wave (km/s) = 5.36989 7.06138 6.27291
#
# Compressibility (1/GPa) = 0.03533860
#
# Stress axis : x y z
#
# Youngs Moduli (GPa) = 75.94311 103.58160 46.89286
#
# Poissons Ratio (x) = 0.38372 -0.04207
# Poissons Ratio (y) = 0.28133 0.07488
# Poissons Ratio (z) = -0.06813 0.16541
#
# Static dielectric constant tensor:
#      x y z
#    x 3.253920 0.000000 -0.464200 
#    y 0.000000 3.324120 0.000000 
#    z -0.464200 0.000000 3.312790 
# 
# 
# High freq. dielectric constant tensor:
#      x y z
#    x 1.698160 0.000000 -0.042170 
#    y 0.000000 1.718850 0.000000 
#    z -0.042170 0.000000 1.683990 
# 
# From -- ./inp_files/243303.got.cif
#   From: 2010.06.25/outbox.cif.g09.slc.cpg/sg15_122_cif.got.tgz:243303.got - 2010.06.28 07:06:18.
