data_PCOD8130657
_publ_section_title
;
Structure prediction by ZEFSAII (Michael W. Deem and Ramdas Pophale) SiO2 
 PCOD8130657
Probable space group: C 2/C
;
_chemical_formula_sum "Si O2"
_cell_formula_units_Z 56
_cell_length_a 28.854905
_cell_length_b 13.851015
_cell_length_c 13.386290
_cell_angle_alpha 90.000000
_cell_angle_beta 30.793771
_cell_angle_gamma 90.000000
_cell_volume 2738.978245
_symmetry_space_group_name_H-M "C 2/C"
_symmetry_group_IT_number 15
_symmetry_cell_setting 'monoclinic'
loop_
_space_group_symop_operation_xyz
x,y,z
-x,y,1/2-z
-x,-y,-z
x,-y,1/2+z
1/2+x,1/2+y,z
1/2-x,1/2+y,1/2-z
1/2-x,1/2-y,-z
1/2+x,1/2-y,1/2+z
loop_
_atom_site_type_symbol
_atom_site_label
_atom_site_fract_x
_atom_site_fract_y
_atom_site_fract_z
Si Si1 0.448376 0.576867 0.659930
Si Si2 0.000000 0.034156 0.250000
Si Si3 0.240390 0.956298 0.937801
Si Si4 0.323049 0.990320 0.985681
Si Si5 0.756961 0.671150 0.215150
Si Si6 0.553592 0.726745 0.556680
Si Si7 0.187624 0.886414 0.380159
Si Si8 0.500000 0.910120 0.750000
O O1 0.500000 0.500000 0.500000
O O2 0.448947 0.534290 0.769195
O O3 0.500603 0.680791 0.558814
O O4 0.341062 0.584045 0.839607
O O5 0.918314 0.095961 0.451943
O O6 0.267410 0.875371 0.806251
O O7 0.217740 0.057749 0.925328
O O8 0.320377 0.973658 0.870601
O O9 0.253370 0.917922 0.168860
O O10 0.298796 0.100714 0.054804
O O11 0.425013 0.974582 0.835408
O O12 0.653754 0.685974 0.374791
O O13 0.807860 0.772037 0.113796
O O14 0.500000 0.683695 0.750000
O O15 0.547885 0.843573 0.574650
#
# Coordination Sequence:
#
# PCOD8130657 Si02
#       8
#     8   4   8   8   8   8   8   4
#     4  11  18  32  58  89 119 149 196 258 322 356
#     4  10  19  35  54  82 126 148 192 256 310 364
#     4  10  21  37  60  92 119 154 208 262 300 374
#     4  11  23  40  63  89 123 164 208 258 315 366
#     4  11  21  39  62  85 126 166 204 256 312 366
#     4  10  17  36  58  82 116 162 195 249 307 359
#     4  10  21  39  59  88 123 164 201 256 318 368
#     4  10  21  41  62  84 126 170 204 254 310 376
#
# _framework density 20.44558
#
# number of rings (size 3 to 8) (size 9 to 14) (size 15 to 20)
#    0.429    1.143    3.571    3.429    0.000    1.714 
#    2.571    2.857    0.000    0.000    0.000    0.000 
#    0.000    0.000    0.000    0.000    0.000    0.000 
#
# Total GULP energy -346892.541033 kJ/mol
# GULP energy per Si atom -12389.019323 kJ/mol
# Density = 2.039905 g / cm^3
# Si number density = 20.445580 Si / 1000 Ang^3
#
#
#
# Elastic Constant Matrix: (Units=GPa)
#
#
# Indices 1 2 3 4 5 6 
#
# 1 80.5310 20.5911 35.3261 0.0000 -19.0130 0.0000
# 2 20.5911 115.2880 27.0330 0.0000 -16.1832 0.0000
# 3 35.3261 27.0330 70.3935 0.0000 -20.4721 0.0000
# 4 0.0000 0.0000 0.0000 30.5275 0.0000 -7.2909
# 5 -19.0130 -16.1832 -20.4721 0.0000 30.8346 0.0000
# 6 0.0000 0.0000 0.0000 -7.2909 0.0000 20.5810
#
#
#
# Elastic Compliance Matrix: (Units=1/GPa)
#
#
# Indices 1 2 3 4 5 6 
#
# 1 0.016787 -0.000674 -0.006516 0.000000 0.005671 0.000000
# 2 -0.000674 0.009819 -0.002546 0.000000 0.003047 0.000000
# 3 -0.006516 -0.002546 0.020940 0.000000 0.008548 0.000000
# 4 0.000000 0.000000 0.000000 0.035785 0.000000 0.012677
# 5 0.005671 0.003047 0.008548 0.000000 0.043203 0.000000
# 6 0.000000 0.000000 0.000000 0.012677 0.000000 0.053079
#
#
# Mechanical properties :
#
#
# Convention : Reuss Voigt Hill
#
# Bulk Modulus (GPa) = 35.62183 48.01253 41.81718
# Shear Modulus (GPa) = 23.98717 28.60610 26.29663
#
# Velocity S-wave (km/s) = 3.42895 3.74456 3.59022
# Velocity P-wave (km/s) = 5.75652 6.49844 6.13869
#
# Compressibility (1/GPa) = 0.02807267
#
# Stress axis : x y z
#
# Youngs Moduli (GPa) = 59.56854 101.84175 47.75579
#
# Poissons Ratio (x) = 0.06867 0.31119
# Poissons Ratio (y) = 0.04017 0.12160
# Poissons Ratio (z) = 0.38817 0.25931
#
# Static dielectric constant tensor:
#      x y z
#    x 3.371390 0.000000 -0.140330 
#    y 0.000000 3.744360 0.000000 
#    z -0.140330 0.000000 3.635410 
# 
# 
# High freq. dielectric constant tensor:
#      x y z
#    x 1.786620 0.000000 -0.013300 
#    y 0.000000 1.791800 0.000000 
#    z -0.013300 0.000000 1.789340 
# 
# From -- ./inp_files/182144.got.cif
#   From: 2010.06.25/outbox.cif.g09.slc.cpg/sg15_92_cif.got.tgz:182144.got - 2010.06.28 07:06:18.
