data_PCOD8130568
_publ_section_title
;
Structure prediction by ZEFSAII (Michael W. Deem and Ramdas Pophale) SiO2 
 PCOD8130568
Probable space group: C 2/C
;
_chemical_formula_sum "Si O2"
_cell_formula_units_Z 64
_cell_length_a 10.850654
_cell_length_b 21.115526
_cell_length_c 24.772799
_cell_angle_alpha 90.000000
_cell_angle_beta 144.946860
_cell_angle_gamma 90.000000
_cell_volume 3259.859500
_symmetry_space_group_name_H-M "C 2/C"
_symmetry_group_IT_number 15
_symmetry_cell_setting 'monoclinic'
loop_
_space_group_symop_operation_xyz
x,y,z
-x,y,1/2-z
-x,-y,-z
x,-y,1/2+z
1/2+x,1/2+y,z
1/2-x,1/2+y,1/2-z
1/2-x,1/2-y,-z
1/2+x,1/2-y,1/2+z
loop_
_atom_site_type_symbol
_atom_site_label
_atom_site_fract_x
_atom_site_fract_y
_atom_site_fract_z
Si Si1 0.589796 0.764403 0.990128
Si Si2 0.392132 0.700489 0.308296
Si Si3 0.302582 0.871942 0.859150
Si Si4 0.523505 0.102383 0.893853
Si Si5 0.234543 0.791650 0.335180
Si Si6 0.836718 0.304473 0.142898
Si Si7 0.602756 0.417457 0.896887
Si Si8 0.175009 0.001331 0.267198
O O1 0.516597 0.838445 0.958407
O O2 0.401133 0.711310 0.921140
O O3 0.750000 0.750000 0.000000
O O4 0.716574 0.757039 0.091322
O O5 0.287051 0.681063 0.213846
O O6 0.224336 0.739678 0.283854
O O7 0.598051 0.744532 0.370273
O O8 0.465102 0.640677 0.372146
O O9 0.144953 0.887025 0.852372
O O10 0.330595 0.939836 0.839947
O O11 0.418892 0.157339 0.891593
O O12 0.649898 0.130931 0.887856
O O13 0.334068 0.055106 0.808191
O O14 0.691702 0.065730 0.993305
O O15 0.000000 0.824201 0.250000
O O16 0.000000 0.315283 0.250000
O O17 0.460111 0.480204 0.835421
O O18 0.000000 0.981734 0.250000
#
# Coordination Sequence:
#
# PCOD8130568 Si02
#       8
#     8   8   8   8   8   8   8   8
#     4  12  23  37  58  91 125 156 199 248 309 369
#     4  10  17  34  61  83 119 157 196 240 297 369
#     4  10  18  35  59  86 119 155 198 247 293 361
#     4  11  22  38  59  87 122 152 203 249 304 369
#     4  11  23  35  53  89 129 158 188 250 313 356
#     4  11  21  37  63  88 120 161 197 244 311 367
#     4  10  18  35  61  86 114 156 202 253 292 359
#     4   9  21  36  57  87 116 156 198 250 305 347
#
# _framework density 19.632747999999999
#
# number of rings (size 3 to 8) (size 9 to 14) (size 15 to 20)
#    0.000    1.500    3.750    3.000    1.750    4.000 
#    2.250    0.000    0.000    9.000    0.000    0.000 
#    0.000    0.000    0.000    0.000    0.000    0.000 
#
# Total GULP energy -396593.162910 kJ/mol
# GULP energy per Si atom -12393.536341 kJ/mol
# Density = 1.958806 g / cm^3
# Si number density = 19.632748 Si / 1000 Ang^3
#
#
#
# Elastic Constant Matrix: (Units=GPa)
#
#
# Indices 1 2 3 4 5 6 
#
# 1 93.4633 37.7969 43.1508 -0.0015 5.1011 -0.0008
# 2 37.7969 82.9518 36.3170 -0.0011 2.7139 -0.0003
# 3 43.1508 36.3170 125.8636 -0.0046 -5.0398 -0.0032
# 4 -0.0015 -0.0011 -0.0046 28.8792 -0.0026 3.9733
# 5 5.1011 2.7139 -5.0398 -0.0026 25.8104 -0.0014
# 6 -0.0008 -0.0003 -0.0032 3.9733 -0.0014 21.1152
#
#
#
# Elastic Compliance Matrix: (Units=1/GPa)
#
#
# Indices 1 2 3 4 5 6 
#
# 1 0.014563 -0.004916 -0.003698 0.000000 -0.003083 0.000000
# 2 -0.004916 0.015588 -0.002862 0.000000 -0.001226 0.000000
# 3 -0.003698 -0.002862 0.010159 0.000001 0.003015 0.000001
# 4 0.000000 0.000000 0.000001 0.035547 0.000004 -0.006689
# 5 -0.003083 -0.001226 0.003015 0.000004 0.040071 0.000002
# 6 0.000000 0.000000 0.000001 -0.006689 0.000002 0.048618
#
#
# Mechanical properties :
#
#
# Convention : Reuss Voigt Hill
#
# Bulk Modulus (GPa) = 57.60403 59.64536 58.62469
# Shear Modulus (GPa) = 25.86877 27.49523 26.68200
#
# Velocity S-wave (km/s) = 3.63386 3.74636 3.69054
# Velocity P-wave (km/s) = 6.85646 7.01142 6.93438
#
# Compressibility (1/GPa) = 0.01735990
#
# Stress axis : x y z
#
# Youngs Moduli (GPa) = 68.66799 64.15189 98.43233
#
# Poissons Ratio (x) = 0.31536 0.36398
# Poissons Ratio (y) = 0.33756 0.28167
# Poissons Ratio (z) = 0.25392 0.18358
#
# Static dielectric constant tensor:
#      x y z
#    x 3.408990 0.000000 -0.048480 
#    y 0.000000 3.536200 0.000000 
#    z -0.048480 0.000000 3.563960 
# 
# 
# High freq. dielectric constant tensor:
#      x y z
#    x 1.736670 0.000000 -0.005670 
#    y 0.000000 1.748240 0.000000 
#    z -0.005670 0.000000 1.771430 
# 
# From -- ./inp_files/293771.got.cif
#   From: 2010.06.25/outbox.cif.g09.slc.cpg/sg15_147_cif.got.tgz:293771.got - 2010.06.28 07:06:18.
