data_PCOD8130233
_publ_section_title
;
Structure prediction by ZEFSAII (Michael W. Deem and Ramdas Pophale) SiO2 
 PCOD8130233
Probable space group: C 2/C
;
_chemical_formula_sum "Si O2"
_cell_formula_units_Z 52
_cell_length_a 12.471486
_cell_length_b 19.246766
_cell_length_c 15.168506
_cell_angle_alpha 90.000000
_cell_angle_beta 126.334849
_cell_angle_gamma 90.000000
_cell_volume 2933.060440
_symmetry_space_group_name_H-M "C 2/C"
_symmetry_group_IT_number 15
_symmetry_cell_setting 'monoclinic'
loop_
_space_group_symop_operation_xyz
x,y,z
-x,y,1/2-z
-x,-y,-z
x,-y,1/2+z
1/2+x,1/2+y,z
1/2-x,1/2+y,1/2-z
1/2-x,1/2-y,-z
1/2+x,1/2-y,1/2+z
loop_
_atom_site_type_symbol
_atom_site_label
_atom_site_fract_x
_atom_site_fract_y
_atom_site_fract_z
Si Si1 0.655114 0.813248 0.066808
Si Si2 0.000000 0.725818 0.250000
Si Si3 0.760895 0.163870 0.436301
Si Si4 0.871855 0.291180 0.973960
Si Si5 0.092125 0.830311 0.880458
Si Si6 0.136915 0.186996 0.680528
Si Si7 0.004236 0.081775 0.007019
O O1 0.649048 0.732366 0.035081
O O2 0.738458 0.828172 0.195417
O O3 0.726643 0.853673 0.021503
O O4 0.500871 0.835728 0.005394
O O5 0.125091 0.675274 0.317247
O O6 0.015173 0.776245 0.173345
O O7 0.840866 0.100796 0.432285
O O8 0.749200 0.342796 0.935136
O O9 0.815273 0.238531 0.872781
O O10 0.920012 0.245958 0.081550
O O11 0.000000 0.832996 0.750000
O O12 0.045632 0.891579 0.922649
O O13 0.084226 0.114790 0.614621
O O14 0.000000 0.000000 0.000000
#
# Coordination Sequence:
#
# PCOD8130233 Si02
#       7
#     8   4   8   8   8   8   8
#     4  10  17  30  56  88 112 130 171 239 285 318
#     4  10  18  30  62  90 112 126 172 246 290 314
#     4  10  18  32  54  86 110 138 176 225 285 318
#     4  10  18  32  54  83 114 133 170 230 285 319
#     4  10  21  35  52  80 108 147 182 216 269 329
#     4  10  18  31  55  85 109 139 174 222 286 317
#     4  11  23  40  53  73 114 153 187 217 257 332
#
# _framework density 17.728922000000001
#
# number of rings (size 3 to 8) (size 9 to 14) (size 15 to 20)
#    0.000    1.846    4.615    2.769    2.154    0.000 
#    4.154    0.000    3.385    0.923    0.000    0.000 
#    0.000    0.000    0.000    0.000    0.000    0.000 
#
# Total GULP energy -322318.649849 kJ/mol
# GULP energy per Si atom -12396.871148 kJ/mol
# Density = 1.768857 g / cm^3
# Si number density = 17.728922 Si / 1000 Ang^3
#
#
#
# Elastic Constant Matrix: (Units=GPa)
#
#
# Indices 1 2 3 4 5 6 
#
# 1 155.6223 53.7665 59.5786 0.0000 9.6230 0.0000
# 2 53.7665 88.4604 44.9140 0.0000 -0.7734 0.0000
# 3 59.5786 44.9140 136.2958 0.0000 -3.2273 0.0000
# 4 0.0000 0.0000 0.0000 12.5578 0.0000 1.1207
# 5 9.6230 -0.7734 -3.2273 0.0000 30.8027 0.0000
# 6 0.0000 0.0000 0.0000 1.1207 0.0000 16.2563
#
#
#
# Elastic Compliance Matrix: (Units=1/GPa)
#
#
# Indices 1 2 3 4 5 6 
#
# 1 0.009100 -0.004204 -0.002669 0.000000 -0.003228 0.000000
# 2 -0.004204 0.015519 -0.003244 0.000000 0.001363 0.000000
# 3 -0.002669 -0.003244 0.009614 0.000000 0.001760 0.000000
# 4 0.000000 0.000000 0.000000 0.080125 0.000000 -0.005524
# 5 -0.003228 0.001363 0.001760 0.000000 0.033692 0.000000
# 6 0.000000 0.000000 0.000000 -0.005524 0.000000 0.061895
#
#
# Mechanical properties :
#
#
# Convention : Reuss Voigt Hill
#
# Bulk Modulus (GPa) = 71.43327 77.43296 74.43312
# Shear Modulus (GPa) = 21.29073 26.73133 24.01103
#
# Velocity S-wave (km/s) = 3.46917 3.88723 3.68413
# Velocity P-wave (km/s) = 7.51174 7.99489 7.75708
#
# Compressibility (1/GPa) = 0.01399908
#
# Stress axis : x y z
#
# Youngs Moduli (GPa) = 109.89536 64.43859 104.01247
#
# Poissons Ratio (x) = 0.27090 0.27758
# Poissons Ratio (y) = 0.46199 0.33741
# Poissons Ratio (z) = 0.29328 0.20904
#
# Static dielectric constant tensor:
#      x y z
#    x 3.624050 0.000000 -0.126170 
#    y 0.000000 2.639400 0.000000 
#    z -0.126170 0.000000 3.380270 
# 
# 
# High freq. dielectric constant tensor:
#      x y z
#    x 1.709540 0.000000 -0.002530 
#    y 0.000000 1.605440 0.000000 
#    z -0.002530 0.000000 1.703940 
# 
# From -- ./inp_files/146838.got.cif
#   From: 2010.06.25/outbox.cif.g09.slc.cpg/sg15_74_cif.got.tgz:146838.got - 2010.06.28 07:06:18.
