data_PCOD8130898
_publ_section_title
;
Structure prediction by ZEFSAII (Michael W. Deem and Ramdas Pophale) SiO2 
 PCOD8130898
Probable space group: C 2/C
;
_chemical_formula_sum "Si O2"
_cell_formula_units_Z 40
_cell_length_a 31.999476
_cell_length_b 13.535776
_cell_length_c 18.346532
_cell_angle_alpha 90.000000
_cell_angle_beta 164.130249
_cell_angle_gamma 90.000000
_cell_volume 2173.002440
_symmetry_space_group_name_H-M "C 2/C"
_symmetry_group_IT_number 15
_symmetry_cell_setting 'monoclinic'
loop_
_space_group_symop_operation_xyz
x,y,z
-x,y,1/2-z
-x,-y,-z
x,-y,1/2+z
1/2+x,1/2+y,z
1/2-x,1/2+y,1/2-z
1/2-x,1/2-y,-z
1/2+x,1/2-y,1/2+z
loop_
_atom_site_type_symbol
_atom_site_label
_atom_site_fract_x
_atom_site_fract_y
_atom_site_fract_z
Si Si1 0.320240 0.342509 0.949859
Si Si2 0.817767 0.943537 0.089418
Si Si3 0.810550 0.139356 0.729208
Si Si4 0.179194 0.069820 0.197919
Si Si5 0.328610 0.653445 0.163379
O O1 0.500000 0.359499 0.250000
O O2 0.753285 0.401128 0.604760
O O3 0.285683 0.227329 0.897839
O O4 0.248555 0.385275 0.754716
O O5 0.757206 0.879656 0.056341
O O6 0.998027 0.931093 0.391407
O O7 0.775491 0.058944 0.026507
O O8 0.765633 0.042772 0.700480
O O9 0.989280 0.164956 0.034212
O O10 0.228906 0.136837 0.350185
O O11 0.250000 0.750000 0.000000
#
# Coordination Sequence:
#
# PCOD8130898 Si02
#       5
#     8   8   8   8   8
#     4  10  18  30  49  71  91 119 155 190 225 267
#     4   8  16  31  50  66  89 124 155 180 225 283
#     4   9  17  32  49  67  92 122 152 187 226 270
#     4   8  17  31  46  67  95 121 151 186 226 274
#     4   9  17  32  50  67  90 124 155 183 223 274
#
# _framework density 18.407710000000002
#
# number of rings (size 3 to 8) (size 9 to 14) (size 15 to 20)
#    0.000    3.200    0.000    3.000    0.000    1.600 
#    0.000    8.000    0.000    0.000    0.000    0.000 
#    0.000    0.000    0.000    0.000    0.000    0.000 
#
# Total GULP energy -247894.994622 kJ/mol
# GULP energy per Si atom -12394.749731 kJ/mol
# Density = 1.836581 g / cm^3
# Si number density = 18.407710 Si / 1000 Ang^3
#
#
#
# Elastic Constant Matrix: (Units=GPa)
#
#
# Indices 1 2 3 4 5 6 
#
# 1 153.4955 94.8203 17.6766 0.0000 -27.4386 0.0000
# 2 94.8203 154.2886 22.1115 0.0000 -23.0741 0.0000
# 3 17.6766 22.1115 16.6395 0.0000 -10.4784 0.0000
# 4 0.0000 0.0000 0.0000 32.7034 0.0000 0.6201
# 5 -27.4386 -23.0741 -10.4784 0.0000 18.4487 0.0000
# 6 0.0000 0.0000 0.0000 0.6201 0.0000 33.9406
#
#
#
# Elastic Compliance Matrix: (Units=1/GPa)
#
#
# Indices 1 2 3 4 5 6 
#
# 1 0.012049 -0.006006 0.002702 0.000000 0.011943 0.000000
# 2 -0.006006 0.011480 -0.008497 0.000000 0.000599 0.000000
# 3 0.002702 -0.008497 0.100194 0.000000 0.050298 0.000000
# 4 0.000000 0.000000 0.000000 0.030588 0.000000 -0.000559
# 5 0.011943 0.000599 0.050298 0.000000 0.101284 0.000000
# 6 0.000000 0.000000 0.000000 -0.000559 0.000000 0.029473
#
#
# Mechanical properties :
#
#
# Convention : Reuss Voigt Hill
#
# Bulk Modulus (GPa) = 9.98806 65.96004 37.97405
# Shear Modulus (GPa) = 14.61802 29.67289 22.14546
#
# Velocity S-wave (km/s) = 2.82108 4.01930 3.47227
# Velocity P-wave (km/s) = 4.00613 7.57960 6.06216
#
# Compressibility (1/GPa) = 0.10011955
#
# Stress axis : x y z
#
# Youngs Moduli (GPa) = 82.99736 87.11020 9.98068
#
# Poissons Ratio (x) = 0.52317 -0.02697
# Poissons Ratio (y) = 0.49846 0.08481
# Poissons Ratio (z) = -0.22427 0.74022
#
# Static dielectric constant tensor:
#      x y z
#    x 4.029780 0.000000 -0.312420 
#    y 0.000000 3.406760 0.000000 
#    z -0.312420 0.000000 2.901200 
# 
# 
# High freq. dielectric constant tensor:
#      x y z
#    x 1.721770 0.000000 -0.013600 
#    y 0.000000 1.720820 0.000000 
#    z -0.013600 0.000000 1.663160 
# 
# From -- ./inp_files/225061.got.cif
#   From: 2010.06.25/outbox.cif.g09.slc.cpg/sg15_113_cif.got.tgz:225061.got - 2010.06.28 07:06:18.
