data_PCOD8130165
_publ_section_title
;
Structure prediction by ZEFSAII (Michael W. Deem and Ramdas Pophale) SiO2 
 PCOD8130165
Probable space group: C 2/C
;
_chemical_formula_sum "Si O2"
_cell_formula_units_Z 56
_cell_length_a 22.552520
_cell_length_b 12.165717
_cell_length_c 12.153370
_cell_angle_alpha 90.000000
_cell_angle_beta 114.221948
_cell_angle_gamma 90.000000
_cell_volume 3040.932186
_symmetry_space_group_name_H-M "C 2/C"
_symmetry_group_IT_number 15
_symmetry_cell_setting 'monoclinic'
loop_
_space_group_symop_operation_xyz
x,y,z
-x,y,1/2-z
-x,-y,-z
x,-y,1/2+z
1/2+x,1/2+y,z
1/2-x,1/2+y,1/2-z
1/2-x,1/2-y,-z
1/2+x,1/2-y,1/2+z
loop_
_atom_site_type_symbol
_atom_site_label
_atom_site_fract_x
_atom_site_fract_y
_atom_site_fract_z
Si Si1 0.654074 0.178387 0.439604
Si Si2 0.727721 0.394917 0.939316
Si Si3 0.292199 0.629333 0.649880
Si Si4 0.642067 0.050023 0.839679
Si Si5 0.184261 0.231425 0.602749
Si Si6 0.076169 0.386082 0.080429
Si Si7 0.434827 0.125004 0.518068
O O1 0.657395 0.294403 0.379377
O O2 0.719854 0.153323 0.555116
O O3 0.598426 0.182094 0.490399
O O4 0.637746 0.083529 0.337401
O O5 0.692395 0.501270 0.861239
O O6 0.756943 0.320870 0.862388
O O7 0.786696 0.421826 0.065417
O O8 0.677048 0.331380 0.979582
O O9 0.299283 0.649909 0.785021
O O10 0.632007 0.111034 0.716128
O O11 0.585731 0.098952 0.873552
O O12 0.114922 0.288029 0.573746
O O13 0.066806 0.514444 0.052756
O O14 0.008958 0.330353 0.070680
#
# Coordination Sequence:
#
# PCOD8130165 Si02
#       7
#     8   8   8   8   8   8   8
#     4   9  19  29  46  76 101 129 174 206 250 311
#     4   9  20  33  52  77  98 131 172 200 253 313
#     4  10  19  32  50  74 104 134 164 210 253 296
#     4   9  16  30  48  71 102 132 165 212 256 301
#     4  10  19  35  52  73 107 134 162 209 253 300
#     4  10  17  30  48  71 104 135 167 212 254 295
#     4   9  19  29  46  74 101 135 172 202 252 313
#
# _framework density 18.415405
#
# number of rings (size 3 to 8) (size 9 to 14) (size 15 to 20)
#    0.000    2.571    0.000    3.000    0.000    3.429 
#    0.000    2.143    0.000    0.857    0.000    6.000 
#    0.000    0.000    0.000    0.000    0.000    0.000 
#
# Total GULP energy -347029.008866 kJ/mol
# GULP energy per Si atom -12393.893174 kJ/mol
# Density = 1.837349 g / cm^3
# Si number density = 18.415405 Si / 1000 Ang^3
#
#
#
# Elastic Constant Matrix: (Units=GPa)
#
#
# Indices 1 2 3 4 5 6 
#
# 1 88.4817 32.7544 19.7893 0.0000 -4.9122 0.0000
# 2 32.7544 98.5522 26.9435 0.0000 -10.9745 0.0000
# 3 19.7893 26.9435 68.5608 0.0000 -6.8343 0.0000
# 4 0.0000 0.0000 0.0000 24.4161 0.0000 -2.7673
# 5 -4.9122 -10.9745 -6.8343 0.0000 12.2873 0.0000
# 6 0.0000 0.0000 0.0000 -2.7673 0.0000 23.2117
#
#
#
# Elastic Compliance Matrix: (Units=1/GPa)
#
#
# Indices 1 2 3 4 5 6 
#
# 1 0.013220 -0.003686 -0.002296 0.000000 0.000716 0.000000
# 2 -0.003686 0.013216 -0.003282 0.000000 0.008505 0.000000
# 3 -0.002296 -0.003282 0.017103 0.000000 0.005663 0.000000
# 4 0.000000 0.000000 0.000000 0.041518 0.000000 0.004950
# 5 0.000716 0.008505 0.005663 0.000000 0.092417 0.000000
# 6 0.000000 0.000000 0.000000 0.004950 0.000000 0.043672
#
#
# Mechanical properties :
#
#
# Convention : Reuss Voigt Hill
#
# Bulk Modulus (GPa) = 39.98321 46.06324 43.02322
# Shear Modulus (GPa) = 20.16046 23.72353 21.94199
#
# Velocity S-wave (km/s) = 3.31231 3.59310 3.45556
# Velocity P-wave (km/s) = 6.03220 6.50243 6.27172
#
# Compressibility (1/GPa) = 0.02501050
#
# Stress axis : x y z
#
# Youngs Moduli (GPa) = 75.64561 75.66316 58.47077
#
# Poissons Ratio (x) = 0.27892 0.13423
# Poissons Ratio (y) = 0.27885 0.19191
# Poissons Ratio (z) = 0.17366 0.24833
#
# Static dielectric constant tensor:
#      x y z
#    x 3.462300 0.000000 -0.136680 
#    y 0.000000 3.454320 0.000000 
#    z -0.136680 0.000000 3.222070 
# 
# 
# High freq. dielectric constant tensor:
#      x y z
#    x 1.702280 0.000000 -0.020190 
#    y 0.000000 1.692820 0.000000 
#    z -0.020190 0.000000 1.705060 
# 
# From -- ./inp_files/111668.got.cif
#   From: 2010.06.25/outbox.cif.g09.slc.cpg/sg15_56_cif.got.tgz:111668.got - 2010.06.28 07:06:18.
