data_PCOD8130699
_publ_section_title
;
Structure prediction by ZEFSAII (Michael W. Deem and Ramdas Pophale) SiO2 
 PCOD8130699
Probable space group: C 2/C
;
_chemical_formula_sum "Si O2"
_cell_formula_units_Z 56
_cell_length_a 16.562418
_cell_length_b 11.939152
_cell_length_c 14.668147
_cell_angle_alpha 90.000000
_cell_angle_beta 78.070472
_cell_angle_gamma 90.000000
_cell_volume 2837.854127
_symmetry_space_group_name_H-M "C 2/C"
_symmetry_group_IT_number 15
_symmetry_cell_setting 'monoclinic'
loop_
_space_group_symop_operation_xyz
x,y,z
-x,y,1/2-z
-x,-y,-z
x,-y,1/2+z
1/2+x,1/2+y,z
1/2-x,1/2+y,1/2-z
1/2-x,1/2-y,-z
1/2+x,1/2-y,1/2+z
loop_
_atom_site_type_symbol
_atom_site_label
_atom_site_fract_x
_atom_site_fract_y
_atom_site_fract_z
Si Si1 0.646446 0.570692 0.575538
Si Si2 0.916550 0.732947 0.156605
Si Si3 0.597294 0.186514 0.128941
Si Si4 0.472119 0.534619 0.659565
Si Si5 0.249737 0.759560 0.393113
Si Si6 0.325039 0.423450 0.766003
Si Si7 0.266405 0.016175 0.385400
O O1 0.640647 0.705459 0.572698
O O2 0.555973 0.510621 0.583607
O O3 0.684899 0.530152 0.663319
O O4 0.697799 0.529140 0.478383
O O5 0.901924 0.708042 0.264659
O O6 0.919860 0.864738 0.128533
O O7 0.835821 0.698853 0.118403
O O8 0.004039 0.673360 0.109665
O O9 0.648950 0.072787 0.096874
O O10 0.500000 0.587546 0.750000
O O11 0.413927 0.427194 0.692057
O O12 0.250000 0.750000 0.500000
O O13 0.321844 0.687986 0.327799
O O14 0.271953 0.885589 0.359398
O O15 0.255818 0.422300 0.703984
#
# Coordination Sequence:
#
# PCOD8130699 Si02
#       7
#     8   8   8   8   8   8   8
#     4  10  20  38  61  92 123 151 209 267 324 380
#     4  10  17  37  63  86 117 164 210 254 320 376
#     4  10  19  37  63  92 118 154 218 271 305 379
#     4   9  16  34  62  88 113 152 203 272 308 362
#     4  12  24  40  60  90 130 172 208 265 334 395
#     4  11  21  37  60  88 125 160 210 262 315 388
#     4  12  23  36  64  93 125 168 211 262 335 387
#
# _framework density 19.733219999999999
#
# number of rings (size 3 to 8) (size 9 to 14) (size 15 to 20)
#    0.000    1.429    8.571    0.429    0.000    0.571 
#    0.000    0.714    9.429    0.000    0.000    0.000 
#    0.000    0.000    0.000    0.000    0.000    0.000 
#
# Total GULP energy -346887.395621 kJ/mol
# GULP energy per Si atom -12388.835558 kJ/mol
# Density = 1.968831 g / cm^3
# Si number density = 19.733220 Si / 1000 Ang^3
#
#
#
# Elastic Constant Matrix: (Units=GPa)
#
#
# Indices 1 2 3 4 5 6 
#
# 1 107.1299 51.7471 34.6859 0.0000 -10.6227 0.0000
# 2 51.7471 87.9559 26.2129 0.0000 -21.4441 0.0000
# 3 34.6859 26.2129 71.8340 0.0000 -15.8253 0.0000
# 4 0.0000 0.0000 0.0000 24.3995 0.0000 -7.4111
# 5 -10.6227 -21.4441 -15.8253 0.0000 32.7781 0.0000
# 6 0.0000 0.0000 0.0000 -7.4111 0.0000 29.9702
#
#
#
# Elastic Compliance Matrix: (Units=1/GPa)
#
#
# Indices 1 2 3 4 5 6 
#
# 1 0.014286 -0.007652 -0.004688 0.000000 -0.002639 0.000000
# 2 -0.007652 0.018382 -0.001018 0.000000 0.009055 0.000000
# 3 -0.004688 -0.001018 0.017988 0.000000 0.006499 0.000000
# 4 0.000000 0.000000 0.000000 0.044313 0.000000 0.010958
# 5 -0.002639 0.009055 0.006499 0.000000 0.038714 0.000000
# 6 0.000000 0.000000 0.000000 0.010958 0.000000 0.036076
#
#
# Mechanical properties :
#
#
# Convention : Reuss Voigt Hill
#
# Bulk Modulus (GPa) = 41.76904 54.69017 48.22961
# Shear Modulus (GPa) = 24.45524 27.71449 26.08487
#
# Velocity S-wave (km/s) = 3.52418 3.75168 3.63971
# Velocity P-wave (km/s) = 6.14594 6.82215 6.49285
#
# Compressibility (1/GPa) = 0.02394117
#
# Stress axis : x y z
#
# Youngs Moduli (GPa) = 69.99638 54.40104 55.59295
#
# Poissons Ratio (x) = 0.41625 0.26060
# Poissons Ratio (y) = 0.53558 0.05661
# Poissons Ratio (z) = 0.32812 0.05540
#
# Static dielectric constant tensor:
#      x y z
#    x 4.053360 0.000000 -0.114260 
#    y 0.000000 3.513910 0.000000 
#    z -0.114260 0.000000 3.460670 
# 
# 
# High freq. dielectric constant tensor:
#      x y z
#    x 1.771120 0.000000 -0.004030 
#    y 0.000000 1.741750 0.000000 
#    z -0.004030 0.000000 1.761880 
# 
# From -- ./inp_files/160819.got.cif
#   From: 2010.06.25/outbox.cif.g09.slc.cpg/sg15_81_cif.got.tgz:160819.got - 2010.06.28 07:06:18.
