data_PCOD8130338
_publ_section_title
;
Structure prediction by ZEFSAII (Michael W. Deem and Ramdas Pophale) SiO2 
 PCOD8130338
Probable space group: C 2/C
;
_chemical_formula_sum "Si O2"
_cell_formula_units_Z 64
_cell_length_a 19.952819
_cell_length_b 9.370700
_cell_length_c 19.730273
_cell_angle_alpha 90.000000
_cell_angle_beta 77.349795
_cell_angle_gamma 90.000000
_cell_volume 3599.456517
_symmetry_space_group_name_H-M "C 2/C"
_symmetry_group_IT_number 15
_symmetry_cell_setting 'monoclinic'
loop_
_space_group_symop_operation_xyz
x,y,z
-x,y,1/2-z
-x,-y,-z
x,-y,1/2+z
1/2+x,1/2+y,z
1/2-x,1/2+y,1/2-z
1/2-x,1/2-y,-z
1/2+x,1/2-y,1/2+z
loop_
_atom_site_type_symbol
_atom_site_label
_atom_site_fract_x
_atom_site_fract_y
_atom_site_fract_z
Si Si1 0.579026 0.086064 0.848559
Si Si2 0.214200 0.606829 0.530717
Si Si3 0.383046 0.288649 0.769619
Si Si4 0.169197 0.908265 0.226110
Si Si5 0.736284 0.682832 0.844195
Si Si6 0.073084 0.601447 0.624649
Si Si7 0.207191 0.504217 0.392750
Si Si8 0.922202 0.636946 0.269940
O O1 0.588392 0.237136 0.808774
O O2 0.501244 0.085620 0.894862
O O3 0.633450 0.070147 0.897143
O O4 0.592872 0.958619 0.792463
O O5 0.250000 0.750000 0.500000
O O6 0.248387 0.572889 0.596582
O O7 0.131940 0.630369 0.556303
O O8 0.226002 0.489318 0.468983
O O9 0.382380 0.459703 0.771803
O O10 0.307056 0.225606 0.793525
O O11 0.430437 0.231990 0.820632
O O12 0.190651 0.901659 0.300176
O O13 0.130556 0.765864 0.213358
O O14 0.235403 0.924650 0.163676
O O15 0.699520 0.828065 0.876695
O O16 0.090351 0.455852 0.660316
O O17 0.000000 0.695106 0.250000
#
# Coordination Sequence:
#
# PCOD8130338 Si02
#       8
#     8   8   8   8   8   8   8   8
#     4  10  17  32  51  76 107 133 172 216 259 306
#     4   9  19  35  51  76 105 137 179 212 262 314
#     4   9  18  29  48  80 104 130 170 214 265 305
#     4  11  19  31  56  80 105 134 173 218 258 312
#     4   9  17  31  51  74 104 136 170 213 259 309
#     4   9  19  34  53  72 106 143 168 215 265 305
#     4  10  19  31  53  80 102 133 177 211 253 311
#     4   9  19  33  53  78 106 137 167 214 264 304
#
# _framework density 17.780462
#
# number of rings (size 3 to 8) (size 9 to 14) (size 15 to 20)
#    0.000    2.500    2.500    1.875    0.000    1.500 
#    0.000    0.625    0.000    0.000    0.000    2.625 
#    0.000    0.000    0.000    0.000    0.000    0.000 
#
# Total GULP energy -396622.498874 kJ/mol
# GULP energy per Si atom -12394.453090 kJ/mol
# Density = 1.773999 g / cm^3
# Si number density = 17.780462 Si / 1000 Ang^3
#
#
#
# Elastic Constant Matrix: (Units=GPa)
#
#
# Indices 1 2 3 4 5 6 
#
# 1 107.8233 47.4028 39.6382 0.0000 -2.9899 0.0000
# 2 47.4028 78.0776 24.5045 0.0000 -1.7114 0.0000
# 3 39.6382 24.5045 81.7383 0.0000 -6.5151 0.0000
# 4 0.0000 0.0000 0.0000 16.1542 0.0000 -2.4315
# 5 -2.9899 -1.7114 -6.5151 0.0000 18.3408 0.0000
# 6 0.0000 0.0000 0.0000 -2.4315 0.0000 24.0140
#
#
#
# Elastic Compliance Matrix: (Units=1/GPa)
#
#
# Indices 1 2 3 4 5 6 
#
# 1 0.014132 -0.007096 -0.004729 0.000000 -0.000038 0.000000
# 2 -0.007096 0.017702 -0.001879 0.000000 -0.000173 0.000000
# 3 -0.004729 -0.001879 0.015453 0.000000 0.004543 0.000000
# 4 0.000000 0.000000 0.000000 0.062861 0.000000 0.006365
# 5 -0.000038 -0.000173 0.004543 0.000000 0.056115 0.000000
# 6 0.000000 0.000000 0.000000 0.006365 0.000000 0.042287
#
#
# Mechanical properties :
#
#
# Convention : Reuss Voigt Hill
#
# Bulk Modulus (GPa) = 50.30733 54.52557 52.41645
# Shear Modulus (GPa) = 20.61140 22.10804 21.35972
#
# Velocity S-wave (km/s) = 3.40842 3.53000 3.46974
# Velocity P-wave (km/s) = 6.62154 6.88092 6.75248
#
# Compressibility (1/GPa) = 0.01987782
#
# Stress axis : x y z
#
# Youngs Moduli (GPa) = 70.76388 56.49007 64.71329
#
# Poissons Ratio (x) = 0.40087 0.30600
# Poissons Ratio (y) = 0.50217 0.12162
# Poissons Ratio (z) = 0.33461 0.10617
#
# Static dielectric constant tensor:
#      x y z
#    x 3.373220 0.000000 0.062830 
#    y 0.000000 3.121270 0.000000 
#    z 0.062830 0.000000 3.382520 
# 
# 
# High freq. dielectric constant tensor:
#      x y z
#    x 1.691700 0.000000 -0.001760 
#    y 0.000000 1.661870 0.000000 
#    z -0.001760 0.000000 1.671330 
# 
# From -- ./inp_files/251550.got.cif
#   From: 2010.06.25/outbox.cif.g09.slc.cpg/sg15_126_cif.got.tgz:251550.got - 2010.06.28 07:06:18.
