data_PCOD8130603
_publ_section_title
;
Structure prediction by ZEFSAII (Michael W. Deem and Ramdas Pophale) SiO2 
 PCOD8130603
Probable space group: C 2/C
;
_chemical_formula_sum "Si O2"
_cell_formula_units_Z 56
_cell_length_a 11.952624
_cell_length_b 18.513739
_cell_length_c 17.763900
_cell_angle_alpha 90.000000
_cell_angle_beta 47.384655
_cell_angle_gamma 90.000000
_cell_volume 2892.836107
_symmetry_space_group_name_H-M "C 2/C"
_symmetry_group_IT_number 15
_symmetry_cell_setting 'monoclinic'
loop_
_space_group_symop_operation_xyz
x,y,z
-x,y,1/2-z
-x,-y,-z
x,-y,1/2+z
1/2+x,1/2+y,z
1/2-x,1/2+y,1/2-z
1/2-x,1/2-y,-z
1/2+x,1/2-y,1/2+z
loop_
_atom_site_type_symbol
_atom_site_label
_atom_site_fract_x
_atom_site_fract_y
_atom_site_fract_z
Si Si1 0.222603 0.691347 0.287098
Si Si2 0.071644 0.447205 0.408371
Si Si3 0.191087 0.656486 0.470918
Si Si4 0.034371 0.791704 0.060891
Si Si5 0.464259 0.693348 0.431679
Si Si6 0.541092 0.933217 0.814505
Si Si7 0.796058 0.641360 0.528427
O O1 0.215312 0.649900 0.370199
O O2 0.393033 0.710217 0.186654
O O3 0.155376 0.634664 0.257453
O O4 0.126073 0.766327 0.329848
O O5 0.126116 0.497438 0.314168
O O6 0.203087 0.399003 0.390068
O O7 0.000000 0.500000 0.500000
O O8 0.935248 0.397546 0.440492
O O9 0.350081 0.638284 0.440991
O O10 0.133314 0.735614 0.513912
O O11 0.124479 0.844088 0.077353
O O12 0.125453 0.719064 0.997447
O O13 0.010681 0.835647 0.993477
O O14 0.500000 0.957971 0.750000
O O15 0.388558 0.908185 0.927697
#
# Coordination Sequence:
#
# PCOD8130603 Si02
#       7
#     8   8   8   8   8   8   8
#     4  10  18  33  53  83 108 143 189 229 277 326
#     4  10  17  35  58  75 106 155 186 220 271 338
#     4  10  19  35  53  82 107 153 183 216 291 330
#     4   9  17  31  52  83 109 145 177 226 282 326
#     4  10  19  31  55  82 116 134 183 237 272 330
#     4  10  19  31  54  85 104 141 197 230 266 326
#     4   9  16  31  55  75 110 147 181 218 279 328
#
# _framework density 19.358163999999999
#
# number of rings (size 3 to 8) (size 9 to 14) (size 15 to 20)
#    0.000    2.286    5.714    1.286    0.000    0.000 
#    0.000    4.286    0.000   12.857    0.000    0.000 
#    0.000    0.000    0.000    0.000    0.000    0.000 
#
# Total GULP energy -346953.234029 kJ/mol
# GULP energy per Si atom -12391.186930 kJ/mol
# Density = 1.931410 g / cm^3
# Si number density = 19.358164 Si / 1000 Ang^3
#
#
#
# Elastic Constant Matrix: (Units=GPa)
#
#
# Indices 1 2 3 4 5 6 
#
# 1 148.7966 39.1668 35.8379 -0.0003 5.8613 0.0002
# 2 39.1668 39.7615 2.4367 -0.0005 15.2240 0.0004
# 3 35.8379 2.4367 47.7028 -0.0004 3.4562 0.0008
# 4 -0.0003 -0.0005 -0.0004 10.6045 0.0007 6.8914
# 5 5.8613 15.2240 3.4562 0.0007 27.7075 -0.0006
# 6 0.0002 0.0004 0.0008 6.8914 -0.0006 35.9868
#
#
#
# Elastic Compliance Matrix: (Units=1/GPa)
#
#
# Indices 1 2 3 4 5 6 
#
# 1 0.012311 -0.013941 -0.008984 -0.000001 0.006176 0.000001
# 2 -0.013941 0.047643 0.009811 0.000005 -0.024453 -0.000002
# 3 -0.008984 0.009811 0.027715 0.000002 -0.006947 -0.000001
# 4 -0.000001 0.000005 0.000002 0.107703 -0.000006 -0.020625
# 5 0.006176 -0.024453 -0.006947 -0.000006 0.049087 0.000002
# 6 0.000001 -0.000002 -0.000001 -0.020625 0.000002 0.031738
#
#
# Mechanical properties :
#
#
# Convention : Reuss Voigt Hill
#
# Bulk Modulus (GPa) = 16.27555 43.46042 29.86799
# Shear Modulus (GPa) = 15.48451 25.44774 20.46613
#
# Velocity S-wave (km/s) = 2.83131 3.62964 3.25504
# Velocity P-wave (km/s) = 4.37199 6.32970 5.43964
#
# Compressibility (1/GPa) = 0.06144185
#
# Stress axis : x y z
#
# Youngs Moduli (GPa) = 81.23046 20.98929 36.08180
#
# Poissons Ratio (x) = 0.29261 0.32416
# Poissons Ratio (y) = 1.13241 -0.35401
# Poissons Ratio (z) = 0.72978 -0.20593
#
# Static dielectric constant tensor:
#      x y z
#    x 4.306250 0.000000 0.177790 
#    y 0.000000 3.456340 0.000000 
#    z 0.177790 0.000000 3.182710 
# 
# 
# High freq. dielectric constant tensor:
#      x y z
#    x 1.770050 0.000000 0.010730 
#    y 0.000000 1.725390 0.000000 
#    z 0.010730 0.000000 1.718280 
# 
# From -- ./inp_files/199424.got.cif
#   From: 2010.06.25/outbox.cif.g09.slc.cpg/sg15_100_cif.got.tgz:199424.got - 2010.06.28 07:06:18.
