data_PCOD8130530
_publ_section_title
;
Structure prediction by ZEFSAII (Michael W. Deem and Ramdas Pophale) SiO2 
 PCOD8130530
Probable space group: C 2/C
;
_chemical_formula_sum "Si O2"
_cell_formula_units_Z 40
_cell_length_a 26.173740
_cell_length_b 10.664223
_cell_length_c 18.815514
_cell_angle_alpha 90.000000
_cell_angle_beta 160.935089
_cell_angle_gamma 90.000000
_cell_volume 1715.454895
_symmetry_space_group_name_H-M "C 2/C"
_symmetry_group_IT_number 15
_symmetry_cell_setting 'monoclinic'
loop_
_space_group_symop_operation_xyz
x,y,z
-x,y,1/2-z
-x,-y,-z
x,-y,1/2+z
1/2+x,1/2+y,z
1/2-x,1/2+y,1/2-z
1/2-x,1/2-y,-z
1/2+x,1/2-y,1/2+z
loop_
_atom_site_type_symbol
_atom_site_label
_atom_site_fract_x
_atom_site_fract_y
_atom_site_fract_z
Si Si1 0.309551 0.722235 0.722337
Si Si2 0.331734 0.016826 0.195696
Si Si3 0.318308 0.070287 0.825766
Si Si4 0.317101 0.977053 0.019831
Si Si5 0.880333 0.110869 0.356171
O O1 0.247851 0.854104 0.611359
O O2 0.258884 0.693549 0.738342
O O3 0.232016 0.614197 0.572951
O O4 0.503670 0.727989 0.973185
O O5 0.512243 0.046124 0.419008
O O6 0.262391 0.967225 0.030277
O O7 0.312966 0.912309 0.233140
O O8 0.228006 0.938722 0.722290
O O9 0.500000 0.954315 0.250000
O O10 0.223328 0.870849 0.851905
O O11 0.000000 0.000000 0.500000
#
# Coordination Sequence:
#
# PCOD8130530 Si02
#       5
#     8   8   8   8   8
#     4  10  21  36  56  85 120 152 186 232 293 347
#     4  11  20  33  60  86 112 149 196 237 280 340
#     4   9  20  35  51  83 112 152 189 231 287 341
#     4  10  17  34  56  87 117 143 187 240 289 332
#     4   8  17  35  53  74 120 154 175 224 292 344
#
# _framework density 23.317430999999999
#
# number of rings (size 3 to 8) (size 9 to 14) (size 15 to 20)
#    0.000    2.800    4.000    0.600    2.800    0.000 
#    0.000    9.000    0.000    4.800   20.800    0.000 
#    0.000    0.000    0.000    0.000    0.000    0.000 
#
# Total GULP energy -247775.805676 kJ/mol
# GULP energy per Si atom -12388.790284 kJ/mol
# Density = 2.326436 g / cm^3
# Si number density = 23.317431 Si / 1000 Ang^3
#
#
#
# Elastic Constant Matrix: (Units=GPa)
#
#
# Indices 1 2 3 4 5 6 
#
# 1 121.9833 5.0819 34.0318 0.0000 -20.7203 0.0000
# 2 5.0819 31.1763 -3.0162 0.0001 -2.7755 0.0000
# 3 34.0318 -3.0162 106.6787 0.0001 -12.5536 0.0000
# 4 0.0000 0.0001 0.0001 23.9430 0.0000 -3.6229
# 5 -20.7203 -2.7755 -12.5536 0.0000 43.3315 0.0000
# 6 0.0000 0.0000 0.0000 -3.6229 0.0000 13.2439
#
#
#
# Elastic Compliance Matrix: (Units=1/GPa)
#
#
# Indices 1 2 3 4 5 6 
#
# 1 0.009643 -0.001498 -0.002678 0.000000 0.003739 0.000000
# 2 -0.001498 0.032640 0.001618 0.000000 0.001843 0.000000
# 3 -0.002678 0.001618 0.010493 0.000000 0.001863 0.000000
# 4 0.000000 0.000000 0.000000 0.043569 0.000000 0.011919
# 5 0.003739 0.001843 0.001863 0.000000 0.025524 0.000000
# 6 0.000000 0.000000 0.000000 0.011919 0.000000 0.078767
#
#
# Mechanical properties :
#
#
# Convention : Reuss Voigt Hill
#
# Bulk Modulus (GPa) = 20.98257 36.89259 28.93758
# Shear Modulus (GPa) = 22.55911 31.01974 26.78943
#
# Velocity S-wave (km/s) = 3.11381 3.65132 3.39322
# Velocity P-wave (km/s) = 4.68465 5.79935 5.27154
#
# Compressibility (1/GPa) = 0.04765860
#
# Stress axis : x y z
#
# Youngs Moduli (GPa) = 103.70618 30.63685 95.29837
#
# Poissons Ratio (x) = 0.04590 0.25525
# Poissons Ratio (y) = 0.15536 -0.15416
# Poissons Ratio (z) = 0.27778 -0.04956
#
# Static dielectric constant tensor:
#      x y z
#    x 4.551030 0.000000 0.162240 
#    y 0.000000 5.228650 0.000000 
#    z 0.162240 0.000000 5.112740 
# 
# 
# High freq. dielectric constant tensor:
#      x y z
#    x 1.937160 0.000000 0.005520 
#    y 0.000000 1.901820 0.000000 
#    z 0.005520 0.000000 1.908970 
# 
# From -- ./inp_files/123206.got.cif
#   From: 2010.06.25/outbox.cif.g09.slc.cpg/sg15_62_cif.got.tgz:123206.got - 2010.06.28 07:06:18.
