data_PCOD8130455
_publ_section_title
;
Structure prediction by ZEFSAII (Michael W. Deem and Ramdas Pophale) SiO2 
 PCOD8130455
Probable space group: C 2/C
;
_chemical_formula_sum "Si O2"
_cell_formula_units_Z 56
_cell_length_a 16.443224
_cell_length_b 10.047873
_cell_length_c 17.849254
_cell_angle_alpha 90.000000
_cell_angle_beta 103.672862
_cell_angle_gamma 90.000000
_cell_volume 2865.471121
_symmetry_space_group_name_H-M "C 2/C"
_symmetry_group_IT_number 15
_symmetry_cell_setting 'monoclinic'
loop_
_space_group_symop_operation_xyz
x,y,z
-x,y,1/2-z
-x,-y,-z
x,-y,1/2+z
1/2+x,1/2+y,z
1/2-x,1/2+y,1/2-z
1/2-x,1/2-y,-z
1/2+x,1/2-y,1/2+z
loop_
_atom_site_type_symbol
_atom_site_label
_atom_site_fract_x
_atom_site_fract_y
_atom_site_fract_z
Si Si1 0.805197 0.212936 0.700189
Si Si2 0.674270 0.015308 0.370399
Si Si3 0.858711 0.307835 0.868847
Si Si4 0.809597 0.864895 0.486073
Si Si5 0.491046 0.995441 0.832612
Si Si6 0.822717 0.074584 0.148938
Si Si7 0.640740 0.191156 0.739750
O O1 0.828235 0.328701 0.647503
O O2 0.848595 0.230946 0.789340
O O3 0.704525 0.219078 0.686123
O O4 0.840550 0.074917 0.677248
O O5 0.583444 0.980373 0.387432
O O6 0.751385 0.983520 0.441484
O O7 0.684198 0.927524 0.297388
O O8 0.872267 0.196733 0.937075
O O9 0.939428 0.402583 0.878437
O O10 0.776494 0.395596 0.867942
O O11 0.750000 0.750000 0.500000
O O12 0.857278 0.915386 0.570851
O O13 0.500000 0.932700 0.750000
O O14 0.446577 0.139803 0.813577
O O15 0.873383 0.177974 0.212385
#
# Coordination Sequence:
#
# PCOD8130455 Si02
#       7
#     8   8   8   8   8   8   8
#     4  11  18  31  57  88 108 138 196 240 279 314
#     4  11  20  33  60  84 113 144 188 239 280 333
#     4  10  18  33  56  82 110 151 183 238 278 340
#     4  10  20  36  56  81 117 154 191 224 286 343
#     4  10  19  33  57  87 114 137 190 242 283 324
#     4  10  20  33  58  83 112 148 195 230 277 340
#     4  10  17  33  56  81 113 143 186 234 275 334
#
# _framework density 19.543033999999999
#
# number of rings (size 3 to 8) (size 9 to 14) (size 15 to 20)
#    0.000    1.714    8.571    0.857    0.000    0.571 
#    0.000    2.857    9.429    0.857    0.000    0.000 
#    0.000    0.000    0.000    0.000    0.000    0.000 
#
# Total GULP energy -347025.265117 kJ/mol
# GULP energy per Si atom -12393.759468 kJ/mol
# Density = 1.949855 g / cm^3
# Si number density = 19.543034 Si / 1000 Ang^3
#
#
#
# Elastic Constant Matrix: (Units=GPa)
#
#
# Indices 1 2 3 4 5 6 
#
# 1 79.7504 24.0739 18.7412 0.0000 -1.2370 0.0000
# 2 24.0739 142.4899 46.0318 0.0000 -1.7988 0.0000
# 3 18.7412 46.0318 66.0804 0.0000 -11.9574 0.0000
# 4 0.0000 0.0000 0.0000 16.5519 0.0000 -3.6023
# 5 -1.2370 -1.7988 -11.9574 0.0000 14.6245 0.0000
# 6 0.0000 0.0000 0.0000 -3.6023 0.0000 27.6614
#
#
#
# Elastic Compliance Matrix: (Units=1/GPa)
#
#
# Indices 1 2 3 4 5 6 
#
# 1 0.013671 -0.001264 -0.003305 0.000000 -0.001701 0.000000
# 2 -0.001264 0.009462 -0.007091 0.000000 -0.004741 0.000000
# 3 -0.003305 -0.007091 0.024414 0.000000 0.018810 0.000000
# 4 0.000000 0.000000 0.000000 0.062178 0.000000 0.008097
# 5 -0.001701 -0.004741 0.018810 0.000000 0.083031 0.000000
# 6 0.000000 0.000000 0.000000 0.008097 0.000000 0.037206
#
#
# Mechanical properties :
#
#
# Convention : Reuss Voigt Hill
#
# Bulk Modulus (GPa) = 41.27462 51.77940 46.52701
# Shear Modulus (GPa) = 19.13093 25.06581 22.09837
#
# Velocity S-wave (km/s) = 3.13215 3.58522 3.36632
# Velocity P-wave (km/s) = 5.85203 6.60992 6.24248
#
# Compressibility (1/GPa) = 0.02422796
#
# Stress axis : x y z
#
# Youngs Moduli (GPa) = 73.14871 105.68062 40.96058
#
# Poissons Ratio (x) = 0.13353 0.13537
# Poissons Ratio (y) = 0.09243 0.29046
# Poissons Ratio (z) = 0.24175 0.74939
#
# Static dielectric constant tensor:
#      x y z
#    x 3.515080 0.000000 -1.976050 
#    y 0.000000 3.644350 0.000000 
#    z -1.976050 0.000000 -37.393100 
# 
# 
# High freq. dielectric constant tensor:
#      x y z
#    x 1.735740 0.000000 -0.018650 
#    y 0.000000 1.756630 0.000000 
#    z -0.018650 0.000000 1.734920 
# 
# From -- ./inp_files/209647.got.cif
#   From: 2010.06.25/outbox.cif.g09.slc.cpg/sg15_105_cif.got.tgz:209647.got - 2010.06.28 07:06:18.
