data_PCOD8130500
_publ_section_title
;
Structure prediction by ZEFSAII (Michael W. Deem and Ramdas Pophale) SiO2 
 PCOD8130500
Probable space group: C 2/C
;
_chemical_formula_sum "Si O2"
_cell_formula_units_Z 44
_cell_length_a 31.662717
_cell_length_b 16.572656
_cell_length_c 16.482670
_cell_angle_alpha 90.000000
_cell_angle_beta 18.837404
_cell_angle_gamma 90.000000
_cell_volume 2792.633051
_symmetry_space_group_name_H-M "C 2/C"
_symmetry_group_IT_number 15
_symmetry_cell_setting 'monoclinic'
loop_
_space_group_symop_operation_xyz
x,y,z
-x,y,1/2-z
-x,-y,-z
x,-y,1/2+z
1/2+x,1/2+y,z
1/2-x,1/2+y,1/2-z
1/2-x,1/2-y,-z
1/2+x,1/2-y,1/2+z
loop_
_atom_site_type_symbol
_atom_site_label
_atom_site_fract_x
_atom_site_fract_y
_atom_site_fract_z
Si Si1 0.054502 0.028935 0.062108
Si Si2 0.517354 0.679688 0.396414
Si Si3 0.368725 0.220092 0.946533
Si Si4 0.230886 0.166238 0.736532
Si Si5 0.000000 0.744144 0.250000
Si Si6 0.398604 0.353564 0.578291
O O1 0.000000 0.010651 0.250000
O O2 0.958783 0.090991 0.187831
O O3 0.199936 0.070178 0.802368
O O4 0.060058 0.946127 0.002822
O O5 0.603648 0.746951 0.193866
O O6 0.362837 0.701510 0.664964
O O7 0.553418 0.682379 0.424314
O O8 0.500000 0.184805 0.750000
O O9 0.313201 0.294612 0.098752
O O10 0.258986 0.150718 0.141662
O O11 0.380622 0.185001 0.443618
O O12 0.967441 0.800804 0.384415
#
# Coordination Sequence:
#
# PCOD8130500 Si02
#       6
#     8   8   8   8   4   8
#     4  10  17  34  50  70  95 128 156 195 237 281
#     4   9  17  32  52  70  94 126 162 191 237 279
#     4   9  16  33  50  71  94 128 159 190 233 286
#     4   8  17  32  50  65  96 130 157 181 241 293
#     4  10  20  32  46  72  98 126 160 192 238 286
#     4  11  20  28  51  78  93 117 165 208 226 267
#
# _framework density 15.755739999999999
#
# number of rings (size 3 to 8) (size 9 to 14) (size 15 to 20)
#    1.091    1.455    2.727    1.091    0.000    0.727 
#    1.636    0.000    0.000    0.000    0.000    6.364 
#    0.000    0.000    0.000    0.000    0.000    0.000 
#
# Total GULP energy -272562.504801 kJ/mol
# GULP energy per Si atom -12389.204764 kJ/mol
# Density = 1.571988 g / cm^3
# Si number density = 15.755740 Si / 1000 Ang^3
#
#
#
# Elastic Constant Matrix: (Units=GPa)
#
#
# Indices 1 2 3 4 5 6 
#
# 1 97.6240 11.5139 37.2448 0.0002 8.1375 0.0000
# 2 11.5139 41.6517 20.1441 0.0003 1.7724 -0.0002
# 3 37.2448 20.1441 93.6605 0.0003 -9.0703 -0.0001
# 4 0.0002 0.0003 0.0003 17.2934 -0.0001 -3.2253
# 5 8.1375 1.7724 -9.0703 -0.0001 21.4323 0.0000
# 6 0.0000 -0.0002 -0.0001 -3.2253 0.0000 8.5981
#
#
#
# Elastic Compliance Matrix: (Units=1/GPa)
#
#
# Indices 1 2 3 4 5 6 
#
# 1 0.013149 -0.000494 -0.005842 0.000000 -0.007424 0.000000
# 2 -0.000494 0.027308 -0.006129 0.000000 -0.004664 0.000000
# 3 -0.005842 -0.006129 0.015205 0.000000 0.009160 0.000000
# 4 0.000000 0.000000 0.000000 0.062176 0.000000 0.023324
# 5 -0.007424 -0.004664 0.009160 0.000000 0.053739 0.000000
# 6 0.000000 0.000000 0.000000 0.023324 0.000000 0.125054
#
#
# Mechanical properties :
#
#
# Convention : Reuss Voigt Hill
#
# Bulk Modulus (GPa) = 32.53746 41.19354 36.86550
# Shear Modulus (GPa) = 15.06918 20.40031 17.73475
#
# Velocity S-wave (km/s) = 3.09597 3.60222 3.35864
# Velocity P-wave (km/s) = 5.78585 6.59569 6.20400
#
# Compressibility (1/GPa) = 0.03073381
#
# Stress axis : x y z
#
# Youngs Moduli (GPa) = 76.05104 36.61983 65.76815
#
# Poissons Ratio (x) = 0.01808 0.38419
# Poissons Ratio (y) = 0.03755 0.40306
# Poissons Ratio (z) = 0.44426 0.22443
#
# Static dielectric constant tensor:
#      x y z
#    x 2.893420 0.000000 -0.085740 
#    y 0.000000 2.804480 0.000000 
#    z -0.085740 0.000000 3.033470 
# 
# 
# High freq. dielectric constant tensor:
#      x y z
#    x 1.603090 0.000000 0.004050 
#    y 0.000000 1.584840 0.000000 
#    z 0.004050 0.000000 1.596540 
# 
# From -- ./inp_files/144766.got.cif
#   From: 2010.06.25/outbox.cif.g09.slc.cpg/sg15_73_cif.got.tgz:144766.got - 2010.06.28 07:06:18.
