data_PCOD8130564
_publ_section_title
;
Structure prediction by ZEFSAII (Michael W. Deem and Ramdas Pophale) SiO2 
 PCOD8130564
Probable space group: C 2/C
;
_chemical_formula_sum "Si O2"
_cell_formula_units_Z 64
_cell_length_a 23.365906
_cell_length_b 20.572160
_cell_length_c 9.270037
_cell_angle_alpha 90.000000
_cell_angle_beta 128.875248
_cell_angle_gamma 90.000000
_cell_volume 3469.050428
_symmetry_space_group_name_H-M "C 2/C"
_symmetry_group_IT_number 15
_symmetry_cell_setting 'monoclinic'
loop_
_space_group_symop_operation_xyz
x,y,z
-x,y,1/2-z
-x,-y,-z
x,-y,1/2+z
1/2+x,1/2+y,z
1/2-x,1/2+y,1/2-z
1/2-x,1/2-y,-z
1/2+x,1/2-y,1/2+z
loop_
_atom_site_type_symbol
_atom_site_label
_atom_site_fract_x
_atom_site_fract_y
_atom_site_fract_z
Si Si1 0.854954 0.782757 0.263496
Si Si2 0.152663 0.578474 0.813082
Si Si3 0.993975 0.614574 0.069493
Si Si4 0.835463 0.219773 0.390447
Si Si5 0.349277 0.068356 0.179896
Si Si6 0.990196 0.760554 0.065481
Si Si7 0.774911 0.643997 0.810827
Si Si8 0.806450 0.347774 0.850735
O O1 0.807936 0.840151 0.265296
O O2 0.841958 0.714191 0.323885
O O3 0.942676 0.799352 0.405694
O O4 0.832150 0.779230 0.060023
O O5 0.077134 0.577525 0.602965
O O6 0.165278 0.505555 0.890563
O O7 0.222748 0.594942 0.821008
O O8 0.148161 0.630242 0.936625
O O9 0.989552 0.687870 0.001465
O O10 0.000000 0.609950 0.250000
O O11 0.067894 0.580200 0.130421
O O12 0.911895 0.202455 0.429049
O O13 0.814507 0.292233 0.311064
O O14 0.776799 0.169247 0.234878
O O15 0.299168 0.089899 0.235184
O O16 0.328302 0.115497 0.016464
O O17 0.000000 0.752996 0.250000
#
# Coordination Sequence:
#
# PCOD8130564 Si02
#       8
#     8   8   8   8   8   8   8   8
#     4  10  18  34  61  81 106 144 187 232 276 336
#     4  12  26  35  52  83 115 153 186 230 275 318
#     4  11  20  37  54  77 111 153 191 217 265 336
#     4  10  17  34  61  80 109 143 184 232 282 330
#     4  12  21  40  57  75 113 157 194 219 267 337
#     4   9  16  31  57  84 103 137 182 227 270 326
#     4  11  19  37  58  78 107 148 190 228 277 325
#     4  11  22  35  55  84 110 141 192 238 271 325
#
# _framework density 18.448853
#
# number of rings (size 3 to 8) (size 9 to 14) (size 15 to 20)
#    0.000    1.250    6.250    2.625    0.000    2.500 
#    0.000    0.000    0.000    0.000    0.000    5.250 
#    0.000    0.000    0.000    0.000    0.000    0.000 
#
# Total GULP energy -396494.083082 kJ/mol
# GULP energy per Si atom -12390.440096 kJ/mol
# Density = 1.840686 g / cm^3
# Si number density = 18.448853 Si / 1000 Ang^3
#
#
#
# Elastic Constant Matrix: (Units=GPa)
#
#
# Indices 1 2 3 4 5 6 
#
# 1 107.6887 41.4502 27.9342 0.0000 26.7416 0.0000
# 2 41.4502 74.9876 34.0039 0.0000 10.6038 0.0000
# 3 27.9342 34.0039 66.6989 0.0000 4.3841 0.0000
# 4 0.0000 0.0000 0.0000 13.8534 0.0000 0.0087
# 5 26.7416 10.6038 4.3841 0.0000 29.4862 0.0000
# 6 0.0000 0.0000 0.0000 0.0087 0.0000 21.3084
#
#
#
# Elastic Compliance Matrix: (Units=1/GPa)
#
#
# Indices 1 2 3 4 5 6 
#
# 1 0.014825 -0.005385 -0.002734 0.000000 -0.011102 0.000000
# 2 -0.005385 0.020055 -0.007893 0.000000 -0.001155 0.000000
# 3 -0.002734 -0.007893 0.020008 0.000000 0.002343 0.000000
# 4 0.000000 0.000000 0.000000 0.072185 0.000000 -0.000029
# 5 -0.011102 -0.001155 0.002343 0.000000 0.044050 0.000000
# 6 0.000000 0.000000 0.000000 -0.000029 0.000000 0.046930
#
#
# Mechanical properties :
#
#
# Convention : Reuss Voigt Hill
#
# Bulk Modulus (GPa) = 43.73752 50.68355 47.21054
# Shear Modulus (GPa) = 19.40278 22.66206 21.03242
#
# Velocity S-wave (km/s) = 3.24652 3.50862 3.38011
# Velocity P-wave (km/s) = 6.14916 6.62918 6.39367
#
# Compressibility (1/GPa) = 0.02286366
#
# Stress axis : x y z
#
# Youngs Moduli (GPa) = 67.45493 49.86406 49.98120
#
# Poissons Ratio (x) = 0.26852 0.13663
# Poissons Ratio (y) = 0.36324 0.39449
# Poissons Ratio (z) = 0.18440 0.39357
#
# Static dielectric constant tensor:
#      x y z
#    x 3.800810 0.000000 0.180740 
#    y 0.000000 3.196040 0.000000 
#    z 0.180740 0.000000 3.272260 
# 
# 
# High freq. dielectric constant tensor:
#      x y z
#    x 1.723370 0.000000 0.000130 
#    y 0.000000 1.680740 0.000000 
#    z 0.000130 0.000000 1.693920 
# 
# From -- ./inp_files/50246.got.cif
#   From: 2010.06.25/outbox.cif.g09.slc.cpg/sg15_26_cif.got.tgz:50246.got - 2010.06.28 07:06:18.
