data_PCOD8130757
_publ_section_title
;
Structure prediction by ZEFSAII (Michael W. Deem and Ramdas Pophale) SiO2 
 PCOD8130757
Probable space group: C 2/C
;
_chemical_formula_sum "Si O2"
_cell_formula_units_Z 56
_cell_length_a 25.593928
_cell_length_b 30.912050
_cell_length_c 5.183751
_cell_angle_alpha 90.000000
_cell_angle_beta 77.302598
_cell_angle_gamma 90.000000
_cell_volume 4000.884123
_symmetry_space_group_name_H-M "C 2/C"
_symmetry_group_IT_number 15
_symmetry_cell_setting 'monoclinic'
loop_
_space_group_symop_operation_xyz
x,y,z
-x,y,1/2-z
-x,-y,-z
x,-y,1/2+z
1/2+x,1/2+y,z
1/2-x,1/2+y,1/2-z
1/2-x,1/2-y,-z
1/2+x,1/2-y,1/2+z
loop_
_atom_site_type_symbol
_atom_site_label
_atom_site_fract_x
_atom_site_fract_y
_atom_site_fract_z
Si Si1 0.555345 0.381535 0.836664
Si Si2 0.344151 0.668919 0.409294
Si Si3 0.000000 0.823404 0.250000
Si Si4 0.560358 0.519194 0.257717
Si Si5 0.500000 0.265329 0.750000
Si Si6 0.671992 0.782596 0.581843
Si Si7 0.114118 0.733929 0.645804
Si Si8 0.713959 0.314809 0.028025
O O1 0.500000 0.371795 0.750000
O O2 0.605904 0.363551 0.626733
O O3 0.563426 0.432381 0.863798
O O4 0.549809 0.355206 0.115382
O O5 0.366045 0.717135 0.375398
O O6 0.306923 0.660469 0.696435
O O7 0.308279 0.659840 0.196064
O O8 0.014553 0.793919 0.481160
O O9 0.500000 0.504117 0.250000
O O10 0.588358 0.488986 0.448105
O O11 0.550124 0.234139 0.747865
O O12 0.639205 0.792232 0.357424
O O13 0.693700 0.734100 0.555148
O O14 0.721561 0.815694 0.547378
O O15 0.632499 0.790058 0.865838
#
# Coordination Sequence:
#
# PCOD8130757 Si02
#       8
#     8   8   4   8   4   8   8   8
#     4  11  23  31  46  59  79  98 121 150 197 243
#     4  10  19  28  41  58  74  93 115 151 189 227
#     4  12  22  30  40  57  78 100 114 152 190 244
#     4   9  20  33  45  57  72  94 123 150 178 225
#     4  12  22  30  40  59  84  98 124 152 188 240
#     4   9  17  29  42  53  70  98 121 147 177 216
#     4  10  18  28  41  55  75  98 120 146 184 223
#     4   9  18  29  41  56  72  90 123 149 176 221
#
# _framework density 13.996907
#
# number of rings (size 3 to 8) (size 9 to 14) (size 15 to 20)
#    0.000    2.000    2.143    1.714   11.000    3.429 
#    0.000    0.000    0.000    0.000    0.000    0.000 
#    0.000    0.000    0.000    0.000    0.000    0.000 
#
# Total GULP energy -347027.127276 kJ/mol
# GULP energy per Si atom -12393.825974 kJ/mol
# Density = 1.396505 g / cm^3
# Si number density = 13.996907 Si / 1000 Ang^3
#
#
#
# Elastic Constant Matrix: (Units=GPa)
#
#
# Indices 1 2 3 4 5 6 
#
# 1 86.3170 25.1374 47.0381 0.0000 -2.0624 0.0000
# 2 25.1374 23.4748 19.9059 0.0000 -2.6707 0.0000
# 3 47.0381 19.9059 118.8133 0.0000 3.5089 0.0000
# 4 0.0000 0.0000 0.0000 9.5054 0.0000 0.5831
# 5 -2.0624 -2.6707 3.5089 0.0000 22.9325 0.0000
# 6 0.0000 0.0000 0.0000 0.5831 0.0000 6.4338
#
#
#
# Elastic Compliance Matrix: (Units=1/GPa)
#
#
# Indices 1 2 3 4 5 6 
#
# 1 0.018908 -0.016110 -0.004803 0.000000 0.000559 0.000000
# 2 -0.016110 0.064554 -0.004637 0.000000 0.006779 0.000000
# 3 -0.004803 -0.004637 0.011174 0.000000 -0.002682 0.000000
# 4 0.000000 0.000000 0.000000 0.105791 0.000000 -0.009588
# 5 0.000559 0.006779 -0.002682 0.000000 0.044856 0.000000
# 6 0.000000 0.000000 0.000000 -0.009588 0.000000 0.156298
#
#
# Mechanical properties :
#
#
# Convention : Reuss Voigt Hill
#
# Bulk Modulus (GPa) = 22.97042 45.86310 34.41676
# Shear Modulus (GPa) = 10.70220 16.87592 13.78906
#
# Velocity S-wave (km/s) = 2.76816 3.47607 3.14212
# Velocity P-wave (km/s) = 5.16369 6.99632 6.14866
#
# Compressibility (1/GPa) = 0.04353424
#
# Stress axis : x y z
#
# Youngs Moduli (GPa) = 52.88876 15.49093 89.49212
#
# Poissons Ratio (x) = 0.24957 0.42982
# Poissons Ratio (y) = 0.85206 0.41501
# Poissons Ratio (z) = 0.25402 0.07184
#
# Static dielectric constant tensor:
#      x y z
#    x 2.712190 0.000000 0.069060 
#    y 0.000000 2.263050 0.000000 
#    z 0.069060 0.000000 3.167710 
# 
# 
# High freq. dielectric constant tensor:
#      x y z
#    x 1.512610 0.000000 0.009540 
#    y 0.000000 1.459800 0.000000 
#    z 0.009540 0.000000 1.561370 
# 
# From -- ./inp_files/16304.got.cif
#   From: 2010.06.25/outbox.cif.g09.slc.cpg/sg15_9_cif.got.tgz:16304.got - 2010.06.28 07:06:18.
