data_PCOD8130237
_publ_section_title
;
Structure prediction by ZEFSAII (Michael W. Deem and Ramdas Pophale) SiO2 
 PCOD8130237
Probable space group: C 2/C
;
_chemical_formula_sum "Si O2"
_cell_formula_units_Z 64
_cell_length_a 11.933844
_cell_length_b 16.162327
_cell_length_c 26.110580
_cell_angle_alpha 90.000000
_cell_angle_beta 48.207070
_cell_angle_gamma 90.000000
_cell_volume 3754.761356
_symmetry_space_group_name_H-M "C 2/C"
_symmetry_group_IT_number 15
_symmetry_cell_setting 'monoclinic'
loop_
_space_group_symop_operation_xyz
x,y,z
-x,y,1/2-z
-x,-y,-z
x,-y,1/2+z
1/2+x,1/2+y,z
1/2-x,1/2+y,1/2-z
1/2-x,1/2-y,-z
1/2+x,1/2-y,1/2+z
loop_
_atom_site_type_symbol
_atom_site_label
_atom_site_fract_x
_atom_site_fract_y
_atom_site_fract_z
Si Si1 0.766701 0.522279 0.096758
Si Si2 0.089048 0.263242 0.073970
Si Si3 0.450234 0.248554 0.101119
Si Si4 0.135276 0.808777 0.670011
Si Si5 0.657801 0.638554 0.591882
Si Si6 0.556640 0.948694 0.058965
Si Si7 0.838905 0.610630 0.434338
Si Si8 0.867580 0.776627 0.557294
O O1 0.684908 0.595925 0.150872
O O2 0.642447 0.451104 0.122973
O O3 0.892982 0.481088 0.093597
O O4 0.839623 0.558909 0.022909
O O5 0.080829 0.226435 0.132705
O O6 0.047871 0.360174 0.088436
O O7 0.964552 0.213964 0.078983
O O8 0.250000 0.250000 0.000000
O O9 0.271463 0.246094 0.150623
O O10 0.495836 0.326287 0.123553
O O11 0.508903 0.165122 0.111227
O O12 0.519423 0.257424 0.023564
O O13 0.000000 0.801202 0.750000
O O14 0.761827 0.631314 0.511055
O O15 0.746179 0.702981 0.601420
O O16 0.625549 0.013076 0.079525
O O17 0.725736 0.638162 0.423421
#
# Coordination Sequence:
#
# PCOD8130237 Si02
#       8
#     8   8   8   8   8   8   8   8
#     4  10  17  32  55  86 110 133 184 236 272 315
#     4  12  21  34  54  81 113 143 184 235 273 323
#     4   9  15  31  52  79 110 144 173 214 271 328
#     4  12  25  38  52  76 116 154 180 218 286 343
#     4   8  15  26  54  85 109 129 173 232 271 311
#     4  10  17  30  57  87 109 136 182 233 275 316
#     4   8  15  26  52  86 111 131 169 226 280 318
#     4   9  15  29  52  86 111 132 173 228 277 312
#
# _framework density 17.045024000000002
#
# number of rings (size 3 to 8) (size 9 to 14) (size 15 to 20)
#    0.000    2.250    5.000    1.500    0.000    0.000 
#    0.000    3.125    0.000    2.250    0.000    0.000 
#    0.000    0.000    0.000    0.000    0.000    0.000 
#
# Total GULP energy -396638.971659 kJ/mol
# GULP energy per Si atom -12394.967864 kJ/mol
# Density = 1.700623 g / cm^3
# Si number density = 17.045024 Si / 1000 Ang^3
#
#
#
# Elastic Constant Matrix: (Units=GPa)
#
#
# Indices 1 2 3 4 5 6 
#
# 1 140.4952 55.4825 42.2616 0.0000 -1.3783 0.0000
# 2 55.4825 97.7903 27.7977 0.0000 1.8743 0.0000
# 3 42.2616 27.7977 65.7337 0.0000 -2.7447 0.0000
# 4 0.0000 0.0000 0.0000 12.8166 0.0000 0.2933
# 5 -1.3783 1.8743 -2.7447 0.0000 14.1665 0.0000
# 6 0.0000 0.0000 0.0000 0.2933 0.0000 29.6053
#
#
#
# Elastic Compliance Matrix: (Units=1/GPa)
#
#
# Indices 1 2 3 4 5 6 
#
# 1 0.010329 -0.004540 -0.004692 0.000000 0.000697 0.000000
# 2 -0.004540 0.013708 -0.002996 0.000000 -0.002836 0.000000
# 3 -0.004692 -0.002996 0.019653 0.000000 0.003748 0.000000
# 4 0.000000 0.000000 0.000000 0.078042 0.000000 -0.000773
# 5 0.000697 -0.002836 0.003748 0.000000 0.071758 0.000000
# 6 0.000000 0.000000 0.000000 -0.000773 0.000000 0.033785
#
#
# Mechanical properties :
#
#
# Convention : Reuss Voigt Hill
#
# Bulk Modulus (GPa) = 51.99250 61.67807 56.83529
# Shear Modulus (GPa) = 19.36925 23.21617 21.29271
#
# Velocity S-wave (km/s) = 3.37465 3.69460 3.53824
# Velocity P-wave (km/s) = 6.76414 7.37997 7.07876
#
# Compressibility (1/GPa) = 0.01923354
#
# Stress axis : x y z
#
# Youngs Moduli (GPa) = 96.81918 72.95128 50.88320
#
# Poissons Ratio (x) = 0.33118 0.23872
# Poissons Ratio (y) = 0.43954 0.15247
# Poissons Ratio (z) = 0.45423 0.21860
#
# Static dielectric constant tensor:
#      x y z
#    x 3.597160 0.000000 0.088890 
#    y 0.000000 3.718030 0.000000 
#    z 0.088890 0.000000 2.671870 
# 
# 
# High freq. dielectric constant tensor:
#      x y z
#    x 1.666980 0.000000 -0.006010 
#    y 0.000000 1.661400 0.000000 
#    z -0.006010 0.000000 1.589180 
# 
# From -- ./inp_files/270419.got.cif
#   From: 2010.06.25/outbox.cif.g09.slc.cpg/sg15_136_cif.got.tgz:270419.got - 2010.06.28 07:06:18.
