data_PCOD8130122
_publ_section_title
;
Structure prediction by ZEFSAII (Michael W. Deem and Ramdas Pophale) SiO2 
 PCOD8130122
Probable space group: C 2/C
;
_chemical_formula_sum "Si O2"
_cell_formula_units_Z 56
_cell_length_a 23.772381
_cell_length_b 13.564375
_cell_length_c 10.982205
_cell_angle_alpha 90.000000
_cell_angle_beta 127.225127
_cell_angle_gamma 90.000000
_cell_volume 2819.807598
_symmetry_space_group_name_H-M "C 2/C"
_symmetry_group_IT_number 15
_symmetry_cell_setting 'monoclinic'
loop_
_space_group_symop_operation_xyz
x,y,z
-x,y,1/2-z
-x,-y,-z
x,-y,1/2+z
1/2+x,1/2+y,z
1/2-x,1/2+y,1/2-z
1/2-x,1/2-y,-z
1/2+x,1/2-y,1/2+z
loop_
_atom_site_type_symbol
_atom_site_label
_atom_site_fract_x
_atom_site_fract_y
_atom_site_fract_z
Si Si1 0.656292 0.843032 0.084904
Si Si2 0.693227 0.937653 0.641010
Si Si3 0.636861 0.126306 0.297330
Si Si4 0.200921 0.191095 0.343719
Si Si5 0.074171 0.569710 0.804691
Si Si6 0.494551 0.764311 0.606113
Si Si7 0.950852 0.212974 0.300454
O O1 0.688638 0.757159 0.208063
O O2 0.690535 0.946686 0.168993
O O3 0.674484 0.828429 0.965663
O O4 0.570437 0.842575 0.976975
O O5 0.694976 0.872825 0.766651
O O6 0.761565 0.909994 0.649322
O O7 0.621534 0.901862 0.482288
O O8 0.567087 0.183727 0.167036
O O9 0.616191 0.011078 0.283663
O O10 0.250000 0.250000 0.500000
O O11 0.126566 0.162602 0.311258
O O12 0.060838 0.668815 0.710366
O O13 0.000000 0.523719 0.750000
O O14 0.500000 0.714769 0.750000
O O15 0.482787 0.687057 0.477189
O O16 0.000000 0.180424 0.250000
#
# Coordination Sequence:
#
# PCOD8130122 Si02
#       7
#     8   8   8   8   8   8   8
#     4   9  21  34  50  77 110 144 183 215 264 325
#     4  11  21  31  52  76 109 153 176 219 271 307
#     4  10  17  29  48  74 111 143 174 202 261 338
#     4  11  22  37  52  77 114 142 181 228 266 315
#     4  10  18  28  47  80 112 143 176 206 255 332
#     4   9  17  29  46  74 111 145 166 212 260 328
#     4  10  19  32  52  74 105 140 185 219 260 318
#
# _framework density 19.859511999999999
#
# number of rings (size 3 to 8) (size 9 to 14) (size 15 to 20)
#    0.000    2.000    1.429    5.571    2.000    2.286 
#    0.000    0.000    0.000    0.000    0.000    1.000 
#    0.000    9.143    0.000    1.143    0.000    0.000 
#
# Total GULP energy -346894.472673 kJ/mol
# GULP energy per Si atom -12389.088310 kJ/mol
# Density = 1.981431 g / cm^3
# Si number density = 19.859512 Si / 1000 Ang^3
#
#
#
# Elastic Constant Matrix: (Units=GPa)
#
#
# Indices 1 2 3 4 5 6 
#
# 1 133.9076 14.1619 46.3006 0.0000 -5.8550 0.0000
# 2 14.1619 21.2985 7.6163 0.0000 7.7722 0.0000
# 3 46.3006 7.6163 102.0479 0.0000 -7.7426 0.0000
# 4 0.0000 0.0000 0.0000 15.8375 0.0000 1.7666
# 5 -5.8550 7.7722 -7.7426 0.0000 28.1905 0.0000
# 6 0.0000 0.0000 0.0000 1.7666 0.0000 19.1280
#
#
#
# Elastic Compliance Matrix: (Units=1/GPa)
#
#
# Indices 1 2 3 4 5 6 
#
# 1 0.009475 -0.005941 -0.003658 0.000000 0.002601 0.000000
# 2 -0.005941 0.058658 -0.003067 0.000000 -0.018248 0.000000
# 3 -0.003658 -0.003067 0.011943 0.000000 0.003366 0.000000
# 4 0.000000 0.000000 0.000000 0.063799 0.000000 -0.005892
# 5 0.002601 -0.018248 0.003366 0.000000 0.041969 0.000000
# 6 0.000000 0.000000 0.000000 -0.005892 0.000000 0.052824
#
#
# Mechanical properties :
#
#
# Convention : Reuss Voigt Hill
#
# Bulk Modulus (GPa) = 18.26690 43.71243 30.98967
# Shear Modulus (GPa) = 17.71499 25.24288 21.47894
#
# Velocity S-wave (km/s) = 2.98990 3.56908 3.29225
# Velocity P-wave (km/s) = 4.59754 6.24844 5.48545
#
# Compressibility (1/GPa) = 0.05474382
#
# Stress axis : x y z
#
# Youngs Moduli (GPa) = 105.54410 17.04802 83.72882
#
# Poissons Ratio (x) = 0.10128 0.30628
# Poissons Ratio (y) = 0.62704 0.25679
# Poissons Ratio (z) = 0.38609 0.05228
#
# Static dielectric constant tensor:
#      x y z
#    x 3.776290 0.000000 -0.226170 
#    y 0.000000 2.931300 0.000000 
#    z -0.226170 0.000000 3.945220 
# 
# 
# High freq. dielectric constant tensor:
#      x y z
#    x 1.779680 0.000000 -0.019770 
#    y 0.000000 1.697850 0.000000 
#    z -0.019770 0.000000 1.788910 
# 
# From -- ./inp_files/119108.got.cif
#   From: 2010.06.25/outbox.cif.g09.slc.cpg/sg15_60_cif.got.tgz:119108.got - 2010.06.28 07:06:18.
