data_PCOD8130145
_publ_section_title
;
Structure prediction by ZEFSAII (Michael W. Deem and Ramdas Pophale) SiO2 
 PCOD8130145
Probable space group: C 2/C
;
_chemical_formula_sum "Si O2"
_cell_formula_units_Z 48
_cell_length_a 8.774036
_cell_length_b 17.441263
_cell_length_c 20.809145
_cell_angle_alpha 90.000000
_cell_angle_beta 119.396397
_cell_angle_gamma 90.000000
_cell_volume 2774.416881
_symmetry_space_group_name_H-M "C 2/C"
_symmetry_group_IT_number 15
_symmetry_cell_setting 'monoclinic'
loop_
_space_group_symop_operation_xyz
x,y,z
-x,y,1/2-z
-x,-y,-z
x,-y,1/2+z
1/2+x,1/2+y,z
1/2-x,1/2+y,1/2-z
1/2-x,1/2-y,-z
1/2+x,1/2-y,1/2+z
loop_
_atom_site_type_symbol
_atom_site_label
_atom_site_fract_x
_atom_site_fract_y
_atom_site_fract_z
Si Si1 0.169077 0.905250 0.026872
Si Si2 0.814569 0.043883 0.388579
Si Si3 0.637040 0.937698 0.552157
Si Si4 0.944352 0.170562 0.576913
Si Si5 0.112394 0.659228 0.419222
Si Si6 0.024980 0.975781 0.329975
O O1 0.105265 0.834084 0.058367
O O2 0.263625 0.969705 0.090686
O O3 0.303099 0.885238 0.996967
O O4 0.999435 0.940631 0.959202
O O5 0.681078 0.115375 0.369093
O O6 0.857018 0.023346 0.323083
O O7 0.558874 0.881302 0.588850
O O8 0.500000 0.000000 0.500000
O O9 0.797262 0.979963 0.619042
O O10 0.939215 0.253896 0.608956
O O11 0.761089 0.154443 0.504173
O O12 0.970542 0.108017 0.637240
O O13 0.000000 0.964582 0.250000
#
# Coordination Sequence:
#
# PCOD8130145 Si02
#       6
#     8   8   8   8   8   8
#     4   8  14  26  46  70 100 128 158 198 251 289
#     4   8  14  28  47  68  95 130 161 198 241 299
#     4  11  17  29  53  79  98 125 172 222 239 283
#     4   9  18  31  49  76 105 132 160 203 260 309
#     4  10  17  29  53  82 100 120 170 220 248 282
#     4  10  20  35  51  68  98 141 169 196 258 318
#
# _framework density 17.300930999999999
#
# number of rings (size 3 to 8) (size 9 to 14) (size 15 to 20)
#    0.000    2.667    3.333    2.000    0.000    0.667 
#    0.000    2.500    0.000    0.000    0.000    0.000 
#    0.000    0.000    0.000    0.000    0.000    0.000 
#
# Total GULP energy -297349.793353 kJ/mol
# GULP energy per Si atom -12389.574723 kJ/mol
# Density = 1.726155 g / cm^3
# Si number density = 17.300931 Si / 1000 Ang^3
#
#
#
# Elastic Constant Matrix: (Units=GPa)
#
#
# Indices 1 2 3 4 5 6 
#
# 1 126.0328 66.7982 40.8614 0.0000 -23.6446 0.0000
# 2 66.7982 116.1971 34.7271 0.0000 -17.1794 0.0000
# 3 40.8614 34.7271 62.2429 0.0000 -21.4179 0.0000
# 4 0.0000 0.0000 0.0000 11.6804 0.0000 -3.2458
# 5 -23.6446 -17.1794 -21.4179 0.0000 23.4439 0.0000
# 6 0.0000 0.0000 0.0000 -3.2458 0.0000 29.6978
#
#
#
# Elastic Compliance Matrix: (Units=1/GPa)
#
#
# Indices 1 2 3 4 5 6 
#
# 1 0.013171 -0.005661 -0.003420 0.000000 0.006012 0.000000
# 2 -0.005661 0.012946 -0.003219 0.000000 0.000837 0.000000
# 3 -0.003420 -0.003219 0.026411 0.000000 0.018321 0.000000
# 4 0.000000 0.000000 0.000000 0.088295 0.000000 0.009650
# 5 0.006012 0.000837 0.018321 0.000000 0.066069 0.000000
# 6 0.000000 0.000000 0.000000 0.009650 0.000000 0.034727
#
#
# Mechanical properties :
#
#
# Convention : Reuss Voigt Hill
#
# Bulk Modulus (GPa) = 35.80406 65.47177 50.63791
# Shear Modulus (GPa) = 18.14693 23.77018 20.95855
#
# Velocity S-wave (km/s) = 3.24218 3.71067 3.48431
# Velocity P-wave (km/s) = 5.89538 7.50226 6.74683
#
# Compressibility (1/GPa) = 0.02792979
#
# Stress axis : x y z
#
# Youngs Moduli (GPa) = 75.92251 77.24369 37.86260
#
# Poissons Ratio (x) = 0.43727 0.12948
# Poissons Ratio (y) = 0.42979 0.12187
# Poissons Ratio (z) = 0.25963 0.24863
#
# Static dielectric constant tensor:
#      x y z
#    x 3.615280 0.000000 -0.310920 
#    y 0.000000 3.262170 0.000000 
#    z -0.310920 0.000000 2.920240 
# 
# 
# High freq. dielectric constant tensor:
#      x y z
#    x 1.681750 0.000000 -0.018150 
#    y 0.000000 1.656590 0.000000 
#    z -0.018150 0.000000 1.615720 
# 
# From -- ./inp_files/189782.got.cif
#   From: 2010.06.25/outbox.cif.g09.slc.cpg/sg15_95_cif.got.tgz:189782.got - 2010.06.28 07:06:18.
