data_PCOD8130576
_publ_section_title
;
Structure prediction by ZEFSAII (Michael W. Deem and Ramdas Pophale) SiO2 
 PCOD8130576
Probable space group: C 2/C
;
_chemical_formula_sum "Si O2"
_cell_formula_units_Z 56
_cell_length_a 15.423497
_cell_length_b 11.249736
_cell_length_c 17.441816
_cell_angle_alpha 90.000000
_cell_angle_beta 65.209864
_cell_angle_gamma 90.000000
_cell_volume 2747.456522
_symmetry_space_group_name_H-M "C 2/C"
_symmetry_group_IT_number 15
_symmetry_cell_setting 'monoclinic'
loop_
_space_group_symop_operation_xyz
x,y,z
-x,y,1/2-z
-x,-y,-z
x,-y,1/2+z
1/2+x,1/2+y,z
1/2-x,1/2+y,1/2-z
1/2-x,1/2-y,-z
1/2+x,1/2-y,1/2+z
loop_
_atom_site_type_symbol
_atom_site_label
_atom_site_fract_x
_atom_site_fract_y
_atom_site_fract_z
Si Si1 0.723300 0.414768 0.849746
Si Si2 0.609129 0.635093 0.928489
Si Si3 0.626268 0.951902 0.589314
Si Si4 0.217426 0.879687 0.533526
Si Si5 0.589039 0.741719 0.489152
Si Si6 0.718097 0.130874 0.334231
Si Si7 0.449194 0.952158 0.094381
O O1 0.656682 0.530620 0.860107
O O2 0.829973 0.444407 0.841273
O O3 0.681695 0.334139 0.933566
O O4 0.731605 0.346425 0.765903
O O5 0.655204 0.758380 0.884500
O O6 0.627690 0.597171 0.011021
O O7 0.495971 0.649014 0.959275
O O8 0.610168 0.823526 0.555074
O O9 0.697442 0.027285 0.510410
O O10 0.524910 0.021922 0.634656
O O11 0.250000 0.750000 0.500000
O O12 0.198501 0.888698 0.632298
O O13 0.565366 0.813243 0.418983
O O14 0.651176 0.015011 0.350745
O O15 0.500000 0.000000 0.000000
#
# Coordination Sequence:
#
# PCOD8130576 Si02
#       7
#     8   8   8   8   8   8   8
#     4  11  26  35  59  93 125 149 194 254 309 345
#     4  10  21  39  61  84 117 162 202 239 291 367
#     4  10  19  38  61  88 111 161 207 234 285 369
#     4   9  17  33  60  85 112 153 202 237 282 351
#     4  11  20  40  63  85 120 161 202 238 293 367
#     4  11  20  37  59  88 122 151 193 256 303 334
#     4  10  17  34  64  84 107 155 204 233 281 350
#
# _framework density 20.382487999999999
#
# number of rings (size 3 to 8) (size 9 to 14) (size 15 to 20)
#    0.000    1.714    5.714    1.714    2.000    0.571 
#    0.000    0.714    3.143    1.714    0.000    0.000 
#    0.000    0.000    0.000    0.000    0.000    0.000 
#
# Total GULP energy -346915.069039 kJ/mol
# GULP energy per Si atom -12389.823894 kJ/mol
# Density = 2.033610 g / cm^3
# Si number density = 20.382488 Si / 1000 Ang^3
#
#
#
# Elastic Constant Matrix: (Units=GPa)
#
#
# Indices 1 2 3 4 5 6 
#
# 1 92.4408 29.6064 36.6103 0.0000 8.3962 0.0000
# 2 29.6064 54.6224 6.3491 0.0000 2.5662 0.0000
# 3 36.6103 6.3491 77.3247 0.0000 19.4043 0.0000
# 4 0.0000 0.0000 0.0000 22.2041 0.0000 -2.9777
# 5 8.3962 2.5662 19.4043 0.0000 26.3516 0.0000
# 6 0.0000 0.0000 0.0000 -2.9777 0.0000 34.2146
#
#
#
# Elastic Compliance Matrix: (Units=1/GPa)
#
#
# Indices 1 2 3 4 5 6 
#
# 1 0.016141 -0.007953 -0.007229 0.000000 0.000955 0.000000
# 2 -0.007953 0.022418 0.002253 0.000000 -0.001308 0.000000
# 3 -0.007229 0.002253 0.019194 0.000000 -0.012050 0.000000
# 4 0.000000 0.000000 0.000000 0.045569 0.000000 0.003966
# 5 0.000955 -0.001308 -0.012050 0.000000 0.046645 0.000000
# 6 0.000000 0.000000 0.000000 0.003966 0.000000 0.029572
#
#
# Mechanical properties :
#
#
# Convention : Reuss Voigt Hill
#
# Bulk Modulus (GPa) = 31.35283 41.05773 36.20528
# Shear Modulus (GPa) = 23.14513 26.67553 24.91033
#
# Velocity S-wave (km/s) = 3.37343 3.62159 3.49971
# Velocity P-wave (km/s) = 5.53074 6.13801 5.84227
#
# Compressibility (1/GPa) = 0.03189505
#
# Stress axis : x y z
#
# Youngs Moduli (GPa) = 61.95337 44.60704 52.10010
#
# Poissons Ratio (x) = 0.35478 0.37662
# Poissons Ratio (y) = 0.49274 -0.11739
# Poissons Ratio (z) = 0.44784 -0.10051
#
# Static dielectric constant tensor:
#      x y z
#    x 4.300890 0.000000 0.229250 
#    y 0.000000 4.019170 0.000000 
#    z 0.229250 0.000000 3.400090 
# 
# 
# High freq. dielectric constant tensor:
#      x y z
#    x 1.798320 0.000000 0.008810 
#    y 0.000000 1.801300 0.000000 
#    z 0.008810 0.000000 1.755190 
# 
# From -- ./inp_files/204112.got.cif
#   From: 2010.06.25/outbox.cif.g09.slc.cpg/sg15_103_cif.got.tgz:204112.got - 2010.06.28 07:06:18.
