data_PCOD8130913
_publ_section_title
;
Structure prediction by ZEFSAII (Michael W. Deem and Ramdas Pophale) SiO2 
 PCOD8130913
Probable space group: C 2/C
;
_chemical_formula_sum "Si O2"
_cell_formula_units_Z 64
_cell_length_a 19.738667
_cell_length_b 13.517647
_cell_length_c 20.725635
_cell_angle_alpha 90.000000
_cell_angle_beta 139.265367
_cell_angle_gamma 90.000000
_cell_volume 3608.651293
_symmetry_space_group_name_H-M "C 2/C"
_symmetry_group_IT_number 15
_symmetry_cell_setting 'monoclinic'
loop_
_space_group_symop_operation_xyz
x,y,z
-x,y,1/2-z
-x,-y,-z
x,-y,1/2+z
1/2+x,1/2+y,z
1/2-x,1/2+y,1/2-z
1/2-x,1/2-y,-z
1/2+x,1/2-y,1/2+z
loop_
_atom_site_type_symbol
_atom_site_label
_atom_site_fract_x
_atom_site_fract_y
_atom_site_fract_z
Si Si1 0.285262 0.457854 0.364301
Si Si2 0.543750 0.346311 0.940394
Si Si3 0.514169 0.132512 0.940486
Si Si4 0.725683 0.946843 0.618714
Si Si5 0.588287 0.126538 0.771484
Si Si6 0.838043 0.188669 0.100585
Si Si7 0.705205 0.867856 0.176749
Si Si8 0.306395 0.354256 0.802780
O O1 0.394794 0.427243 0.473691
O O2 0.193280 0.438117 0.349682
O O3 0.259767 0.394442 0.283014
O O4 0.288868 0.572784 0.349929
O O5 0.568603 0.239389 0.989860
O O6 0.579136 0.352810 0.891163
O O7 0.421717 0.366163 0.857593
O O8 0.457852 0.138252 0.831756
O O9 0.418489 0.109098 0.918922
O O10 0.604566 0.052208 0.010585
O O11 0.793751 0.904729 0.608959
O O12 0.732816 0.880401 0.689058
O O13 0.755843 0.061914 0.657334
O O14 0.500000 0.072081 0.750000
O O15 0.607623 0.237287 0.810673
O O16 0.750000 0.250000 0.000000
O O17 0.721330 0.750207 0.183680
#
# Coordination Sequence:
#
# PCOD8130913 Si02
#       8
#     8   8   8   8   8   8   8   8
#     4  10  20  34  53  79 105 139 177 219 267 319
#     4  11  19  32  52  78 110 135 173 216 270 318
#     4  10  18  30  50  76 108 137 168 216 267 316
#     4  11  20  33  50  78 110 140 176 214 272 315
#     4  11  19  31  51  83 112 132 165 215 278 322
#     4  12  20  31  52  84 111 136 163 218 275 324
#     4   9  20  34  51  73 105 141 179 220 258 311
#     4  10  22  36  53  76 106 145 182 221 257 314
#
# _framework density 17.735157999999998
#
# number of rings (size 3 to 8) (size 9 to 14) (size 15 to 20)
#    0.000    1.500    3.750    3.750    0.000    0.000 
#    0.000    0.000    0.000    0.750    6.500    0.000 
#    0.000    0.000    0.000    0.000    0.000    0.000 
#
# Total GULP energy -396571.930779 kJ/mol
# GULP energy per Si atom -12392.872837 kJ/mol
# Density = 1.769479 g / cm^3
# Si number density = 17.735158 Si / 1000 Ang^3
#
#
#
# Elastic Constant Matrix: (Units=GPa)
#
#
# Indices 1 2 3 4 5 6 
#
# 1 83.6807 50.6513 11.2591 0.0000 -2.9670 0.0000
# 2 50.6513 116.0484 33.6712 0.0000 -7.2862 0.0000
# 3 11.2591 33.6712 72.8592 0.0000 0.6651 0.0000
# 4 0.0000 0.0000 0.0000 21.3575 0.0000 -7.6812
# 5 -2.9670 -7.2862 0.6651 0.0000 17.7835 0.0000
# 6 0.0000 0.0000 0.0000 -7.6812 0.0000 29.6498
#
#
#
# Elastic Compliance Matrix: (Units=1/GPa)
#
#
# Indices 1 2 3 4 5 6 
#
# 1 0.016292 -0.007395 0.000903 0.000000 -0.000345 0.000000
# 2 -0.007395 0.013640 -0.005202 0.000000 0.004549 0.000000
# 3 0.000903 -0.005202 0.016013 0.000000 -0.002580 0.000000
# 4 0.000000 0.000000 0.000000 0.051633 0.000000 0.013376
# 5 -0.000345 0.004549 -0.002580 0.000000 0.058135 0.000000
# 6 0.000000 0.000000 0.000000 0.013376 0.000000 0.037192
#
#
# Mechanical properties :
#
#
# Convention : Reuss Voigt Hill
#
# Bulk Modulus (GPa) = 44.33182 51.52792 47.92987
# Shear Modulus (GPa) = 22.34013 25.55861 23.94937
#
# Velocity S-wave (km/s) = 3.55301 3.80034 3.67875
# Velocity P-wave (km/s) = 6.47168 6.95514 6.71776
#
# Compressibility (1/GPa) = 0.02255716
#
# Stress axis : x y z
#
# Youngs Moduli (GPa) = 61.37807 73.31527 62.44804
#
# Poissons Ratio (x) = 0.54215 -0.05638
# Poissons Ratio (y) = 0.45388 0.32487
# Poissons Ratio (z) = -0.05542 0.38141
#
# Static dielectric constant tensor:
#      x y z
#    x 3.658960 0.000000 0.225870 
#    y 0.000000 3.292560 0.000000 
#    z 0.225870 0.000000 3.366480 
# 
# 
# High freq. dielectric constant tensor:
#      x y z
#    x 1.669130 0.000000 0.012650 
#    y 0.000000 1.662140 0.000000 
#    z 0.012650 0.000000 1.700520 
# 
# From -- ./inp_files/252592.got.cif
#   From: 2010.06.25/outbox.cif.g09.slc.cpg/sg15_127_cif.got.tgz:252592.got - 2010.06.28 07:06:18.
