data_PCOD8130097
_publ_section_title
;
Structure prediction by ZEFSAII (Michael W. Deem and Ramdas Pophale) SiO2 
 PCOD8130097
Probable space group: C 2/C
;
_chemical_formula_sum "Si O2"
_cell_formula_units_Z 56
_cell_length_a 21.056866
_cell_length_b 16.471159
_cell_length_c 26.353750
_cell_angle_alpha 90.000000
_cell_angle_beta 22.482252
_cell_angle_gamma 90.000000
_cell_volume 3495.224330
_symmetry_space_group_name_H-M "C 2/C"
_symmetry_group_IT_number 15
_symmetry_cell_setting 'monoclinic'
loop_
_space_group_symop_operation_xyz
x,y,z
-x,y,1/2-z
-x,-y,-z
x,-y,1/2+z
1/2+x,1/2+y,z
1/2-x,1/2+y,1/2-z
1/2-x,1/2-y,-z
1/2+x,1/2-y,1/2+z
loop_
_atom_site_type_symbol
_atom_site_label
_atom_site_fract_x
_atom_site_fract_y
_atom_site_fract_z
Si Si1 0.522892 0.142783 0.594221
Si Si2 0.764377 0.968515 0.205379
Si Si3 0.441210 0.625958 0.064964
Si Si4 0.501779 0.201758 0.495090
Si Si5 0.331888 0.952610 0.111962
Si Si6 0.614193 0.307833 0.788828
Si Si7 0.152220 0.928472 0.671746
O O1 0.409756 0.063572 0.688275
O O2 0.498782 0.168964 0.554234
O O3 0.466251 0.221250 0.668368
O O4 0.712196 0.116020 0.464510
O O5 0.780586 0.952540 0.254023
O O6 0.782892 0.065122 0.180134
O O7 0.903769 0.919424 0.073058
O O8 0.415078 0.709988 0.053256
O O9 0.481685 0.651033 0.093204
O O10 0.385840 0.136696 0.551310
O O11 0.693497 0.204113 0.335633
O O12 0.230919 0.993845 0.141182
O O13 0.500000 0.000000 0.000000
O O14 0.588130 0.364469 0.760071
O O15 0.000000 0.958492 0.750000
#
# Coordination Sequence:
#
# PCOD8130097 Si02
#       7
#     8   8   8   8   8   8   8
#     4   9  18  30  48  71  99 131 166 201 245 300
#     4  10  17  28  48  77 104 123 163 205 253 300
#     4  10  18  26  46  80 104 128 155 210 261 299
#     4   9  17  27  48  74  99 126 162 208 252 290
#     4  11  17  33  51  73  97 131 166 216 249 290
#     4  10  17  32  48  69 107 130 162 207 247 297
#     4  11  22  34  51  72  99 140 177 205 246 299
#
# _framework density 16.021861000000001
#
# number of rings (size 3 to 8) (size 9 to 14) (size 15 to 20)
#    0.000    2.000    7.143    0.000    0.000    0.571 
#    0.000    0.000    0.000    0.000    0.000    4.000 
#    0.000    0.000    0.000    0.000    0.000    0.000 
#
# Total GULP energy -346960.491577 kJ/mol
# GULP energy per Si atom -12391.446128 kJ/mol
# Density = 1.598539 g / cm^3
# Si number density = 16.021861 Si / 1000 Ang^3
#
#
#
# Elastic Constant Matrix: (Units=GPa)
#
#
# Indices 1 2 3 4 5 6 
#
# 1 51.6208 34.7525 35.3361 -0.0012 -12.0018 0.0036
# 2 34.7525 126.9887 48.0818 -0.0039 -12.4138 -0.0021
# 3 35.3361 48.0818 86.8541 0.0400 0.1666 -0.0061
# 4 -0.0012 -0.0039 0.0400 30.2804 -0.0180 3.6268
# 5 -12.0018 -12.4138 0.1666 -0.0180 22.9968 0.0057
# 6 0.0036 -0.0021 -0.0061 3.6268 0.0057 15.6665
#
#
#
# Elastic Compliance Matrix: (Units=1/GPa)
#
#
# Indices 1 2 3 4 5 6 
#
# 1 0.033207 -0.003062 -0.011845 0.000029 0.015763 -0.000025
# 2 -0.003062 0.010969 -0.004835 0.000011 0.004359 -0.000004
# 3 -0.011845 -0.004835 0.019027 -0.000034 -0.008930 0.000021
# 4 0.000029 0.000011 -0.000034 0.033967 0.000050 -0.007863
# 5 0.015763 0.004359 -0.008930 0.000050 0.054128 -0.000038
# 6 -0.000025 -0.000004 0.000021 -0.007863 -0.000038 0.065651
#
#
# Mechanical properties :
#
#
# Convention : Reuss Voigt Hill
#
# Bulk Modulus (GPa) = 42.16164 55.75605 48.95885
# Shear Modulus (GPa) = 18.91509 23.60831 21.26170
#
# Velocity S-wave (km/s) = 3.43968 3.84279 3.64681
# Velocity P-wave (km/s) = 6.49211 7.38681 6.95386
#
# Compressibility (1/GPa) = 0.02371824
#
# Stress axis : x y z
#
# Youngs Moduli (GPa) = 30.11451 91.16217 52.55769
#
# Poissons Ratio (x) = 0.27910 0.62256
# Poissons Ratio (y) = 0.09220 0.25414
# Poissons Ratio (z) = 0.35671 0.44080
#
# Static dielectric constant tensor:
#      x y z
#    x 2.547210 0.000010 0.272680 
#    y 0.000010 3.784850 0.000090 
#    z 0.272680 0.000090 3.340740 
# 
# 
# High freq. dielectric constant tensor:
#      x y z
#    x 1.543110 0.000000 0.029130 
#    y 0.000000 1.633480 0.000010 
#    z 0.029130 0.000010 1.628250 
# 
# From -- ./inp_files/118936.got.cif
#   From: 2010.06.25/outbox.cif.g09.slc.cpg/sg15_60_cif.got.tgz:118936.got - 2010.06.28 07:06:18.
