data_PCOD8130159
_publ_section_title
;
Structure prediction by ZEFSAII (Michael W. Deem and Ramdas Pophale) SiO2 
 PCOD8130159
Probable space group: C 2/C
;
_chemical_formula_sum "Si O2"
_cell_formula_units_Z 56
_cell_length_a 21.815559
_cell_length_b 26.985857
_cell_length_c 17.607683
_cell_angle_alpha 90.000000
_cell_angle_beta 160.455927
_cell_angle_gamma 90.000000
_cell_volume 3467.705873
_symmetry_space_group_name_H-M "C 2/C"
_symmetry_group_IT_number 15
_symmetry_cell_setting 'monoclinic'
loop_
_space_group_symop_operation_xyz
x,y,z
-x,y,1/2-z
-x,-y,-z
x,-y,1/2+z
1/2+x,1/2+y,z
1/2-x,1/2+y,1/2-z
1/2-x,1/2-y,-z
1/2+x,1/2-y,1/2+z
loop_
_atom_site_type_symbol
_atom_site_label
_atom_site_fract_x
_atom_site_fract_y
_atom_site_fract_z
Si Si1 0.021172 0.202769 0.363887
Si Si2 0.865931 0.898930 0.523754
Si Si3 0.129488 0.692700 0.973147
Si Si4 0.517767 0.501747 0.861225
Si Si5 0.909415 0.543162 0.346338
Si Si6 0.127842 0.501669 0.470721
Si Si7 0.956322 0.594843 0.544594
O O1 0.147154 0.154967 0.533327
O O2 0.097294 0.255759 0.481389
O O3 0.000000 0.211101 0.250000
O O4 0.831673 0.191221 0.179963
O O5 0.664268 0.913876 0.315755
O O6 0.000000 0.888367 0.750000
O O7 0.943577 0.945045 0.565092
O O8 0.112339 0.648565 0.012766
O O9 0.000000 0.683606 0.750000
O O10 0.500000 0.499820 0.750000
O O11 0.330520 0.521004 0.682366
O O12 0.690212 0.536559 0.081567
O O13 0.940435 0.592370 0.433582
O O14 0.000000 0.500000 0.500000
O O15 0.022362 0.543393 0.398682
O O16 0.157987 0.449756 0.550262
O O17 0.000000 0.491095 0.250000
#
# Coordination Sequence:
#
# PCOD8130159 Si02
#       7
#     8   8   8   8   8   8   8
#     4  10  19  30  45  68  89 121 169 205 232 272
#     4  10  17  30  46  67  93 126 164 200 229 280
#     4  11  19  31  47  65  91 130 163 202 238 277
#     4  11  19  33  54  70  95 131 172 203 236 289
#     4  10  21  36  45  72 100 124 167 207 246 283
#     4  11  19  33  53  70  89 130 170 202 243 285
#     4  11  21  33  46  67 101 126 161 208 244 284
#
# _framework density 16.149004999999999
#
# number of rings (size 3 to 8) (size 9 to 14) (size 15 to 20)
#    0.000    1.429    4.286    6.429    0.000    2.286 
#    2.571    0.000    0.000    0.000    0.000    0.000 
#    0.000    0.000    0.000   15.429    0.000    0.000 
#
# Total GULP energy -346904.433796 kJ/mol
# GULP energy per Si atom -12389.444064 kJ/mol
# Density = 1.611225 g / cm^3
# Si number density = 16.149005 Si / 1000 Ang^3
#
#
#
# Elastic Constant Matrix: (Units=GPa)
#
#
# Indices 1 2 3 4 5 6 
#
# 1 82.0935 40.5865 35.5498 0.0001 17.2904 -0.0001
# 2 40.5865 78.4747 20.5871 0.0001 1.8453 -0.0002
# 3 35.5498 20.5871 88.8000 0.0000 25.9077 -0.0011
# 4 0.0001 0.0001 0.0000 13.8557 0.0000 -8.5676
# 5 17.2904 1.8453 25.9077 0.0000 29.1381 -0.0002
# 6 -0.0001 -0.0002 -0.0011 -8.5676 -0.0002 51.6996
#
#
#
# Elastic Compliance Matrix: (Units=1/GPa)
#
#
# Indices 1 2 3 4 5 6 
#
# 1 0.019966 -0.009224 -0.003468 0.000000 -0.008180 0.000000
# 2 -0.009224 0.017979 -0.002350 0.000000 0.006424 0.000000
# 3 -0.003468 -0.002350 0.016947 0.000000 -0.012861 0.000000
# 4 0.000000 0.000000 0.000000 0.080412 0.000000 0.013326
# 5 -0.008180 0.006424 -0.012861 0.000000 0.050202 0.000000
# 6 0.000000 0.000000 0.000000 0.013326 0.000000 0.021551
#
#
# Mechanical properties :
#
#
# Convention : Reuss Voigt Hill
#
# Bulk Modulus (GPa) = 40.30971 49.20166 44.75569
# Shear Modulus (GPa) = 20.37399 29.11499 24.74449
#
# Velocity S-wave (km/s) = 3.55579 4.25066 3.91866
# Velocity P-wave (km/s) = 6.47097 7.39082 6.94614
#
# Compressibility (1/GPa) = 0.02480792
#
# Stress axis : x y z
#
# Youngs Moduli (GPa) = 50.08412 55.62033 59.00846
#
# Poissons Ratio (x) = 0.51306 0.20465
# Poissons Ratio (y) = 0.46199 0.13865
# Poissons Ratio (z) = 0.17370 0.13069
#
# Static dielectric constant tensor:
#      x y z
#    x 3.305950 0.000000 0.155990 
#    y 0.000000 3.215870 0.000000 
#    z 0.155990 0.000000 3.151090 
# 
# 
# High freq. dielectric constant tensor:
#      x y z
#    x 1.597080 0.000000 0.033930 
#    y 0.000000 1.597780 0.000000 
#    z 0.033930 0.000000 1.619300 
# 
# From -- ./inp_files/217067.got.cif
#   From: 2010.06.25/outbox.cif.g09.slc.cpg/sg15_109_cif.got.tgz:217067.got - 2010.06.28 07:06:18.
