data_PCOD8130690
_publ_section_title
;
Structure prediction by ZEFSAII (Michael W. Deem and Ramdas Pophale) SiO2 
 PCOD8130690
Probable space group: C 2/C
;
_chemical_formula_sum "Si O2"
_cell_formula_units_Z 56
_cell_length_a 12.371006
_cell_length_b 17.855497
_cell_length_c 14.772378
_cell_angle_alpha 90.000000
_cell_angle_beta 113.298951
_cell_angle_gamma 90.000000
_cell_volume 2996.985241
_symmetry_space_group_name_H-M "C 2/C"
_symmetry_group_IT_number 15
_symmetry_cell_setting 'monoclinic'
loop_
_space_group_symop_operation_xyz
x,y,z
-x,y,1/2-z
-x,-y,-z
x,-y,1/2+z
1/2+x,1/2+y,z
1/2-x,1/2+y,1/2-z
1/2-x,1/2-y,-z
1/2+x,1/2-y,1/2+z
loop_
_atom_site_type_symbol
_atom_site_label
_atom_site_fract_x
_atom_site_fract_y
_atom_site_fract_z
Si Si1 0.747919 0.998799 0.491858
Si Si2 0.509090 0.009969 0.144795
Si Si3 0.251739 0.549110 0.691201
Si Si4 0.583143 0.330322 0.190381
Si Si5 0.457837 0.583883 0.002424
Si Si6 0.814007 0.084728 0.339986
Si Si7 0.593023 0.164151 0.201876
O O1 0.823908 0.922599 0.496698
O O2 0.608185 0.980588 0.443473
O O3 0.788704 0.032333 0.600736
O O4 0.768304 0.061986 0.423982
O O5 0.500000 0.013625 0.250000
O O6 0.547915 0.094389 0.124561
O O7 0.610572 0.951470 0.152856
O O8 0.294935 0.630601 0.738210
O O9 0.313165 0.487070 0.774506
O O10 0.500000 0.335790 0.250000
O O11 0.529818 0.371934 0.086502
O O12 0.601973 0.245762 0.159115
O O13 0.500000 0.500000 0.000000
O O14 0.552173 0.617177 0.106636
O O15 0.726304 0.148692 0.277775
O O16 0.500000 0.174108 0.250000
#
# Coordination Sequence:
#
# PCOD8130690 Si02
#       7
#     8   8   8   8   8   8   8
#     4  11  19  33  58  82 107 138 188 227 277 327
#     4  10  17  37  56  77 110 146 179 225 284 325
#     4  11  21  31  56  85 106 141 186 232 270 325
#     4  11  20  34  52  86 113 138 187 228 272 332
#     4  10  19  34  54  80 111 146 175 230 276 319
#     4  10  19  37  54  78 118 146 180 221 289 326
#     4   9  18  34  55  74 114 154 169 225 280 332
#
# _framework density 18.685445000000001
#
# number of rings (size 3 to 8) (size 9 to 14) (size 15 to 20)
#    0.000    1.714    7.143    2.143    0.000    0.000 
#    2.571    2.143    0.000    3.429   14.857    0.000 
#    0.000    0.000    0.000    0.000    0.000    0.000 
#
# Total GULP energy -346907.630153 kJ/mol
# GULP energy per Si atom -12389.558220 kJ/mol
# Density = 1.864292 g / cm^3
# Si number density = 18.685445 Si / 1000 Ang^3
#
#
#
# Elastic Constant Matrix: (Units=GPa)
#
#
# Indices 1 2 3 4 5 6 
#
# 1 95.2435 46.1929 42.8462 0.0000 35.7826 0.0000
# 2 46.1929 79.6940 18.8409 0.0000 12.5418 0.0000
# 3 42.8462 18.8409 86.3435 0.0000 14.1469 0.0000
# 4 0.0000 0.0000 0.0000 15.8257 0.0000 11.0966
# 5 35.7826 12.5418 14.1469 0.0000 41.7990 0.0000
# 6 0.0000 0.0000 0.0000 11.0966 0.0000 -8.1654
#
#
#
# Elastic Compliance Matrix: (Units=1/GPa)
#
#
# Indices 1 2 3 4 5 6 
#
# 1 0.024516 -0.010017 -0.007447 0.000000 -0.015462 0.000000
# 2 -0.010017 0.017732 0.000601 0.000000 0.003051 0.000000
# 3 -0.007447 0.000601 0.014960 0.000000 0.001131 0.000000
# 4 0.000000 0.000000 0.000000 0.032356 0.000000 0.043972
# 5 -0.015462 0.003051 0.001131 0.000000 0.035862 0.000000
# 6 0.000000 0.000000 0.000000 0.043972 0.000000 -0.062711
#
#
# Mechanical properties :
#
#
# Convention : Reuss Voigt Hill
#
# Bulk Modulus (GPa) = 42.58108 53.00458 47.79283
# Shear Modulus (GPa) = 47.95383 20.11860 34.03621
#
# Velocity S-wave (km/s) = 5.07143 3.28487 4.27258
# Velocity P-wave (km/s) = 7.55847 6.54336 7.06916
#
# Compressibility (1/GPa) = 0.02348461
#
# Stress axis : x y z
#
# Youngs Moduli (GPa) = 40.78926 56.39666 66.84332
#
# Poissons Ratio (x) = 0.56490 0.49776
# Poissons Ratio (y) = 0.40857 -0.04020
# Poissons Ratio (z) = 0.30374 -0.03392
#
# Static dielectric constant tensor:
#      x y z
#    x 4.383940 0.000000 0.791430 
#    y 0.000000 3.430820 0.000000 
#    z 0.791430 0.000000 3.940810 
# 
# 
# High freq. dielectric constant tensor:
#      x y z
#    x 1.729750 0.000000 0.017740 
#    y 0.000000 1.684690 0.000000 
#    z 0.017740 0.000000 1.727440 
# 
# From -- ./inp_files/154922.got.cif
#   From: 2010.06.25/outbox.cif.g09.slc.cpg/sg15_78_cif.got.tgz:154922.got - 2010.06.28 07:06:18.
