data_PCOD8130734
_publ_section_title
;
Structure prediction by ZEFSAII (Michael W. Deem and Ramdas Pophale) SiO2 
 PCOD8130734
Probable space group: C 2/C
;
_chemical_formula_sum "Si O2"
_cell_formula_units_Z 48
_cell_length_a 28.387908
_cell_length_b 9.233875
_cell_length_c 8.727967
_cell_angle_alpha 90.000000
_cell_angle_beta 89.518634
_cell_angle_gamma 90.000000
_cell_volume 2287.784686
_symmetry_space_group_name_H-M "C 2/C"
_symmetry_group_IT_number 15
_symmetry_cell_setting 'monoclinic'
loop_
_space_group_symop_operation_xyz
x,y,z
-x,y,1/2-z
-x,-y,-z
x,-y,1/2+z
1/2+x,1/2+y,z
1/2-x,1/2+y,1/2-z
1/2-x,1/2-y,-z
1/2+x,1/2-y,1/2+z
loop_
_atom_site_type_symbol
_atom_site_label
_atom_site_fract_x
_atom_site_fract_y
_atom_site_fract_z
Si Si1 0.006170 0.839814 0.568558
Si Si2 0.414965 0.689143 0.936994
Si Si3 0.684203 0.763426 0.519957
Si Si4 0.242814 0.739650 0.743773
Si Si5 0.801784 0.079111 0.505902
Si Si6 0.096336 0.885796 0.413162
O O1 0.059024 0.791695 0.516585
O O2 0.000000 0.833483 0.750000
O O3 0.965344 0.741340 0.487100
O O4 0.000000 0.000000 0.500000
O O5 0.371330 0.800933 0.962359
O O6 0.416304 0.634491 0.763625
O O7 0.407563 0.555721 0.052730
O O8 0.713104 0.814346 0.668540
O O9 0.707176 0.835352 0.368012
O O10 0.690882 0.590444 0.507125
O O11 0.213799 0.865191 0.659964
O O12 0.260736 0.616642 0.627615
O O13 0.850170 0.162217 0.552204
#
# Coordination Sequence:
#
# PCOD8130734 Si02
#       6
#     8   8   8   8   8   8
#     4  10  18  26  40  62  86 118 157 190 219 274
#     4  10  18  28  43  62  88 124 157 189 226 275
#     4  10  20  32  49  67  95 129 162 194 237 276
#     4  10  20  32  46  70  90 124 168 200 228 278
#     4  10  20  32  49  67  95 129 162 194 237 276
#     4  10  18  28  43  62  88 124 157 189 226 275
#
# _framework density 20.980993000000002
#
# number of rings (size 3 to 8) (size 9 to 14) (size 15 to 20)
#    0.000    2.000    1.667    5.500    9.333    0.000 
#    0.000    0.000    0.000    0.000    0.000    0.000 
#    0.000    0.000    0.000  105.000    0.000   11.667 
#
# Total GULP energy -297375.157360 kJ/mol
# GULP energy per Si atom -12390.631557 kJ/mol
# Density = 2.093324 g / cm^3
# Si number density = 20.980993 Si / 1000 Ang^3
#
#
#
# Elastic Constant Matrix: (Units=GPa)
#
#
# Indices 1 2 3 4 5 6 
#
# 1 154.7094 9.3726 49.3361 0.0000 10.7317 0.0000
# 2 9.3726 10.8441 2.6249 0.0000 4.6957 0.0000
# 3 49.3361 2.6249 144.2552 0.0000 13.4722 0.0000
# 4 0.0000 0.0000 0.0000 16.6172 0.0000 -0.1871
# 5 10.7317 4.6957 13.4722 0.0000 40.7599 0.0000
# 6 0.0000 0.0000 0.0000 -0.1871 0.0000 17.4003
#
#
#
# Elastic Compliance Matrix: (Units=1/GPa)
#
#
# Indices 1 2 3 4 5 6 
#
# 1 0.007634 -0.005772 -0.002456 0.000000 -0.000533 0.000000
# 2 -0.005772 0.101500 0.001112 0.000000 -0.010541 0.000000
# 3 -0.002456 0.001112 0.007949 0.000000 -0.002109 0.000000
# 4 0.000000 0.000000 0.000000 0.060186 0.000000 0.000647
# 5 -0.000533 -0.010541 -0.002109 0.000000 0.026586 0.000000
# 6 0.000000 0.000000 0.000000 0.000647 0.000000 0.057477
#
#
# Mechanical properties :
#
#
# Convention : Reuss Voigt Hill
#
# Bulk Modulus (GPa) = 9.72297 48.05287 28.88792
# Shear Modulus (GPa) = 16.13696 31.52047 23.82871
#
# Velocity S-wave (km/s) = 2.77632 3.88020 3.37371
# Velocity P-wave (km/s) = 3.86283 6.55953 5.38279
#
# Compressibility (1/GPa) = 0.10284928
#
# Stress axis : x y z
#
# Youngs Moduli (GPa) = 130.99991 9.85222 125.80506
#
# Poissons Ratio (x) = 0.05687 0.30897
# Poissons Ratio (y) = 0.75618 -0.13986
# Poissons Ratio (z) = 0.32172 -0.01095
#
# Static dielectric constant tensor:
#      x y z
#    x 5.474190 0.000000 0.046920 
#    y 0.000000 2.893070 0.000000 
#    z 0.046920 0.000000 4.041710 
# 
# 
# High freq. dielectric constant tensor:
#      x y z
#    x 1.854430 0.000000 0.001650 
#    y 0.000000 1.712370 0.000000 
#    z 0.001650 0.000000 1.847640 
# 
# From -- ./inp_files/61053.got.cif
#   From: 2010.06.25/outbox.cif.g09.slc.cpg/sg15_31_cif.got.tgz:61053.got - 2010.06.28 07:06:18.
