data_PCOD8130790
_publ_section_title
;
Structure prediction by ZEFSAII (Michael W. Deem and Ramdas Pophale) SiO2 
 PCOD8130790
Probable space group: C 2/C
;
_chemical_formula_sum "Si O2"
_cell_formula_units_Z 52
_cell_length_a 11.681082
_cell_length_b 17.944219
_cell_length_c 28.646795
_cell_angle_alpha 90.000000
_cell_angle_beta 150.707283
_cell_angle_gamma 90.000000
_cell_volume 2937.877471
_symmetry_space_group_name_H-M "C 2/C"
_symmetry_group_IT_number 15
_symmetry_cell_setting 'monoclinic'
loop_
_space_group_symop_operation_xyz
x,y,z
-x,y,1/2-z
-x,-y,-z
x,-y,1/2+z
1/2+x,1/2+y,z
1/2-x,1/2+y,1/2-z
1/2-x,1/2-y,-z
1/2+x,1/2-y,1/2+z
loop_
_atom_site_type_symbol
_atom_site_label
_atom_site_fract_x
_atom_site_fract_y
_atom_site_fract_z
Si Si1 0.512521 0.344377 0.095305
Si Si2 0.500000 0.776379 0.250000
Si Si3 0.332380 0.634066 0.011633
Si Si4 0.822144 0.020868 0.476989
Si Si5 0.227054 0.262859 0.064714
Si Si6 0.842802 0.624810 0.152104
Si Si7 0.767260 0.778250 0.576759
O O1 0.393895 0.326646 0.103135
O O2 0.790839 0.329216 0.194195
O O3 0.460200 0.430229 0.064787
O O4 0.391825 0.290892 0.015239
O O5 0.589602 0.722555 0.323739
O O6 0.579052 0.622832 0.075451
O O7 0.362486 0.656682 0.076663
O O8 0.209666 0.552552 0.961818
O O9 0.192450 0.697842 0.933675
O O10 0.620474 0.070112 0.379613
O O11 0.000000 0.000000 0.500000
O O12 0.395391 0.210612 0.156410
O O13 0.008489 0.297919 0.015029
O O14 0.000000 0.596387 0.250000
#
# Coordination Sequence:
#
# PCOD8130790 Si02
#       7
#     8   4   8   8   8   8   8
#     4   9  17  30  49  71  99 125 161 202 246 291
#     4  10  18  28  50  78  94 124 170 214 240 284
#     4   9  18  34  49  68 105 133 161 198 254 299
#     4   9  17  33  47  69 103 131 158 200 251 299
#     4   8  16  31  48  68  98 129 160 198 244 295
#     4   9  17  28  49  75  98 126 163 204 245 288
#     4   9  18  33  52  72  97 133 169 204 243 294
#
# _framework density 17.699853000000001
#
# number of rings (size 3 to 8) (size 9 to 14) (size 15 to 20)
#    0.000    3.077    0.000    2.769    2.154    0.000 
#   12.462    0.769    0.000    0.000    2.000    0.000 
#    0.000    0.000    0.000    0.000    0.000    0.000 
#
# Total GULP energy -322132.943021 kJ/mol
# GULP energy per Si atom -12389.728578 kJ/mol
# Density = 1.765957 g / cm^3
# Si number density = 17.699853 Si / 1000 Ang^3
#
#
#
# Elastic Constant Matrix: (Units=GPa)
#
#
# Indices 1 2 3 4 5 6 
#
# 1 74.1969 55.8592 20.4252 0.0004 -12.0361 0.0001
# 2 55.8592 111.6699 37.7085 0.0001 -11.2059 0.0002
# 3 20.4252 37.7085 77.0986 0.0009 -18.3116 0.0006
# 4 0.0004 0.0001 0.0009 13.2238 0.0009 -7.9651
# 5 -12.0361 -11.2059 -18.3116 0.0009 25.1818 0.0003
# 6 0.0001 0.0002 0.0006 -7.9651 0.0003 30.4581
#
#
#
# Elastic Compliance Matrix: (Units=1/GPa)
#
#
# Indices 1 2 3 4 5 6 
#
# 1 0.022503 -0.010913 0.000939 -0.000001 0.006582 0.000000
# 2 -0.010913 0.016047 -0.005440 0.000001 -0.002031 0.000000
# 3 0.000939 -0.005440 0.018027 -0.000003 0.011137 -0.000001
# 4 -0.000001 0.000001 -0.000003 0.089759 -0.000006 0.023473
# 5 0.006582 -0.002031 0.011137 -0.000006 0.050053 -0.000002
# 6 0.000000 0.000000 -0.000001 0.023473 -0.000002 0.038970
#
#
# Mechanical properties :
#
#
# Convention : Reuss Voigt Hill
#
# Bulk Modulus (GPa) = 38.83443 54.55014 46.69228
# Shear Modulus (GPa) = 18.19709 23.70422 20.95066
#
# Velocity S-wave (km/s) = 3.20987 3.66352 3.44417
# Velocity P-wave (km/s) = 5.97711 6.98439 6.50029
#
# Compressibility (1/GPa) = 0.02575035
#
# Stress axis : x y z
#
# Youngs Moduli (GPa) = 44.43922 62.31751 55.47145
#
# Poissons Ratio (x) = 0.68006 -0.05211
# Poissons Ratio (y) = 0.48496 0.30175
# Poissons Ratio (z) = -0.04174 0.33899
#
# Static dielectric constant tensor:
#      x y z
#    x 3.929540 0.000000 -0.774530 
#    y 0.000000 3.815600 0.000000 
#    z -0.774530 0.000000 3.820460 
# 
# 
# High freq. dielectric constant tensor:
#      x y z
#    x 1.671470 0.000000 -0.013910 
#    y 0.000000 1.667380 0.000000 
#    z -0.013910 0.000000 1.662170 
# 
# From -- ./inp_files/225454.got.cif
#   From: 2010.06.25/outbox.cif.g09.slc.cpg/sg15_113_cif.got.tgz:225454.got - 2010.06.28 07:06:18.
