data_PCOD8130270
_publ_section_title
;
Structure prediction by ZEFSAII (Michael W. Deem and Ramdas Pophale) SiO2 
 PCOD8130270
Probable space group: C 2/C
;
_chemical_formula_sum "Si O2"
_cell_formula_units_Z 48
_cell_length_a 25.355157
_cell_length_b 11.830767
_cell_length_c 25.588937
_cell_angle_alpha 90.000000
_cell_angle_beta 160.048838
_cell_angle_gamma 90.000000
_cell_volume 2619.176151
_symmetry_space_group_name_H-M "C 2/C"
_symmetry_group_IT_number 15
_symmetry_cell_setting 'monoclinic'
loop_
_space_group_symop_operation_xyz
x,y,z
-x,y,1/2-z
-x,-y,-z
x,-y,1/2+z
1/2+x,1/2+y,z
1/2-x,1/2+y,1/2-z
1/2-x,1/2-y,-z
1/2+x,1/2-y,1/2+z
loop_
_atom_site_type_symbol
_atom_site_label
_atom_site_fract_x
_atom_site_fract_y
_atom_site_fract_z
Si Si1 0.387720 0.707628 0.469242
Si Si2 0.418759 0.056387 0.049743
Si Si3 0.317840 0.272792 0.310043
Si Si4 0.980610 0.399286 0.442144
Si Si5 0.321703 0.151989 0.135520
Si Si6 0.163877 0.094630 0.886068
O O1 0.405243 0.843145 0.494542
O O2 0.553805 0.659249 0.605254
O O3 0.267540 0.688388 0.310002
O O4 0.327963 0.647357 0.465725
O O5 0.533771 0.092318 0.203186
O O6 0.476621 0.942425 0.075916
O O7 0.252215 0.029796 0.921471
O O8 0.197420 0.358214 0.224567
O O9 0.404192 0.202467 0.435551
O O10 0.000000 0.500000 0.500000
O O11 0.369943 0.279304 0.166461
O O12 0.276142 0.088421 0.040525
O O13 0.000000 0.038800 0.750000
#
# Coordination Sequence:
#
# PCOD8130270 Si02
#       6
#     8   8   8   8   8   8
#     4  10  17  31  52  76 112 146 178 219 281 340
#     4  11  20  33  53  73 110 154 177 218 278 338
#     4  10  20  34  54  81 111 150 192 233 277 324
#     4  11  21  38  57  78 113 153 193 236 280 328
#     4  10  18  30  50  81 113 149 174 216 289 354
#     4  10  20  30  49  81 115 139 180 227 281 351
#
# _framework density 18.326373
#
# number of rings (size 3 to 8) (size 9 to 14) (size 15 to 20)
#    0.000    1.667    5.000    3.500    2.333    0.000 
#    0.000   10.833    0.000    0.000    0.000    8.167 
#    0.000    0.000    0.000    0.000    0.000    0.000 
#
# Total GULP energy -297490.680874 kJ/mol
# GULP energy per Si atom -12395.445036 kJ/mol
# Density = 1.828466 g / cm^3
# Si number density = 18.326373 Si / 1000 Ang^3
#
#
#
# Elastic Constant Matrix: (Units=GPa)
#
#
# Indices 1 2 3 4 5 6 
#
# 1 129.5146 34.1302 54.4691 -0.0035 30.5435 -0.0007
# 2 34.1302 32.8973 22.1474 -0.0118 11.9619 -0.0003
# 3 54.4691 22.1474 107.7323 -0.0001 23.5485 -0.0028
# 4 -0.0035 -0.0118 -0.0001 21.5212 0.0057 3.2778
# 5 30.5435 11.9619 23.5485 0.0057 42.5267 -0.0006
# 6 -0.0007 -0.0003 -0.0028 3.2778 -0.0006 20.6437
#
#
#
# Elastic Compliance Matrix: (Units=1/GPa)
#
#
# Indices 1 2 3 4 5 6 
#
# 1 0.012696 -0.009118 -0.003541 -0.000002 -0.004593 0.000000
# 2 -0.009118 0.043602 -0.003532 0.000024 -0.003760 -0.000004
# 3 -0.003541 -0.003532 0.012544 -0.000002 -0.003410 0.000002
# 4 -0.000002 0.000024 -0.000002 0.047617 -0.000011 -0.007561
# 5 -0.004593 -0.003760 -0.003410 -0.000011 0.029759 0.000002
# 6 0.000000 -0.000004 0.000002 -0.007561 0.000002 0.049641
#
#
# Mechanical properties :
#
#
# Convention : Reuss Voigt Hill
#
# Bulk Modulus (GPa) = 27.42637 54.62639 41.02638
# Shear Modulus (GPa) = 20.79905 27.56482 24.18193
#
# Velocity S-wave (km/s) = 3.37252 3.88249 3.63645
# Velocity P-wave (km/s) = 5.49210 7.06898 6.32984
#
# Compressibility (1/GPa) = 0.03646126
#
# Stress axis : x y z
#
# Youngs Moduli (GPa) = 78.76277 22.93450 79.72115
#
# Poissons Ratio (x) = 0.20912 0.28227
# Poissons Ratio (y) = 0.71818 0.28155
# Poissons Ratio (z) = 0.27887 0.08100
#
# Static dielectric constant tensor:
#      x y z
#    x 3.715220 0.000000 0.187200 
#    y 0.000000 2.822050 0.000000 
#    z 0.187200 0.000000 3.564220 
# 
# 
# High freq. dielectric constant tensor:
#      x y z
#    x 1.727940 0.000000 0.012080 
#    y 0.000000 1.620510 0.000000 
#    z 0.012080 0.000000 1.729310 
# 
# From -- ./inp_files/64846.got.cif
#   From: 2010.06.25/outbox.cif.g09.slc.cpg/sg15_33_cif.got.tgz:64846.got - 2010.06.28 07:06:18.
