data_PCOD8130917
_publ_section_title
;
Structure prediction by ZEFSAII (Michael W. Deem and Ramdas Pophale) SiO2 
 PCOD8130917
Probable space group: C 2/C
;
_chemical_formula_sum "Si O2"
_cell_formula_units_Z 40
_cell_length_a 13.988287
_cell_length_b 19.347289
_cell_length_c 8.754286
_cell_angle_alpha 90.000000
_cell_angle_beta 128.743313
_cell_angle_gamma 90.000000
_cell_volume 1847.890952
_symmetry_space_group_name_H-M "C 2/C"
_symmetry_group_IT_number 15
_symmetry_cell_setting 'monoclinic'
loop_
_space_group_symop_operation_xyz
x,y,z
-x,y,1/2-z
-x,-y,-z
x,-y,1/2+z
1/2+x,1/2+y,z
1/2-x,1/2+y,1/2-z
1/2-x,1/2-y,-z
1/2+x,1/2-y,1/2+z
loop_
_atom_site_type_symbol
_atom_site_label
_atom_site_fract_x
_atom_site_fract_y
_atom_site_fract_z
Si Si1 0.133674 0.710641 0.061164
Si Si2 0.743160 0.427084 0.817379
Si Si3 0.866326 0.289359 0.293816
Si Si4 0.756840 0.927084 0.331058
Si Si5 0.500000 0.423714 0.068914
O O1 0.147857 0.627815 0.094364
O O2 0.250000 0.750000 0.255138
O O3 0.131087 0.731080 0.881087
O O4 0.000000 0.730647 0.000105
O O5 0.781344 0.500000 0.781345
O O6 0.624563 0.390103 0.620315
O O7 0.712068 0.441531 0.962068
O O8 0.852143 0.372185 0.298652
O O9 0.875437 0.890103 0.371188
O O10 0.500000 0.422569 0.250000
O O11 0.500000 0.500000 0.000000
#
# Coordination Sequence:
#
# PCOD8130917 Si02
#       5
#     8   8   8   8   8
#     4   9  19  34  54  82 113 144 185 234 279 325
#     4  10  19  32  54  83 113 145 184 229 281 329
#     4   9  19  34  54  82 113 144 185 234 279 325
#     4  10  19  32  54  83 113 145 184 229 281 329
#     4  10  18  30  50  78 112 146 183 222 271 326
#
# _framework density 21.646298999999999
#
# number of rings (size 3 to 8) (size 9 to 14) (size 15 to 20)
#    0.000    2.400    0.000    5.400    2.800    0.800 
#    0.000    0.000    0.000    8.400    0.000    0.000 
#    0.000    0.000    0.000    0.000    0.000    0.000 
#
# Total GULP energy -247785.017273 kJ/mol
# GULP energy per Si atom -12389.250864 kJ/mol
# Density = 2.159703 g / cm^3
# Si number density = 21.646299 Si / 1000 Ang^3
#
#
#
# Elastic Constant Matrix: (Units=GPa)
#
#
# Indices 1 2 3 4 5 6 
#
# 1 113.0704 42.9431 69.6283 0.0000 29.2337 0.0000
# 2 42.9431 74.3919 33.9477 0.0000 19.1181 0.0000
# 3 69.6283 33.9477 94.7807 0.0000 9.6353 0.0000
# 4 0.0000 0.0000 0.0000 21.7497 0.0000 2.8120
# 5 29.2337 19.1181 9.6353 0.0000 56.4973 0.0000
# 6 0.0000 0.0000 0.0000 2.8120 0.0000 23.0728
#
#
#
# Elastic Compliance Matrix: (Units=1/GPa)
#
#
# Indices 1 2 3 4 5 6 
#
# 1 0.019728 -0.004010 -0.012371 0.000000 -0.006741 0.000000
# 2 -0.004010 0.018113 -0.003184 0.000000 -0.003511 0.000000
# 3 -0.012371 -0.003184 0.020372 0.000000 0.004004 0.000000
# 4 0.000000 0.000000 0.000000 0.046714 0.000000 -0.005693
# 5 -0.006741 -0.003511 0.004004 0.000000 0.021693 0.000000
# 6 0.000000 0.000000 0.000000 -0.005693 0.000000 0.044035
#
#
# Mechanical properties :
#
#
# Convention : Reuss Voigt Hill
#
# Bulk Modulus (GPa) = 52.40703 63.92015 58.16359
# Shear Modulus (GPa) = 23.13239 29.31221 26.22230
#
# Velocity S-wave (km/s) = 3.27257 3.68386 3.48429
# Velocity P-wave (km/s) = 6.20829 6.90564 6.56623
#
# Compressibility (1/GPa) = 0.01908141
#
# Stress axis : x y z
#
# Youngs Moduli (GPa) = 50.68918 55.20957 49.08641
#
# Poissons Ratio (x) = 0.22141 0.60725
# Poissons Ratio (y) = 0.20328 0.15631
# Poissons Ratio (z) = 0.62708 0.17581
#
# Static dielectric constant tensor:
#      x y z
#    x 4.359430 0.000000 0.672000 
#    y 0.000000 3.681270 0.000000 
#    z 0.672000 0.000000 4.043240 
# 
# 
# High freq. dielectric constant tensor:
#      x y z
#    x 1.837460 0.000000 0.027200 
#    y 0.000000 1.845530 0.000000 
#    z 0.027200 0.000000 1.824670 
# 
# From -- ./inp_files/41060.got.cif
#   From: 2010.06.25/outbox.cif.g09.slc.cpg/sg15_21_cif.got.tgz:41060.got - 2010.06.28 07:06:18.
