data_PCOD8130423
_publ_section_title
;
Structure prediction by ZEFSAII (Michael W. Deem and Ramdas Pophale) SiO2 
 PCOD8130423
Probable space group: C 2/C
;
_chemical_formula_sum "Si O2"
_cell_formula_units_Z 56
_cell_length_a 11.910898
_cell_length_b 17.360896
_cell_length_c 14.634858
_cell_angle_alpha 90.000000
_cell_angle_beta 119.788790
_cell_angle_gamma 90.000000
_cell_volume 2626.371532
_symmetry_space_group_name_H-M "C 2/C"
_symmetry_group_IT_number 15
_symmetry_cell_setting 'monoclinic'
loop_
_space_group_symop_operation_xyz
x,y,z
-x,y,1/2-z
-x,-y,-z
x,-y,1/2+z
1/2+x,1/2+y,z
1/2-x,1/2+y,1/2-z
1/2-x,1/2-y,-z
1/2+x,1/2-y,1/2+z
loop_
_atom_site_type_symbol
_atom_site_label
_atom_site_fract_x
_atom_site_fract_y
_atom_site_fract_z
Si Si1 0.430401 0.774764 0.133893
Si Si2 0.565391 0.852693 0.617909
Si Si3 0.374506 0.549846 0.929630
Si Si4 0.600513 0.318391 0.210606
Si Si5 0.884933 0.504111 0.766434
Si Si6 0.726355 0.361775 0.954616
Si Si7 0.372790 0.140680 0.897482
O O1 0.500000 0.809393 0.250000
O O2 0.399537 0.684344 0.132825
O O3 0.524039 0.793070 0.088433
O O4 0.291892 0.815504 0.065927
O O5 0.586356 0.767702 0.666179
O O6 0.585469 0.914759 0.704659
O O7 0.671745 0.876803 0.584138
O O8 0.416949 0.865732 0.521433
O O9 0.410763 0.623385 0.880020
O O10 0.257770 0.504621 0.834633
O O11 0.500000 0.500000 0.000000
O O12 0.327905 0.564369 0.015251
O O13 0.500000 0.337992 0.250000
O O14 0.734185 0.324851 0.319869
O O15 0.890083 0.557306 0.858488
O O16 0.000000 0.537567 0.750000
#
# Coordination Sequence:
#
# PCOD8130423 Si02
#       7
#     8   8   8   8   8   8   8
#     4  10  17  32  61  87 113 148 193 250 302 353
#     4  11  23  39  64  92 121 162 209 252 306 371
#     4  11  25  42  63  91 126 165 205 255 315 369
#     4  11  25  43  61  90 129 163 199 250 313 373
#     4  11  23  40  62  89 122 162 211 258 305 366
#     4  10  21  37  59  90 120 151 202 252 300 361
#     4  10  21  38  61  87 117 156 204 255 303 355
#
# _framework density 21.322192999999999
#
# number of rings (size 3 to 8) (size 9 to 14) (size 15 to 20)
#    0.000    1.429    0.000    8.143    0.000    7.429 
#    0.000    0.000    0.000    0.000    0.000    0.000 
#    0.000    0.000    0.000    0.000    0.000    0.000 
#
# Total GULP energy -346923.004433 kJ/mol
# GULP energy per Si atom -12390.107301 kJ/mol
# Density = 2.127366 g / cm^3
# Si number density = 21.322193 Si / 1000 Ang^3
#
#
#
# Elastic Constant Matrix: (Units=GPa)
#
#
# Indices 1 2 3 4 5 6 
#
# 1 97.6272 32.6339 49.8590 0.0000 15.6544 0.0000
# 2 32.6339 102.0289 56.1075 0.0000 17.4418 0.0000
# 3 49.8590 56.1075 93.5273 0.0000 24.4439 0.0000
# 4 0.0000 0.0000 0.0000 22.4466 0.0000 -2.8545
# 5 15.6544 17.4418 24.4439 0.0000 41.9640 0.0000
# 6 0.0000 0.0000 0.0000 -2.8545 0.0000 28.3679
#
#
#
# Elastic Compliance Matrix: (Units=1/GPa)
#
#
# Indices 1 2 3 4 5 6 
#
# 1 0.014132 -0.000522 -0.006959 0.000000 -0.001001 0.000000
# 2 -0.000522 0.014692 -0.008246 0.000000 -0.001109 0.000000
# 3 -0.006959 -0.008246 0.020966 0.000000 -0.006190 0.000000
# 4 0.000000 0.000000 0.000000 0.045128 0.000000 0.004541
# 5 -0.001001 -0.001109 -0.006190 0.000000 0.028270 0.000000
# 6 0.000000 0.000000 0.000000 0.004541 0.000000 0.035708
#
#
# Mechanical properties :
#
#
# Convention : Reuss Voigt Hill
#
# Bulk Modulus (GPa) = 54.53489 63.37601 58.95545
# Shear Modulus (GPa) = 25.45029 28.86124 27.15577
#
# Velocity S-wave (km/s) = 3.45861 3.68309 3.57261
# Velocity P-wave (km/s) = 6.44836 6.91914 6.68789
#
# Compressibility (1/GPa) = 0.01833688
#
# Stress axis : x y z
#
# Youngs Moduli (GPa) = 70.76109 68.06339 47.69608
#
# Poissons Ratio (x) = 0.03554 0.33191
# Poissons Ratio (y) = 0.03695 0.39329
# Poissons Ratio (z) = 0.49241 0.56123
#
# Static dielectric constant tensor:
#      x y z
#    x 4.407060 0.000000 0.155410 
#    y 0.000000 3.715350 0.000000 
#    z 0.155410 0.000000 4.343910 
# 
# 
# High freq. dielectric constant tensor:
#      x y z
#    x 1.830250 0.000000 0.010830 
#    y 0.000000 1.828650 0.000000 
#    z 0.010830 0.000000 1.847560 
# 
# From -- ./inp_files/146173.got.cif
#   From: 2010.06.25/outbox.cif.g09.slc.cpg/sg15_74_cif.got.tgz:146173.got - 2010.06.28 07:06:18.
