data_PCOD8130811
_publ_section_title
;
Structure prediction by ZEFSAII (Michael W. Deem and Ramdas Pophale) SiO2 
 PCOD8130811
Probable space group: C 2/C
;
_chemical_formula_sum "Si O2"
_cell_formula_units_Z 48
_cell_length_a 15.189681
_cell_length_b 23.059519
_cell_length_c 10.103995
_cell_angle_alpha 90.000000
_cell_angle_beta 62.501005
_cell_angle_gamma 90.000000
_cell_volume 3139.242819
_symmetry_space_group_name_H-M "C 2/C"
_symmetry_group_IT_number 15
_symmetry_cell_setting 'monoclinic'
loop_
_space_group_symop_operation_xyz
x,y,z
-x,y,1/2-z
-x,-y,-z
x,-y,1/2+z
1/2+x,1/2+y,z
1/2-x,1/2+y,1/2-z
1/2-x,1/2-y,-z
1/2+x,1/2-y,1/2+z
loop_
_atom_site_type_symbol
_atom_site_label
_atom_site_fract_x
_atom_site_fract_y
_atom_site_fract_z
Si Si1 0.589073 0.216564 0.499382
Si Si2 0.783079 0.844456 0.839035
Si Si3 0.623327 0.772674 0.285456
Si Si4 0.424745 0.442064 0.686915
Si Si5 0.445890 0.427228 0.158027
Si Si6 0.684281 0.331738 0.374125
O O1 0.664364 0.166025 0.394690
O O2 0.471158 0.206856 0.560776
O O3 0.606034 0.222033 0.642402
O O4 0.612655 0.276448 0.408436
O O5 0.845362 0.794729 0.717653
O O6 0.821278 0.906525 0.760531
O O7 0.803324 0.845184 0.980676
O O8 0.710905 0.816016 0.266551
O O9 0.500000 0.420461 0.750000
O O10 0.473302 0.431134 0.512306
O O11 0.399360 0.509747 0.723411
O O12 0.500000 0.401957 0.250000
O O13 0.356404 0.386038 0.178174
#
# Coordination Sequence:
#
# PCOD8130811 Si02
#       6
#     8   8   8   8   8   8
#     4   8  14  23  40  68  88 106 141 178 219 257
#     4   9  15  24  44  66  86 112 140 178 219 254
#     4   8  14  22  40  68  90 108 135 181 224 250
#     4  10  18  29  45  62  85 118 148 178 214 252
#     4  10  20  29  41  64  90 117 146 175 213 258
#     4   9  15  26  42  62  90 115 138 177 220 253
#
# _framework density 15.290312
#
# number of rings (size 3 to 8) (size 9 to 14) (size 15 to 20)
#    0.000    3.000    1.667    3.000    2.333    0.000 
#    0.000    0.000    0.000   10.000    0.000    0.000 
#    0.000    0.000    0.000    0.000    0.000    0.000 
#
# Total GULP energy -297338.172159 kJ/mol
# GULP energy per Si atom -12389.090507 kJ/mol
# Density = 1.525551 g / cm^3
# Si number density = 15.290312 Si / 1000 Ang^3
#
#
#
# Elastic Constant Matrix: (Units=GPa)
#
#
# Indices 1 2 3 4 5 6 
#
# 1 93.1208 54.8466 38.6222 0.0000 -29.6333 0.0000
# 2 54.8466 89.2535 27.1079 0.0000 -18.9255 0.0000
# 3 38.6222 27.1079 47.7585 0.0000 -12.0086 0.0000
# 4 0.0000 0.0000 0.0000 15.6606 0.0000 -1.9457
# 5 -29.6333 -18.9255 -12.0086 0.0000 31.9916 0.0000
# 6 0.0000 0.0000 0.0000 -1.9457 0.0000 28.1521
#
#
#
# Elastic Compliance Matrix: (Units=1/GPa)
#
#
# Indices 1 2 3 4 5 6 
#
# 1 0.025384 -0.009075 -0.011942 0.000000 0.013662 0.000000
# 2 -0.009075 0.017778 -0.002453 0.000000 0.001191 0.000000
# 3 -0.011942 -0.002453 0.031848 0.000000 -0.000558 0.000000
# 4 0.000000 0.000000 0.000000 0.064408 0.000000 0.004451
# 5 0.013662 0.001191 -0.000558 0.000000 0.044408 0.000000
# 6 0.000000 0.000000 0.000000 0.004451 0.000000 0.035829
#
#
# Mechanical properties :
#
#
# Convention : Reuss Voigt Hill
#
# Bulk Modulus (GPa) = 35.62388 52.36513 43.99451
# Shear Modulus (GPa) = 18.11918 22.46459 20.29189
#
# Velocity S-wave (km/s) = 3.44613 3.83718 3.64690
# Velocity P-wave (km/s) = 6.25966 7.34531 6.82411
#
# Compressibility (1/GPa) = 0.02807106
#
# Stress axis : x y z
#
# Youngs Moduli (GPa) = 39.39461 56.24963 31.39906
#
# Poissons Ratio (x) = 0.51045 0.37497
# Poissons Ratio (y) = 0.35750 0.07701
# Poissons Ratio (z) = 0.47045 0.13796
#
# Static dielectric constant tensor:
#      x y z
#    x 3.066180 0.000000 -0.346840 
#    y 0.000000 2.936360 0.000000 
#    z -0.346840 0.000000 2.831330 
# 
# 
# High freq. dielectric constant tensor:
#      x y z
#    x 1.564910 0.000000 -0.021000 
#    y 0.000000 1.572550 0.000000 
#    z -0.021000 0.000000 1.563060 
# 
# From -- ./inp_files/41664.got.cif
#   From: 2010.06.25/outbox.cif.g09.slc.cpg/sg15_21_cif.got.tgz:41664.got - 2010.06.28 07:06:18.
