data_PCOD8130514
_publ_section_title
;
Structure prediction by ZEFSAII (Michael W. Deem and Ramdas Pophale) SiO2 
 PCOD8130514
Probable space group: C 2/C
;
_chemical_formula_sum "Si O2"
_cell_formula_units_Z 56
_cell_length_a 18.371369
_cell_length_b 11.616902
_cell_length_c 15.323237
_cell_angle_alpha 90.000000
_cell_angle_beta 114.724550
_cell_angle_gamma 90.000000
_cell_volume 2970.472713
_symmetry_space_group_name_H-M "C 2/C"
_symmetry_group_IT_number 15
_symmetry_cell_setting 'monoclinic'
loop_
_space_group_symop_operation_xyz
x,y,z
-x,y,1/2-z
-x,-y,-z
x,-y,1/2+z
1/2+x,1/2+y,z
1/2-x,1/2+y,1/2-z
1/2-x,1/2-y,-z
1/2+x,1/2-y,1/2+z
loop_
_atom_site_type_symbol
_atom_site_label
_atom_site_fract_x
_atom_site_fract_y
_atom_site_fract_z
Si Si1 0.047298 0.527389 0.689905
Si Si2 0.177631 0.270538 0.658533
Si Si3 0.607863 0.935133 0.480071
Si Si4 0.134583 0.696488 0.475047
Si Si5 0.759821 0.655271 0.131265
Si Si6 0.029086 0.740067 0.173590
Si Si7 0.698608 0.903157 0.352942
O O1 0.060550 0.390524 0.705798
O O2 0.135670 0.585946 0.739497
O O3 0.000000 0.571464 0.750000
O O4 0.990414 0.563572 0.579533
O O5 0.132603 0.367740 0.578958
O O6 0.229417 0.326979 0.760713
O O7 0.105430 0.195376 0.667484
O O8 0.236681 0.196124 0.629163
O O9 0.649981 0.877049 0.417292
O O10 0.639523 0.064811 0.509123
O O11 0.167847 0.705543 0.392137
O O12 0.179508 0.779201 0.564037
O O13 0.044001 0.741408 0.430309
O O14 0.750646 0.519748 0.109674
O O15 0.000000 0.797146 0.250000
#
# Coordination Sequence:
#
# PCOD8130514 Si02
#       7
#     8   8   8   8   8   8   8
#     4   8  15  33  58  75 107 141 177 231 273 305
#     4  12  22  30  55  82 114 144 180 220 281 330
#     4   9  20  35  56  85 107 143 180 226 282 323
#     4   9  19  36  59  76 111 141 181 231 273 316
#     4  10  20  35  53  83 107 146 182 224 273 323
#     4  10  17  34  54  82 107 139 184 237 267 311
#     4  10  20  37  52  80 120 143 176 225 270 334
#
# _framework density 18.852219000000002
#
# number of rings (size 3 to 8) (size 9 to 14) (size 15 to 20)
#    0.000    2.286    2.857    2.143    2.000    3.429 
#    0.000    0.714    0.000    0.000    0.000    2.000 
#    0.000    0.000    0.000    0.000    0.000    0.000 
#
# Total GULP energy -346961.897836 kJ/mol
# GULP energy per Si atom -12391.496351 kJ/mol
# Density = 1.880931 g / cm^3
# Si number density = 18.852219 Si / 1000 Ang^3
#
#
#
# Elastic Constant Matrix: (Units=GPa)
#
#
# Indices 1 2 3 4 5 6 
#
# 1 70.9485 12.1180 22.7179 0.0000 11.0419 0.0000
# 2 12.1180 35.8856 28.8159 0.0000 10.3474 0.0000
# 3 22.7179 28.8159 112.2982 0.0000 4.7651 0.0000
# 4 0.0000 0.0000 0.0000 28.1632 0.0000 6.0843
# 5 11.0419 10.3474 4.7651 0.0000 31.0803 0.0000
# 6 0.0000 0.0000 0.0000 6.0843 0.0000 18.4826
#
#
#
# Elastic Compliance Matrix: (Units=1/GPa)
#
#
# Indices 1 2 3 4 5 6 
#
# 1 0.015965 -0.002049 -0.002508 0.000000 -0.004605 0.000000
# 2 -0.002049 0.039030 -0.009140 0.000000 -0.010865 0.000000
# 3 -0.002508 -0.009140 0.011667 0.000000 0.002145 0.000000
# 4 0.000000 0.000000 0.000000 0.038226 0.000000 -0.012584
# 5 -0.004605 -0.010865 0.002145 0.000000 0.037099 0.000000
# 6 0.000000 0.000000 0.000000 -0.012584 0.000000 0.058247
#
#
# Mechanical properties :
#
#
# Convention : Reuss Voigt Hill
#
# Bulk Modulus (GPa) = 25.46650 38.49286 31.97968
# Shear Modulus (GPa) = 20.77132 25.91061 23.34096
#
# Velocity S-wave (km/s) = 3.32293 3.71132 3.52248
# Velocity P-wave (km/s) = 5.31604 6.23119 5.79172
#
# Compressibility (1/GPa) = 0.03926728
#
# Stress axis : x y z
#
# Youngs Moduli (GPa) = 62.63864 25.62120 85.71511
#
# Poissons Ratio (x) = 0.05249 0.21502
# Poissons Ratio (y) = 0.12834 0.78341
# Poissons Ratio (z) = 0.15713 0.23417
#
# Static dielectric constant tensor:
#      x y z
#    x 3.677240 0.000000 0.098350 
#    y 0.000000 2.966020 0.000000 
#    z 0.098350 0.000000 3.600290 
# 
# 
# High freq. dielectric constant tensor:
#      x y z
#    x 1.740190 0.000000 0.002810 
#    y 0.000000 1.669970 0.000000 
#    z 0.002810 0.000000 1.746480 
# 
# From -- ./inp_files/161438.got.cif
#   From: 2010.06.25/outbox.cif.g09.slc.cpg/sg15_81_cif.got.tgz:161438.got - 2010.06.28 07:06:18.
