data_PCOD8130344
_publ_section_title
;
Structure prediction by ZEFSAII (Michael W. Deem and Ramdas Pophale) SiO2 
 PCOD8130344
Probable space group: C 2/C
;
_chemical_formula_sum "Si O2"
_cell_formula_units_Z 56
_cell_length_a 9.964792
_cell_length_b 20.214877
_cell_length_c 15.971173
_cell_angle_alpha 90.000000
_cell_angle_beta 129.422798
_cell_angle_gamma 90.000000
_cell_volume 2485.214821
_symmetry_space_group_name_H-M "C 2/C"
_symmetry_group_IT_number 15
_symmetry_cell_setting 'monoclinic'
loop_
_space_group_symop_operation_xyz
x,y,z
-x,y,1/2-z
-x,-y,-z
x,-y,1/2+z
1/2+x,1/2+y,z
1/2-x,1/2+y,1/2-z
1/2-x,1/2-y,-z
1/2+x,1/2-y,1/2+z
loop_
_atom_site_type_symbol
_atom_site_label
_atom_site_fract_x
_atom_site_fract_y
_atom_site_fract_z
Si Si1 0.379782 0.199220 0.282048
Si Si2 0.944212 0.553256 0.324075
Si Si3 0.321143 0.683840 0.861619
Si Si4 0.746572 0.339995 0.979663
Si Si5 0.973347 0.745656 0.841373
Si Si6 0.721034 0.514640 0.498474
Si Si7 0.354653 0.460715 0.337532
O O1 0.500000 0.201165 0.250000
O O2 0.387882 0.127161 0.330083
O O3 0.440833 0.256700 0.371622
O O4 0.181555 0.213994 0.173353
O O5 0.783906 0.502002 0.273082
O O6 0.000000 0.555141 0.250000
O O7 0.108874 0.531089 0.445651
O O8 0.357134 0.670550 0.973045
O O9 0.117765 0.705552 0.771895
O O10 0.345781 0.617462 0.815945
O O11 0.758940 0.417166 0.963427
O O12 0.937420 0.307183 0.059801
O O13 0.622635 0.298269 0.867203
O O14 0.549860 0.482337 0.390735
O O15 0.690093 0.527483 0.583610
#
# Coordination Sequence:
#
# PCOD8130344 Si02
#       7
#     8   8   8   8   8   8   8
#     4   9  19  33  47  73 106 143 175 203 257 314
#     4   9  16  28  46  69 104 132 164 215 263 305
#     4   9  19  31  51  77 104 138 168 214 265 314
#     4  10  17  32  51  82 104 124 175 221 274 311
#     4   9  19  30  51  74 104 137 162 220 263 311
#     4   9  17  26  48  75 102 127 164 215 266 317
#     4   9  16  29  46  75 102 131 162 210 273 307
#
# _framework density 22.533263999999999
#
# number of rings (size 3 to 8) (size 9 to 14) (size 15 to 20)
#    0.857    2.000    0.000    2.143    0.000    5.714 
#    0.000    2.857    0.000    0.000   11.143    6.000 
#    0.000    0.000    0.000    0.000    0.000    0.000 
#
# Total GULP energy -346897.197042 kJ/mol
# GULP energy per Si atom -12389.185609 kJ/mol
# Density = 2.248198 g / cm^3
# Si number density = 22.533264 Si / 1000 Ang^3
#
#
#
# Elastic Constant Matrix: (Units=GPa)
#
#
# Indices 1 2 3 4 5 6 
#
# 1 36.3856 34.6779 27.2587 0.0000 25.0135 0.0000
# 2 34.6779 219.7370 52.6020 0.0000 28.9869 0.0000
# 3 27.2587 52.6020 92.1741 0.0000 41.4835 0.0000
# 4 0.0000 0.0000 0.0000 31.1800 0.0000 9.2900
# 5 25.0135 28.9869 41.4835 0.0000 33.0451 0.0000
# 6 0.0000 0.0000 0.0000 9.2900 0.0000 36.1570
#
#
#
# Elastic Compliance Matrix: (Units=1/GPa)
#
#
# Indices 1 2 3 4 5 6 
#
# 1 0.062823 -0.004822 0.008440 0.000000 -0.053919 0.000000
# 2 -0.004822 0.005696 -0.002801 0.000000 0.002170 0.000000
# 3 0.008440 -0.002801 0.026944 0.000000 -0.037755 0.000000
# 4 0.000000 0.000000 0.000000 0.034731 0.000000 -0.008923
# 5 -0.053919 0.002170 -0.037755 0.000000 0.116568 0.000000
# 6 0.000000 0.000000 0.000000 -0.008923 0.000000 0.029950
#
#
# Mechanical properties :
#
#
# Convention : Reuss Voigt Hill
#
# Bulk Modulus (GPa) = 10.29912 64.15267 37.22589
# Shear Modulus (GPa) = 16.26308 35.66031 25.96170
#
# Velocity S-wave (km/s) = 2.68943 3.98246 3.39802
# Velocity P-wave (km/s) = 3.77155 7.04831 5.65258
#
# Compressibility (1/GPa) = 0.09709567
#
# Stress axis : x y z
#
# Youngs Moduli (GPa) = 15.91765 175.55486 37.11436
#
# Poissons Ratio (x) = 0.84653 -0.31323
# Poissons Ratio (y) = 0.07676 0.10397
# Poissons Ratio (z) = -0.13434 0.49179
#
# Static dielectric constant tensor:
#      x y z
#    x 3.540940 0.000000 0.294610 
#    y 0.000000 4.463880 0.000000 
#    z 0.294610 0.000000 3.912700 
# 
# 
# High freq. dielectric constant tensor:
#      x y z
#    x 1.851490 0.000000 0.025040 
#    y 0.000000 1.904580 0.000000 
#    z 0.025040 0.000000 1.871380 
# 
# From -- ./inp_files/240298.got.cif
#   From: 2010.06.25/outbox.cif.g09.slc.cpg/sg15_121_cif.got.tgz:240298.got - 2010.06.28 07:06:18.
