data_PCOD8130563
_publ_section_title
;
Structure prediction by ZEFSAII (Michael W. Deem and Ramdas Pophale) SiO2 
 PCOD8130563
Probable space group: C 2/C
;
_chemical_formula_sum "Si O2"
_cell_formula_units_Z 64
_cell_length_a 25.185270
_cell_length_b 18.614073
_cell_length_c 20.446233
_cell_angle_alpha 90.000000
_cell_angle_beta 21.764908
_cell_angle_gamma 90.000000
_cell_volume 3554.184719
_symmetry_space_group_name_H-M "C 2/C"
_symmetry_group_IT_number 15
_symmetry_cell_setting 'monoclinic'
loop_
_space_group_symop_operation_xyz
x,y,z
-x,y,1/2-z
-x,-y,-z
x,-y,1/2+z
1/2+x,1/2+y,z
1/2-x,1/2+y,1/2-z
1/2-x,1/2-y,-z
1/2+x,1/2-y,1/2+z
loop_
_atom_site_type_symbol
_atom_site_label
_atom_site_fract_x
_atom_site_fract_y
_atom_site_fract_z
Si Si1 0.940873 0.532629 0.247499
Si Si2 0.969521 0.675720 0.415905
Si Si3 0.369203 0.463756 0.444323
Si Si4 0.651478 0.356939 0.309707
Si Si5 0.041053 0.430027 0.022146
Si Si6 0.867006 0.299527 0.640792
Si Si7 0.068470 0.832233 0.044511
Si Si8 0.245132 0.469631 0.210527
O O1 0.957479 0.616496 0.213004
O O2 0.771463 0.520038 0.437393
O O3 0.000000 0.512922 0.250000
O O4 0.031051 0.479238 0.097562
O O5 0.033898 0.668793 0.414705
O O6 0.803259 0.657204 0.603449
O O7 0.999306 0.756064 0.353773
O O8 0.500000 0.491280 0.250000
O O9 0.392095 0.379875 0.437372
O O10 0.356058 0.506075 0.527714
O O11 0.601889 0.284996 0.405965
O O12 0.542846 0.374507 0.374856
O O13 0.657952 0.424904 0.350086
O O14 0.884107 0.422462 0.169956
O O15 0.092036 0.346464 0.971230
O O16 0.165626 0.461864 0.832951
O O17 0.702478 0.310930 0.846755
#
# Coordination Sequence:
#
# PCOD8130563 Si02
#       8
#     8   8   8   8   8   8   8   8
#     4  11  23  38  56  77 103 147 192 221 256 318
#     4  10  18  35  56  78 109 142 186 217 254 326
#     4  11  24  39  52  75 115 147 176 223 274 314
#     4  10  20  30  57  88 110 134 176 226 268 320
#     4  10  17  34  61  78 100 142 187 224 258 313
#     4  10  17  35  56  83 110 136 177 225 273 314
#     4  10  21  33  51  83 115 142 170 221 274 316
#     4  10  18  35  58  80 103 144 182 219 267 317
#
# _framework density 18.006943
#
# number of rings (size 3 to 8) (size 9 to 14) (size 15 to 20)
#    0.000    1.750    5.000    0.750    1.750    1.000 
#    2.250    1.250    0.000    0.750    0.000    3.500 
#    0.000    0.000    0.000    0.000    0.000    0.000 
#
# Total GULP energy -396556.211549 kJ/mol
# GULP energy per Si atom -12392.381611 kJ/mol
# Density = 1.796596 g / cm^3
# Si number density = 18.006943 Si / 1000 Ang^3
#
#
#
# Elastic Constant Matrix: (Units=GPa)
#
#
# Indices 1 2 3 4 5 6 
#
# 1 74.0571 3.1117 25.3586 -0.0021 -9.8143 0.0007
# 2 3.1117 43.4817 21.7794 -0.0008 4.6698 -0.0003
# 3 25.3586 21.7794 85.6446 0.0055 4.5474 -0.0013
# 4 -0.0021 -0.0008 0.0055 17.4763 -0.0019 -1.6946
# 5 -9.8143 4.6698 4.5474 -0.0019 25.2298 -0.0006
# 6 0.0007 -0.0003 -0.0013 -1.6946 -0.0006 18.4629
#
#
#
# Elastic Compliance Matrix: (Units=1/GPa)
#
#
# Indices 1 2 3 4 5 6 
#
# 1 0.016265 0.000768 -0.005391 0.000004 0.007157 0.000000
# 2 0.000768 0.026739 -0.006846 0.000003 -0.003417 0.000000
# 3 -0.005391 -0.006846 0.015203 -0.000006 -0.003570 0.000001
# 4 0.000004 0.000003 -0.000006 0.057734 0.000007 0.005299
# 5 0.007157 -0.003417 -0.003570 0.000007 0.043695 0.000002
# 6 0.000000 0.000000 0.000001 0.005299 0.000002 0.054649
#
#
# Mechanical properties :
#
#
# Convention : Reuss Voigt Hill
#
# Bulk Modulus (GPa) = 28.35346 33.74252 31.04799
# Shear Modulus (GPa) = 20.08187 22.42938 21.25563
#
# Velocity S-wave (km/s) = 3.34313 3.53313 3.43944
# Velocity P-wave (km/s) = 5.53914 5.95175 5.74915
#
# Compressibility (1/GPa) = 0.03526906
#
# Stress axis : x y z
#
# Youngs Moduli (GPa) = 61.48034 37.39842 65.77696
#
# Poissons Ratio (x) = -0.02872 0.35462
# Poissons Ratio (y) = -0.04721 0.45029
# Poissons Ratio (z) = 0.33146 0.25602
#
# Static dielectric constant tensor:
#      x y z
#    x 3.165650 -0.000010 -0.245770 
#    y -0.000010 3.497800 0.000020 
#    z -0.245770 0.000020 3.266270 
# 
# 
# High freq. dielectric constant tensor:
#      x y z
#    x 1.673590 0.000000 -0.029440 
#    y 0.000000 1.694990 0.000000 
#    z -0.029440 0.000000 1.686910 
# 
# From -- ./inp_files/258050.got.cif
#   From: 2010.06.25/outbox.cif.g09.slc.cpg/sg15_130_cif.got.tgz:258050.got - 2010.06.28 07:06:18.
