data_PCOD8130857
_publ_section_title
;
Structure prediction by ZEFSAII (Michael W. Deem and Ramdas Pophale) SiO2 
 PCOD8130857
Probable space group: C 2/C
;
_chemical_formula_sum "Si O2"
_cell_formula_units_Z 56
_cell_length_a 8.658532
_cell_length_b 33.651852
_cell_length_c 13.253200
_cell_angle_alpha 90.000000
_cell_angle_beta 47.927060
_cell_angle_gamma 90.000000
_cell_volume 2866.480537
_symmetry_space_group_name_H-M "C 2/C"
_symmetry_group_IT_number 15
_symmetry_cell_setting 'monoclinic'
loop_
_space_group_symop_operation_xyz
x,y,z
-x,y,1/2-z
-x,-y,-z
x,-y,1/2+z
1/2+x,1/2+y,z
1/2-x,1/2+y,1/2-z
1/2-x,1/2-y,-z
1/2+x,1/2-y,1/2+z
loop_
_atom_site_type_symbol
_atom_site_label
_atom_site_fract_x
_atom_site_fract_y
_atom_site_fract_z
Si Si1 0.964267 0.783728 0.597654
Si Si2 0.234258 0.941064 0.621273
Si Si3 0.168006 0.287599 0.908089
Si Si4 0.040416 0.629809 0.393702
Si Si5 0.212230 0.491969 0.716104
Si Si6 0.581579 0.442311 0.476336
Si Si7 0.657001 0.365785 0.926230
O O1 0.769141 0.775495 0.756567
O O2 0.925516 0.820686 0.539786
O O3 0.999327 0.745532 0.511892
O O4 0.164314 0.792944 0.577548
O O5 0.406573 0.906730 0.556695
O O6 0.299425 0.979050 0.661283
O O7 0.235355 0.952375 0.503015
O O8 0.000000 0.925878 0.750000
O O9 0.051863 0.329338 0.949887
O O10 0.214524 0.626857 0.231412
O O11 0.806254 0.626552 0.455814
O O12 0.357196 0.461329 0.592685
O O13 0.306799 0.536787 0.668449
O O14 0.000000 0.488089 0.750000
O O15 0.541921 0.395293 0.478021
#
# Coordination Sequence:
#
# PCOD8130857 Si02
#       7
#     8   8   8   8   8   8   8
#     4   9  18  32  53  78 110 140 175 224 263 326
#     4  10  18  31  54  79 103 135 172 224 267 310
#     4   9  18  31  52  82 106 140 179 216 273 319
#     4  10  18  29  53  80 103 131 179 227 266 308
#     4  10  20  34  52  77 108 133 173 227 266 325
#     4  10  20  33  54  79 102 141 177 217 275 318
#     4  10  18  31  52  76 106 137 173 223 268 311
#
# _framework density 19.536152999999999
#
# number of rings (size 3 to 8) (size 9 to 14) (size 15 to 20)
#    0.000    2.286    2.857    1.714    2.000    1.143 
#    0.000    2.857    9.429    0.000    0.000    0.000 
#    0.000    0.000    0.000    0.000    0.000    0.000 
#
# Total GULP energy -347132.624726 kJ/mol
# GULP energy per Si atom -12397.593740 kJ/mol
# Density = 1.949169 g / cm^3
# Si number density = 19.536153 Si / 1000 Ang^3
#
#
#
# Elastic Constant Matrix: (Units=GPa)
#
#
# Indices 1 2 3 4 5 6 
#
# 1 93.2160 59.6218 29.6714 0.0000 -0.1905 0.0000
# 2 59.6218 142.9044 52.1772 0.0000 10.1439 0.0000
# 3 29.6714 52.1772 41.4105 0.0000 5.1794 0.0000
# 4 0.0000 0.0000 0.0000 25.8226 0.0000 2.6701
# 5 -0.1905 10.1439 5.1794 0.0000 10.8896 0.0000
# 6 0.0000 0.0000 0.0000 2.6701 0.0000 30.6547
#
#
#
# Elastic Compliance Matrix: (Units=1/GPa)
#
#
# Indices 1 2 3 4 5 6 
#
# 1 0.015843 -0.004930 -0.006112 0.000000 0.007777 0.000000
# 2 -0.004930 0.014712 -0.014120 0.000000 -0.007075 0.000000
# 3 -0.006112 -0.014120 0.047514 0.000000 -0.009553 0.000000
# 4 0.000000 0.000000 0.000000 0.039078 0.000000 -0.003404
# 5 0.007777 -0.007075 -0.009553 0.000000 0.103101 0.000000
# 6 0.000000 0.000000 0.000000 -0.003404 0.000000 0.032918
#
#
# Mechanical properties :
#
#
# Convention : Reuss Voigt Hill
#
# Bulk Modulus (GPa) = 36.04362 62.27463 49.15913
# Shear Modulus (GPa) = 15.98775 22.54405 19.26590
#
# Velocity S-wave (km/s) = 2.86382 3.40069 3.14374
# Velocity P-wave (km/s) = 5.42448 6.88225 6.19639
#
# Compressibility (1/GPa) = 0.02774416
#
# Stress axis : x y z
#
# Youngs Moduli (GPa) = 63.12102 67.97008 21.04630
#
# Poissons Ratio (x) = 0.33510 0.12864
# Poissons Ratio (y) = 0.31119 0.29718
# Poissons Ratio (z) = 0.38582 0.95975
#
# Static dielectric constant tensor:
#      x y z
#    x 3.643740 0.000000 0.066720 
#    y 0.000000 3.698110 0.000000 
#    z 0.066720 0.000000 3.231750 
# 
# 
# High freq. dielectric constant tensor:
#      x y z
#    x 1.769590 0.000000 -0.001820 
#    y 0.000000 1.762730 0.000000 
#    z -0.001820 0.000000 1.710630 
# 
# From -- ./inp_files/139471.got.cif
#   From: 2010.06.25/outbox.cif.g09.slc.cpg/sg15_70_cif.got.tgz:139471.got - 2010.06.28 07:06:18.
