data_PCOD8130120
_publ_section_title
;
Structure prediction by ZEFSAII (Michael W. Deem and Ramdas Pophale) SiO2 
 PCOD8130120
Probable space group: C 2/C
;
_chemical_formula_sum "Si O2"
_cell_formula_units_Z 64
_cell_length_a 13.730705
_cell_length_b 24.819774
_cell_length_c 12.365659
_cell_angle_alpha 90.000000
_cell_angle_beta 106.366822
_cell_angle_gamma 90.000000
_cell_volume 4043.362074
_symmetry_space_group_name_H-M "C 2/C"
_symmetry_group_IT_number 15
_symmetry_cell_setting 'monoclinic'
loop_
_space_group_symop_operation_xyz
x,y,z
-x,y,1/2-z
-x,-y,-z
x,-y,1/2+z
1/2+x,1/2+y,z
1/2-x,1/2+y,1/2-z
1/2-x,1/2-y,-z
1/2+x,1/2-y,1/2+z
loop_
_atom_site_type_symbol
_atom_site_label
_atom_site_fract_x
_atom_site_fract_y
_atom_site_fract_z
Si Si1 0.816552 0.879188 0.295717
Si Si2 0.916622 0.080145 0.134234
Si Si3 0.626341 0.236524 0.067182
Si Si4 0.402707 0.269136 0.998768
Si Si5 0.973723 0.885719 0.038908
Si Si6 0.229303 0.838858 0.998388
Si Si7 0.112928 0.036306 0.828893
Si Si8 0.284692 0.729457 0.680765
O O1 0.753057 0.876008 0.388467
O O2 0.810467 0.938339 0.237389
O O3 0.777287 0.834297 0.200463
O O4 0.936357 0.866674 0.352291
O O5 0.000000 0.092488 0.250000
O O6 0.854224 0.024079 0.129195
O O7 0.832097 0.126979 0.110011
O O8 0.975857 0.078848 0.039378
O O9 0.659814 0.288545 0.009963
O O10 0.672164 0.238857 0.202042
O O11 0.505180 0.234089 0.027674
O O12 0.666031 0.182124 0.020577
O O13 0.328839 0.248965 0.880889
O O14 0.419560 0.332142 0.979313
O O15 0.357157 0.258995 0.102726
O O16 0.889742 0.923133 0.070137
O O17 0.000000 0.029625 0.750000
#
# Coordination Sequence:
#
# PCOD8130120 Si02
#       8
#     8   8   8   8   8   8   8   8
#     4   9  16  32  47  64  93 133 166 199 228 297
#     4  10  19  29  42  72 101 128 161 203 242 301
#     4  10  19  33  48  67  98 140 162 202 244 289
#     4  11  19  30  48  75  98 131 163 206 246 291
#     4  10  17  29  47  65  98 133 159 193 249 294
#     4   9  19  31  47  65  94 134 171 187 241 298
#     4   9  17  27  49  67  91 131 166 196 250 294
#     4  10  20  29  49  73  96 125 176 200 246 298
#
# _framework density 15.828412
#
# number of rings (size 3 to 8) (size 9 to 14) (size 15 to 20)
#    0.000    2.250    5.000    0.750    1.750    1.000 
#    0.000    5.000    0.000    0.000    0.000    0.875 
#    0.000    0.000    0.000    0.000    0.000    0.000 
#
# Total GULP energy -396654.875923 kJ/mol
# GULP energy per Si atom -12395.464873 kJ/mol
# Density = 1.579239 g / cm^3
# Si number density = 15.828412 Si / 1000 Ang^3
#
#
#
# Elastic Constant Matrix: (Units=GPa)
#
#
# Indices 1 2 3 4 5 6 
#
# 1 80.0426 42.8648 42.4961 0.0000 0.9279 0.0000
# 2 42.8648 102.4818 50.0348 0.0000 -1.3665 0.0000
# 3 42.4961 50.0348 75.3349 0.0000 3.2317 0.0000
# 4 0.0000 0.0000 0.0000 24.2975 0.0000 -7.0409
# 5 0.9279 -1.3665 3.2317 0.0000 22.5098 0.0000
# 6 0.0000 0.0000 0.0000 -7.0409 0.0000 24.4707
#
#
#
# Elastic Compliance Matrix: (Units=1/GPa)
#
#
# Indices 1 2 3 4 5 6 
#
# 1 0.018877 -0.003984 -0.008008 0.000000 0.000130 0.000000
# 2 -0.003984 0.015397 -0.008076 0.000000 0.002258 0.000000
# 3 -0.008008 -0.008076 0.023305 0.000000 -0.003506 0.000000
# 4 0.000000 0.000000 0.000000 0.044900 0.000000 0.012919
# 5 0.000130 0.002258 -0.003506 0.000000 0.045060 0.000000
# 6 0.000000 0.000000 0.000000 0.012919 0.000000 0.044582
#
#
# Mechanical properties :
#
#
# Convention : Reuss Voigt Hill
#
# Bulk Modulus (GPa) = 57.32636 58.73896 58.03266
# Shear Modulus (GPa) = 21.00203 22.41983 21.71093
#
# Velocity S-wave (km/s) = 3.64656 3.76763 3.70759
# Velocity P-wave (km/s) = 7.35023 7.49114 7.42102
#
# Compressibility (1/GPa) = 0.01744398
#
# Stress axis : x y z
#
# Youngs Moduli (GPa) = 52.97455 64.94682 42.90896
#
# Poissons Ratio (x) = 0.25877 0.34361
# Poissons Ratio (y) = 0.21106 0.34652
# Poissons Ratio (z) = 0.42421 0.52449
#
# Static dielectric constant tensor:
#      x y z
#    x 2.866470 0.000000 -0.179930 
#    y 0.000000 3.116430 0.000000 
#    z -0.179930 0.000000 3.141540 
# 
# 
# High freq. dielectric constant tensor:
#      x y z
#    x 1.570370 0.000000 -0.019970 
#    y 0.000000 1.598820 0.000000 
#    z -0.019970 0.000000 1.610820 
# 
# From -- ./inp_files/100500.got.cif
#   From: 2010.06.25/outbox.cif.g09.slc.cpg/sg15_51_cif.got.tgz:100500.got - 2010.06.28 07:06:18.
