data_PCOD8130939
_publ_section_title
;
Structure prediction by ZEFSAII (Michael W. Deem and Ramdas Pophale) SiO2 
 PCOD8130939
Probable space group: C 2/C
;
_chemical_formula_sum "Si O2"
_cell_formula_units_Z 60
_cell_length_a 12.049692
_cell_length_b 21.094976
_cell_length_c 14.175389
_cell_angle_alpha 90.000000
_cell_angle_beta 116.758378
_cell_angle_gamma 90.000000
_cell_volume 3217.356392
_symmetry_space_group_name_H-M "C 2/C"
_symmetry_group_IT_number 15
_symmetry_cell_setting 'monoclinic'
loop_
_space_group_symop_operation_xyz
x,y,z
-x,y,1/2-z
-x,-y,-z
x,-y,1/2+z
1/2+x,1/2+y,z
1/2-x,1/2+y,1/2-z
1/2-x,1/2-y,-z
1/2+x,1/2-y,1/2+z
loop_
_atom_site_type_symbol
_atom_site_label
_atom_site_fract_x
_atom_site_fract_y
_atom_site_fract_z
Si Si1 0.700398 0.793436 0.609678
Si Si2 0.482423 0.894659 0.034364
Si Si3 0.878951 0.010985 0.256443
Si Si4 0.178807 0.479333 0.034131
Si Si5 0.500000 0.085496 0.750000
Si Si6 0.737317 0.463487 0.108950
Si Si7 0.590450 0.342128 0.705263
Si Si8 0.131938 0.169444 0.500378
O O1 0.583152 0.839901 0.550914
O O2 0.775857 0.805591 0.737176
O O3 0.798492 0.805930 0.565031
O O4 0.651810 0.720925 0.591079
O O5 0.606349 0.912967 0.022562
O O6 0.502657 0.873076 0.152775
O O7 0.407578 0.959641 0.012765
O O8 0.758909 0.987284 0.157140
O O9 0.867702 0.983642 0.357085
O O10 0.000000 0.983663 0.250000
O O11 0.879834 0.086002 0.258004
O O12 0.261722 0.480720 0.970348
O O13 0.624441 0.042402 0.793653
O O14 0.692576 0.397167 0.048733
O O15 0.500000 0.313307 0.750000
O O16 0.516993 0.336125 0.577568
#
# Coordination Sequence:
#
# PCOD8130939 Si02
#       8
#     8   8   8   8   4   8   8   8
#     4  10  18  33  52  74 109 150 184 229 278 336
#     4  10  18  32  52  76 111 147 183 231 285 330
#     4  11  21  34  57  80 114 151 182 228 286 345
#     4  10  19  33  51  77 114 143 182 235 277 333
#     4  10  18  30  52  78 116 140 180 236 274 338
#     4  11  21  35  52  87 114 148 188 230 287 339
#     4   9  18  33  48  72 105 140 178 218 277 329
#     4  10  20  32  48  78 111 143 186 230 275 337
#
# _framework density 18.648851000000001
#
# number of rings (size 3 to 8) (size 9 to 14) (size 15 to 20)
#    0.000    1.867    5.333    1.600    0.000    3.200 
#    2.400    0.000    0.000    0.000    3.467    1.867 
#    0.000    0.000    0.000    0.000    0.000    0.000 
#
# Total GULP energy -371670.672615 kJ/mol
# GULP energy per Si atom -12389.022420 kJ/mol
# Density = 1.860641 g / cm^3
# Si number density = 18.648851 Si / 1000 Ang^3
#
#
#
# Elastic Constant Matrix: (Units=GPa)
#
#
# Indices 1 2 3 4 5 6 
#
# 1 80.0602 39.9808 44.7331 0.0000 -3.9046 0.0000
# 2 39.9808 48.1745 32.1874 0.0000 14.4837 0.0000
# 3 44.7331 32.1874 98.6110 0.0000 19.7687 0.0000
# 4 0.0000 0.0000 0.0000 12.1404 0.0000 -0.8456
# 5 -3.9046 14.4837 19.7687 0.0000 30.9107 0.0000
# 6 0.0000 0.0000 0.0000 -0.8456 0.0000 18.4816
#
#
#
# Elastic Compliance Matrix: (Units=1/GPa)
#
#
# Indices 1 2 3 4 5 6 
#
# 1 0.033989 -0.028151 -0.011166 0.000000 0.024625 0.000000
# 2 -0.028151 0.051664 0.001689 0.000000 -0.028844 0.000000
# 3 -0.011166 0.001689 0.017317 0.000000 -0.013277 0.000000
# 4 0.000000 0.000000 0.000000 0.082633 0.000000 0.003781
# 5 0.024625 -0.028844 -0.013277 0.000000 0.057468 0.000000
# 6 0.000000 0.000000 0.000000 0.003781 0.000000 0.054281
#
#
# Mechanical properties :
#
#
# Convention : Reuss Voigt Hill
#
# Bulk Modulus (GPa) = 36.08406 51.18317 43.63362
# Shear Modulus (GPa) = 13.09429 19.63617 16.36523
#
# Velocity S-wave (km/s) = 2.65269 3.24843 2.96555
# Velocity P-wave (km/s) = 5.36410 6.44787 5.93079
#
# Compressibility (1/GPa) = 0.02771306
#
# Stress axis : x y z
#
# Youngs Moduli (GPa) = 29.42145 19.35578 57.74793
#
# Poissons Ratio (x) = 0.54488 0.64484
# Poissons Ratio (y) = 0.82823 -0.09753
# Poissons Ratio (z) = 0.32853 -0.03269
#
# Static dielectric constant tensor:
#      x y z
#    x 3.505800 0.000000 0.204890 
#    y 0.000000 3.226490 0.000000 
#    z 0.204890 0.000000 3.861030 
# 
# 
# High freq. dielectric constant tensor:
#      x y z
#    x 1.691340 0.000000 0.029730 
#    y 0.000000 1.689970 0.000000 
#    z 0.029730 0.000000 1.734760 
# 
# From -- ./inp_files/147182.got.cif
#   From: 2010.06.25/outbox.cif.g09.slc.cpg/sg15_74_cif.got.tgz:147182.got - 2010.06.28 07:06:18.
