data_PCOD8130541
_publ_section_title
;
Structure prediction by ZEFSAII (Michael W. Deem and Ramdas Pophale) SiO2 
 PCOD8130541
Probable space group: C 2/C
;
_chemical_formula_sum "Si O2"
_cell_formula_units_Z 64
_cell_length_a 10.637189
_cell_length_b 31.407092
_cell_length_c 14.213426
_cell_angle_alpha 90.000000
_cell_angle_beta 41.747059
_cell_angle_gamma 90.000000
_cell_volume 3161.734913
_symmetry_space_group_name_H-M "C 2/C"
_symmetry_group_IT_number 15
_symmetry_cell_setting 'monoclinic'
loop_
_space_group_symop_operation_xyz
x,y,z
-x,y,1/2-z
-x,-y,-z
x,-y,1/2+z
1/2+x,1/2+y,z
1/2-x,1/2+y,1/2-z
1/2-x,1/2-y,-z
1/2+x,1/2-y,1/2+z
loop_
_atom_site_type_symbol
_atom_site_label
_atom_site_fract_x
_atom_site_fract_y
_atom_site_fract_z
Si Si1 0.027593 0.850528 0.015098
Si Si2 0.840920 0.090152 0.902459
Si Si3 0.720643 0.488096 0.379869
Si Si4 0.873996 0.317515 0.725701
Si Si5 0.548821 0.983255 0.577899
Si Si6 0.114310 0.221900 0.779639
Si Si7 0.119235 0.345870 0.424955
Si Si8 0.830185 0.396885 0.279044
O O1 0.087765 0.893841 0.036167
O O2 0.016206 0.806549 0.079829
O O3 0.818041 0.862448 0.095339
O O4 0.172962 0.840385 0.851517
O O5 0.806074 0.134473 0.867602
O O6 0.000000 0.065873 0.750000
O O7 0.649974 0.062677 0.015762
O O8 0.500000 0.500000 0.500000
O O9 0.803931 0.487683 0.441357
O O10 0.732859 0.442744 0.320365
O O11 0.850270 0.520592 0.245617
O O12 0.848748 0.269352 0.702336
O O13 0.000000 0.321999 0.750000
O O14 0.957326 0.343752 0.592494
O O15 0.500000 0.000000 0.500000
O O16 0.318855 0.200383 0.648240
O O17 0.000000 0.229623 0.750000
O O18 0.068922 0.378864 0.370757
O O19 0.000000 0.405922 0.250000
#
# Coordination Sequence:
#
# PCOD8130541 Si02
#       8
#     8   8   8   8   8   8   8   8
#     4  11  21  37  63  93 127 170 211 255 320 376
#     4  12  21  37  63  91 126 166 205 257 318 389
#     4  11  25  47  67  95 128 168 214 273 335 395
#     4  11  21  33  58  99 141 158 200 264 324 386
#     4  11  26  41  68  98 128 164 218 271 327 388
#     4  10  17  34  57  93 133 175 199 246 321 400
#     4  11  21  36  61  91 130 163 211 249 320 376
#     4  11  23  44  67  80 118 172 224 257 303 388
#
# _framework density 20.242052000000001
#
# number of rings (size 3 to 8) (size 9 to 14) (size 15 to 20)
#    0.000    1.000    6.250    2.250    1.750    5.000 
#    0.000    0.625    2.750   12.000    0.000    0.000 
#    0.000    0.000    0.000    0.000    0.000    0.000 
#
# Total GULP energy -396439.738624 kJ/mol
# GULP energy per Si atom -12388.741832 kJ/mol
# Density = 2.019598 g / cm^3
# Si number density = 20.242052 Si / 1000 Ang^3
#
#
#
# Elastic Constant Matrix: (Units=GPa)
#
#
# Indices 1 2 3 4 5 6 
#
# 1 64.7185 29.7178 45.3587 0.0000 -5.2810 0.0000
# 2 29.7178 106.3394 60.7052 0.0000 -2.2264 0.0000
# 3 45.3587 60.7052 175.9193 0.0000 -10.1853 0.0000
# 4 0.0000 0.0000 0.0000 -76.7693 0.0000 -346.4131
# 5 -5.2810 -2.2264 -10.1853 0.0000 30.7613 0.0000
# 6 0.0000 0.0000 0.0000 -346.4131 0.0000-1151.8296
#
#
#
# Elastic Compliance Matrix: (Units=1/GPa)
#
#
# Indices 1 2 3 4 5 6 
#
# 1 0.019828 -0.003295 -0.003866 0.000000 0.001885 0.000000
# 2 -0.003295 0.012266 -0.003430 0.000000 -0.000814 0.000000
# 3 -0.003866 -0.003430 0.007965 0.000000 0.001725 0.000000
# 4 0.000000 0.000000 0.000000 0.036477 0.000000 -0.010970
# 5 0.001885 -0.000814 0.001725 0.000000 0.033344 0.000000
# 6 0.000000 0.000000 0.000000 -0.010970 0.000000 0.002431
#
#
# Mechanical properties :
#
#
# Convention : Reuss Voigt Hill
#
# Bulk Modulus (GPa) = 52.97648 68.72674 60.85161
# Shear Modulus (GPa) = 35.76909 -225.48781 -94.85936
#
# Velocity S-wave (km/s) = 4.20821 -10.56587 -6.85305
# Velocity P-wave (km/s) = 7.05977 10.71559 5.70015
#
# Compressibility (1/GPa) = 0.01887630
#
# Stress axis : x y z
#
# Youngs Moduli (GPa) = 50.43374 81.52819 125.55089
#
# Poissons Ratio (x) = 0.26860 0.48543
# Poissons Ratio (y) = 0.16615 0.43067
# Poissons Ratio (z) = 0.19500 0.27966
#
# Static dielectric constant tensor:
#      x y z
#    x 4.532200 0.000000 1.944380 
#    y 0.000000 3.785410 0.000000 
#    z 1.944380 0.000000 7.533300 
# 
# 
# High freq. dielectric constant tensor:
#      x y z
#    x 1.756090 0.000000 -0.007890 
#    y 0.000000 1.793830 0.000000 
#    z -0.007890 0.000000 1.797650 
# 
# From -- ./inp_files/149163.got.cif
#   From: 2010.06.25/outbox.cif.g09.slc.cpg/sg15_75_cif.got.tgz:149163.got - 2010.06.28 07:06:18.
