data_PCOD8130099
_publ_section_title
;
Structure prediction by ZEFSAII (Michael W. Deem and Ramdas Pophale) SiO2 
 PCOD8130099
Probable space group: C 2/C
;
_chemical_formula_sum "Si O2"
_cell_formula_units_Z 64
_cell_length_a 17.197092
_cell_length_b 26.328720
_cell_length_c 10.191343
_cell_angle_alpha 90.000000
_cell_angle_beta 75.169522
_cell_angle_gamma 90.000000
_cell_volume 4460.691856
_symmetry_space_group_name_H-M "C 2/C"
_symmetry_group_IT_number 15
_symmetry_cell_setting 'monoclinic'
loop_
_space_group_symop_operation_xyz
x,y,z
-x,y,1/2-z
-x,-y,-z
x,-y,1/2+z
1/2+x,1/2+y,z
1/2-x,1/2+y,1/2-z
1/2-x,1/2-y,-z
1/2+x,1/2-y,1/2+z
loop_
_atom_site_type_symbol
_atom_site_label
_atom_site_fract_x
_atom_site_fract_y
_atom_site_fract_z
Si Si1 0.300076 0.701417 0.335997
Si Si2 0.559067 0.944441 0.340149
Si Si3 0.545468 0.059818 0.358533
Si Si4 0.852643 0.353559 0.587409
Si Si5 0.043641 0.259595 0.868150
Si Si6 0.810279 0.200569 0.619830
Si Si7 0.840080 0.645458 0.779609
Si Si8 0.436748 0.242722 0.661181
O O1 0.237748 0.657213 0.320164
O O2 0.249635 0.752627 0.368876
O O3 0.338939 0.687032 0.460059
O O4 0.372075 0.711313 0.203156
O O5 0.500000 0.926371 0.250000
O O6 0.518960 0.936695 0.497818
O O7 0.638381 0.909463 0.291534
O O8 0.580490 0.003681 0.315166
O O9 0.500000 0.080824 0.250000
O O10 0.623082 0.092629 0.362361
O O11 0.915147 0.312272 0.612417
O O12 0.855885 0.352786 0.428643
O O13 0.110642 0.214570 0.830100
O O14 0.000000 0.264684 0.750000
O O15 0.976904 0.247107 0.004706
O O16 0.755567 0.155391 0.706166
O O17 0.894737 0.687558 0.684091
O O18 0.500000 0.246323 0.750000
#
# Coordination Sequence:
#
# PCOD8130099 Si02
#       8
#     8   8   8   8   8   8   8   8
#     4   8  15  26  44  62  81 107 147 183 200 236
#     4  10  18  30  44  63  83 111 151 177 201 246
#     4  10  20  29  41  62  91 112 136 182 217 241
#     4  10  17  30  44  62  86 116 146 175 214 246
#     4  11  20  28  41  64  93 115 137 174 217 253
#     4   8  15  28  41  62  84 108 142 181 207 237
#     4  10  17  28  49  62  79 115 157 176 196 252
#     4  11  16  27  45  65  82 112 149 175 201 246
#
# _framework density 14.347550999999999
#
# number of rings (size 3 to 8) (size 9 to 14) (size 15 to 20)
#    0.000    2.250    3.750    3.000    0.000    0.000 
#    0.000    6.875    0.000    0.000    0.000    0.000 
#    0.000    2.000    0.000    0.125    0.000    0.000 
#
# Total GULP energy -396579.991238 kJ/mol
# GULP energy per Si atom -12393.124726 kJ/mol
# Density = 1.431490 g / cm^3
# Si number density = 14.347551 Si / 1000 Ang^3
#
#
#
# Elastic Constant Matrix: (Units=GPa)
#
#
# Indices 1 2 3 4 5 6 
#
# 1 59.4038 34.2022 32.8684 0.0000 -11.6768 0.0000
# 2 34.2022 65.2836 20.0034 0.0000 -11.3589 0.0000
# 3 32.8684 20.0034 75.2599 0.0000 -4.9489 0.0000
# 4 0.0000 0.0000 0.0000 17.1435 0.0000 -3.0327
# 5 -11.6768 -11.3589 -4.9489 0.0000 20.6535 0.0000
# 6 0.0000 0.0000 0.0000 -3.0327 0.0000 27.6678
#
#
#
# Elastic Compliance Matrix: (Units=1/GPa)
#
#
# Indices 1 2 3 4 5 6 
#
# 1 0.030529 -0.011525 -0.009704 0.000000 0.008596 0.000000
# 2 -0.011525 0.022531 -0.000578 0.000000 0.005737 0.000000
# 3 -0.009704 -0.000578 0.017574 0.000000 -0.001593 0.000000
# 4 0.000000 0.000000 0.000000 0.059484 0.000000 0.006520
# 5 0.008596 0.005737 -0.001593 0.000000 0.056051 0.000000
# 6 0.000000 0.000000 0.000000 0.006520 0.000000 0.036858
#
#
# Mechanical properties :
#
#
# Convention : Reuss Voigt Hill
#
# Bulk Modulus (GPa) = 37.01018 41.56613 39.28816
# Shear Modulus (GPa) = 18.13903 20.61786 19.37844
#
# Velocity S-wave (km/s) = 3.55950 3.79493 3.67910
# Velocity P-wave (km/s) = 6.53796 6.94520 6.74465
#
# Compressibility (1/GPa) = 0.02701959
#
# Stress axis : x y z
#
# Youngs Moduli (GPa) = 32.75607 44.38326 56.90105
#
# Poissons Ratio (x) = 0.51151 0.55219
# Poissons Ratio (y) = 0.37751 0.03289
# Poissons Ratio (z) = 0.31788 0.02565
#
# Static dielectric constant tensor:
#      x y z
#    x 3.574710 0.000000 -1.496740 
#    y 0.000000 2.804650 0.000000 
#    z -1.496740 0.000000 5.562620 
# 
# 
# High freq. dielectric constant tensor:
#      x y z
#    x 1.532930 0.000000 -0.003270 
#    y 0.000000 1.519770 0.000000 
#    z -0.003270 0.000000 1.544720 
# 
# From -- ./inp_files/52486.got.cif
#   From: 2010.06.25/outbox.cif.g09.slc.cpg/sg15_27_cif.got.tgz:52486.got - 2010.06.28 07:06:18.
