data_PCOD8130247
_publ_section_title
;
Structure prediction by ZEFSAII (Michael W. Deem and Ramdas Pophale) SiO2 
 PCOD8130247
Probable space group: C 2/C
;
_chemical_formula_sum "Si O2"
_cell_formula_units_Z 64
_cell_length_a 23.534015
_cell_length_b 11.997569
_cell_length_c 20.489782
_cell_angle_alpha 90.000000
_cell_angle_beta 35.178806
_cell_angle_gamma 90.000000
_cell_volume 3333.090596
_symmetry_space_group_name_H-M "C 2/C"
_symmetry_group_IT_number 15
_symmetry_cell_setting 'monoclinic'
loop_
_space_group_symop_operation_xyz
x,y,z
-x,y,1/2-z
-x,-y,-z
x,-y,1/2+z
1/2+x,1/2+y,z
1/2-x,1/2+y,1/2-z
1/2-x,1/2-y,-z
1/2+x,1/2-y,1/2+z
loop_
_atom_site_type_symbol
_atom_site_label
_atom_site_fract_x
_atom_site_fract_y
_atom_site_fract_z
Si Si1 0.568238 0.706941 0.265288
Si Si2 0.647996 0.779235 0.889414
Si Si3 0.755329 0.098892 0.775871
Si Si4 0.929663 0.715249 0.588503
Si Si5 0.902438 0.950151 0.560386
Si Si6 0.691635 0.860548 0.069689
Si Si7 0.127558 0.099296 0.021325
Si Si8 0.749531 0.440681 0.613641
O O1 0.578457 0.743506 0.330073
O O2 0.591712 0.818576 0.199872
O O3 0.458760 0.655929 0.351783
O O4 0.647018 0.607198 0.181499
O O5 0.694783 0.720580 0.781497
O O6 0.714432 0.878029 0.854707
O O7 0.540796 0.825291 0.970800
O O8 0.646657 0.686247 0.946239
O O9 0.641600 0.111183 0.859439
O O10 0.806952 0.002790 0.684731
O O11 0.761539 0.066406 0.847697
O O12 0.901759 0.817312 0.566812
O O13 0.906792 0.983503 0.479461
O O14 0.000000 0.000000 0.500000
O O15 0.750000 0.750000 0.000000
O O16 0.769048 0.930155 0.040816
O O17 0.671337 0.928457 0.020809
#
# Coordination Sequence:
#
# PCOD8130247 Si02
#       8
#     8   8   8   8   8   8   8   8
#     4  10  17  31  49  73 105 137 167 216 275 317
#     4  10  19  33  50  77 106 136 175 224 270 321
#     4  11  19  32  53  75 108 144 174 222 278 318
#     4  11  20  32  53  80 106 140 178 226 274 322
#     4  11  17  32  55  82 107 137 182 228 265 320
#     4  10  20  32  46  74 112 139 167 216 261 332
#     4  10  18  30  51  76 104 136 172 214 268 314
#     4  11  20  34  49  74 112 141 178 215 268 337
#
# _framework density 19.201398000000001
#
# number of rings (size 3 to 8) (size 9 to 14) (size 15 to 20)
#    0.000    1.500    8.750    0.750    0.000    2.500 
#    0.000    0.000    0.000    0.750    0.000    0.000 
#    0.000    0.000    0.000    0.000    0.000    0.125 
#
# Total GULP energy -396441.070411 kJ/mol
# GULP energy per Si atom -12388.783450 kJ/mol
# Density = 1.915769 g / cm^3
# Si number density = 19.201398 Si / 1000 Ang^3
#
#
#
# Elastic Constant Matrix: (Units=GPa)
#
#
# Indices 1 2 3 4 5 6 
#
# 1 64.6267 31.5627 33.6868 0.0000 -5.3898 0.0000
# 2 31.5627 42.4403 26.9478 0.0000 -0.1104 0.0000
# 3 33.6868 26.9478 96.4745 0.0000 -1.6952 0.0000
# 4 0.0000 0.0000 0.0000 27.3924 0.0000 8.0210
# 5 -5.3898 -0.1104 -1.6952 0.0000 34.7900 0.0000
# 6 0.0000 0.0000 0.0000 8.0210 0.0000 31.9441
#
#
#
# Elastic Compliance Matrix: (Units=1/GPa)
#
#
# Indices 1 2 3 4 5 6 
#
# 1 0.026261 -0.016702 -0.004437 0.000000 0.003799 0.000000
# 2 -0.016702 0.039269 -0.005184 0.000000 -0.002716 0.000000
# 3 -0.004437 -0.005184 0.013362 0.000000 -0.000053 0.000000
# 4 0.000000 0.000000 0.000000 0.039404 0.000000 -0.009894
# 5 0.003799 -0.002716 -0.000053 0.000000 0.029321 0.000000
# 6 0.000000 0.000000 0.000000 -0.009894 0.000000 0.033789
#
#
# Mechanical properties :
#
#
# Convention : Reuss Voigt Hill
#
# Bulk Modulus (GPa) = 38.10541 43.10401 40.60471
# Shear Modulus (GPa) = 20.59295 26.24825 23.42060
#
# Velocity S-wave (km/s) = 3.27841 3.70130 3.49626
# Velocity P-wave (km/s) = 5.84969 6.38461 6.12300
#
# Compressibility (1/GPa) = 0.02624300
#
# Stress axis : x y z
#
# Youngs Moduli (GPa) = 38.07998 25.46548 74.83854
#
# Poissons Ratio (x) = 0.42533 0.33209
# Poissons Ratio (y) = 0.63603 0.38799
# Poissons Ratio (z) = 0.16898 0.13202
#
# Static dielectric constant tensor:
#      x y z
#    x 2.788410 0.000000 0.010410 
#    y 0.000000 3.620290 0.000000 
#    z 0.010410 0.000000 4.137420 
# 
# 
# High freq. dielectric constant tensor:
#      x y z
#    x 1.732870 0.000000 -0.009580 
#    y 0.000000 1.693970 0.000000 
#    z -0.009580 0.000000 1.758020 
# 
# From -- ./inp_files/283486.got.cif
#   From: 2010.06.25/outbox.cif.g09.slc.cpg/sg15_142_cif.got.tgz:283486.got - 2010.06.28 07:06:18.
