data_PCOD8130762
_publ_section_title
;
Structure prediction by ZEFSAII (Michael W. Deem and Ramdas Pophale) SiO2 
 PCOD8130762
Probable space group: C 2/C
;
_chemical_formula_sum "Si O2"
_cell_formula_units_Z 56
_cell_length_a 24.647437
_cell_length_b 22.489485
_cell_length_c 19.687881
_cell_angle_alpha 90.000000
_cell_angle_beta 161.772889
_cell_angle_gamma 90.000000
_cell_volume 3413.463937
_symmetry_space_group_name_H-M "C 2/C"
_symmetry_group_IT_number 15
_symmetry_cell_setting 'monoclinic'
loop_
_space_group_symop_operation_xyz
x,y,z
-x,y,1/2-z
-x,-y,-z
x,-y,1/2+z
1/2+x,1/2+y,z
1/2-x,1/2+y,1/2-z
1/2-x,1/2-y,-z
1/2+x,1/2-y,1/2+z
loop_
_atom_site_type_symbol
_atom_site_label
_atom_site_fract_x
_atom_site_fract_y
_atom_site_fract_z
Si Si1 0.234778 0.025067 0.400165
Si Si2 0.412103 0.063940 0.889152
Si Si3 0.941582 0.101030 0.817387
Si Si4 0.404001 0.974933 0.238613
Si Si5 0.958003 0.063940 0.980953
Si Si6 0.189971 0.601031 0.314166
Si Si7 0.815490 0.315664 0.565490
O O1 0.396549 0.012969 0.543098
O O2 0.297262 0.049769 0.547262
O O3 0.107709 0.074820 0.215624
O O4 0.136663 0.962994 0.294070
O O5 0.391878 0.074820 0.783963
O O6 0.226945 0.065599 0.703890
O O7 0.540097 0.110258 0.078700
O O8 0.500000 0.000000 0.000000
O O9 0.817609 0.152047 0.642683
O O10 0.962887 0.110257 0.924283
O O11 0.125611 0.107782 0.001223
O O12 0.321850 0.037006 0.164443
O O13 0.000000 0.000000 0.000000
O O14 0.167457 0.652047 0.342381
O O15 0.750000 0.250000 0.500000
O O16 0.000000 0.314815 0.750000
#
# Coordination Sequence:
#
# PCOD8130762 Si02
#       7
#     8   8   8   8   8   8   8
#     4  10  18  28  44  66  94 125 157 192 230 277
#     4  10  18  28  43  63  89 120 155 191 229 277
#     4  11  20  32  48  65  89 121 156 193 236 278
#     4  10  18  28  44  66  94 125 157 192 230 277
#     4  10  18  28  43  63  89 120 155 191 229 277
#     4  11  20  32  48  65  89 121 156 193 236 278
#     4  12  24  38  52  70  92 120 160 200 239 278
#
# _framework density 16.405622000000001
#
# number of rings (size 3 to 8) (size 9 to 14) (size 15 to 20)
#    0.000    1.429    1.429   10.714    0.000    1.714 
#    0.000    0.000    0.000    0.000    0.000    0.000 
#    0.000    1.143    0.000    4.286    0.000    6.571 
#
# Total GULP energy -347107.942363 kJ/mol
# GULP energy per Si atom -12396.712227 kJ/mol
# Density = 1.636828 g / cm^3
# Si number density = 16.405622 Si / 1000 Ang^3
#
#
#
# Elastic Constant Matrix: (Units=GPa)
#
#
# Indices 1 2 3 4 5 6 
#
# 1 154.7570 46.3694 87.8901 0.0000 -1.4858 -0.0006
# 2 46.3694 54.9629 42.2846 0.0000 -9.7430 -0.0002
# 3 87.8901 42.2846 155.9663 -0.0011 4.4362 -0.0024
# 4 0.0000 0.0000 -0.0011 11.6498 -0.0002 9.0462
# 5 -1.4858 -9.7430 4.4362 -0.0002 47.2676 -0.0016
# 6 -0.0006 -0.0002 -0.0024 9.0462 -0.0016 7.8579
#
#
#
# Elastic Compliance Matrix: (Units=1/GPa)
#
#
# Indices 1 2 3 4 5 6 
#
# 1 0.010697 -0.005645 -0.004486 0.000001 -0.000406 -0.000002
# 2 -0.005645 0.027395 -0.004413 -0.000002 0.005883 0.000002
# 3 -0.004486 -0.004413 0.010193 -0.000008 -0.002007 0.000011
# 4 0.000001 -0.000002 -0.000008 0.809295 -0.000029 -0.931680
# 5 -0.000406 0.005883 -0.002007 -0.000029 0.022545 0.000037
# 6 -0.000002 0.000002 0.000011 -0.931680 0.000037 1.199833
#
#
# Mechanical properties :
#
#
# Convention : Reuss Voigt Hill
#
# Bulk Modulus (GPa) = 52.09393 79.86383 65.97888
# Shear Modulus (GPa) = 2.36357 25.96453 14.16405
#
# Velocity S-wave (km/s) = 1.20160 3.98258 2.94150
# Velocity P-wave (km/s) = 5.80928 8.36268 7.20007
#
# Compressibility (1/GPa) = 0.01919609
#
# Stress axis : x y z
#
# Youngs Moduli (GPa) = 93.48427 36.50307 98.10582
#
# Poissons Ratio (x) = 0.20608 0.44009
# Poissons Ratio (y) = 0.52776 0.43296
# Poissons Ratio (z) = 0.41936 0.16109
#
# Static dielectric constant tensor:
#      x y z
#    x 3.680670 0.000000 -0.296790 
#    y 0.000000 2.592250 0.000000 
#    z -0.296790 0.000000 3.556290 
# 
# 
# High freq. dielectric constant tensor:
#      x y z
#    x 1.658770 0.000000 0.001560 
#    y 0.000000 1.549020 0.000000 
#    z 0.001560 0.000000 1.659420 
# 
# From -- ./inp_files/216911.got.cif
#   From: 2010.06.25/outbox.cif.g09.slc.cpg/sg15_109_cif.got.tgz:216911.got - 2010.06.28 07:06:18.
