data_PCOD8130124
_publ_section_title
;
Structure prediction by ZEFSAII (Michael W. Deem and Ramdas Pophale) SiO2 
 PCOD8130124
Probable space group: C 2/C
;
_chemical_formula_sum "Si O2"
_cell_formula_units_Z 60
_cell_length_a 13.342867
_cell_length_b 18.660991
_cell_length_c 13.883748
_cell_angle_alpha 90.000000
_cell_angle_beta 124.459373
_cell_angle_gamma 90.000000
_cell_volume 2850.334199
_symmetry_space_group_name_H-M "C 2/C"
_symmetry_group_IT_number 15
_symmetry_cell_setting 'monoclinic'
loop_
_space_group_symop_operation_xyz
x,y,z
-x,y,1/2-z
-x,-y,-z
x,-y,1/2+z
1/2+x,1/2+y,z
1/2-x,1/2+y,1/2-z
1/2-x,1/2-y,-z
1/2+x,1/2-y,1/2+z
loop_
_atom_site_type_symbol
_atom_site_label
_atom_site_fract_x
_atom_site_fract_y
_atom_site_fract_z
Si Si1 0.696894 0.534767 0.092775
Si Si2 0.455922 0.280829 0.831515
Si Si3 0.956575 0.081328 0.041188
Si Si4 0.881295 0.750706 0.139941
Si Si5 0.298235 0.851106 0.767056
Si Si6 0.460983 0.831784 0.495910
Si Si7 0.500000 0.516353 0.750000
Si Si8 0.734074 0.399548 0.418375
O O1 0.563487 0.573102 0.020398
O O2 0.772570 0.565235 0.224457
O O3 0.669856 0.448487 0.075653
O O4 0.763135 0.557599 0.031259
O O5 0.500000 0.260216 0.750000
O O6 0.552620 0.336100 0.932725
O O7 0.322107 0.315958 0.752648
O O8 0.458829 0.208463 0.893470
O O9 0.988198 0.033377 0.151153
O O10 0.831908 0.691333 0.188126
O O11 0.918365 0.718877 0.058421
O O12 0.788313 0.815109 0.069742
O O13 0.000000 0.787130 0.250000
O O14 0.402095 0.856643 0.904565
O O15 0.363853 0.897840 0.432254
O O16 0.378390 0.564724 0.699553
#
# Coordination Sequence:
#
# PCOD8130124 Si02
#       8
#     8   8   8   8   8   8   4   8
#     4   9  18  31  55  77 114 149 189 245 300 359
#     4  11  22  38  59  81 123 167 213 252 289 367
#     4   9  18  35  52  84 112 155 201 249 297 337
#     4  10  17  29  48  80 119 145 180 235 317 368
#     4  10  20  35  54  84 120 155 191 254 316 372
#     4  11  22  33  55  88 125 158 195 243 325 380
#     4  10  20  32  56  84 122 152 208 256 296 354
#     4  11  18  31  52  85 116 152 189 248 310 362
#
# _framework density 21.050163000000001
#
# number of rings (size 3 to 8) (size 9 to 14) (size 15 to 20)
#    0.000    1.867    4.000    2.000    0.000    0.533 
#    0.000    0.000    0.000    3.200    3.467    0.000 
#    0.000    0.000    0.000    0.000    0.000    0.000 
#
# Total GULP energy -371686.796579 kJ/mol
# GULP energy per Si atom -12389.559886 kJ/mol
# Density = 2.100225 g / cm^3
# Si number density = 21.050163 Si / 1000 Ang^3
#
#
#
# Elastic Constant Matrix: (Units=GPa)
#
#
# Indices 1 2 3 4 5 6 
#
# 1 103.4057 36.9460 56.0664 0.0000 1.7467 0.0000
# 2 36.9460 53.1306 16.7102 0.0000 7.9334 0.0000
# 3 56.0664 16.7102 80.6417 0.0000 17.1251 0.0000
# 4 0.0000 0.0000 0.0000 19.6477 0.0000 1.1939
# 5 1.7467 7.9334 17.1251 0.0000 45.8837 0.0000
# 6 0.0000 0.0000 0.0000 1.1939 0.0000 28.5196
#
#
#
# Elastic Compliance Matrix: (Units=1/GPa)
#
#
# Indices 1 2 3 4 5 6 
#
# 1 0.020904 -0.011206 -0.013526 0.000000 0.006190 0.000000
# 2 -0.011206 0.026327 0.003488 0.000000 -0.005427 0.000000
# 3 -0.013526 0.003488 0.022917 0.000000 -0.008641 0.000000
# 4 0.000000 0.000000 0.000000 0.051026 0.000000 -0.002136
# 5 0.006190 -0.005427 -0.008641 0.000000 0.025722 0.000000
# 6 0.000000 0.000000 0.000000 -0.002136 0.000000 0.035153
#
#
# Mechanical properties :
#
#
# Convention : Reuss Voigt Hill
#
# Bulk Modulus (GPa) = 36.15291 50.73591 43.44441
# Shear Modulus (GPa) = 21.38977 27.30721 24.34849
#
# Velocity S-wave (km/s) = 3.19114 3.60564 3.40470
# Velocity P-wave (km/s) = 5.54885 6.44118 6.01160
#
# Compressibility (1/GPa) = 0.02766029
#
# Stress axis : x y z
#
# Youngs Moduli (GPa) = 47.83868 37.98319 43.63655
#
# Poissons Ratio (x) = 0.42565 0.59021
# Poissons Ratio (y) = 0.53609 -0.15222
# Poissons Ratio (z) = 0.64705 -0.13250
#
# Static dielectric constant tensor:
#      x y z
#    x 4.043440 0.000000 0.383750 
#    y 0.000000 3.702880 0.000000 
#    z 0.383750 0.000000 3.976110 
# 
# 
# High freq. dielectric constant tensor:
#      x y z
#    x 1.816500 0.000000 0.002220 
#    y 0.000000 1.797160 0.000000 
#    z 0.002220 0.000000 1.817320 
# 
# From -- ./inp_files/155830.got.cif
#   From: 2010.06.25/outbox.cif.g09.slc.cpg/sg15_78_cif.got.tgz:155830.got - 2010.06.28 07:06:18.
