data_PCOD8130671
_publ_section_title
;
Structure prediction by ZEFSAII (Michael W. Deem and Ramdas Pophale) SiO2 
 PCOD8130671
Probable space group: C 2/C
;
_chemical_formula_sum "Si O2"
_cell_formula_units_Z 48
_cell_length_a 14.464346
_cell_length_b 11.766829
_cell_length_c 31.543722
_cell_angle_alpha 90.000000
_cell_angle_beta 153.961369
_cell_angle_gamma 90.000000
_cell_volume 2356.747172
_symmetry_space_group_name_H-M "C 2/C"
_symmetry_group_IT_number 15
_symmetry_cell_setting 'monoclinic'
loop_
_space_group_symop_operation_xyz
x,y,z
-x,y,1/2-z
-x,-y,-z
x,-y,1/2+z
1/2+x,1/2+y,z
1/2-x,1/2+y,1/2-z
1/2-x,1/2-y,-z
1/2+x,1/2-y,1/2+z
loop_
_atom_site_type_symbol
_atom_site_label
_atom_site_fract_x
_atom_site_fract_y
_atom_site_fract_z
Si Si1 0.191103 0.459340 0.860438
Si Si2 0.200462 0.213559 0.883098
Si Si3 0.310090 0.877174 0.512172
Si Si4 0.572717 0.474085 0.620357
Si Si5 0.938677 0.471358 0.331347
Si Si6 0.715879 0.781807 0.176263
O O1 0.277643 0.344716 0.918407
O O2 0.362704 0.519831 0.900526
O O3 0.000000 0.419555 0.750000
O O4 0.113275 0.542808 0.865689
O O5 0.320233 0.129420 0.965253
O O6 0.260700 0.167751 0.861528
O O7 0.951613 0.218189 0.792323
O O8 0.250000 0.750000 0.500000
O O9 0.525937 0.916766 0.623968
O O10 0.157368 0.978845 0.465045
O O11 0.713944 0.519673 0.716665
O O12 0.597373 0.338533 0.628281
O O13 0.939483 0.360608 0.360717
#
# Coordination Sequence:
#
# PCOD8130671 Si02
#       6
#     8   8   8   8   8   8
#     4   9  16  35  59  86 108 154 198 234 287 340
#     4  10  17  36  60  85 112 155 203 223 288 357
#     4  12  23  36  62  93 113 149 202 243 286 343
#     4  10  21  38  62  84 120 150 191 248 286 340
#     4  11  21  35  61  87 117 149 196 238 293 339
#     4  10  19  37  62  80 117 165 189 234 292 346
#
# _framework density 20.367055000000001
#
# number of rings (size 3 to 8) (size 9 to 14) (size 15 to 20)
#    0.000    1.667    8.333    0.000    0.000    2.000 
#    0.000    0.000    3.667    0.000    0.000    0.000 
#    0.000    0.000    0.000    0.000    0.000    0.000 
#
# Total GULP energy -297358.161742 kJ/mol
# GULP energy per Si atom -12389.923406 kJ/mol
# Density = 2.032070 g / cm^3
# Si number density = 20.367055 Si / 1000 Ang^3
#
#
#
# Elastic Constant Matrix: (Units=GPa)
#
#
# Indices 1 2 3 4 5 6 
#
# 1 118.5707 54.4885 30.9587 -0.0003 -20.0002 -0.0002
# 2 54.4885 84.9607 19.1477 -0.0002 -8.3902 -0.0001
# 3 30.9587 19.1477 36.6594 -0.0014 -18.4914 -0.0016
# 4 -0.0003 -0.0002 -0.0014 18.7961 -0.0005 2.3290
# 5 -20.0002 -8.3902 -18.4914 -0.0005 23.8644 -0.0002
# 6 -0.0002 -0.0001 -0.0016 2.3290 -0.0002 37.7189
#
#
#
# Elastic Compliance Matrix: (Units=1/GPa)
#
#
# Indices 1 2 3 4 5 6 
#
# 1 0.014066 -0.007273 -0.005620 0.000000 0.004877 0.000000
# 2 -0.007273 0.017121 -0.004660 0.000000 -0.003687 0.000000
# 3 -0.005620 -0.004660 0.051310 0.000004 0.033410 0.000002
# 4 0.000000 0.000000 0.000004 0.053613 0.000004 -0.003310
# 5 0.004877 -0.003687 0.033410 0.000004 0.070582 0.000002
# 6 0.000000 0.000000 0.000002 -0.003310 0.000002 0.026716
#
#
# Mechanical properties :
#
#
# Convention : Reuss Voigt Hill
#
# Bulk Modulus (GPa) = 21.10113 49.93117 35.51615
# Shear Modulus (GPa) = 17.58636 25.11558 21.35097
#
# Velocity S-wave (km/s) = 2.94168 3.51543 3.24127
# Velocity P-wave (km/s) = 4.68197 6.40676 5.61103
#
# Compressibility (1/GPa) = 0.04739084
#
# Stress axis : x y z
#
# Youngs Moduli (GPa) = 71.09361 58.40886 19.48919
#
# Poissons Ratio (x) = 0.42480 0.10953
# Poissons Ratio (y) = 0.51705 0.09082
# Poissons Ratio (z) = 0.39955 0.27220
#
# Static dielectric constant tensor:
#      x y z
#    x 3.975170 0.000000 -0.395510 
#    y 0.000000 3.374480 0.000000 
#    z -0.395510 0.000000 3.783070 
# 
# 
# High freq. dielectric constant tensor:
#      x y z
#    x 1.796810 0.000000 -0.030840 
#    y 0.000000 1.764440 0.000000 
#    z -0.030840 0.000000 1.795100 
# 
# From -- ./inp_files/152009.got.cif
#   From: 2010.06.25/outbox.cif.g09.slc.cpg/sg15_77_cif.got.tgz:152009.got - 2010.06.28 07:06:18.
