data_PCOD8130205
_publ_section_title
;
Structure prediction by ZEFSAII (Michael W. Deem and Ramdas Pophale) SiO2 
 PCOD8130205
Probable space group: C 2/C
;
_chemical_formula_sum "Si O2"
_cell_formula_units_Z 56
_cell_length_a 24.977384
_cell_length_b 22.630683
_cell_length_c 12.484496
_cell_angle_alpha 90.000000
_cell_angle_beta 153.588661
_cell_angle_gamma 90.000000
_cell_volume 3139.008890
_symmetry_space_group_name_H-M "C 2/C"
_symmetry_group_IT_number 15
_symmetry_cell_setting 'monoclinic'
loop_
_space_group_symop_operation_xyz
x,y,z
-x,y,1/2-z
-x,-y,-z
x,-y,1/2+z
1/2+x,1/2+y,z
1/2-x,1/2+y,1/2-z
1/2-x,1/2-y,-z
1/2+x,1/2-y,1/2+z
loop_
_atom_site_type_symbol
_atom_site_label
_atom_site_fract_x
_atom_site_fract_y
_atom_site_fract_z
Si Si1 0.882365 0.932376 0.782384
Si Si2 0.086743 0.726516 0.252131
Si Si3 0.328915 0.221040 0.859945
Si Si4 0.640564 0.377646 0.978328
Si Si5 0.347046 0.554451 0.792716
Si Si6 0.876594 0.152435 0.471267
Si Si7 0.284420 0.654282 0.520109
O O1 0.822610 0.899032 0.574893
O O2 0.901555 0.892244 0.920938
O O3 0.802370 0.988872 0.677432
O O4 0.010675 0.950251 0.965811
O O5 0.144318 0.708320 0.468522
O O6 0.155244 0.686680 0.287414
O O7 0.110759 0.796220 0.269615
O O8 0.946508 0.708776 0.996881
O O9 0.213868 0.183120 0.621034
O O10 0.302370 0.290846 0.796256
O O11 0.500000 0.363223 0.750000
O O12 0.683561 0.428470 0.139118
O O13 0.286491 0.603598 0.611400
O O14 0.801000 0.123284 0.433400
O O15 0.000000 0.175276 0.750000
#
# Coordination Sequence:
#
# PCOD8130205 Si02
#       7
#     8   8   8   8   8   8   8
#     4  10  22  33  50  78 112 147 170 216 278 318
#     4   9  17  29  55  87 101 134 182 231 261 297
#     4  10  17  34  55  82 108 137 180 220 268 320
#     4  10  22  36  53  82 114 140 173 217 276 330
#     4  10  19  33  53  75 108 140 181 219 263 318
#     4  11  19  32  54  81 107 138 180 223 264 312
#     4  10  17  30  53  83 105 128 180 234 257 299
#
# _framework density 17.840025000000001
#
# number of rings (size 3 to 8) (size 9 to 14) (size 15 to 20)
#    0.000    2.000    5.714    0.000    2.000    1.143 
#    0.000    0.000    0.000    0.857    3.714    0.000 
#    0.000    0.000    0.000    0.000    0.000    0.000 
#
# Total GULP energy -346896.719711 kJ/mol
# GULP energy per Si atom -12389.168561 kJ/mol
# Density = 1.779942 g / cm^3
# Si number density = 17.840025 Si / 1000 Ang^3
#
#
#
# Elastic Constant Matrix: (Units=GPa)
#
#
# Indices 1 2 3 4 5 6 
#
# 1 77.0792 24.9969 27.0852 0.0000 -10.1142 0.0000
# 2 24.9969 104.5697 43.7891 0.0000 -8.6873 0.0000
# 3 27.0852 43.7891 53.5405 0.0000 -7.7530 0.0000
# 4 0.0000 0.0000 0.0000 20.3910 0.0000 -6.1063
# 5 -10.1142 -8.6873 -7.7530 0.0000 28.0336 0.0000
# 6 0.0000 0.0000 0.0000 -6.1063 0.0000 19.8486
#
#
#
# Elastic Compliance Matrix: (Units=1/GPa)
#
#
# Indices 1 2 3 4 5 6 
#
# 1 0.016162 -0.000543 -0.007200 0.000000 0.003671 0.000000
# 2 -0.000543 0.014606 -0.011504 0.000000 0.001148 0.000000
# 3 -0.007200 -0.011504 0.032123 0.000000 0.002721 0.000000
# 4 0.000000 0.000000 0.000000 0.054018 0.000000 0.016618
# 5 0.003671 0.001148 0.002721 0.000000 0.038105 0.000000
# 6 0.000000 0.000000 0.000000 0.016618 0.000000 0.055494
#
#
# Mechanical properties :
#
#
# Convention : Reuss Voigt Hill
#
# Bulk Modulus (GPa) = 40.99197 47.43685 44.21441
# Shear Modulus (GPa) = 19.44512 22.94250 21.19381
#
# Velocity S-wave (km/s) = 3.30505 3.58999 3.45047
# Velocity P-wave (km/s) = 6.13122 6.62057 6.38059
#
# Compressibility (1/GPa) = 0.02439502
#
# Stress axis : x y z
#
# Youngs Moduli (GPa) = 61.87507 68.46565 31.13043
#
# Poissons Ratio (x) = 0.03720 0.22413
# Poissons Ratio (y) = 0.03362 0.35814
# Poissons Ratio (z) = 0.44549 0.78766
#
# Static dielectric constant tensor:
#      x y z
#    x 3.682810 0.000000 -0.101080 
#    y 0.000000 3.322930 0.000000 
#    z -0.101080 0.000000 2.881190 
# 
# 
# High freq. dielectric constant tensor:
#      x y z
#    x 1.704220 0.000000 -0.014410 
#    y 0.000000 1.683890 0.000000 
#    z -0.014410 0.000000 1.634320 
# 
# From -- ./inp_files/124405.got.cif
#   From: 2010.06.25/outbox.cif.g09.slc.cpg/sg15_63_cif.got.tgz:124405.got - 2010.06.28 07:06:18.
