data_PCOD8130695
_publ_section_title
;
Structure prediction by ZEFSAII (Michael W. Deem and Ramdas Pophale) SiO2 
 PCOD8130695
Probable space group: C 2/C
;
_chemical_formula_sum "Si O2"
_cell_formula_units_Z 40
_cell_length_a 31.748964
_cell_length_b 14.198283
_cell_length_c 9.417014
_cell_angle_alpha 90.000000
_cell_angle_beta 154.128572
_cell_angle_gamma 90.000000
_cell_volume 1852.322981
_symmetry_space_group_name_H-M "C 2/C"
_symmetry_group_IT_number 15
_symmetry_cell_setting 'monoclinic'
loop_
_space_group_symop_operation_xyz
x,y,z
-x,y,1/2-z
-x,-y,-z
x,-y,1/2+z
1/2+x,1/2+y,z
1/2-x,1/2+y,1/2-z
1/2-x,1/2-y,-z
1/2+x,1/2-y,1/2+z
loop_
_atom_site_type_symbol
_atom_site_label
_atom_site_fract_x
_atom_site_fract_y
_atom_site_fract_z
Si Si1 0.500000 0.617200 0.750000
Si Si2 0.293775 0.597924 0.796073
Si Si3 0.083190 0.385092 0.724335
Si Si4 0.500000 0.026868 0.250000
Si Si5 0.863228 0.038144 0.728310
Si Si6 0.993153 0.807504 0.939885
O O1 0.408588 0.554635 0.434027
O O2 0.528502 0.685040 0.708419
O O3 0.195943 0.643329 0.559207
O O4 0.283910 0.578265 0.597275
O O5 0.314586 0.496458 0.934679
O O6 0.379390 0.673316 0.078995
O O7 0.061850 0.411444 0.824666
O O8 0.068450 0.467284 0.563407
O O9 0.018024 0.298572 0.469903
O O10 0.947482 0.115110 0.967912
#
# Coordination Sequence:
#
# PCOD8130695 Si02
#       6
#     4   8   8   4   8   8
#     4  10  17  37  60  92 132 166 184 257 337 360
#     4  11  22  39  66  98 125 165 210 255 324 375
#     4  11  25  46  67  92 123 174 213 257 314 374
#     4  10  25  51  66  80 136 170 208 263 313 372
#     4  11  19  38  63  96 132 161 197 267 322 369
#     4  11  22  38  65  96 134 158 212 266 308 369
#
# _framework density 21.594508000000001
#
# number of rings (size 3 to 8) (size 9 to 14) (size 15 to 20)
#    0.000    1.200    4.000    3.000    2.800    0.800 
#    7.200    5.000    0.000    0.000    0.000    0.000 
#    0.000    0.000    0.000    0.000    0.000    0.000 
#
# Total GULP energy -247892.470208 kJ/mol
# GULP energy per Si atom -12394.623510 kJ/mol
# Density = 2.154536 g / cm^3
# Si number density = 21.594508 Si / 1000 Ang^3
#
#
#
# Elastic Constant Matrix: (Units=GPa)
#
#
# Indices 1 2 3 4 5 6 
#
# 1 151.6409 31.3802 62.7033 0.0000 11.0187 0.0000
# 2 31.3802 92.8730 39.9567 0.0000 17.6306 0.0000
# 3 62.7033 39.9567 77.2002 0.0000 21.1779 0.0000
# 4 0.0000 0.0000 0.0000 13.9750 0.0000 2.1827
# 5 11.0187 17.6306 21.1779 0.0000 44.4636 0.0000
# 6 0.0000 0.0000 0.0000 2.1827 0.0000 20.2212
#
#
#
# Elastic Compliance Matrix: (Units=1/GPa)
#
#
# Indices 1 2 3 4 5 6 
#
# 1 0.010028 0.000001 -0.008585 0.000000 0.001604 0.000000
# 2 0.000001 0.014076 -0.006620 0.000000 -0.002429 0.000000
# 3 -0.008585 -0.006620 0.025363 0.000000 -0.007328 0.000000
# 4 0.000000 0.000000 0.000000 0.072783 0.000000 -0.007856
# 5 0.001604 -0.002429 -0.007328 0.000000 0.026546 0.000000
# 6 0.000000 0.000000 0.000000 -0.007856 0.000000 0.050301
#
#
# Mechanical properties :
#
#
# Convention : Reuss Voigt Hill
#
# Bulk Modulus (GPa) = 52.47017 65.53273 59.00145
# Shear Modulus (GPa) = 21.19918 28.24358 24.72138
#
# Velocity S-wave (km/s) = 3.13660 3.62042 3.38716
# Velocity P-wave (km/s) = 6.12114 6.92022 6.53291
#
# Compressibility (1/GPa) = 0.01905845
#
# Stress axis : x y z
#
# Youngs Moduli (GPa) = 99.72348 71.04174 39.42780
#
# Poissons Ratio (x) = -0.00007 0.33849
# Poissons Ratio (y) = -0.00009 0.26101
# Poissons Ratio (z) = 0.85614 0.47030
#
# Static dielectric constant tensor:
#      x y z
#    x 4.382720 0.000000 -0.236800 
#    y 0.000000 3.681240 0.000000 
#    z -0.236800 0.000000 3.662530 
# 
# 
# High freq. dielectric constant tensor:
#      x y z
#    x 1.874170 0.000000 -0.012610 
#    y 0.000000 1.827170 0.000000 
#    z -0.012610 0.000000 1.825550 
# 
# From -- ./inp_files/37895.got.cif
#   From: 2010.06.25/outbox.cif.g09.slc.cpg/sg15_19_cif.got.tgz:37895.got - 2010.06.28 07:06:18.
