data_PCOD8130579
_publ_section_title
;
Structure prediction by ZEFSAII (Michael W. Deem and Ramdas Pophale) SiO2 
 PCOD8130579
Probable space group: C 2/C
;
_chemical_formula_sum "Si O2"
_cell_formula_units_Z 64
_cell_length_a 17.062581
_cell_length_b 11.512691
_cell_length_c 20.007256
_cell_angle_alpha 90.000000
_cell_angle_beta 127.870946
_cell_angle_gamma 90.000000
_cell_volume 3102.442484
_symmetry_space_group_name_H-M "C 2/C"
_symmetry_group_IT_number 15
_symmetry_cell_setting 'monoclinic'
loop_
_space_group_symop_operation_xyz
x,y,z
-x,y,1/2-z
-x,-y,-z
x,-y,1/2+z
1/2+x,1/2+y,z
1/2-x,1/2+y,1/2-z
1/2-x,1/2-y,-z
1/2+x,1/2-y,1/2+z
loop_
_atom_site_type_symbol
_atom_site_label
_atom_site_fract_x
_atom_site_fract_y
_atom_site_fract_z
Si Si1 0.559626 0.554500 0.471757
Si Si2 0.217779 0.891882 0.595177
Si Si3 0.055469 0.386658 0.161662
Si Si4 0.924652 0.567678 0.163100
Si Si5 0.946574 0.301833 0.982971
Si Si6 0.143782 0.335039 0.013007
Si Si7 0.878977 0.872253 0.808711
Si Si8 0.696993 0.021632 0.147938
O O1 0.500000 0.500000 0.500000
O O2 0.655468 0.474655 0.511933
O O3 0.597131 0.682827 0.511053
O O4 0.485175 0.561181 0.369146
O O5 0.325801 0.953029 0.655864
O O6 0.225157 0.767864 0.560575
O O7 0.174051 0.871872 0.646437
O O8 0.095495 0.258653 0.202495
O O9 0.153011 0.458435 0.190227
O O10 0.990646 0.450443 0.184615
O O11 0.978471 0.387004 0.059508
O O12 0.000000 0.643245 0.250000
O O13 0.887441 0.630986 0.077541
O O14 0.863562 0.359742 0.893813
O O15 0.045765 0.277053 0.993212
O O16 0.188449 0.443840 0.077034
O O17 0.810983 0.940763 0.720267
#
# Coordination Sequence:
#
# PCOD8130579 Si02
#       8
#     8   8   8   8   8   8   8   8
#     4   9  18  37  58  88 124 155 200 261 314 357
#     4  11  22  41  61  93 127 168 204 264 324 382
#     4  10  19  40  58  86 131 163 203 264 322 378
#     4  12  25  39  62  92 128 165 212 257 320 387
#     4  10  17  34  66  87 115 163 210 255 313 375
#     4  11  20  41  61  87 127 168 201 259 318 384
#     4  10  21  36  63  98 121 157 221 272 308 372
#     4  11  19  34  66  93 118 162 219 259 318 375
#
# _framework density 20.628907000000002
#
# number of rings (size 3 to 8) (size 9 to 14) (size 15 to 20)
#    0.000    1.500    7.500    1.875    0.000    3.000 
#    2.250    2.500    5.500    0.000    0.000    0.000 
#    0.000    0.000    0.000    0.000    0.000    0.000 
#
# Total GULP energy -396457.725711 kJ/mol
# GULP energy per Si atom -12389.303928 kJ/mol
# Density = 2.058195 g / cm^3
# Si number density = 20.628907 Si / 1000 Ang^3
#
#
#
# Elastic Constant Matrix: (Units=GPa)
#
#
# Indices 1 2 3 4 5 6 
#
# 1 65.1917 28.9085 31.8234 0.0000 12.8473 0.0000
# 2 28.9085 91.5895 48.6749 0.0000 18.6116 0.0000
# 3 31.8234 48.6749 128.4626 0.0000 20.5784 0.0000
# 4 0.0000 0.0000 0.0000 17.6566 0.0000 10.3058
# 5 12.8473 18.6116 20.5784 0.0000 37.2091 0.0000
# 6 0.0000 0.0000 0.0000 10.3058 0.0000 12.9336
#
#
#
# Elastic Compliance Matrix: (Units=1/GPa)
#
#
# Indices 1 2 3 4 5 6 
#
# 1 0.019022 -0.003924 -0.002729 0.000000 -0.003095 0.000000
# 2 -0.003924 0.015157 -0.004140 0.000000 -0.003937 0.000000
# 3 -0.002729 -0.004140 0.010475 0.000000 -0.002780 0.000000
# 4 0.000000 0.000000 0.000000 0.105881 0.000000 -0.084368
# 5 -0.003095 -0.003937 -0.002780 0.000000 0.031450 0.000000
# 6 0.000000 0.000000 0.000000 -0.084368 0.000000 0.144545
#
#
# Mechanical properties :
#
#
# Convention : Reuss Voigt Hill
#
# Bulk Modulus (GPa) = 43.35480 56.00638 49.68059
# Shear Modulus (GPa) = 14.05259 25.28231 19.66745
#
# Velocity S-wave (km/s) = 2.61283 3.50462 3.09106
# Velocity P-wave (km/s) = 5.49224 6.60189 6.07246
#
# Compressibility (1/GPa) = 0.02306550
#
# Stress axis : x y z
#
# Youngs Moduli (GPa) = 52.57073 65.97481 95.46941
#
# Poissons Ratio (x) = 0.25891 0.26058
# Poissons Ratio (y) = 0.20631 0.39528
# Poissons Ratio (z) = 0.14349 0.27316
#
# Static dielectric constant tensor:
#      x y z
#    x 3.676040 0.000000 0.283230 
#    y 0.000000 3.615720 0.000000 
#    z 0.283230 0.000000 4.030750 
# 
# 
# High freq. dielectric constant tensor:
#      x y z
#    x 1.776960 0.000000 0.012800 
#    y 0.000000 1.803420 0.000000 
#    z 0.012800 0.000000 1.813370 
# 
# From -- ./inp_files/248648.got.cif
#   From: 2010.06.25/outbox.cif.g09.slc.cpg/sg15_125_cif.got.tgz:248648.got - 2010.06.28 07:06:18.
