data_PCOD8130115
_publ_section_title
;
Structure prediction by ZEFSAII (Michael W. Deem and Ramdas Pophale) SiO2 
 PCOD8130115
Probable space group: C 2/C
;
_chemical_formula_sum "Si O2"
_cell_formula_units_Z 64
_cell_length_a 28.528253
_cell_length_b 14.499437
_cell_length_c 8.925825
_cell_angle_alpha 90.000000
_cell_angle_beta 107.978539
_cell_angle_gamma 90.000000
_cell_volume 3511.832806
_symmetry_space_group_name_H-M "C 2/C"
_symmetry_group_IT_number 15
_symmetry_cell_setting 'monoclinic'
loop_
_space_group_symop_operation_xyz
x,y,z
-x,y,1/2-z
-x,-y,-z
x,-y,1/2+z
1/2+x,1/2+y,z
1/2-x,1/2+y,1/2-z
1/2-x,1/2-y,-z
1/2+x,1/2-y,1/2+z
loop_
_atom_site_type_symbol
_atom_site_label
_atom_site_fract_x
_atom_site_fract_y
_atom_site_fract_z
Si Si1 0.800964 0.929687 0.535680
Si Si2 0.102373 0.434970 0.186002
Si Si3 0.712734 0.942071 0.240335
Si Si4 0.255013 0.858256 0.770434
Si Si5 0.085135 0.622919 0.010188
Si Si6 0.991125 0.400126 0.562387
Si Si7 0.664475 0.723383 0.623062
Si Si8 0.786685 0.868901 0.073679
O O1 0.745243 0.921158 0.417788
O O2 0.795435 0.884688 0.693666
O O3 0.840119 0.870821 0.477981
O O4 0.815982 0.036878 0.556087
O O5 0.158127 0.400555 0.211337
O O6 0.100603 0.543987 0.144990
O O7 0.087004 0.419533 0.344431
O O8 0.065349 0.376047 0.040797
O O9 0.739376 0.894085 0.127534
O O10 0.709912 0.052443 0.214679
O O11 0.287021 0.779557 0.882895
O O12 0.235468 0.818134 0.593013
O O13 0.116994 0.714841 0.055833
O O14 0.031101 0.660392 0.009384
O O15 0.000000 0.395267 0.750000
O O16 0.000000 0.500000 0.500000
O O17 0.673122 0.695500 0.805125
#
# Coordination Sequence:
#
# PCOD8130115 Si02
#       8
#     8   8   8   8   8   8   8   8
#     4   9  19  34  48  69 105 145 180 221 276 309
#     4  11  20  33  52  74 111 143 182 218 266 318
#     4   9  18  30  48  72 100 145 186 219 259 317
#     4  10  17  29  46  70  99 135 186 226 260 304
#     4  11  22  34  54  80 104 143 185 221 263 322
#     4  10  20  36  53  74 105 144 175 214 267 322
#     4  11  20  33  50  75 104 137 186 224 261 318
#     4   9  20  33  50  69 105 146 180 225 271 313
#
# _framework density 18.224101999999998
#
# number of rings (size 3 to 8) (size 9 to 14) (size 15 to 20)
#    0.000    2.000    1.250    5.625    3.500    2.000 
#    0.000    2.500    0.000    0.000    0.000    0.000 
#    0.000    7.000    0.000    0.000    0.000    0.000 
#
# Total GULP energy -396470.460871 kJ/mol
# GULP energy per Si atom -12389.701902 kJ/mol
# Density = 1.818262 g / cm^3
# Si number density = 18.224102 Si / 1000 Ang^3
#
#
#
# Elastic Constant Matrix: (Units=GPa)
#
#
# Indices 1 2 3 4 5 6 
#
# 1 76.1482 32.1774 37.0637 0.0000 5.3004 0.0000
# 2 32.1774 51.1704 12.8522 0.0000 6.6487 0.0000
# 3 37.0637 12.8522 97.1962 0.0000 -2.5769 0.0000
# 4 0.0000 0.0000 0.0000 19.8468 0.0000 0.3351
# 5 5.3004 6.6487 -2.5769 0.0000 23.5735 0.0000
# 6 0.0000 0.0000 0.0000 0.3351 0.0000 23.2163
#
#
#
# Elastic Compliance Matrix: (Units=1/GPa)
#
#
# Indices 1 2 3 4 5 6 
#
# 1 0.021407 -0.011477 -0.006707 0.000000 -0.002310 0.000000
# 2 -0.011477 0.027253 0.000639 0.000000 -0.005036 0.000000
# 3 -0.006707 0.000639 0.012834 0.000000 0.002731 0.000000
# 4 0.000000 0.000000 0.000000 0.050398 0.000000 -0.000727
# 5 -0.002310 -0.005036 0.002731 0.000000 0.044659 0.000000
# 6 0.000000 0.000000 0.000000 -0.000727 0.000000 0.043084
#
#
# Mechanical properties :
#
#
# Convention : Reuss Voigt Hill
#
# Bulk Modulus (GPa) = 37.87095 43.18906 40.53001
# Shear Modulus (GPa) = 20.53173 22.82209 21.67691
#
# Velocity S-wave (km/s) = 3.36016 3.54263 3.45260
# Velocity P-wave (km/s) = 5.99000 6.36270 6.17916
#
# Compressibility (1/GPa) = 0.02640546
#
# Stress axis : x y z
#
# Youngs Moduli (GPa) = 46.71332 36.69278 77.91892
#
# Poissons Ratio (x) = 0.42112 0.52259
# Poissons Ratio (y) = 0.53612 -0.04981
# Poissons Ratio (z) = 0.31330 -0.02346
#
# Static dielectric constant tensor:
#      x y z
#    x 3.559030 0.000000 0.036830 
#    y 0.000000 3.256910 0.000000 
#    z 0.036830 0.000000 3.671610 
# 
# 
# High freq. dielectric constant tensor:
#      x y z
#    x 1.668590 0.000000 -0.012440 
#    y 0.000000 1.677920 0.000000 
#    z -0.012440 0.000000 1.723120 
# 
# From -- ./inp_files/69754.got.cif
#   From: 2010.06.25/outbox.cif.g09.slc.cpg/sg15_35_cif.got.tgz:69754.got - 2010.06.28 07:06:18.
