data_PCOD8130876
_publ_section_title
;
Structure prediction by ZEFSAII (Michael W. Deem and Ramdas Pophale) SiO2 
 PCOD8130876
Probable space group: C 2/C
;
_chemical_formula_sum "Si O2"
_cell_formula_units_Z 48
_cell_length_a 15.155209
_cell_length_b 26.666462
_cell_length_c 11.436843
_cell_angle_alpha 90.000000
_cell_angle_beta 29.971584
_cell_angle_gamma 90.000000
_cell_volume 2309.033391
_symmetry_space_group_name_H-M "C 2/C"
_symmetry_group_IT_number 15
_symmetry_cell_setting 'monoclinic'
loop_
_space_group_symop_operation_xyz
x,y,z
-x,y,1/2-z
-x,-y,-z
x,-y,1/2+z
1/2+x,1/2+y,z
1/2-x,1/2+y,1/2-z
1/2-x,1/2-y,-z
1/2+x,1/2-y,1/2+z
loop_
_atom_site_type_symbol
_atom_site_label
_atom_site_fract_x
_atom_site_fract_y
_atom_site_fract_z
Si Si1 0.687091 0.450868 0.074979
Si Si2 0.656144 0.697416 0.735286
Si Si3 0.236149 0.900065 0.264594
Si Si4 0.756342 0.806683 0.625250
Si Si5 0.122462 0.409741 0.858135
Si Si6 0.589036 0.541485 0.314372
O O1 0.500000 0.426101 0.250000
O O2 0.744750 0.425730 0.128278
O O3 0.660400 0.511275 0.119424
O O4 0.833608 0.441242 0.809048
O O5 0.724932 0.659657 0.756297
O O6 0.680807 0.753529 0.755997
O O7 0.767324 0.690102 0.488043
O O8 0.454892 0.686222 0.938350
O O9 0.065962 0.918268 0.535100
O O10 0.415061 0.915994 0.126973
O O11 0.646473 0.850709 0.810657
O O12 0.243448 0.430252 0.823075
O O13 0.500000 0.500000 0.500000
#
# Coordination Sequence:
#
# PCOD8130876 Si02
#       6
#     8   8   8   8   8   8
#     4  11  20  37  53  72 104 143 178 226 268 311
#     4  10  18  30  46  74 103 139 176 212 250 314
#     4  11  21  34  53  75 106 144 180 218 265 313
#     4  10  19  29  48  72 105 138 177 211 252 316
#     4  12  21  36  54  75 108 146 178 222 267 315
#     4  10  22  37  52  73 104 143 184 226 263 317
#
# _framework density 20.78792
#
# number of rings (size 3 to 8) (size 9 to 14) (size 15 to 20)
#    0.000    1.333    6.667    1.500    0.000    4.000 
#    3.000    0.000    0.000    0.000    0.000    0.000 
#    0.000    1.333    0.000    0.000    0.333    0.167 
#
# Total GULP energy -297543.244314 kJ/mol
# GULP energy per Si atom -12397.635180 kJ/mol
# Density = 2.074061 g / cm^3
# Si number density = 20.787920 Si / 1000 Ang^3
#
#
#
# Elastic Constant Matrix: (Units=GPa)
#
#
# Indices 1 2 3 4 5 6 
#
# 1 42.8777 27.5918 33.7566 -0.0007 -33.5884 0.0003
# 2 27.5918 141.6083 46.0112 0.0005 -11.3686 -0.0001
# 3 33.7566 46.0112 74.6200 0.0099 -32.0635 -0.0046
# 4 -0.0007 0.0005 0.0099 28.9971 -0.0020 -5.2860
# 5 -33.5884 -11.3686 -32.0635 -0.0020 34.4839 0.0011
# 6 0.0003 -0.0001 -0.0046 -5.2860 0.0011 32.7565
#
#
#
# Elastic Compliance Matrix: (Units=1/GPa)
#
#
# Indices 1 2 3 4 5 6 
#
# 1 0.123467 -0.016324 0.005952 0.000009 0.120414 -0.000003
# 2 -0.016324 0.011263 -0.007989 0.000001 -0.019615 0.000000
# 3 0.005952 -0.007989 0.028301 -0.000007 0.029478 0.000002
# 4 0.000009 0.000001 -0.000007 0.035532 0.000004 0.005734
# 5 0.120414 -0.019615 0.029478 0.000004 0.167229 -0.000002
# 6 -0.000003 0.000000 0.000002 0.005734 -0.000002 0.031454
#
#
# Mechanical properties :
#
#
# Convention : Reuss Voigt Hill
#
# Bulk Modulus (GPa) = 7.91701 52.64722 30.28212
# Shear Modulus (GPa) = 10.50266 29.36393 19.93329
#
# Velocity S-wave (km/s) = 2.25017 3.76246 3.09995
# Velocity P-wave (km/s) = 3.25081 6.65250 5.23562
#
# Compressibility (1/GPa) = 0.12631027
#
# Stress axis : x y z
#
# Youngs Moduli (GPa) = 8.09933 88.78347 35.33420
#
# Poissons Ratio (x) = 1.44929 -0.21031
# Poissons Ratio (y) = 0.13221 0.28227
# Poissons Ratio (z) = -0.04821 0.70927
#
# Static dielectric constant tensor:
#      x y z
#    x 3.524770 -0.000010 -0.312710 
#    y -0.000010 4.138670 0.000030 
#    z -0.312710 0.000030 3.726590 
# 
# 
# High freq. dielectric constant tensor:
#      x y z
#    x 1.780760 0.000000 -0.043640 
#    y 0.000000 1.824860 0.000000 
#    z -0.043640 0.000000 1.788850 
# 
# From -- ./inp_files/101234.got.cif
#   From: 2010.06.25/outbox.cif.g09.slc.cpg/sg15_51_cif.got.tgz:101234.got - 2010.06.28 07:06:18.
