data_PCOD8130045
_publ_section_title
;
Structure prediction by ZEFSAII (Michael W. Deem and Ramdas Pophale) SiO2 
 PCOD8130045
Probable space group: C 2/C
;
_chemical_formula_sum "Si O2"
_cell_formula_units_Z 48
_cell_length_a 25.137932
_cell_length_b 9.790115
_cell_length_c 9.244752
_cell_angle_alpha 90.000000
_cell_angle_beta 111.365697
_cell_angle_gamma 90.000000
_cell_volume 2118.800813
_symmetry_space_group_name_H-M "C 2/C"
_symmetry_group_IT_number 15
_symmetry_cell_setting 'monoclinic'
loop_
_space_group_symop_operation_xyz
x,y,z
-x,y,1/2-z
-x,-y,-z
x,-y,1/2+z
1/2+x,1/2+y,z
1/2-x,1/2+y,1/2-z
1/2-x,1/2-y,-z
1/2+x,1/2-y,1/2+z
loop_
_atom_site_type_symbol
_atom_site_label
_atom_site_fract_x
_atom_site_fract_y
_atom_site_fract_z
Si Si1 0.061801 0.303075 0.797350
Si Si2 0.705573 0.582990 0.890308
Si Si3 0.643527 0.700387 0.302973
Si Si4 0.376858 0.299062 0.410004
Si Si5 0.674775 0.821571 0.053924
Si Si6 0.441229 0.566032 0.486301
O O1 0.076935 0.281114 0.642857
O O2 0.052745 0.156069 0.863870
O O3 0.000000 0.381064 0.750000
O O4 0.114689 0.379768 0.928844
O O5 0.685208 0.428258 0.870562
O O6 0.681485 0.676522 0.735514
O O7 0.774317 0.580287 0.946170
O O8 0.684946 0.663545 0.013632
O O9 0.634064 0.777534 0.447897
O O10 0.672024 0.812873 0.225409
O O11 0.583543 0.654033 0.172215
O O12 0.398404 0.445948 0.484620
O O13 0.500000 0.500000 0.500000
#
# Coordination Sequence:
#
# PCOD8130045 Si02
#       6
#     8   8   8   8   8   8
#     4  10  18  29  41  62  94 129 155 181 218 279
#     4   9  17  32  47  59  90 126 154 194 227 274
#     4  10  19  29  45  70  91 118 160 194 227 269
#     4  10  18  26  42  65  91 120 154 189 220 262
#     4   9  19  32  45  63  90 126 157 187 235 273
#     4  10  17  26  38  59  90 124 148 173 213 271
#
# _framework density 22.654323999999999
#
# number of rings (size 3 to 8) (size 9 to 14) (size 15 to 20)
#    0.000    2.333    1.667    5.000    0.000    0.667 
#    0.000    0.000    0.000    0.000    0.000    0.000 
#    0.000   21.333    0.000    0.333    0.000    2.500 
#
# Total GULP energy -297448.722958 kJ/mol
# GULP energy per Si atom -12393.696790 kJ/mol
# Density = 2.260276 g / cm^3
# Si number density = 22.654324 Si / 1000 Ang^3
#
#
#
# Elastic Constant Matrix: (Units=GPa)
#
#
# Indices 1 2 3 4 5 6 
#
# 1 152.9120 9.0315 59.3572 0.0000 13.2743 0.0000
# 2 9.0315 10.8898 1.9951 0.0000 1.6348 0.0000
# 3 59.3572 1.9951 126.6536 0.0000 -32.8650 0.0000
# 4 0.0000 0.0000 0.0000 6.0584 0.0000 5.0300
# 5 13.2743 1.6348 -32.8650 0.0000 51.8262 0.0000
# 6 0.0000 0.0000 0.0000 5.0300 0.0000 14.3313
#
#
#
# Elastic Compliance Matrix: (Units=1/GPa)
#
#
# Indices 1 2 3 4 5 6 
#
# 1 0.009808 -0.006085 -0.006108 0.000000 -0.006193 0.000000
# 2 -0.006085 0.096787 0.001125 0.000000 -0.000781 0.000000
# 3 -0.006108 0.001125 0.013330 0.000000 0.009982 0.000000
# 4 0.000000 0.000000 0.000000 0.232937 0.000000 -0.081757
# 5 -0.006193 -0.000781 0.009982 0.000000 0.027236 0.000000
# 6 0.000000 0.000000 0.000000 -0.081757 0.000000 0.098472
#
#
# Mechanical properties :
#
#
# Convention : Reuss Voigt Hill
#
# Bulk Modulus (GPa) = 10.22617 47.91366 29.06992
# Shear Modulus (GPa) = 9.37553 29.11464 19.24508
#
# Velocity S-wave (km/s) = 2.03654 3.58881 2.91780
# Velocity P-wave (km/s) = 3.17077 6.19424 4.92049
#
# Compressibility (1/GPa) = 0.09778830
#
# Stress axis : x y z
#
# Youngs Moduli (GPa) = 101.96184 10.33199 75.01605
#
# Poissons Ratio (x) = 0.06287 0.45817
# Poissons Ratio (y) = 0.62046 -0.08436
# Poissons Ratio (z) = 0.62274 -0.01162
#
# Static dielectric constant tensor:
#      x y z
#    x 4.346070 0.000000 0.104600 
#    y 0.000000 3.209100 0.000000 
#    z 0.104600 0.000000 4.377370 
# 
# 
# High freq. dielectric constant tensor:
#      x y z
#    x 1.906590 0.000000 -0.001180 
#    y 0.000000 1.811940 0.000000 
#    z -0.001180 0.000000 1.904920 
# 
# From -- ./inp_files/61191.got.cif
#   From: 2010.06.25/outbox.cif.g09.slc.cpg/sg15_31_cif.got.tgz:61191.got - 2010.06.28 07:06:18.
