data_PCOD8130969
_publ_section_title
;
Structure prediction by ZEFSAII (Michael W. Deem and Ramdas Pophale) SiO2 
 PCOD8130969
Probable space group: C 2/C
;
_chemical_formula_sum "Si O2"
_cell_formula_units_Z 44
_cell_length_a 11.712775
_cell_length_b 26.602553
_cell_length_c 11.468071
_cell_angle_alpha 90.000000
_cell_angle_beta 40.330947
_cell_angle_gamma 90.000000
_cell_volume 2312.666921
_symmetry_space_group_name_H-M "C 2/C"
_symmetry_group_IT_number 15
_symmetry_cell_setting 'monoclinic'
loop_
_space_group_symop_operation_xyz
x,y,z
-x,y,1/2-z
-x,-y,-z
x,-y,1/2+z
1/2+x,1/2+y,z
1/2-x,1/2+y,1/2-z
1/2-x,1/2-y,-z
1/2+x,1/2-y,1/2+z
loop_
_atom_site_type_symbol
_atom_site_label
_atom_site_fract_x
_atom_site_fract_y
_atom_site_fract_z
Si Si1 0.302010 0.528857 0.924544
Si Si2 0.251791 0.694765 0.847185
Si Si3 0.665156 0.895486 0.704847
Si Si4 0.500000 0.044696 0.750000
Si Si5 0.595377 0.909365 0.410903
Si Si6 0.868063 0.801877 0.523307
O O1 0.500000 0.507030 0.750000
O O2 0.251320 0.557022 0.844045
O O3 0.303435 0.568910 0.029603
O O4 0.156935 0.487270 0.069940
O O5 0.121990 0.649983 0.912883
O O6 0.165500 0.748785 0.887700
O O7 0.424819 0.687932 0.634342
O O8 0.294809 0.694400 0.949702
O O9 0.500000 0.881828 0.750000
O O10 0.765825 0.845763 0.671443
O O11 0.587618 0.923612 0.879588
O O12 0.416820 0.080082 0.716188
#
# Coordination Sequence:
#
# PCOD8130969 Si02
#       6
#     8   8   8   4   8   8
#     4  11  22  40  64  90 116 153 201 259 306 348
#     4  10  19  30  54  87 121 148 185 240 304 355
#     4  10  18  33  57  86 119 150 186 246 306 346
#     4  12  26  44  58  82 124 170 206 238 298 354
#     4  11  22  40  60  85 125 160 196 252 295 355
#     4  10  18  30  54  90 117 146 185 241 309 353
#
# _framework density 19.025653999999999
#
# number of rings (size 3 to 8) (size 9 to 14) (size 15 to 20)
#    0.000    1.455    6.364    2.727    2.545    0.727 
#    3.273    0.000    0.000    4.364    0.000    0.000 
#    0.000    0.000    0.000    0.000    0.000    0.000 
#
# Total GULP energy -272724.825078 kJ/mol
# GULP energy per Si atom -12396.582958 kJ/mol
# Density = 1.898235 g / cm^3
# Si number density = 19.025654 Si / 1000 Ang^3
#
#
#
# Elastic Constant Matrix: (Units=GPa)
#
#
# Indices 1 2 3 4 5 6 
#
# 1 56.4840 31.8451 31.5447 0.0000 11.1878 0.0000
# 2 31.8451 90.0591 25.4709 0.0000 2.2146 0.0000
# 3 31.5447 25.4709 99.4262 0.0000 -19.4169 0.0000
# 4 0.0000 0.0000 0.0000 20.1019 0.0000 -8.2607
# 5 11.1878 2.2146 -19.4169 0.0000 27.4869 0.0000
# 6 0.0000 0.0000 0.0000 -8.2607 0.0000 10.3970
#
#
#
# Elastic Compliance Matrix: (Units=1/GPa)
#
#
# Indices 1 2 3 4 5 6 
#
# 1 0.033821 -0.007691 -0.013140 0.000000 -0.022428 0.000000
# 2 -0.007691 0.014041 -0.000889 0.000000 0.001371 0.000000
# 3 -0.013140 -0.000889 0.017995 0.000000 0.018132 0.000000
# 4 0.000000 0.000000 0.000000 0.073863 0.000000 0.058685
# 5 -0.022428 0.001371 0.018132 0.000000 0.058208 0.000000
# 6 0.000000 0.000000 0.000000 0.058685 0.000000 0.142808
#
#
# Mechanical properties :
#
#
# Convention : Reuss Voigt Hill
#
# Bulk Modulus (GPa) = 44.60938 47.07675 45.84307
# Shear Modulus (GPa) = 12.76652 22.07108 17.41880
#
# Velocity S-wave (km/s) = 2.59321 3.40967 3.02908
# Velocity P-wave (km/s) = 5.69773 6.34813 6.03170
#
# Compressibility (1/GPa) = 0.02241681
#
# Stress axis : x y z
#
# Youngs Moduli (GPa) = 29.56727 71.21882 55.56982
#
# Poissons Ratio (x) = 0.54777 0.73019
# Poissons Ratio (y) = 0.22741 0.04941
# Poissons Ratio (z) = 0.38852 0.06332
#
# Static dielectric constant tensor:
#      x y z
#    x 2.983990 0.000000 -0.091510 
#    y 0.000000 3.550280 0.000000 
#    z -0.091510 0.000000 3.736800 
# 
# 
# High freq. dielectric constant tensor:
#      x y z
#    x 1.673200 0.000000 -0.019420 
#    y 0.000000 1.741780 0.000000 
#    z -0.019420 0.000000 1.750780 
# 
# From -- ./inp_files/31851.got.cif
#   From: 2010.06.25/outbox.cif.g09.slc.cpg/sg15_16_cif.got.tgz:31851.got - 2010.06.28 07:06:18.
