data_PCOD8130885
_publ_section_title
;
Structure prediction by ZEFSAII (Michael W. Deem and Ramdas Pophale) SiO2 
 PCOD8130885
Probable space group: C 2/C
;
_chemical_formula_sum "Si O2"
_cell_formula_units_Z 44
_cell_length_a 12.350409
_cell_length_b 24.175284
_cell_length_c 9.487407
_cell_angle_alpha 90.000000
_cell_angle_beta 114.962733
_cell_angle_gamma 90.000000
_cell_volume 2568.075445
_symmetry_space_group_name_H-M "C 2/C"
_symmetry_group_IT_number 15
_symmetry_cell_setting 'monoclinic'
loop_
_space_group_symop_operation_xyz
x,y,z
-x,y,1/2-z
-x,-y,-z
x,-y,1/2+z
1/2+x,1/2+y,z
1/2-x,1/2+y,1/2-z
1/2-x,1/2-y,-z
1/2+x,1/2-y,1/2+z
loop_
_atom_site_type_symbol
_atom_site_label
_atom_site_fract_x
_atom_site_fract_y
_atom_site_fract_z
Si Si1 0.500000 0.869561 0.750000
Si Si2 0.392566 0.034876 0.375664
Si Si3 0.439436 0.260704 0.576743
Si Si4 0.358383 0.057164 0.654019
Si Si5 0.356602 0.784075 0.488697
Si Si6 0.217555 0.676077 0.853371
O O1 0.564677 0.908269 0.671518
O O2 0.399985 0.832223 0.618304
O O3 0.313623 0.049056 0.468342
O O4 0.500000 0.000000 0.500000
O O5 0.321330 0.996887 0.224506
O O6 0.500000 0.285996 0.750000
O O7 0.528415 0.252340 0.493481
O O8 0.347249 0.306243 0.474999
O O9 0.378769 0.202070 0.589819
O O10 0.500000 0.067592 0.750000
O O11 0.287138 0.110483 0.662842
O O12 0.250000 0.750000 0.500000
O O13 0.302313 0.805543 0.315371
#
# Coordination Sequence:
#
# PCOD8130885 Si02
#       6
#     4   8   8   8   8   8
#     4  12  20  32  52  74 118 146 172 226 282 324
#     4  10  18  30  47  74 109 138 174 223 278 331
#     4   9  19  36  53  75 106 142 186 222 268 335
#     4  10  18  30  49  75 109 135 174 221 277 330
#     4  11  22  33  51  81 113 145 183 223 272 329
#     4  10  19  33  55  75 107 147 180 220 275 326
#
# _framework density 17.133454
#
# number of rings (size 3 to 8) (size 9 to 14) (size 15 to 20)
#    0.000    1.818    2.727    6.000    0.000    2.909 
#    0.000    0.000    0.000    0.000    0.000    5.091 
#    0.000    0.000    0.000    0.000    0.000    0.000 
#
# Total GULP energy -272627.167038 kJ/mol
# GULP energy per Si atom -12392.143956 kJ/mol
# Density = 1.709446 g / cm^3
# Si number density = 17.133454 Si / 1000 Ang^3
#
#
#
# Elastic Constant Matrix: (Units=GPa)
#
#
# Indices 1 2 3 4 5 6 
#
# 1 92.9849 52.5939 46.4097 0.0000 -10.6071 0.0000
# 2 52.5939 117.2376 54.0440 0.0000 -2.3639 0.0000
# 3 46.4097 54.0440 102.8620 0.0000 -6.3052 0.0000
# 4 0.0000 0.0000 0.0000 31.6909 0.0000 -0.2934
# 5 -10.6071 -2.3639 -6.3052 0.0000 32.9586 0.0000
# 6 0.0000 0.0000 0.0000 -0.2934 0.0000 21.9263
#
#
#
# Elastic Compliance Matrix: (Units=1/GPa)
#
#
# Indices 1 2 3 4 5 6 
#
# 1 0.016369 -0.005241 -0.004383 0.000000 0.004054 0.000000
# 2 -0.005241 0.012937 -0.004532 0.000000 -0.001626 0.000000
# 3 -0.004383 -0.004532 0.014140 0.000000 0.000969 0.000000
# 4 0.000000 0.000000 0.000000 0.031559 0.000000 0.000422
# 5 0.004054 -0.001626 0.000969 0.000000 0.031714 0.000000
# 6 0.000000 0.000000 0.000000 0.000422 0.000000 0.045613
#
#
# Mechanical properties :
#
#
# Convention : Reuss Voigt Hill
#
# Bulk Modulus (GPa) = 66.07964 68.79776 67.43870
# Shear Modulus (GPa) = 26.92653 27.98428 27.45541
#
# Velocity S-wave (km/s) = 3.96861 4.04581 4.00740
# Velocity P-wave (km/s) = 7.72342 7.87820 7.80119
#
# Compressibility (1/GPa) = 0.01513325
#
# Stress axis : x y z
#
# Youngs Moduli (GPa) = 61.09115 77.29560 70.72032
#
# Poissons Ratio (x) = 0.40510 0.30999
# Poissons Ratio (y) = 0.32017 0.32053
# Poissons Ratio (z) = 0.26778 0.35033
#
# Static dielectric constant tensor:
#      x y z
#    x 3.056570 0.000000 -0.351060 
#    y 0.000000 3.102930 0.000000 
#    z -0.351060 0.000000 3.783160 
# 
# 
# High freq. dielectric constant tensor:
#      x y z
#    x 1.619130 0.000000 -0.022240 
#    y 0.000000 1.656670 0.000000 
#    z -0.022240 0.000000 1.684280 
# 
# From -- ./inp_files/31831.got.cif
#   From: 2010.06.25/outbox.cif.g09.slc.cpg/sg15_16_cif.got.tgz:31831.got - 2010.06.28 07:06:18.
