data_PCOD8130223
_publ_section_title
;
Structure prediction by ZEFSAII (Michael W. Deem and Ramdas Pophale) SiO2 
 PCOD8130223
Probable space group: C 2/C
;
_chemical_formula_sum "Si O2"
_cell_formula_units_Z 64
_cell_length_a 9.463964
_cell_length_b 28.087152
_cell_length_c 16.671630
_cell_angle_alpha 90.000000
_cell_angle_beta 57.293568
_cell_angle_gamma 90.000000
_cell_volume 3728.955743
_symmetry_space_group_name_H-M "C 2/C"
_symmetry_group_IT_number 15
_symmetry_cell_setting 'monoclinic'
loop_
_space_group_symop_operation_xyz
x,y,z
-x,y,1/2-z
-x,-y,-z
x,-y,1/2+z
1/2+x,1/2+y,z
1/2-x,1/2+y,1/2-z
1/2-x,1/2-y,-z
1/2+x,1/2-y,1/2+z
loop_
_atom_site_type_symbol
_atom_site_label
_atom_site_fract_x
_atom_site_fract_y
_atom_site_fract_z
Si Si1 0.095795 0.940698 0.373104
Si Si2 0.354989 0.317041 0.005764
Si Si3 0.505131 0.338545 0.122877
Si Si4 0.229872 0.326661 0.333715
Si Si5 0.356178 0.065748 0.660774
Si Si6 0.130847 0.990554 0.641588
Si Si7 0.264035 0.920693 0.480173
Si Si8 0.954504 0.743050 0.856524
O O1 0.993735 0.895732 0.368506
O O2 0.276047 0.942887 0.272813
O O3 0.127993 0.937697 0.457233
O O4 0.979436 0.986026 0.394794
O O5 0.450451 0.295022 0.899601
O O6 0.493584 0.326370 0.032306
O O7 0.250054 0.363533 0.010740
O O8 0.229144 0.279317 0.083254
O O9 0.344091 0.319107 0.220325
O O10 0.670320 0.316049 0.113764
O O11 0.168459 0.380537 0.361127
O O12 0.078154 0.290173 0.370194
O O13 0.555991 0.059225 0.602525
O O14 0.272697 0.027533 0.626679
O O15 0.218430 0.943232 0.580306
O O16 0.000000 0.975170 0.750000
O O17 0.000000 0.749242 0.750000
#
# Coordination Sequence:
#
# PCOD8130223 Si02
#       8
#     8   8   8   8   8   8   8   8
#     4   9  18  31  51  76 105 129 164 214 255 299
#     4  10  22  34  51  78 103 132 178 209 253 315
#     4   9  17  31  52  80 100 129 167 208 263 313
#     4  10  17  30  55  75 103 132 162 217 267 298
#     4  10  18  31  50  79 103 130 165 213 260 296
#     4  10  20  34  49  73 107 139 169 206 249 304
#     4  11  20  32  52  76 103 135 174 205 253 307
#     4  11  21  36  53  75 105 134 166 221 263 300
#
# _framework density 17.162980000000001
#
# number of rings (size 3 to 8) (size 9 to 14) (size 15 to 20)
#    0.000    2.000    3.750    1.125    0.000    1.000 
#    0.000    0.000    0.000    0.000    0.000    0.000 
#    0.000    0.000    0.000    0.000    0.000    0.000 
#
# Total GULP energy -396658.440157 kJ/mol
# GULP energy per Si atom -12395.576255 kJ/mol
# Density = 1.712392 g / cm^3
# Si number density = 17.162980 Si / 1000 Ang^3
#
#
#
# Elastic Constant Matrix: (Units=GPa)
#
#
# Indices 1 2 3 4 5 6 
#
# 1 70.6493 17.5936 27.1683 0.0000 9.3364 0.0000
# 2 17.5936 61.8622 40.4567 0.0000 11.5132 0.0000
# 3 27.1683 40.4567 72.8468 0.0000 13.0374 0.0000
# 4 0.0000 0.0000 0.0000 30.0625 0.0000 0.4282
# 5 9.3364 11.5132 13.0374 0.0000 16.5538 0.0000
# 6 0.0000 0.0000 0.0000 0.4282 0.0000 20.8757
#
#
#
# Elastic Compliance Matrix: (Units=1/GPa)
#
#
# Indices 1 2 3 4 5 6 
#
# 1 0.016928 -0.000516 -0.005101 0.000000 -0.005171 0.000000
# 2 -0.000516 0.026255 -0.013006 0.000000 -0.007726 0.000000
# 3 -0.005101 -0.013006 0.024119 0.000000 -0.007072 0.000000
# 4 0.000000 0.000000 0.000000 0.033274 0.000000 -0.000682
# 5 -0.005171 -0.007726 -0.007072 0.000000 0.074270 0.000000
# 6 0.000000 0.000000 0.000000 -0.000682 0.000000 0.047917
#
#
# Mechanical properties :
#
#
# Convention : Reuss Voigt Hill
#
# Bulk Modulus (GPa) = 33.27161 41.75506 37.51334
# Shear Modulus (GPa) = 18.51661 21.50769 20.01215
#
# Velocity S-wave (km/s) = 3.28818 3.54382 3.41839
# Velocity P-wave (km/s) = 5.81755 6.41297 6.12251
#
# Compressibility (1/GPa) = 0.03005565
#
# Stress axis : x y z
#
# Youngs Moduli (GPa) = 59.07377 38.08734 41.46100
#
# Poissons Ratio (x) = 0.01964 0.21151
# Poissons Ratio (y) = 0.03046 0.53925
# Poissons Ratio (z) = 0.30136 0.49537
#
# Static dielectric constant tensor:
#      x y z
#    x 3.169390 0.000000 0.036080 
#    y 0.000000 3.072500 0.000000 
#    z 0.036080 0.000000 3.049900 
# 
# 
# High freq. dielectric constant tensor:
#      x y z
#    x 1.667200 0.000000 0.006480 
#    y 0.000000 1.646530 0.000000 
#    z 0.006480 0.000000 1.646280 
# 
# From -- ./inp_files/82622.got.cif
#   From: 2010.06.25/outbox.cif.g09.slc.cpg/sg15_42_cif.got.tgz:82622.got - 2010.06.28 07:06:18.
