data_PCOD8130862
_publ_section_title
;
Structure prediction by ZEFSAII (Michael W. Deem and Ramdas Pophale) SiO2 
 PCOD8130862
Probable space group: C 2/C
;
_chemical_formula_sum "Si O2"
_cell_formula_units_Z 56
_cell_length_a 24.128143
_cell_length_b 14.935648
_cell_length_c 16.819444
_cell_angle_alpha 90.000000
_cell_angle_beta 21.437360
_cell_angle_gamma 90.000000
_cell_volume 2215.275489
_symmetry_space_group_name_H-M "C 2/C"
_symmetry_group_IT_number 15
_symmetry_cell_setting 'monoclinic'
loop_
_space_group_symop_operation_xyz
x,y,z
-x,y,1/2-z
-x,-y,-z
x,-y,1/2+z
1/2+x,1/2+y,z
1/2-x,1/2+y,1/2-z
1/2-x,1/2-y,-z
1/2+x,1/2-y,1/2+z
loop_
_atom_site_type_symbol
_atom_site_label
_atom_site_fract_x
_atom_site_fract_y
_atom_site_fract_z
Si Si1 0.709926 0.854828 0.839222
Si Si2 0.000000 0.195179 0.750000
Si Si3 0.026492 0.918006 0.365386
Si Si4 0.298361 0.728482 0.789335
Si Si5 0.271865 0.577009 0.418019
Si Si6 0.500000 0.945407 0.750000
Si Si7 0.012640 0.384157 0.899843
Si Si8 0.613044 0.074085 0.778164
O O1 0.699325 0.759776 0.807029
O O2 0.747625 0.845522 0.883766
O O3 0.846819 0.913989 0.620644
O O4 0.553181 0.907876 0.038957
O O5 0.065702 0.130127 0.730321
O O6 0.128866 0.263161 0.548224
O O7 0.127972 0.869776 0.298880
O O8 0.069858 0.023837 0.304313
O O9 0.400000 0.791923 0.708995
O O10 0.245465 0.614792 0.543462
O O11 0.142453 0.502198 0.586199
O O12 0.447504 0.887519 0.897435
O O13 0.125966 0.466279 0.769868
O O14 0.876421 0.382726 0.147923
#
# Coordination Sequence:
#
# PCOD8130862 Si02
#       8
#     8   4   8   8   8   4   8   8
#     4  10  20  39  57  81 121 159 202 252 302 354
#     4  10  20  37  52  80 126 169 190 238 308 381
#     4  11  24  35  55  88 125 162 199 250 314 375
#     4  10  22  36  54  83 126 164 197 242 308 380
#     4  11  19  36  59  86 111 156 207 251 303 361
#     4  10  18  29  54  90 108 147 202 246 290 349
#     4   9  17  31  54  83 119 147 200 247 290 356
#     4   9  17  33  58  85 108 152 205 250 293 356
#
# _framework density 25.279022999999999
#
# number of rings (size 3 to 8) (size 9 to 14) (size 15 to 20)
#    0.000    2.000    2.857    2.571    0.000    4.571 
#    0.000    0.000    0.000    7.714    0.000    0.000 
#    0.000    0.000    0.000    0.000    0.000    0.000 
#
# Total GULP energy -346949.796369 kJ/mol
# GULP energy per Si atom -12391.064156 kJ/mol
# Density = 2.522149 g / cm^3
# Si number density = 25.279023 Si / 1000 Ang^3
#
#
#
# Elastic Constant Matrix: (Units=GPa)
#
#
# Indices 1 2 3 4 5 6 
#
# 1 118.9879 26.4945 25.9714 0.0003 36.4691 -0.0002
# 2 26.4945 41.7984 19.3190 0.0002 7.9665 -0.0001
# 3 25.9714 19.3190 89.6309 0.0001 19.9230 -0.0001
# 4 0.0003 0.0002 0.0001 3.5407 -0.0001 -12.1239
# 5 36.4691 7.9665 19.9230 -0.0001 49.9286 0.0002
# 6 -0.0002 -0.0001 -0.0001 -12.1239 0.0002 17.7453
#
#
#
# Elastic Compliance Matrix: (Units=1/GPa)
#
#
# Indices 1 2 3 4 5 6 
#
# 1 0.012245 -0.006040 -0.000518 0.000000 -0.007773 0.000000
# 2 -0.006040 0.029762 -0.005037 0.000001 0.001673 0.000001
# 3 -0.000518 -0.005037 0.013310 0.000000 -0.004129 0.000000
# 4 0.000000 0.000001 0.000000 -0.210855 0.000000 -0.144060
# 5 -0.007773 0.001673 -0.004129 0.000000 0.027087 0.000000
# 6 0.000000 0.000001 0.000000 -0.144060 0.000000 -0.042071
#
#
# Mechanical properties :
#
#
# Convention : Reuss Voigt Hill
#
# Bulk Modulus (GPa) = 31.12654 43.77633 37.45143
# Shear Modulus (GPa) = -36.59733 26.15173 -5.22280
#
# Velocity S-wave (km/s) = -3.80904 3.21989 -1.43894
# Velocity P-wave (km/s) = 2.64672 5.58377 3.47659
#
# Compressibility (1/GPa) = 0.03212692
#
# Stress axis : x y z
#
# Youngs Moduli (GPa) = 81.66708 33.59965 75.12925
#
# Poissons Ratio (x) = 0.20296 0.03894
# Poissons Ratio (y) = 0.49331 0.37839
# Poissons Ratio (z) = 0.04232 0.16923
#
# Static dielectric constant tensor:
#      x y z
#    x 4.942500 0.000000 0.503360 
#    y 0.000000 4.060930 0.000000 
#    z 0.503360 0.000000 4.792530 
# 
# 
# High freq. dielectric constant tensor:
#      x y z
#    x 2.014990 0.000000 0.020980 
#    y 0.000000 1.972920 0.000000 
#    z 0.020980 0.000000 2.000340 
# 
# From -- ./inp_files/222957.got.cif
#   From: 2010.06.25/outbox.cif.g09.slc.cpg/sg15_112_cif.got.tgz:222957.got - 2010.06.28 07:06:18.
