data_PCOD8130139
_publ_section_title
;
Structure prediction by ZEFSAII (Michael W. Deem and Ramdas Pophale) SiO2 
 PCOD8130139
Probable space group: C 2/C
;
_chemical_formula_sum "Si O2"
_cell_formula_units_Z 48
_cell_length_a 6.741738
_cell_length_b 20.176100
_cell_length_c 19.730106
_cell_angle_alpha 90.000000
_cell_angle_beta 89.900720
_cell_angle_gamma 90.000000
_cell_volume 2683.724056
_symmetry_space_group_name_H-M "C 2/C"
_symmetry_group_IT_number 15
_symmetry_cell_setting 'monoclinic'
loop_
_space_group_symop_operation_xyz
x,y,z
-x,y,1/2-z
-x,-y,-z
x,-y,1/2+z
1/2+x,1/2+y,z
1/2-x,1/2+y,1/2-z
1/2-x,1/2-y,-z
1/2+x,1/2-y,1/2+z
loop_
_atom_site_type_symbol
_atom_site_label
_atom_site_fract_x
_atom_site_fract_y
_atom_site_fract_z
Si Si1 0.577782 0.048832 0.875561
Si Si2 0.581892 0.364585 0.179784
Si Si3 0.398470 0.552089 0.420707
Si Si4 0.668236 0.566892 0.928587
Si Si5 0.809466 0.866347 0.792584
Si Si6 0.000000 0.469375 0.750000
Si Si7 0.500000 0.761660 0.750000
O O1 0.406467 0.074630 0.925671
O O2 0.704692 0.108160 0.842699
O O3 0.713584 0.998080 0.916718
O O4 0.460161 0.013407 0.815389
O O5 0.500000 0.398578 0.250000
O O6 0.424512 0.378082 0.120620
O O7 0.604441 0.285473 0.193300
O O8 0.402971 0.583826 0.495310
O O9 0.595888 0.507709 0.408047
O O10 0.378298 0.612618 0.367939
O O11 0.701400 0.927999 0.757516
O O12 0.658804 0.804707 0.791898
O O13 0.000000 0.845516 0.750000
#
# Coordination Sequence:
#
# PCOD8130139 Si02
#       7
#     8   8   8   8   8   4   4
#     4  10  17  29  52  77 105 137 162 205 268 318
#     4   9  20  34  49  74 103 129 174 222 249 290
#     4   9  20  32  49  81 109 132 167 212 259 316
#     4  10  18  32  52  77 110 135 162 209 266 319
#     4  10  19  35  55  71 101 141 173 213 259 303
#     4   9  18  28  48  84 102 119 172 214 254 315
#     4   9  22  38  50  74 102 133 188 224 238 295
#
# _framework density 17.885594000000001
#
# number of rings (size 3 to 8) (size 9 to 14) (size 15 to 20)
#    0.500    2.000    0.000    2.500    0.000    6.000 
#    0.000    0.833    0.000    2.000    0.000    0.000 
#    0.000    0.000    0.000    0.000    0.000    0.000 
#
# Total GULP energy -297491.574408 kJ/mol
# GULP energy per Si atom -12395.482267 kJ/mol
# Density = 1.784489 g / cm^3
# Si number density = 17.885594 Si / 1000 Ang^3
#
#
#
# Elastic Constant Matrix: (Units=GPa)
#
#
# Indices 1 2 3 4 5 6 
#
# 1 99.9029 29.5921 35.7575 0.0000 -11.2322 0.0000
# 2 29.5921 87.2851 44.8584 0.0000 -0.6405 0.0000
# 3 35.7575 44.8584 106.9987 0.0000 9.9353 0.0000
# 4 0.0000 0.0000 0.0000 21.9988 0.0000 2.9875
# 5 -11.2322 -0.6405 9.9353 0.0000 25.3281 0.0000
# 6 0.0000 0.0000 0.0000 2.9875 0.0000 10.2987
#
#
#
# Elastic Compliance Matrix: (Units=1/GPa)
#
#
# Indices 1 2 3 4 5 6 
#
# 1 0.012947 -0.002250 -0.004059 0.000000 0.007277 0.000000
# 2 -0.002250 0.015199 -0.005773 0.000000 0.001651 0.000000
# 3 -0.004059 -0.005773 0.013806 0.000000 -0.007362 0.000000
# 4 0.000000 0.000000 0.000000 0.047321 0.000000 -0.013727
# 5 0.007277 0.001651 -0.007362 0.000000 0.045639 0.000000
# 6 0.000000 0.000000 0.000000 -0.013727 0.000000 0.101082
#
#
# Mechanical properties :
#
#
# Convention : Reuss Voigt Hill
#
# Bulk Modulus (GPa) = 56.21968 57.17807 56.69888
# Shear Modulus (GPa) = 18.79078 23.79037 21.29057
#
# Velocity S-wave (km/s) = 3.24483 3.65107 3.45392
# Velocity P-wave (km/s) = 6.74831 7.05776 6.90477
#
# Compressibility (1/GPa) = 0.01778736
#
# Stress axis : x y z
#
# Youngs Moduli (GPa) = 77.23674 65.79499 72.42978
#
# Poissons Ratio (x) = 0.14803 0.29401
# Poissons Ratio (y) = 0.17378 0.41817
# Poissons Ratio (z) = 0.31352 0.37986
#
# Static dielectric constant tensor:
#      x y z
#    x 3.299670 0.000000 0.134570 
#    y 0.000000 3.027220 0.000000 
#    z 0.134570 0.000000 3.279140 
# 
# 
# High freq. dielectric constant tensor:
#      x y z
#    x 1.698880 0.000000 0.008660 
#    y 0.000000 1.657090 0.000000 
#    z 0.008660 0.000000 1.691880 
# 
# From -- ./inp_files/227726.got.cif
#   From: 2010.06.25/outbox.cif.g09.slc.cpg/sg15_114_cif.got.tgz:227726.got - 2010.06.28 07:06:18.
