data_PCOD8130473
_publ_section_title
;
Structure prediction by ZEFSAII (Michael W. Deem and Ramdas Pophale) SiO2 
 PCOD8130473
Probable space group: C 2/C
;
_chemical_formula_sum "Si O2"
_cell_formula_units_Z 40
_cell_length_a 17.273879
_cell_length_b 15.824808
_cell_length_c 8.745760
_cell_angle_alpha 90.000000
_cell_angle_beta 52.459976
_cell_angle_gamma 90.000000
_cell_volume 1895.656197
_symmetry_space_group_name_H-M "C 2/C"
_symmetry_group_IT_number 15
_symmetry_cell_setting 'monoclinic'
loop_
_space_group_symop_operation_xyz
x,y,z
-x,y,1/2-z
-x,-y,-z
x,-y,1/2+z
1/2+x,1/2+y,z
1/2-x,1/2+y,1/2-z
1/2-x,1/2-y,-z
1/2+x,1/2-y,1/2+z
loop_
_atom_site_type_symbol
_atom_site_label
_atom_site_fract_x
_atom_site_fract_y
_atom_site_fract_z
Si Si1 0.856133 0.535125 0.751224
Si Si2 0.000000 0.643313 0.750000
Si Si3 0.626546 0.160131 0.332344
Si Si4 0.281098 0.519149 0.834870
Si Si5 0.158903 0.120666 0.458354
Si Si6 0.500000 0.263377 0.250000
O O1 0.888130 0.439681 0.675776
O O2 0.794065 0.571888 0.682870
O O3 0.951213 0.589190 0.672335
O O4 0.785637 0.541600 0.981874
O O5 0.081034 0.692946 0.551276
O O6 0.743234 0.176182 0.189470
O O7 0.574740 0.208214 0.257064
O O8 0.349584 0.457848 0.649846
O O9 0.341791 0.583905 0.866382
O O10 0.064228 0.179362 0.556627
#
# Coordination Sequence:
#
# PCOD8130473 Si02
#       6
#     8   4   8   8   8   4
#     4  10  17  33  58  90 118 143 182 253 289 335
#     4  12  19  32  56  91 118 148 194 238 302 329
#     4  10  23  36  55  90 118 152 193 229 292 358
#     4   8  18  35  60  88 108 143 193 246 294 311
#     4  10  21  42  61  88 114 149 198 248 283 343
#     4  12  25  40  60  77 124 170 190 220 292 361
#
# _framework density 21.100871999999999
#
# number of rings (size 3 to 8) (size 9 to 14) (size 15 to 20)
#    0.000    2.400    4.000    1.800    5.600    0.800 
#    0.000    5.000    0.000    0.000    0.000    0.000 
#    0.000    0.000    0.000    0.000    0.000    0.000 
#
# Total GULP energy -247785.295120 kJ/mol
# GULP energy per Si atom -12389.264756 kJ/mol
# Density = 2.105285 g / cm^3
# Si number density = 21.100872 Si / 1000 Ang^3
#
#
#
# Elastic Constant Matrix: (Units=GPa)
#
#
# Indices 1 2 3 4 5 6 
#
# 1 42.8155 13.0478 25.9750 0.0000 3.1831 0.0000
# 2 13.0478 35.0237 21.8740 0.0000 -4.7027 0.0000
# 3 25.9750 21.8740 119.4790 0.0000 0.4594 0.0000
# 4 0.0000 0.0000 0.0000 13.5834 0.0000 -11.1439
# 5 3.1831 -4.7027 0.4594 0.0000 40.2832 0.0000
# 6 0.0000 0.0000 0.0000 -11.1439 0.0000 14.2105
#
#
#
# Elastic Compliance Matrix: (Units=1/GPa)
#
#
# Indices 1 2 3 4 5 6 
#
# 1 0.029010 -0.008249 -0.004784 0.000000 -0.003201 0.000000
# 2 -0.008249 0.035186 -0.004667 0.000000 0.004813 0.000000
# 3 -0.004784 -0.004667 0.010265 0.000000 -0.000284 0.000000
# 4 0.000000 0.000000 0.000000 0.206430 0.000000 0.161883
# 5 -0.003201 0.004813 -0.000284 0.000000 0.025642 0.000000
# 6 0.000000 0.000000 0.000000 0.161883 0.000000 0.197320
#
#
# Mechanical properties :
#
#
# Convention : Reuss Voigt Hill
#
# Bulk Modulus (GPa) = 25.60111 35.45688 30.52900
# Shear Modulus (GPa) = 9.05345 22.71017 15.88181
#
# Velocity S-wave (km/s) = 2.07361 3.28421 2.74644
# Velocity P-wave (km/s) = 4.22992 5.58761 4.95548
#
# Compressibility (1/GPa) = 0.03906080
#
# Stress axis : x y z
#
# Youngs Moduli (GPa) = 34.47030 28.42021 97.41548
#
# Poissons Ratio (x) = 0.23445 0.46607
# Poissons Ratio (y) = 0.28436 0.45463
# Poissons Ratio (z) = 0.16492 0.13264
#
# Static dielectric constant tensor:
#      x y z
#    x 3.862170 0.000000 0.170920 
#    y 0.000000 3.307390 0.000000 
#    z 0.170920 0.000000 4.058340 
# 
# 
# High freq. dielectric constant tensor:
#      x y z
#    x 1.818960 0.000000 0.005600 
#    y 0.000000 1.772770 0.000000 
#    z 0.005600 0.000000 1.846430 
# 
# From -- ./inp_files/48312.got.cif
#   From: 2010.06.25/outbox.cif.g09.slc.cpg/sg15_25_cif.got.tgz:48312.got - 2010.06.28 07:06:18.
