data_PCOD8130426
_publ_section_title
;
Structure prediction by ZEFSAII (Michael W. Deem and Ramdas Pophale) SiO2 
 PCOD8130426
Probable space group: C 2/C
;
_chemical_formula_sum "Si O2"
_cell_formula_units_Z 48
_cell_length_a 11.987657
_cell_length_b 15.141627
_cell_length_c 14.276640
_cell_angle_alpha 90.000000
_cell_angle_beta 107.837650
_cell_angle_gamma 90.000000
_cell_volume 2466.817966
_symmetry_space_group_name_H-M "C 2/C"
_symmetry_group_IT_number 15
_symmetry_cell_setting 'monoclinic'
loop_
_space_group_symop_operation_xyz
x,y,z
-x,y,1/2-z
-x,-y,-z
x,-y,1/2+z
1/2+x,1/2+y,z
1/2-x,1/2+y,1/2-z
1/2-x,1/2-y,-z
1/2+x,1/2-y,1/2+z
loop_
_atom_site_type_symbol
_atom_site_label
_atom_site_fract_x
_atom_site_fract_y
_atom_site_fract_z
Si Si1 0.308191 0.513377 0.452988
Si Si2 0.000000 0.360658 0.250000
Si Si3 0.000000 0.078449 0.750000
Si Si4 0.376597 0.270301 0.574650
Si Si5 0.377090 0.969282 0.745707
Si Si6 0.801597 0.947227 0.647509
Si Si7 0.480334 0.367973 0.446333
O O1 0.203045 0.548321 0.364330
O O2 0.257361 0.496263 0.543120
O O3 0.361127 0.423420 0.425949
O O4 0.409510 0.585680 0.477878
O O5 0.934278 0.305234 0.152973
O O6 0.901755 0.425767 0.270646
O O7 0.998609 0.143719 0.659632
O O8 0.111808 0.013161 0.774491
O O9 0.250000 0.250000 0.500000
O O10 0.369988 0.357555 0.638168
O O11 0.460310 0.280732 0.504120
O O12 0.500000 0.921034 0.750000
O O13 0.313082 0.927089 0.819340
#
# Coordination Sequence:
#
# PCOD8130426 Si02
#       7
#     8   4   4   8   8   8   8
#     4   9  17  33  54  90 113 144 206 252 287 349
#     4  10  23  38  58  91 126 162 200 252 317 358
#     4  10  17  32  64  93 110 144 206 266 295 334
#     4  11  23  38  60  91 125 164 200 257 315 370
#     4  10  22  37  58  84 123 160 202 250 292 371
#     4  10  20  34  63  87 114 157 204 251 295 360
#     4   9  18  31  60  88 120 147 199 255 304 358
#
# _framework density 19.458265000000001
#
# number of rings (size 3 to 8) (size 9 to 14) (size 15 to 20)
#    0.500    1.667    1.667    3.500    2.333    0.667 
#    0.000    0.000    1.833    4.000    0.000    0.000 
#    0.000    0.000    0.000    0.000    0.000    0.000 
#
# Total GULP energy -297358.031860 kJ/mol
# GULP energy per Si atom -12389.917994 kJ/mol
# Density = 1.941398 g / cm^3
# Si number density = 19.458265 Si / 1000 Ang^3
#
#
#
# Elastic Constant Matrix: (Units=GPa)
#
#
# Indices 1 2 3 4 5 6 
#
# 1 97.2886 -0.1595 33.9722 0.0000 -9.0778 0.0000
# 2 -0.1595 38.4343 14.6060 0.0000 -8.2127 0.0000
# 3 33.9722 14.6060 86.4769 0.0000 5.4421 0.0000
# 4 0.0000 0.0000 0.0000 13.9322 0.0000 -1.4293
# 5 -9.0778 -8.2127 5.4421 0.0000 37.1892 0.0000
# 6 0.0000 0.0000 0.0000 -1.4293 0.0000 20.3741
#
#
#
# Elastic Compliance Matrix: (Units=1/GPa)
#
#
# Indices 1 2 3 4 5 6 
#
# 1 0.012772 0.003288 -0.005869 0.000000 0.004703 0.000000
# 2 0.003288 0.030516 -0.006985 0.000000 0.008564 0.000000
# 3 -0.005869 -0.006985 0.015378 0.000000 -0.005225 0.000000
# 4 0.000000 0.000000 0.000000 0.072296 0.000000 0.005072
# 5 0.004703 0.008564 -0.005225 0.000000 0.030693 0.000000
# 6 0.000000 0.000000 0.000000 0.005072 0.000000 0.049438
#
#
# Mechanical properties :
#
#
# Convention : Reuss Voigt Hill
#
# Bulk Modulus (GPa) = 25.29375 35.44857 30.37116
# Shear Modulus (GPa) = 20.54199 25.88451 23.21325
#
# Velocity S-wave (km/s) = 3.25267 3.65123 3.45770
# Velocity P-wave (km/s) = 5.20900 6.00271 5.61989
#
# Compressibility (1/GPa) = 0.03953545
#
# Stress axis : x y z
#
# Youngs Moduli (GPa) = 78.29489 32.76917 65.02819
#
# Poissons Ratio (x) = -0.10775 0.38164
# Poissons Ratio (y) = -0.25745 0.45422
# Poissons Ratio (z) = 0.45950 0.22889
#
# Static dielectric constant tensor:
#      x y z
#    x 3.566700 0.000000 -0.112900 
#    y 0.000000 3.231710 0.000000 
#    z -0.112900 0.000000 3.715360 
# 
# 
# High freq. dielectric constant tensor:
#      x y z
#    x 1.754790 0.000000 0.000080 
#    y 0.000000 1.711100 0.000000 
#    z 0.000080 0.000000 1.772660 
# 
# From -- ./inp_files/143843.got.cif
#   From: 2010.06.25/outbox.cif.g09.slc.cpg/sg15_72_cif.got.tgz:143843.got - 2010.06.28 07:06:18.
