data_PCOD8130513
_publ_section_title
;
Structure prediction by ZEFSAII (Michael W. Deem and Ramdas Pophale) SiO2 
 PCOD8130513
Probable space group: C 2/C
;
_chemical_formula_sum "Si O2"
_cell_formula_units_Z 64
_cell_length_a 20.444283
_cell_length_b 9.548186
_cell_length_c 17.632524
_cell_angle_alpha 90.000000
_cell_angle_beta 88.462543
_cell_angle_gamma 90.000000
_cell_volume 3440.732133
_symmetry_space_group_name_H-M "C 2/C"
_symmetry_group_IT_number 15
_symmetry_cell_setting 'monoclinic'
loop_
_space_group_symop_operation_xyz
x,y,z
-x,y,1/2-z
-x,-y,-z
x,-y,1/2+z
1/2+x,1/2+y,z
1/2-x,1/2+y,1/2-z
1/2-x,1/2-y,-z
1/2+x,1/2-y,1/2+z
loop_
_atom_site_type_symbol
_atom_site_label
_atom_site_fract_x
_atom_site_fract_y
_atom_site_fract_z
Si Si1 0.647638 0.018637 0.573933
Si Si2 0.612966 0.605422 0.274816
Si Si3 0.612878 0.505615 0.614778
Si Si4 0.701386 0.536174 0.401437
Si Si5 0.322289 0.697402 0.489336
Si Si6 0.123625 0.767031 0.004691
Si Si7 0.058333 0.630988 0.697373
Si Si8 0.011535 0.148179 0.400407
O O1 0.635133 0.162156 0.526240
O O2 0.603491 0.017762 0.652217
O O3 0.722001 0.995475 0.598318
O O4 0.627985 0.898326 0.515694
O O5 0.606962 0.498189 0.205308
O O6 0.681225 0.571700 0.315466
O O7 0.605332 0.766304 0.246086
O O8 0.555443 0.571272 0.335549
O O9 0.670390 0.400295 0.585457
O O10 0.628340 0.662721 0.587836
O O11 0.545887 0.458328 0.573998
O O12 0.661405 0.400738 0.437556
O O13 0.682879 0.674251 0.451095
O O14 0.250000 0.750000 0.500000
O O15 0.053991 0.803657 0.970154
O O16 0.000000 0.560806 0.750000
O O17 0.022218 0.716886 0.633796
#
# Coordination Sequence:
#
# PCOD8130513 Si02
#       8
#     8   8   8   8   8   8   8   8
#     4  11  19  36  56  80 113 148 179 230 285 328
#     4   9  17  34  58  78 104 142 192 221 264 331
#     4  10  17  34  54  80 104 143 183 225 270 328
#     4   9  20  36  57  80 108 149 189 229 267 332
#     4   9  18  33  56  76 106 144 184 219 269 330
#     4  10  21  32  54  84 115 136 182 237 276 319
#     4   9  18  34  59  78 108 149 184 221 277 342
#     4   9  17  33  57  78 100 147 188 222 268 329
#
# _framework density 18.600693
#
# number of rings (size 3 to 8) (size 9 to 14) (size 15 to 20)
#    0.000    2.500    2.500    1.875    0.000    0.500 
#    2.250    1.250   13.750    0.000    0.000    0.000 
#    0.000    0.000    0.000    0.000    0.000    0.000 
#
# Total GULP energy -396441.957837 kJ/mol
# GULP energy per Si atom -12388.811182 kJ/mol
# Density = 1.855836 g / cm^3
# Si number density = 18.600693 Si / 1000 Ang^3
#
#
#
# Elastic Constant Matrix: (Units=GPa)
#
#
# Indices 1 2 3 4 5 6 
#
# 1 77.8170 16.8911 42.4280 0.0000 -6.0659 0.0000
# 2 16.8911 90.9478 47.9853 0.0000 -1.9191 0.0000
# 3 42.4280 47.9853 99.0090 0.0000 5.8373 0.0000
# 4 0.0000 0.0000 0.0000 19.9430 0.0000 -7.4033
# 5 -6.0659 -1.9191 5.8373 0.0000 28.4457 0.0000
# 6 0.0000 0.0000 0.0000 -7.4033 0.0000 18.1833
#
#
#
# Elastic Compliance Matrix: (Units=1/GPa)
#
#
# Indices 1 2 3 4 5 6 
#
# 1 0.017658 0.001351 -0.008553 0.000000 0.005612 0.000000
# 2 0.001351 0.015054 -0.008049 0.000000 0.002956 0.000000
# 3 -0.008553 -0.008049 0.018024 0.000000 -0.006065 0.000000
# 4 0.000000 0.000000 0.000000 0.059071 0.000000 0.024051
# 5 0.005612 0.002956 -0.006065 0.000000 0.037795 0.000000
# 6 0.000000 0.000000 0.000000 0.024051 0.000000 0.064788
#
#
# Mechanical properties :
#
#
# Convention : Reuss Voigt Hill
#
# Bulk Modulus (GPa) = 49.42069 53.59806 51.50937
# Shear Modulus (GPa) = 20.02921 24.01235 22.02078
#
# Velocity S-wave (km/s) = 3.28502 3.59686 3.44447
# Velocity P-wave (km/s) = 6.40433 6.79172 6.60087
#
# Compressibility (1/GPa) = 0.02023444
#
# Stress axis : x y z
#
# Youngs Moduli (GPa) = 56.63171 66.42952 55.48194
#
# Poissons Ratio (x) = -0.08978 0.47452
# Poissons Ratio (y) = -0.07654 0.44659
# Poissons Ratio (z) = 0.48436 0.53470
#
# Static dielectric constant tensor:
#      x y z
#    x 3.656020 0.000000 -0.214760 
#    y 0.000000 3.380260 0.000000 
#    z -0.214760 0.000000 3.447840 
# 
# 
# High freq. dielectric constant tensor:
#      x y z
#    x 1.719960 0.000000 -0.018390 
#    y 0.000000 1.697670 0.000000 
#    z -0.018390 0.000000 1.714900 
# 
# From -- ./inp_files/213915.got.cif
#   From: 2010.06.25/outbox.cif.g09.slc.cpg/sg15_107_cif.got.tgz:213915.got - 2010.06.28 07:06:18.
