data_PCOD8130726
_publ_section_title
;
Structure prediction by ZEFSAII (Michael W. Deem and Ramdas Pophale) SiO2 
 PCOD8130726
Probable space group: C 2/C
;
_chemical_formula_sum "Si O2"
_cell_formula_units_Z 64
_cell_length_a 18.108662
_cell_length_b 12.216873
_cell_length_c 30.276144
_cell_angle_alpha 90.000000
_cell_angle_beta 150.329465
_cell_angle_gamma 90.000000
_cell_volume 3315.603756
_symmetry_space_group_name_H-M "C 2/C"
_symmetry_group_IT_number 15
_symmetry_cell_setting 'monoclinic'
loop_
_space_group_symop_operation_xyz
x,y,z
-x,y,1/2-z
-x,-y,-z
x,-y,1/2+z
1/2+x,1/2+y,z
1/2-x,1/2+y,1/2-z
1/2-x,1/2-y,-z
1/2+x,1/2-y,1/2+z
loop_
_atom_site_type_symbol
_atom_site_label
_atom_site_fract_x
_atom_site_fract_y
_atom_site_fract_z
Si Si1 0.777522 0.167983 0.735046
Si Si2 0.256470 0.351947 0.535806
Si Si3 0.075936 0.951990 0.689469
Si Si4 0.858359 0.873454 0.874415
Si Si5 0.139687 0.539854 0.792950
Si Si6 0.848132 0.226476 0.934914
Si Si7 0.523383 0.024661 0.633773
Si Si8 0.648679 0.176331 0.152036
O O1 0.749746 0.267495 0.686772
O O2 0.619649 0.105673 0.653540
O O3 0.822426 0.212252 0.806393
O O4 0.906526 0.080782 0.788515
O O5 0.250000 0.250000 0.500000
O O6 0.416135 0.408331 0.619496
O O7 0.213327 0.314268 0.562224
O O8 0.148478 0.444762 0.460610
O O9 0.120661 0.935109 0.661364
O O10 0.195276 0.882139 0.778969
O O11 0.773265 0.951104 0.864842
O O12 0.022617 0.847357 0.977104
O O13 0.207841 0.654181 0.845456
O O14 0.076889 0.543222 0.711086
O O15 0.000000 0.503944 0.750000
O O16 0.921441 0.291085 0.931616
O O17 0.541160 0.900699 0.625511
#
# Coordination Sequence:
#
# PCOD8130726 Si02
#       8
#     8   8   8   8   8   8   8   8
#     4  10  17  41  67  82 116 175 209 236 312 382
#     4  12  23  39  61  95 131 159 203 269 315 351
#     4  10  21  38  65  88 121 173 207 246 316 380
#     4  11  21  42  62  90 129 166 203 257 310 374
#     4  12  25  38  64  97 125 156 207 262 311 372
#     4  12  24  37  67  97 125 155 216 262 307 362
#     4  11  21  42  63  86 124 166 204 249 315 372
#     4  10  21  39  66  85 118 170 210 246 308 380
#
# _framework density 19.302669000000002
#
# number of rings (size 3 to 8) (size 9 to 14) (size 15 to 20)
#    0.000    1.000    7.500    1.875    1.750    0.500 
#    0.000    1.875    0.000    0.000    0.000    0.000 
#    0.000    0.000    0.000    0.000    0.000    0.000 
#
# Total GULP energy -396746.387660 kJ/mol
# GULP energy per Si atom -12398.324614 kJ/mol
# Density = 1.925873 g / cm^3
# Si number density = 19.302669 Si / 1000 Ang^3
#
#
#
# Elastic Constant Matrix: (Units=GPa)
#
#
# Indices 1 2 3 4 5 6 
#
# 1 67.5852 24.1335 32.1478 -0.0004 6.3813 0.0001
# 2 24.1335 90.8879 30.1563 -0.0001 7.8548 0.0000
# 3 32.1478 30.1563 75.4193 0.0010 11.8437 -0.0001
# 4 -0.0004 -0.0001 0.0010 27.9434 0.0002 5.5721
# 5 6.3813 7.8548 11.8437 0.0002 35.9713 0.0000
# 6 0.0001 0.0000 -0.0001 5.5721 0.0000 24.8188
#
#
#
# Elastic Compliance Matrix: (Units=1/GPa)
#
#
# Indices 1 2 3 4 5 6 
#
# 1 0.019141 -0.002719 -0.006993 0.000001 -0.000499 0.000000
# 2 -0.002719 0.013118 -0.003914 0.000000 -0.001093 0.000000
# 3 -0.006993 -0.003914 0.018429 -0.000001 -0.003972 0.000000
# 4 0.000001 0.000000 -0.000001 0.037464 0.000000 -0.008411
# 5 -0.000499 -0.001093 -0.003972 0.000000 0.029435 0.000000
# 6 0.000000 0.000000 0.000000 -0.008411 0.000000 0.042180
#
#
# Mechanical properties :
#
#
# Convention : Reuss Voigt Hill
#
# Bulk Modulus (GPa) = 42.67253 45.19638 43.93446
# Shear Modulus (GPa) = 25.66318 27.57703 26.62011
#
# Velocity S-wave (km/s) = 3.65021 3.78387 3.71764
# Velocity P-wave (km/s) = 6.31826 6.52347 6.42168
#
# Compressibility (1/GPa) = 0.02343428
#
# Stress axis : x y z
#
# Youngs Moduli (GPa) = 52.24500 76.23222 54.26190
#
# Poissons Ratio (x) = 0.20727 0.37946
# Poissons Ratio (y) = 0.14205 0.21241
# Poissons Ratio (z) = 0.36536 0.29841
#
# Static dielectric constant tensor:
#      x y z
#    x 3.443630 0.000000 -0.008220 
#    y 0.000000 3.665460 0.000000 
#    z -0.008220 0.000000 3.591260 
# 
# 
# High freq. dielectric constant tensor:
#      x y z
#    x 1.728390 0.000000 -0.004360 
#    y 0.000000 1.757630 0.000000 
#    z -0.004360 0.000000 1.755060 
# 
# From -- ./inp_files/177830.got.cif
#   From: 2010.06.25/outbox.cif.g09.slc.cpg/sg15_89_cif.got.tgz:177830.got - 2010.06.28 07:06:18.
