data_PCOD8130649
_publ_section_title
;
Structure prediction by ZEFSAII (Michael W. Deem and Ramdas Pophale) SiO2 
 PCOD8130649
Probable space group: C 2/C
;
_chemical_formula_sum "Si O2"
_cell_formula_units_Z 40
_cell_length_a 14.601552
_cell_length_b 17.153618
_cell_length_c 16.755950
_cell_angle_alpha 90.000000
_cell_angle_beta 148.807906
_cell_angle_gamma 90.000000
_cell_volume 2173.588100
_symmetry_space_group_name_H-M "C 2/C"
_symmetry_group_IT_number 15
_symmetry_cell_setting 'monoclinic'
loop_
_space_group_symop_operation_xyz
x,y,z
-x,y,1/2-z
-x,-y,-z
x,-y,1/2+z
1/2+x,1/2+y,z
1/2-x,1/2+y,1/2-z
1/2-x,1/2-y,-z
1/2+x,1/2-y,1/2+z
loop_
_atom_site_type_symbol
_atom_site_label
_atom_site_fract_x
_atom_site_fract_y
_atom_site_fract_z
Si Si1 0.012837 0.930722 0.853251
Si Si2 0.569363 0.855634 0.160659
Si Si3 0.132311 0.498595 0.911830
Si Si4 0.186905 0.537424 0.621503
Si Si5 0.830877 0.222014 0.977193
O O1 0.026360 0.847441 0.906057
O O2 0.000000 0.916274 0.750000
O O3 0.844286 0.977804 0.760558
O O4 0.191128 0.979233 0.005088
O O5 0.701502 0.887472 0.189917
O O6 0.675887 0.805435 0.304022
O O7 0.431116 0.796922 0.014983
O O8 0.460973 0.923491 0.124164
O O9 0.000000 0.456940 0.750000
O O10 0.186526 0.441966 0.026252
O O11 0.000000 0.500000 0.500000
O O12 0.750000 0.250000 0.000000
#
# Coordination Sequence:
#
# PCOD8130649 Si02
#       5
#     8   8   8   8   8
#     4  10  19  33  56  80 109 152 185 222 278 334
#     4  11  22  35  50  85 123 145 180 231 275 344
#     4  10  17  36  56  81 108 143 189 227 268 333
#     4   9  22  36  50  77 122 146 187 229 272 330
#     4  12  21  33  57  83 119 151 182 215 288 347
#
# _framework density 18.402749
#
# number of rings (size 3 to 8) (size 9 to 14) (size 15 to 20)
#    0.000    1.600    4.000    1.800    5.600    0.800 
#    0.000    0.000    0.000    0.000    0.000   18.200 
#    0.000    0.000    0.000    0.000    0.000    0.000 
#
# Total GULP energy -247883.603399 kJ/mol
# GULP energy per Si atom -12394.180170 kJ/mol
# Density = 1.836086 g / cm^3
# Si number density = 18.402749 Si / 1000 Ang^3
#
#
#
# Elastic Constant Matrix: (Units=GPa)
#
#
# Indices 1 2 3 4 5 6 
#
# 1 71.4565 47.6418 31.8856 0.0054 7.5167 0.0029
# 2 47.6418 61.7163 28.1076 0.0000 3.3506 -0.0017
# 3 31.8856 28.1076 98.0989 0.0065 5.2106 0.0010
# 4 0.0054 0.0000 0.0065 34.7850 0.0008 3.8546
# 5 7.5167 3.3506 5.2106 0.0008 32.1613 0.0001
# 6 0.0029 -0.0017 0.0010 3.8546 0.0001 36.6549
#
#
#
# Elastic Compliance Matrix: (Units=1/GPa)
#
#
# Indices 1 2 3 4 5 6 
#
# 1 0.030461 -0.021708 -0.003453 -0.000004 -0.004298 -0.000003
# 2 -0.021708 0.034143 -0.002832 0.000004 0.001975 0.000003
# 3 -0.003453 -0.002832 0.012174 -0.000002 -0.000870 0.000000
# 4 -0.000004 0.000004 -0.000002 0.029087 0.000000 -0.003059
# 5 -0.004298 0.001975 -0.000870 0.000000 0.032033 0.000000
# 6 -0.000003 0.000003 0.000000 -0.003059 0.000000 0.027603
#
#
# Mechanical properties :
#
#
# Convention : Reuss Voigt Hill
#
# Bulk Modulus (GPa) = 48.09482 49.61575 48.85529
# Shear Modulus (GPa) = 21.88973 28.96268 25.42620
#
# Velocity S-wave (km/s) = 3.45263 3.97145 3.72109
# Velocity P-wave (km/s) = 6.48733 6.93177 6.71323
#
# Compressibility (1/GPa) = 0.02079226
#
# Stress axis : x y z
#
# Youngs Moduli (GPa) = 32.82899 29.28816 82.14497
#
# Poissons Ratio (x) = 0.63580 0.28361
# Poissons Ratio (y) = 0.71267 0.23262
# Poissons Ratio (z) = 0.11334 0.08294
#
# Static dielectric constant tensor:
#      x y z
#    x 3.745120 0.000010 -0.110460 
#    y 0.000010 3.577050 0.000000 
#    z -0.110460 0.000000 3.874470 
# 
# 
# High freq. dielectric constant tensor:
#      x y z
#    x 1.685260 0.000000 0.001870 
#    y 0.000000 1.674510 0.000000 
#    z 0.001870 0.000000 1.739380 
# 
# From -- ./inp_files/37942.got.cif
#   From: 2010.06.25/outbox.cif.g09.slc.cpg/sg15_19_cif.got.tgz:37942.got - 2010.06.28 07:06:18.
