data_PCOD8130826
_publ_section_title
;
Structure prediction by ZEFSAII (Michael W. Deem and Ramdas Pophale) SiO2 
 PCOD8130826
Probable space group: C 2/C
;
_chemical_formula_sum "Si O2"
_cell_formula_units_Z 64
_cell_length_a 11.986923
_cell_length_b 24.927343
_cell_length_c 20.926301
_cell_angle_alpha 90.000000
_cell_angle_beta 141.358321
_cell_angle_gamma 90.000000
_cell_volume 3904.562766
_symmetry_space_group_name_H-M "C 2/C"
_symmetry_group_IT_number 15
_symmetry_cell_setting 'monoclinic'
loop_
_space_group_symop_operation_xyz
x,y,z
-x,y,1/2-z
-x,-y,-z
x,-y,1/2+z
1/2+x,1/2+y,z
1/2-x,1/2+y,1/2-z
1/2-x,1/2-y,-z
1/2+x,1/2-y,1/2+z
loop_
_atom_site_type_symbol
_atom_site_label
_atom_site_fract_x
_atom_site_fract_y
_atom_site_fract_z
Si Si1 0.793204 0.165311 0.672228
Si Si2 0.238982 0.614524 0.297980
Si Si3 0.181035 0.451734 0.140920
Si Si4 0.547628 0.457310 0.701241
Si Si5 0.821179 0.404145 0.592610
Si Si6 0.812572 0.497620 0.495340
Si Si7 0.867720 0.724900 0.252541
Si Si8 0.157496 0.695440 0.475235
O O1 0.716040 0.111191 0.669681
O O2 0.781658 0.215508 0.716832
O O3 0.673500 0.181903 0.557387
O O4 0.000000 0.153678 0.750000
O O5 0.348531 0.588384 0.289994
O O6 0.283283 0.589753 0.387071
O O7 0.281075 0.678435 0.322634
O O8 0.030908 0.605686 0.192577
O O9 0.335723 0.488016 0.242230
O O10 0.174982 0.461550 0.062510
O O11 0.988856 0.466419 0.084287
O O12 0.500000 0.435100 0.750000
O O13 0.361706 0.465604 0.582075
O O14 0.786365 0.459754 0.543307
O O15 0.746484 0.353666 0.518968
O O16 0.000000 0.723099 0.250000
O O17 0.957811 0.707505 0.360342
O O18 0.250000 0.750000 0.500000
#
# Coordination Sequence:
#
# PCOD8130826 Si02
#       8
#     8   8   8   8   8   8   8   8
#     4  11  19  29  49  76 108 137 167 217 276 318
#     4  10  18  34  50  72 103 135 169 214 257 310
#     4  10  20  32  49  76 107 133 171 220 267 302
#     4  10  21  33  52  76 102 134 176 219 257 308
#     4  10  18  30  51  72 101 136 166 206 260 317
#     4  10  19  32  49  73 101 135 175 211 254 318
#     4  10  18  29  47  74 103 134 166 209 266 319
#     4  11  17  27  44  73 105 134 159 208 264 322
#
# _framework density 16.391081
#
# number of rings (size 3 to 8) (size 9 to 14) (size 15 to 20)
#    0.000    1.750    7.500    1.125    0.000    0.500 
#    0.000    0.000    0.000    0.750    0.000    1.750 
#    0.000    0.000    0.000    0.000    0.000    0.000 
#
# Total GULP energy -396510.970921 kJ/mol
# GULP energy per Si atom -12390.967841 kJ/mol
# Density = 1.635377 g / cm^3
# Si number density = 16.391081 Si / 1000 Ang^3
#
#
#
# Elastic Constant Matrix: (Units=GPa)
#
#
# Indices 1 2 3 4 5 6 
#
# 1 64.4090 59.9927 29.3666 0.0019 2.8665 -0.0009
# 2 59.9927 135.0337 25.9445 0.0001 -2.2927 -0.0002
# 3 29.3666 25.9445 63.1050 0.0064 -1.4992 -0.0019
# 4 0.0019 0.0001 0.0064 19.2005 0.0017 5.3966
# 5 2.8665 -2.2927 -1.4992 0.0017 18.6545 -0.0010
# 6 -0.0009 -0.0002 -0.0019 5.3966 -0.0010 15.3284
#
#
#
# Elastic Compliance Matrix: (Units=1/GPa)
#
#
# Indices 1 2 3 4 5 6 
#
# 1 0.031922 -0.012397 -0.009930 0.000001 -0.007227 0.000000
# 2 -0.012397 0.012865 0.000564 0.000001 0.003531 -0.000001
# 3 -0.009930 0.000564 0.020313 -0.000007 0.003228 0.000005
# 4 0.000001 0.000001 -0.000007 0.057802 -0.000007 -0.020350
# 5 -0.007227 0.003531 0.003228 -0.000007 0.055410 0.000006
# 6 0.000000 -0.000001 0.000005 -0.020350 0.000006 0.072403
#
#
# Mechanical properties :
#
#
# Convention : Reuss Voigt Hill
#
# Bulk Modulus (GPa) = 46.35470 54.79503 50.57487
# Shear Modulus (GPa) = 16.58745 20.45293 18.52019
#
# Velocity S-wave (km/s) = 3.18462 3.53627 3.36504
# Velocity P-wave (km/s) = 6.47026 7.08350 6.78381
#
# Compressibility (1/GPa) = 0.02157278
#
# Stress axis : x y z
#
# Youngs Moduli (GPa) = 31.32630 77.73039 49.23058
#
# Poissons Ratio (x) = 0.96363 0.48887
# Poissons Ratio (y) = 0.38836 -0.02776
# Poissons Ratio (z) = 0.31107 -0.04383
#
# Static dielectric constant tensor:
#      x y z
#    x 2.792640 0.000000 -0.069840 
#    y 0.000000 3.336170 0.000000 
#    z -0.069840 0.000000 3.027500 
# 
# 
# High freq. dielectric constant tensor:
#      x y z
#    x 1.577310 0.000000 -0.015140 
#    y 0.000000 1.640850 0.000000 
#    z -0.015140 0.000000 1.634020 
# 
# From -- ./inp_files/240903.got.cif
#   From: 2010.06.25/outbox.cif.g09.slc.cpg/sg15_121_cif.got.tgz:240903.got - 2010.06.28 07:06:18.
