data_PCOD8130814
_publ_section_title
;
Structure prediction by ZEFSAII (Michael W. Deem and Ramdas Pophale) SiO2 
 PCOD8130814
Probable space group: C 2/C
;
_chemical_formula_sum "Si O2"
_cell_formula_units_Z 56
_cell_length_a 17.968053
_cell_length_b 20.211177
_cell_length_c 18.795038
_cell_angle_alpha 90.000000
_cell_angle_beta 152.252347
_cell_angle_gamma 90.000000
_cell_volume 3177.814440
_symmetry_space_group_name_H-M "C 2/C"
_symmetry_group_IT_number 15
_symmetry_cell_setting 'monoclinic'
loop_
_space_group_symop_operation_xyz
x,y,z
-x,y,1/2-z
-x,-y,-z
x,-y,1/2+z
1/2+x,1/2+y,z
1/2-x,1/2+y,1/2-z
1/2-x,1/2-y,-z
1/2+x,1/2-y,1/2+z
loop_
_atom_site_type_symbol
_atom_site_label
_atom_site_fract_x
_atom_site_fract_y
_atom_site_fract_z
Si Si1 0.015767 0.925391 0.487903
Si Si2 0.269060 0.663260 0.862594
Si Si3 0.541817 0.523806 0.861750
Si Si4 0.508762 0.222777 0.551261
Si Si5 0.817997 0.430122 0.084811
Si Si6 0.372210 0.389315 0.699020
Si Si7 0.234211 0.166407 0.246732
O O1 0.870744 0.880937 0.393367
O O2 0.188516 0.897252 0.660869
O O3 0.000000 0.000000 0.500000
O O4 0.012199 0.923268 0.399011
O O5 0.091787 0.676635 0.680877
O O6 0.249422 0.625381 0.919270
O O7 0.363545 0.731624 0.958390
O O8 0.500000 0.557000 0.750000
O O9 0.433280 0.458876 0.782347
O O10 0.725116 0.499104 0.017992
O O11 0.425609 0.177177 0.418803
O O12 0.650346 0.269300 0.639579
O O13 0.000000 0.447251 0.250000
O O14 0.792332 0.402538 0.983030
O O15 0.500000 0.360629 0.750000
O O16 0.344272 0.339939 0.740449
#
# Coordination Sequence:
#
# PCOD8130814 Si02
#       7
#     8   8   8   8   8   8   8
#     4  11  17  32  54  75  93 126 171 205 248 300
#     4  10  19  33  51  70  99 133 175 205 242 292
#     4   9  18  32  49  69  97 131 160 196 252 303
#     4   9  19  33  45  68  98 130 166 208 243 279
#     4  10  18  29  45  69 103 136 164 203 244 275
#     4   9  16  28  43  62  92 129 161 195 237 278
#     4  10  18  31  48  66  94 125 164 202 239 291
#
# _framework density 17.622174000000001
#
# number of rings (size 3 to 8) (size 9 to 14) (size 15 to 20)
#    0.000    2.571    2.857    3.429    0.000    0.000 
#    0.000   17.857    0.000    0.000    0.000   16.000 
#    0.000    0.000    0.000    0.000    0.000    0.000 
#
# Total GULP energy -346917.983964 kJ/mol
# GULP energy per Si atom -12389.927999 kJ/mol
# Density = 1.758206 g / cm^3
# Si number density = 17.622174 Si / 1000 Ang^3
#
#
#
# Elastic Constant Matrix: (Units=GPa)
#
#
# Indices 1 2 3 4 5 6 
#
# 1 62.1842 30.1566 36.2684 -0.0129 -14.6463 0.0095
# 2 30.1566 55.9710 37.0427 0.0026 -11.8226 -0.0088
# 3 36.2684 37.0427 152.8093 -0.0268 -3.3424 -0.0049
# 4 -0.0129 0.0026 -0.0268 31.4677 -0.0305 -4.8612
# 5 -14.6463 -11.8226 -3.3424 -0.0305 23.5332 0.0016
# 6 0.0095 -0.0088 -0.0049 -4.8612 0.0016 7.2577
#
#
#
# Elastic Compliance Matrix: (Units=1/GPa)
#
#
# Indices 1 2 3 4 5 6 
#
# 1 0.024929 -0.008859 -0.003538 0.000012 0.010562 -0.000040
# 2 -0.008859 0.027059 -0.004293 0.000004 0.007471 0.000043
# 3 -0.003538 -0.004293 0.008355 0.000004 -0.003172 0.000009
# 4 0.000012 0.000004 0.000004 0.035446 0.000055 0.023742
# 5 0.010562 0.007471 -0.003172 0.000055 0.052369 0.000018
# 6 -0.000040 0.000043 0.000009 0.023742 0.000018 0.153688
#
#
# Mechanical properties :
#
#
# Convention : Reuss Voigt Hill
#
# Bulk Modulus (GPa) = 37.08911 53.10001 45.09456
# Shear Modulus (GPa) = 14.52586 23.61817 19.07202
#
# Velocity S-wave (km/s) = 2.87417 3.66492 3.29336
# Velocity P-wave (km/s) = 5.66630 6.93590 6.33300
#
# Compressibility (1/GPa) = 0.02696209
#
# Stress axis : x y z
#
# Youngs Moduli (GPa) = 40.11464 36.95660 119.68522
#
# Poissons Ratio (x) = 0.32739 0.42347
# Poissons Ratio (y) = 0.35536 0.51385
# Poissons Ratio (z) = 0.14193 0.15867
#
# Static dielectric constant tensor:
#      x y z
#    x 2.977070 0.000000 -0.117810 
#    y 0.000000 3.158370 -0.000020 
#    z -0.117810 -0.000020 3.766830 
# 
# 
# High freq. dielectric constant tensor:
#      x y z
#    x 1.629690 0.000000 -0.008240 
#    y 0.000000 1.656730 0.000000 
#    z -0.008240 0.000000 1.707860 
# 
# From -- ./inp_files/211905.got.cif
#   From: 2010.06.25/outbox.cif.g09.slc.cpg/sg15_106_cif.got.tgz:211905.got - 2010.06.28 07:06:18.
