data_PCOD8130456
_publ_section_title
;
Structure prediction by ZEFSAII (Michael W. Deem and Ramdas Pophale) SiO2 
 PCOD8130456
Probable space group: C 2/C
;
_chemical_formula_sum "Si O2"
_cell_formula_units_Z 52
_cell_length_a 13.858775
_cell_length_b 24.674150
_cell_length_c 7.620249
_cell_angle_alpha 90.000000
_cell_angle_beta 63.645799
_cell_angle_gamma 90.000000
_cell_volume 2334.944905
_symmetry_space_group_name_H-M "C 2/C"
_symmetry_group_IT_number 15
_symmetry_cell_setting 'monoclinic'
loop_
_space_group_symop_operation_xyz
x,y,z
-x,y,1/2-z
-x,-y,-z
x,-y,1/2+z
1/2+x,1/2+y,z
1/2-x,1/2+y,1/2-z
1/2-x,1/2-y,-z
1/2+x,1/2-y,1/2+z
loop_
_atom_site_type_symbol
_atom_site_label
_atom_site_fract_x
_atom_site_fract_y
_atom_site_fract_z
Si Si1 0.889388 0.788597 0.749903
Si Si2 0.772414 0.962530 0.827939
Si Si3 0.537316 0.604019 0.419702
Si Si4 0.038035 0.558340 0.412626
Si Si5 0.191863 0.921928 0.308532
Si Si6 0.500000 0.866021 0.250000
Si Si7 0.787626 0.318269 0.329393
O O1 0.913355 0.835609 0.585286
O O2 0.823032 0.739062 0.710846
O O3 0.000000 0.767734 0.750000
O O4 0.816155 0.813222 0.963821
O O5 0.872495 0.942372 0.626940
O O6 0.666722 0.939233 0.821101
O O7 0.771326 0.028196 0.843536
O O8 0.780823 0.938570 0.014658
O O9 0.500000 0.605447 0.250000
O O10 0.435150 0.589583 0.623987
O O11 0.000000 0.573746 0.250000
O O12 0.000000 0.500000 0.500000
O O13 0.980648 0.599185 0.591240
O O14 0.258151 0.866310 0.214368
O O15 0.391319 0.831999 0.365298
#
# Coordination Sequence:
#
# PCOD8130456 Si02
#       7
#     8   8   8   8   8   4   8
#     4  10  17  33  56  84 120 154 202 270 319 354
#     4  11  21  36  53  81 119 164 197 249 301 370
#     4   9  17  34  55  82 116 149 202 256 300 368
#     4  12  23  38  57  81 122 173 212 254 308 367
#     4  11  20  35  56  85 122 157 200 244 307 372
#     4  12  22  38  56  92 126 156 218 260 310 392
#     4  11  20  32  57  86 123 153 205 269 309 375
#
# _framework density 22.270333000000001
#
# number of rings (size 3 to 8) (size 9 to 14) (size 15 to 20)
#    0.000    1.231    7.692    2.308    0.000    0.000 
#    0.000    0.000    0.000    0.000    0.000   19.385 
#    0.000    1.231    0.000    0.000    0.000    0.000 
#
# Total GULP energy -322251.393437 kJ/mol
# GULP energy per Si atom -12394.284363 kJ/mol
# Density = 2.221965 g / cm^3
# Si number density = 22.270333 Si / 1000 Ang^3
#
#
#
# Elastic Constant Matrix: (Units=GPa)
#
#
# Indices 1 2 3 4 5 6 
#
# 1 111.4205 31.8884 36.5399 0.0000 -23.9660 0.0000
# 2 31.8884 137.6664 14.0657 0.0000 -6.7184 0.0000
# 3 36.5399 14.0657 47.0097 0.0000 -8.3136 0.0000
# 4 0.0000 0.0000 0.0000 24.1143 0.0000 -17.2664
# 5 -23.9660 -6.7184 -8.3136 0.0000 36.4828 0.0000
# 6 0.0000 0.0000 0.0000 -17.2664 0.0000 42.9101
#
#
#
# Elastic Compliance Matrix: (Units=1/GPa)
#
#
# Indices 1 2 3 4 5 6 
#
# 1 0.013967 -0.001979 -0.009071 0.000000 0.006743 0.000000
# 2 -0.001979 0.007802 -0.000804 0.000000 -0.000047 0.000000
# 3 -0.009071 -0.000804 0.028638 0.000000 0.000419 0.000000
# 4 0.000000 0.000000 0.000000 0.058253 0.000000 0.023440
# 5 0.006743 -0.000047 0.000419 0.000000 0.031927 0.000000
# 6 0.000000 0.000000 0.000000 0.023440 0.000000 0.032737
#
#
# Mechanical properties :
#
#
# Convention : Reuss Voigt Hill
#
# Bulk Modulus (GPa) = 37.45730 51.23164 44.34447
# Shear Modulus (GPa) = 24.27979 34.94161 29.61070
#
# Velocity S-wave (km/s) = 3.30545 3.96533 3.65033
# Velocity P-wave (km/s) = 5.60570 6.63472 6.14180
#
# Compressibility (1/GPa) = 0.02669707
#
# Stress axis : x y z
#
# Youngs Moduli (GPa) = 71.59796 128.16722 34.91865
#
# Poissons Ratio (x) = 0.25368 0.31676
# Poissons Ratio (y) = 0.14171 0.02809
# Poissons Ratio (z) = 0.64950 0.10309
#
# Static dielectric constant tensor:
#      x y z
#    x 4.226710 0.000000 -0.544240 
#    y 0.000000 5.257340 0.000000 
#    z -0.544240 0.000000 3.622590 
# 
# 
# High freq. dielectric constant tensor:
#      x y z
#    x 1.881280 0.000000 -0.049180 
#    y 0.000000 1.893480 0.000000 
#    z -0.049180 0.000000 1.827600 
# 
# From -- ./inp_files/42062.got.cif
#   From: 2010.06.25/outbox.cif.g09.slc.cpg/sg15_22_cif.got.tgz:42062.got - 2010.06.28 07:06:18.
