data_PCOD8130889
_publ_section_title
;
Structure prediction by ZEFSAII (Michael W. Deem and Ramdas Pophale) SiO2 
 PCOD8130889
Probable space group: C 2/C
;
_chemical_formula_sum "Si O2"
_cell_formula_units_Z 52
_cell_length_a 20.805883
_cell_length_b 24.860829
_cell_length_c 8.896615
_cell_angle_alpha 90.000000
_cell_angle_beta 36.891643
_cell_angle_gamma 90.000000
_cell_volume 2762.469476
_symmetry_space_group_name_H-M "C 2/C"
_symmetry_group_IT_number 15
_symmetry_cell_setting 'monoclinic'
loop_
_space_group_symop_operation_xyz
x,y,z
-x,y,1/2-z
-x,-y,-z
x,-y,1/2+z
1/2+x,1/2+y,z
1/2-x,1/2+y,1/2-z
1/2-x,1/2-y,-z
1/2+x,1/2-y,1/2+z
loop_
_atom_site_type_symbol
_atom_site_label
_atom_site_fract_x
_atom_site_fract_y
_atom_site_fract_z
Si Si1 0.921535 0.523995 0.266603
Si Si2 0.431199 0.239301 0.156483
Si Si3 0.644429 0.909672 0.101675
Si Si4 0.000000 0.192081 0.250000
Si Si5 0.598007 0.121369 0.372039
Si Si6 0.798040 0.834099 0.964596
Si Si7 0.657648 0.252994 0.868697
O O1 0.842444 0.474065 0.451625
O O2 0.856282 0.576308 0.329971
O O3 0.000000 0.543674 0.250000
O O4 0.000000 0.500000 0.000000
O O5 0.380641 0.180748 0.227288
O O6 0.358301 0.266896 0.423818
O O7 0.434534 0.271311 0.992703
O O8 0.549981 0.231209 0.994819
O O9 0.527700 0.891844 0.376147
O O10 0.662593 0.882451 0.906381
O O11 0.733217 0.889357 0.056250
O O12 0.084226 0.154780 0.184193
O O13 0.805068 0.806260 0.787816
O O14 0.741634 0.795047 0.189959
#
# Coordination Sequence:
#
# PCOD8130889 Si02
#       7
#     8   8   8   4   8   8   8
#     4  10  18  30  48  74 111 135 168 207 263 332
#     4  10  19  33  51  78 111 142 173 219 276 328
#     4  10  18  33  50  72 106 149 171 213 267 323
#     4  10  22  36  54  74 110 148 194 230 256 302
#     4  10  19  29  50  80 109 141 167 210 275 334
#     4  10  20  36  52  72 106 148 192 224 264 309
#     4   9  20  32  50  76 104 144 180 219 267 329
#
# _framework density 18.823737000000001
#
# number of rings (size 3 to 8) (size 9 to 14) (size 15 to 20)
#    0.000    2.154    4.615    0.923    6.462    0.615 
#    0.000    0.000    0.000    0.000    0.000    1.077 
#    0.000    0.000    0.000    0.000    0.000    0.000 
#
# Total GULP energy -322146.215219 kJ/mol
# GULP energy per Si atom -12390.239047 kJ/mol
# Density = 1.878089 g / cm^3
# Si number density = 18.823737 Si / 1000 Ang^3
#
#
#
# Elastic Constant Matrix: (Units=GPa)
#
#
# Indices 1 2 3 4 5 6 
#
# 1 99.6143 38.0662 20.6333 0.0001 3.5198 -0.0001
# 2 38.0662 55.1770 7.3101 0.0000 -6.0293 0.0000
# 3 20.6333 7.3101 63.3944 0.0001 17.8461 -0.0001
# 4 0.0001 0.0000 0.0001 11.6144 -0.0001 4.0824
# 5 3.5198 -6.0293 17.8461 -0.0001 31.8893 0.0001
# 6 -0.0001 0.0000 -0.0001 4.0824 0.0001 24.2211
#
#
#
# Elastic Compliance Matrix: (Units=1/GPa)
#
#
# Indices 1 2 3 4 5 6 
#
# 1 0.014471 -0.009758 -0.003105 0.000000 -0.001705 0.000000
# 2 -0.009758 0.025848 -0.001761 0.000000 0.006950 0.000000
# 3 -0.003105 -0.001761 0.020161 0.000000 -0.011273 0.000000
# 4 0.000000 0.000000 0.000000 0.091522 0.000000 -0.015426
# 5 -0.001705 0.006950 -0.011273 0.000000 0.039169 0.000000
# 6 0.000000 0.000000 0.000000 -0.015426 0.000000 0.043886
#
#
# Mechanical properties :
#
#
# Convention : Reuss Voigt Hill
#
# Bulk Modulus (GPa) = 32.01786 38.91165 35.46475
# Shear Modulus (GPa) = 18.20047 23.69002 20.94525
#
# Velocity S-wave (km/s) = 3.11286 3.55141 3.33934
# Velocity P-wave (km/s) = 5.47413 6.12643 5.80944
#
# Compressibility (1/GPa) = 0.03123257
#
# Stress axis : x y z
#
# Youngs Moduli (GPa) = 69.10314 38.68700 49.59991
#
# Poissons Ratio (x) = 0.37753 0.15400
# Poissons Ratio (y) = 0.67434 0.08734
# Poissons Ratio (z) = 0.21455 0.06812
#
# Static dielectric constant tensor:
#      x y z
#    x 3.582690 0.000000 0.299030 
#    y 0.000000 4.233620 0.000000 
#    z 0.299030 0.000000 3.443250 
# 
# 
# High freq. dielectric constant tensor:
#      x y z
#    x 1.736770 0.000000 0.027710 
#    y 0.000000 1.703450 0.000000 
#    z 0.027710 0.000000 1.701140 
# 
# From -- ./inp_files/58577.got.cif
#   From: 2010.06.25/outbox.cif.g09.slc.cpg/sg15_30_cif.got.tgz:58577.got - 2010.06.28 07:06:18.
