data_PCOD8130735
_publ_section_title
;
Structure prediction by ZEFSAII (Michael W. Deem and Ramdas Pophale) SiO2 
 PCOD8130735
Probable space group: C 2/C
;
_chemical_formula_sum "Si O2"
_cell_formula_units_Z 64
_cell_length_a 13.184276
_cell_length_b 18.601569
_cell_length_c 16.740742
_cell_angle_alpha 90.000000
_cell_angle_beta 109.009393
_cell_angle_gamma 90.000000
_cell_volume 3881.737028
_symmetry_space_group_name_H-M "C 2/C"
_symmetry_group_IT_number 15
_symmetry_cell_setting 'monoclinic'
loop_
_space_group_symop_operation_xyz
x,y,z
-x,y,1/2-z
-x,-y,-z
x,-y,1/2+z
1/2+x,1/2+y,z
1/2-x,1/2+y,1/2-z
1/2-x,1/2-y,-z
1/2+x,1/2-y,1/2+z
loop_
_atom_site_type_symbol
_atom_site_label
_atom_site_fract_x
_atom_site_fract_y
_atom_site_fract_z
Si Si1 0.181481 0.485182 0.269141
Si Si2 0.907260 0.657112 0.557347
Si Si3 0.747580 0.358065 0.705597
Si Si4 0.621504 0.212265 0.122877
Si Si5 0.977778 0.488549 0.126928
Si Si6 0.438940 0.139994 0.152295
Si Si7 0.262705 0.839531 0.170520
Si Si8 0.930462 0.246058 0.306446
O O1 0.256199 0.555256 0.297536
O O2 0.092459 0.470316 0.313631
O O3 0.261828 0.417304 0.296502
O O4 0.107589 0.488007 0.170964
O O5 0.862699 0.684077 0.462088
O O6 0.951372 0.575063 0.557168
O O7 0.808285 0.657506 0.592748
O O8 0.998887 0.712413 0.610167
O O9 0.799129 0.334754 0.802532
O O10 0.820550 0.333747 0.647906
O O11 0.630189 0.321935 0.667611
O O12 0.499223 0.204707 0.122883
O O13 0.651355 0.296026 0.137794
O O14 0.941311 0.570130 0.093901
O O15 0.500000 0.115222 0.250000
O O16 0.345648 0.802612 0.251725
O O17 0.000000 0.216076 0.250000
#
# Coordination Sequence:
#
# PCOD8130735 Si02
#       8
#     8   8   8   8   8   8   8   8
#     4   9  13  26  46  63  81 111 150 178 202 259
#     4  10  18  26  42  67  97 113 135 182 227 258
#     4   9  17  30  48  63  82 114 152 178 211 257
#     4  10  18  27  41  69  93 115 138 179 225 257
#     4   9  13  24  42  65  88 107 136 179 222 255
#     4   9  15  28  44  62  87 113 147 179 208 265
#     4   9  17  28  45  64  89 119 150 170 211 267
#     4   9  17  29  46  66  86 115 146 177 212 261
#
# _framework density 16.487463999999999
#
# number of rings (size 3 to 8) (size 9 to 14) (size 15 to 20)
#    0.000    2.750    5.000    0.375    0.000    0.500 
#    0.000    0.625    0.000    4.500    0.000    0.000 
#    0.000    0.000    0.000    0.000    0.000    0.000 
#
# Total GULP energy -396426.306691 kJ/mol
# GULP energy per Si atom -12388.322084 kJ/mol
# Density = 1.644994 g / cm^3
# Si number density = 16.487464 Si / 1000 Ang^3
#
#
#
# Elastic Constant Matrix: (Units=GPa)
#
#
# Indices 1 2 3 4 5 6 
#
# 1 75.3522 63.1722 13.9401 0.0000 -2.4379 0.0000
# 2 63.1722 105.1092 16.8600 0.0000 -4.1422 0.0000
# 3 13.9401 16.8600 42.9187 0.0000 -4.7884 0.0000
# 4 0.0000 0.0000 0.0000 11.4590 0.0000 3.5424
# 5 -2.4379 -4.1422 -4.7884 0.0000 9.7292 0.0000
# 6 0.0000 0.0000 0.0000 3.5424 0.0000 28.0032
#
#
#
# Elastic Compliance Matrix: (Units=1/GPa)
#
#
# Indices 1 2 3 4 5 6 
#
# 1 0.027025 -0.015862 -0.002692 0.000000 -0.001307 0.000000
# 2 -0.015862 0.019521 -0.002151 0.000000 0.003278 0.000000
# 3 -0.002692 -0.002151 0.026285 0.000000 0.011346 0.000000
# 4 0.000000 0.000000 0.000000 0.090819 0.000000 -0.011489
# 5 -0.001307 0.003278 0.011346 0.000000 0.109436 0.000000
# 6 0.000000 0.000000 0.000000 -0.011489 0.000000 0.037163
#
#
# Mechanical properties :
#
#
# Convention : Reuss Voigt Hill
#
# Bulk Modulus (GPa) = 31.82597 45.70274 38.76435
# Shear Modulus (GPa) = 13.80703 18.46547 16.13625
#
# Velocity S-wave (km/s) = 2.89697 3.35023 3.13181
# Velocity P-wave (km/s) = 5.52584 6.53798 6.05311
#
# Compressibility (1/GPa) = 0.03142088
#
# Stress axis : x y z
#
# Youngs Moduli (GPa) = 37.00300 51.22583 38.04417
#
# Poissons Ratio (x) = 0.81254 0.10243
# Poissons Ratio (y) = 0.58694 0.08183
# Poissons Ratio (z) = 0.09963 0.11019
#
# Static dielectric constant tensor:
#      x y z
#    x 3.058550 0.000000 -0.053520 
#    y 0.000000 3.319640 0.000000 
#    z -0.053520 0.000000 2.787660 
# 
# 
# High freq. dielectric constant tensor:
#      x y z
#    x 1.603990 0.000000 -0.010230 
#    y 0.000000 1.637270 0.000000 
#    z -0.010230 0.000000 1.602090 
# 
# From -- ./inp_files/206581.got.cif
#   From: 2010.06.25/outbox.cif.g09.slc.cpg/sg15_104_cif.got.tgz:206581.got - 2010.06.28 07:06:18.
