data_PCOD8130765
_publ_section_title
;
Structure prediction by ZEFSAII (Michael W. Deem and Ramdas Pophale) SiO2 
 PCOD8130765
Probable space group: C 2/C
;
_chemical_formula_sum "Si O2"
_cell_formula_units_Z 56
_cell_length_a 26.284808
_cell_length_b 12.069523
_cell_length_c 28.209241
_cell_angle_alpha 90.000000
_cell_angle_beta 158.363620
_cell_angle_gamma 90.000000
_cell_volume 3299.718830
_symmetry_space_group_name_H-M "C 2/C"
_symmetry_group_IT_number 15
_symmetry_cell_setting 'monoclinic'
loop_
_space_group_symop_operation_xyz
x,y,z
-x,y,1/2-z
-x,-y,-z
x,-y,1/2+z
1/2+x,1/2+y,z
1/2-x,1/2+y,1/2-z
1/2-x,1/2-y,-z
1/2+x,1/2-y,1/2+z
loop_
_atom_site_type_symbol
_atom_site_label
_atom_site_fract_x
_atom_site_fract_y
_atom_site_fract_z
Si Si1 0.446507 0.611174 0.402907
Si Si2 0.842647 0.599829 0.617488
Si Si3 0.763276 0.934452 0.375730
Si Si4 0.986595 0.660044 0.500699
Si Si5 0.273431 0.324648 0.666928
Si Si6 0.653099 0.363243 0.870484
Si Si7 0.827764 0.481944 0.797024
O O1 0.579873 0.538492 0.504218
O O2 0.482472 0.709131 0.471711
O O3 0.396301 0.665632 0.310746
O O4 0.332267 0.532496 0.327077
O O5 0.773281 0.533615 0.601710
O O6 0.758474 0.572540 0.496613
O O7 0.835758 0.731407 0.616662
O O8 0.000000 0.558627 0.750000
O O9 0.740655 0.804285 0.354221
O O10 0.663779 0.998628 0.252358
O O11 0.869631 0.626299 0.437612
O O12 0.923676 0.623252 0.394839
O O13 0.122870 0.590956 0.631636
O O14 0.310360 0.394439 0.651925
O O15 0.500000 0.404487 0.750000
#
# Coordination Sequence:
#
# PCOD8130765 Si02
#       7
#     8   8   8   8   8   8   8
#     4  10  18  31  46  68  90 126 157 193 230 279
#     4   9  18  26  39  61  89 123 157 189 219 267
#     4  10  18  28  44  63  92 124 160 186 225 272
#     4   9  19  31  45  66  93 123 158 191 235 279
#     4   9  17  27  46  61  92 129 157 181 224 279
#     4   9  16  26  39  61  88 123 160 186 214 263
#     4  10  19  31  46  66  90 124 159 196 232 277
#
# _framework density 16.971143000000001
#
# number of rings (size 3 to 8) (size 9 to 14) (size 15 to 20)
#    0.000    2.571    1.429    1.286    2.000    3.429 
#    0.000    0.000    0.000    0.000    0.000    0.000 
#    0.000    1.143    0.000    0.000    0.000    0.429 
#
# Total GULP energy -347021.814437 kJ/mol
# GULP energy per Si atom -12393.636230 kJ/mol
# Density = 1.693252 g / cm^3
# Si number density = 16.971143 Si / 1000 Ang^3
#
#
#
# Elastic Constant Matrix: (Units=GPa)
#
#
# Indices 1 2 3 4 5 6 
#
# 1 96.7639 26.0250 47.4384 0.0001 -11.1915 -0.0004
# 2 26.0250 24.2521 23.0994 -0.0273 5.1323 -0.0058
# 3 47.4384 23.0994 107.7114 -0.0114 -1.9563 -0.0029
# 4 0.0001 -0.0273 -0.0114 21.7852 0.0015 -5.0546
# 5 -11.1915 5.1323 -1.9563 0.0015 26.9137 0.0010
# 6 -0.0004 -0.0058 -0.0029 -5.0546 0.0010 18.7330
#
#
#
# Elastic Compliance Matrix: (Units=1/GPa)
#
#
# Indices 1 2 3 4 5 6 
#
# 1 0.018491 -0.018322 -0.004017 -0.000029 0.010891 -0.000014
# 2 -0.018322 0.073246 -0.008041 0.000101 -0.022171 0.000049
# 3 -0.004017 -0.008041 0.012792 -0.000004 0.000793 -0.000002
# 4 -0.000029 0.000101 -0.000004 0.048969 -0.000035 0.013213
# 5 0.010891 -0.022171 0.000793 -0.000035 0.045970 -0.000018
# 6 -0.000014 0.000049 -0.000002 0.013213 -0.000018 0.056947
#
#
# Mechanical properties :
#
#
# Convention : Reuss Voigt Hill
#
# Bulk Modulus (GPa) = 22.84718 46.87256 34.85987
# Shear Modulus (GPa) = 15.07094 22.29734 18.68414
#
# Velocity S-wave (km/s) = 2.98322 3.62862 3.32164
# Velocity P-wave (km/s) = 5.03565 6.72568 5.94107
#
# Compressibility (1/GPa) = 0.04376908
#
# Stress axis : x y z
#
# Youngs Moduli (GPa) = 54.08036 13.65264 78.17325
#
# Poissons Ratio (x) = 0.25014 0.31401
# Poissons Ratio (y) = 0.99084 0.62862
# Poissons Ratio (z) = 0.21723 0.10979
#
# Static dielectric constant tensor:
#      x y z
#    x 3.474000 0.000000 -0.063380 
#    y 0.000000 2.647380 -0.000010 
#    z -0.063380 -0.000010 3.449720 
# 
# 
# High freq. dielectric constant tensor:
#      x y z
#    x 1.649920 0.000000 -0.006880 
#    y 0.000000 1.581480 0.000000 
#    z -0.006880 0.000000 1.677840 
# 
# From -- ./inp_files/319543.got.cif
#   From: 2010.06.25/outbox.cif.g09.slc.cpg/sg15_160_cif.got.tgz:319543.got - 2010.06.28 07:06:18.
