data_PCOD8130999
_publ_section_title
;
Structure prediction by ZEFSAII (Michael W. Deem and Ramdas Pophale) SiO2 
 PCOD8130999
Probable space group: C 2/C
;
_chemical_formula_sum "Si O2"
_cell_formula_units_Z 44
_cell_length_a 18.923689
_cell_length_b 13.600514
_cell_length_c 9.455230
_cell_angle_alpha 90.000000
_cell_angle_beta 81.430899
_cell_angle_gamma 90.000000
_cell_volume 2406.344914
_symmetry_space_group_name_H-M "C 2/C"
_symmetry_group_IT_number 15
_symmetry_cell_setting 'monoclinic'
loop_
_space_group_symop_operation_xyz
x,y,z
-x,y,1/2-z
-x,-y,-z
x,-y,1/2+z
1/2+x,1/2+y,z
1/2-x,1/2+y,1/2-z
1/2-x,1/2-y,-z
1/2+x,1/2-y,1/2+z
loop_
_atom_site_type_symbol
_atom_site_label
_atom_site_fract_x
_atom_site_fract_y
_atom_site_fract_z
Si Si1 0.459168 0.310152 0.453914
Si Si2 0.402948 0.391403 0.199791
Si Si3 0.917005 0.113033 0.243697
Si Si4 0.948072 0.373140 0.523748
Si Si5 0.169564 0.778353 0.495205
Si Si6 0.000000 0.493997 0.250000
O O1 0.415643 0.311682 0.320120
O O2 0.527854 0.383911 0.424391
O O3 0.404801 0.351538 0.587093
O O4 0.484248 0.200151 0.482874
O O5 0.394791 0.499452 0.267188
O O6 0.333766 0.360479 0.128824
O O7 0.866281 0.179179 0.353718
O O8 0.000000 0.132780 0.250000
O O9 0.873002 0.316904 0.546302
O O10 0.952612 0.429338 0.372145
O O11 0.948358 0.442514 0.662493
O O12 0.250000 0.750000 0.500000
#
# Coordination Sequence:
#
# PCOD8130999 Si02
#       6
#     8   8   8   8   8   4
#     4  10  18  30  58  91 113 133 180 242 284 322
#     4  10  19  32  58  89 119 136 180 233 286 332
#     4  12  18  33  62  91 111 141 186 231 279 337
#     4  10  19  35  55  80 107 140 184 230 279 306
#     4  11  24  40  54  78 122 155 179 221 286 345
#     4  10  20  34  60  82  98 136 198 244 254 310
#
# _framework density 18.284993
#
# number of rings (size 3 to 8) (size 9 to 14) (size 15 to 20)
#    0.000    1.455    5.455    4.909    0.000    0.000 
#    3.273    0.909    0.000    0.000    0.000    0.000 
#    0.000    0.000    0.000    0.000    0.000    0.000 
#
# Total GULP energy -272750.524594 kJ/mol
# GULP energy per Si atom -12397.751118 kJ/mol
# Density = 1.824338 g / cm^3
# Si number density = 18.284993 Si / 1000 Ang^3
#
#
#
# Elastic Constant Matrix: (Units=GPa)
#
#
# Indices 1 2 3 4 5 6 
#
# 1 106.4955 37.7341 56.1979 0.0000 5.3091 0.0000
# 2 37.7341 92.8462 47.0116 0.0000 -0.8170 0.0000
# 3 56.1979 47.0116 116.1703 0.0000 13.3814 0.0000
# 4 0.0000 0.0000 0.0000 35.8351 0.0000 7.4002
# 5 5.3091 -0.8170 13.3814 0.0000 16.2211 0.0000
# 6 0.0000 0.0000 0.0000 7.4002 0.0000 18.9446
#
#
#
# Elastic Compliance Matrix: (Units=1/GPa)
#
#
# Indices 1 2 3 4 5 6 
#
# 1 0.013112 -0.002671 -0.005251 0.000000 -0.000094 0.000000
# 2 -0.002671 0.014594 -0.005303 0.000000 0.005984 0.000000
# 3 -0.005251 -0.005303 0.014506 0.000000 -0.010515 0.000000
# 4 0.000000 0.000000 0.000000 0.030354 0.000000 -0.011857
# 5 -0.000094 0.005984 -0.010515 0.000000 0.070654 0.000000
# 6 0.000000 0.000000 0.000000 -0.011857 0.000000 0.057417
#
#
# Mechanical properties :
#
#
# Convention : Reuss Voigt Hill
#
# Bulk Modulus (GPa) = 63.44759 66.37769 64.91264
# Shear Modulus (GPa) = 21.52007 25.83806 23.67906
#
# Velocity S-wave (km/s) = 3.43436 3.76317 3.60251
# Velocity P-wave (km/s) = 7.10641 7.43387 7.27198
#
# Compressibility (1/GPa) = 0.01576104
#
# Stress axis : x y z
#
# Youngs Moduli (GPa) = 76.26411 68.52253 68.93868
#
# Poissons Ratio (x) = 0.18301 0.36203
# Poissons Ratio (y) = 0.20369 0.36558
# Poissons Ratio (z) = 0.40050 0.36338
#
# Static dielectric constant tensor:
#      x y z
#    x 3.002010 0.000000 0.292450 
#    y 0.000000 3.503420 0.000000 
#    z 0.292450 0.000000 3.654400 
# 
# 
# High freq. dielectric constant tensor:
#      x y z
#    x 1.650940 0.000000 0.033000 
#    y 0.000000 1.716350 0.000000 
#    z 0.033000 0.000000 1.726290 
# 
# From -- ./inp_files/47006.got.cif
#   From: 2010.06.25/outbox.cif.g09.slc.cpg/sg15_24_cif.got.tgz:47006.got - 2010.06.28 07:06:18.
