data_PCOD8130948
_publ_section_title
;
Structure prediction by ZEFSAII (Michael W. Deem and Ramdas Pophale) SiO2 
 PCOD8130948
Probable space group: C 2/C
;
_chemical_formula_sum "Si O2"
_cell_formula_units_Z 60
_cell_length_a 15.774027
_cell_length_b 24.076448
_cell_length_c 13.650295
_cell_angle_alpha 90.000000
_cell_angle_beta 38.948642
_cell_angle_gamma 90.000000
_cell_volume 3258.874729
_symmetry_space_group_name_H-M "C 2/C"
_symmetry_group_IT_number 15
_symmetry_cell_setting 'monoclinic'
loop_
_space_group_symop_operation_xyz
x,y,z
-x,y,1/2-z
-x,-y,-z
x,-y,1/2+z
1/2+x,1/2+y,z
1/2-x,1/2+y,1/2-z
1/2-x,1/2-y,-z
1/2+x,1/2-y,1/2+z
loop_
_atom_site_type_symbol
_atom_site_label
_atom_site_fract_x
_atom_site_fract_y
_atom_site_fract_z
Si Si1 0.645506 0.083239 0.946422
Si Si2 0.056694 0.935745 0.301449
Si Si3 0.183213 0.296459 0.682047
Si Si4 0.500000 0.981986 0.750000
Si Si5 0.716791 0.020458 0.691409
Si Si6 0.116527 0.702256 0.021339
Si Si7 0.500931 0.554811 0.364738
Si Si8 0.327873 0.399956 0.632973
O O1 0.799150 0.090884 0.842384
O O2 0.637730 0.048244 0.853396
O O3 0.556842 0.055873 0.111179
O O4 0.600436 0.146668 0.970732
O O5 0.000000 0.954730 0.250000
O O6 0.953459 0.893590 0.445224
O O7 0.065354 0.996147 0.345792
O O8 0.181015 0.313199 0.569326
O O9 0.288518 0.247964 0.613784
O O10 0.225046 0.349365 0.710393
O O11 0.034646 0.273306 0.839689
O O12 0.617460 0.021507 0.686869
O O13 0.848968 0.056892 0.545436
O O14 0.745724 0.956098 0.687104
O O15 0.500000 0.565808 0.250000
O O16 0.600697 0.600374 0.323911
#
# Coordination Sequence:
#
# PCOD8130948 Si02
#       8
#     8   8   8   4   8   8   8   8
#     4  12  21  37  54  80 118 154 195 233 283 344
#     4  10  18  30  53  80 110 148 182 230 277 340
#     4  10  22  38  58  83 117 153 193 236 290 344
#     4  12  24  34  52  78 120 160 188 238 284 338
#     4  11  22  36  54  83 114 157 195 229 288 351
#     4  10  22  38  55  84 118 152 192 238 284 346
#     4  10  19  35  54  82 115 145 191 239 283 344
#     4  11  19  35  57  84 113 146 191 232 290 345
#
# _framework density 18.411263000000002
#
# number of rings (size 3 to 8) (size 9 to 14) (size 15 to 20)
#    0.000    1.333    2.667    6.800    1.867    0.000 
#    0.000    0.000    0.000    0.000    1.733    1.867 
#    0.000    0.000    0.000    0.000    0.000    0.000 
#
# Total GULP energy -371857.548938 kJ/mol
# GULP energy per Si atom -12395.251631 kJ/mol
# Density = 1.836936 g / cm^3
# Si number density = 18.411263 Si / 1000 Ang^3
#
#
#
# Elastic Constant Matrix: (Units=GPa)
#
#
# Indices 1 2 3 4 5 6 
#
# 1 102.7421 39.2060 32.0116 -0.0062 -8.9422 0.0037
# 2 39.2060 76.7802 32.7381 -0.0022 -1.8445 0.0020
# 3 32.0116 32.7381 96.8508 -0.0051 -0.8027 0.0066
# 4 -0.0062 -0.0022 -0.0051 25.4387 0.0069 -6.8960
# 5 -8.9422 -1.8445 -0.8027 0.0069 31.9471 -0.0059
# 6 0.0037 0.0020 0.0066 -6.8960 -0.0059 29.8367
#
#
#
# Elastic Compliance Matrix: (Units=1/GPa)
#
#
# Indices 1 2 3 4 5 6 
#
# 1 0.012838 -0.005468 -0.002368 0.000001 0.003218 0.000000
# 2 -0.005468 0.017565 -0.004135 0.000000 -0.000620 0.000000
# 3 -0.002368 -0.004135 0.012501 0.000001 -0.000587 -0.000002
# 4 0.000001 0.000000 0.000001 0.041938 -0.000007 0.009693
# 5 0.003218 -0.000620 -0.000587 -0.000007 0.032152 0.000005
# 6 0.000000 0.000000 -0.000002 0.009693 0.000005 0.035756
#
#
# Mechanical properties :
#
#
# Convention : Reuss Voigt Hill
#
# Bulk Modulus (GPa) = 52.74173 53.80938 53.27556
# Shear Modulus (GPa) = 27.32066 28.93900 28.12983
#
# Velocity S-wave (km/s) = 3.85633 3.96891 3.91303
# Velocity P-wave (km/s) = 6.96685 7.09174 7.02957
#
# Compressibility (1/GPa) = 0.01896032
#
# Stress axis : x y z
#
# Youngs Moduli (GPa) = 77.89565 56.93246 79.99508
#
# Poissons Ratio (x) = 0.31132 0.18944
# Poissons Ratio (y) = 0.42595 0.33079
# Poissons Ratio (z) = 0.18446 0.23542
#
# Static dielectric constant tensor:
#      x y z
#    x 3.353400 -0.000010 -0.206580 
#    y -0.000010 3.043790 0.000030 
#    z -0.206580 0.000030 3.443750 
# 
# 
# High freq. dielectric constant tensor:
#      x y z
#    x 1.714990 0.000000 -0.021000 
#    y 0.000000 1.673670 0.000000 
#    z -0.021000 0.000000 1.718220 
# 
# From -- ./inp_files/163538.got.cif
#   From: 2010.06.25/outbox.cif.g09.slc.cpg/sg15_82_cif.got.tgz:163538.got - 2010.06.28 07:06:18.
