data_PCOD8130070
_publ_section_title
;
Structure prediction by ZEFSAII (Michael W. Deem and Ramdas Pophale) SiO2 
 PCOD8130070
Probable space group: C 2/C
;
_chemical_formula_sum "Si O2"
_cell_formula_units_Z 44
_cell_length_a 17.596584
_cell_length_b 22.310249
_cell_length_c 11.919833
_cell_angle_alpha 90.000000
_cell_angle_beta 30.408561
_cell_angle_gamma 90.000000
_cell_volume 2368.607151
_symmetry_space_group_name_H-M "C 2/C"
_symmetry_group_IT_number 15
_symmetry_cell_setting 'monoclinic'
loop_
_space_group_symop_operation_xyz
x,y,z
-x,y,1/2-z
-x,-y,-z
x,-y,1/2+z
1/2+x,1/2+y,z
1/2-x,1/2+y,1/2-z
1/2-x,1/2-y,-z
1/2+x,1/2-y,1/2+z
loop_
_atom_site_type_symbol
_atom_site_label
_atom_site_fract_x
_atom_site_fract_y
_atom_site_fract_z
Si Si1 0.990559 0.621679 0.537072
Si Si2 0.615819 0.960441 0.513992
Si Si3 0.123581 0.287653 0.495745
Si Si4 0.500000 0.923959 0.250000
Si Si5 0.643085 0.377313 0.216217
Si Si6 0.324243 0.648273 0.082936
O O1 0.940184 0.560955 0.536918
O O2 0.934805 0.681009 0.544216
O O3 0.922984 0.616673 0.750552
O O4 0.169206 0.625276 0.331092
O O5 0.614804 0.032335 0.533986
O O6 0.783176 0.936797 0.325010
O O7 0.500000 0.929115 0.750000
O O8 0.279241 0.318174 0.332583
O O9 0.162319 0.219493 0.425031
O O10 0.000000 0.294941 0.750000
O O11 0.466154 0.378277 0.471496
O O12 0.666448 0.375746 0.054302
#
# Coordination Sequence:
#
# PCOD8130070 Si02
#       6
#     8   8   8   4   8   8
#     4  11  20  35  53  77 101 136 172 211 243 306
#     4   9  18  34  55  74  97 127 171 218 254 289
#     4  11  18  30  51  80 109 134 160 202 260 305
#     4  10  22  36  56  70  94 142 190 202 238 296
#     4  10  17  27  47  82 111 124 154 210 266 306
#     4  11  18  27  50  82 113 125 157 209 267 300
#
# _framework density 18.576319000000002
#
# number of rings (size 3 to 8) (size 9 to 14) (size 15 to 20)
#    0.545    1.091    5.455    3.273    0.000    0.000 
#    0.000    1.818    0.000   10.909    0.000    0.000 
#    0.000    0.000    0.000    0.000    0.000    0.000 
#
# Total GULP energy -272582.339847 kJ/mol
# GULP energy per Si atom -12390.106357 kJ/mol
# Density = 1.853404 g / cm^3
# Si number density = 18.576319 Si / 1000 Ang^3
#
#
#
# Elastic Constant Matrix: (Units=GPa)
#
#
# Indices 1 2 3 4 5 6 
#
# 1 132.5820 37.9602 51.0458 -0.0134 -3.3220 0.0053
# 2 37.9602 69.3032 15.9483 0.0026 2.3428 -0.0004
# 3 51.0458 15.9483 46.5510 -0.0024 -16.6446 0.0023
# 4 -0.0134 0.0026 -0.0024 2.4756 0.0091 -0.6443
# 5 -3.3220 2.3428 -16.6446 0.0091 44.4338 -0.0047
# 6 0.0053 -0.0004 0.0023 -0.6443 -0.0047 9.0279
#
#
#
# Elastic Compliance Matrix: (Units=1/GPa)
#
#
# Indices 1 2 3 4 5 6 
#
# 1 0.015158 -0.004231 -0.016958 0.000089 -0.004996 -0.000001
# 2 -0.004231 0.017269 -0.001981 -0.000036 -0.001969 0.000000
# 3 -0.016958 -0.001981 0.046579 -0.000105 0.016285 -0.000001
# 4 0.000089 -0.000036 -0.000105 0.411589 -0.000112 0.029376
# 5 -0.004996 -0.001969 0.016285 -0.000112 0.028336 0.000006
# 6 -0.000001 0.000000 -0.000001 0.029376 0.000006 0.112864
#
#
# Mechanical properties :
#
#
# Convention : Reuss Voigt Hill
#
# Bulk Modulus (GPa) = 30.61314 50.92720 40.77017
# Shear Modulus (GPa) = 7.25664 20.75293 14.00479
#
# Velocity S-wave (km/s) = 1.97860 3.34604 2.74871
# Velocity P-wave (km/s) = 4.66211 6.51173 5.66294
#
# Compressibility (1/GPa) = 0.03266571
#
# Stress axis : x y z
#
# Youngs Moduli (GPa) = 65.97181 57.90622 21.46895
#
# Poissons Ratio (x) = 0.24501 0.36408
# Poissons Ratio (y) = 0.27914 0.04252
# Poissons Ratio (z) = 1.11878 0.11469
#
# Static dielectric constant tensor:
#      x y z
#    x 3.578760 -0.000040 -0.299410 
#    y -0.000040 3.353090 0.000050 
#    z -0.299410 0.000050 3.220730 
# 
# 
# High freq. dielectric constant tensor:
#      x y z
#    x 1.728040 0.000000 -0.017920 
#    y 0.000000 1.715980 0.000000 
#    z -0.017920 0.000000 1.676310 
# 
# From -- ./inp_files/107880.got.cif
#   From: 2010.06.25/outbox.cif.g09.slc.cpg/sg15_54_cif.got.tgz:107880.got - 2010.06.28 07:06:18.
