data_PCOD8130262
_publ_section_title
;
Structure prediction by ZEFSAII (Michael W. Deem and Ramdas Pophale) SiO2 
 PCOD8130262
Probable space group: C 2/C
;
_chemical_formula_sum "Si O2"
_cell_formula_units_Z 64
_cell_length_a 27.823478
_cell_length_b 12.149526
_cell_length_c 15.349264
_cell_angle_alpha 90.000000
_cell_angle_beta 42.694045
_cell_angle_gamma 90.000000
_cell_volume 3518.368675
_symmetry_space_group_name_H-M "C 2/C"
_symmetry_group_IT_number 15
_symmetry_cell_setting 'monoclinic'
loop_
_space_group_symop_operation_xyz
x,y,z
-x,y,1/2-z
-x,-y,-z
x,-y,1/2+z
1/2+x,1/2+y,z
1/2-x,1/2+y,1/2-z
1/2-x,1/2-y,-z
1/2+x,1/2-y,1/2+z
loop_
_atom_site_type_symbol
_atom_site_label
_atom_site_fract_x
_atom_site_fract_y
_atom_site_fract_z
Si Si1 0.320197 0.527177 0.010917
Si Si2 0.840212 0.783445 0.799092
Si Si3 0.684087 0.142764 0.005056
Si Si4 0.983441 0.088084 0.597302
Si Si5 0.628411 0.294454 0.935797
Si Si6 0.560649 0.407548 0.721790
Si Si7 0.286788 0.077812 0.956259
Si Si8 0.840359 0.813583 0.324911
O O1 0.326821 0.599111 0.089688
O O2 0.241932 0.479815 0.095156
O O3 0.376154 0.426611 0.932734
O O4 0.340835 0.600865 0.901962
O O5 0.837440 0.758284 0.700700
O O6 0.913915 0.841081 0.727125
O O7 0.840681 0.671155 0.853963
O O8 0.776852 0.866058 0.905873
O O9 0.635142 0.190404 0.992528
O O10 0.766266 0.172566 0.870909
O O11 0.659465 0.193126 0.131057
O O12 0.675855 0.010911 0.029206
O O13 0.910767 0.158699 0.673581
O O14 0.046551 0.174526 0.530123
O O15 0.974272 0.021691 0.699244
O O16 0.000000 0.000000 0.500000
O O17 0.500000 0.341059 0.750000
#
# Coordination Sequence:
#
# PCOD8130262 Si02
#       8
#     8   8   8   8   8   8   8   8
#     4   8  16  29  52  76 106 135 177 218 278 329
#     4  10  21  34  53  80 112 140 189 235 288 339
#     4   9  18  34  57  79 112 150 197 230 275 343
#     4  11  20  32  53  87 123 141 172 241 306 332
#     4  11  20  31  54  93 110 136 188 245 284 336
#     4  10  17  31  51  74 107 146 172 216 278 352
#     4   9  19  38  53  72 108 158 185 225 282 347
#     4   8  17  33  53  80 109 148 181 227 282 347
#
# _framework density 18.190249000000001
#
# number of rings (size 3 to 8) (size 9 to 14) (size 15 to 20)
#    0.000    2.500    2.500    1.500    0.000    1.000 
#    0.000    0.000    2.750    0.750    0.000    0.000 
#    0.000    0.000    0.000    0.000    0.000    0.000 
#
# Total GULP energy -396439.908752 kJ/mol
# GULP energy per Si atom -12388.747148 kJ/mol
# Density = 1.814885 g / cm^3
# Si number density = 18.190249 Si / 1000 Ang^3
#
#
#
# Elastic Constant Matrix: (Units=GPa)
#
#
# Indices 1 2 3 4 5 6 
#
# 1 87.5450 38.3451 34.5869 0.0000 -1.6597 0.0000
# 2 38.3451 103.3104 34.3171 0.0000 -0.0911 0.0000
# 3 34.5869 34.3171 66.1128 0.0000 -2.6712 0.0000
# 4 0.0000 0.0000 0.0000 24.3072 0.0000 1.2087
# 5 -1.6597 -0.0911 -2.6712 0.0000 24.3917 0.0000
# 6 0.0000 0.0000 0.0000 1.2087 0.0000 30.0676
#
#
#
# Elastic Compliance Matrix: (Units=1/GPa)
#
#
# Indices 1 2 3 4 5 6 
#
# 1 0.015486 -0.003699 -0.006167 0.000000 0.000365 0.000000
# 2 -0.003699 0.012589 -0.004628 0.000000 -0.000712 0.000000
# 3 -0.006167 -0.004628 0.020829 0.000000 0.001844 0.000000
# 4 0.000000 0.000000 0.000000 0.041222 0.000000 -0.001657
# 5 0.000365 -0.000712 0.001844 0.000000 0.041222 0.000000
# 6 0.000000 0.000000 0.000000 -0.001657 0.000000 0.033325
#
#
# Mechanical properties :
#
#
# Convention : Reuss Voigt Hill
#
# Bulk Modulus (GPa) = 50.21120 52.38514 51.29817
# Shear Modulus (GPa) = 24.96251 25.73456 25.34854
#
# Velocity S-wave (km/s) = 3.70848 3.76539 3.73704
# Velocity P-wave (km/s) = 6.78236 6.91124 6.84710
#
# Compressibility (1/GPa) = 0.01991587
#
# Stress axis : x y z
#
# Youngs Moduli (GPa) = 64.57361 79.43234 48.01075
#
# Poissons Ratio (x) = 0.29383 0.29607
# Poissons Ratio (y) = 0.23887 0.22221
# Poissons Ratio (z) = 0.39821 0.36763
#
# Static dielectric constant tensor:
#      x y z
#    x 3.471250 0.000000 -0.158220 
#    y 0.000000 3.542570 0.000000 
#    z -0.158220 0.000000 3.226500 
# 
# 
# High freq. dielectric constant tensor:
#      x y z
#    x 1.696210 0.000000 -0.004600 
#    y 0.000000 1.687200 0.000000 
#    z -0.004600 0.000000 1.676420 
# 
# From -- ./inp_files/181746.got.cif
#   From: 2010.06.25/outbox.cif.g09.slc.cpg/sg15_91_cif.got.tgz:181746.got - 2010.06.28 07:06:18.
