data_PCOD8130825
_publ_section_title
;
Structure prediction by ZEFSAII (Michael W. Deem and Ramdas Pophale) SiO2 
 PCOD8130825
Probable space group: C 2/C
;
_chemical_formula_sum "Si O2"
_cell_formula_units_Z 56
_cell_length_a 17.249261
_cell_length_b 24.632951
_cell_length_c 12.586341
_cell_angle_alpha 90.000000
_cell_angle_beta 35.826211
_cell_angle_gamma 90.000000
_cell_volume 3130.301809
_symmetry_space_group_name_H-M "C 2/C"
_symmetry_group_IT_number 15
_symmetry_cell_setting 'monoclinic'
loop_
_space_group_symop_operation_xyz
x,y,z
-x,y,1/2-z
-x,-y,-z
x,-y,1/2+z
1/2+x,1/2+y,z
1/2-x,1/2+y,1/2-z
1/2-x,1/2-y,-z
1/2+x,1/2-y,1/2+z
loop_
_atom_site_type_symbol
_atom_site_label
_atom_site_fract_x
_atom_site_fract_y
_atom_site_fract_z
Si Si1 0.770779 0.039497 0.939349
Si Si2 0.018864 0.192262 0.601413
Si Si3 0.285313 0.765099 0.843018
Si Si4 0.596533 0.042390 0.942140
Si Si5 0.490174 0.423936 0.472064
Si Si6 0.413706 0.124165 0.245613
Si Si7 0.848995 0.023373 0.543443
O O1 0.654713 0.019426 0.989386
O O2 0.886213 0.067005 0.744022
O O3 0.705587 0.083194 0.091564
O O4 0.836991 0.989109 0.930864
O O5 0.144327 0.232233 0.438658
O O6 0.000000 0.182280 0.750000
O O7 0.889242 0.218984 0.689586
O O8 0.053472 0.137481 0.498988
O O9 0.352168 0.823740 0.758756
O O10 0.250000 0.750000 0.000000
O O11 0.713670 0.052226 0.728910
O O12 0.515441 0.097537 0.049472
O O13 0.500000 0.000000 0.000000
O O14 0.370758 0.465093 0.577980
O O15 0.533450 0.436192 0.547192
O O16 0.500000 0.143417 0.250000
#
# Coordination Sequence:
#
# PCOD8130825 Si02
#       7
#     8   8   8   8   8   8   8
#     4  10  18  30  48  67  97 135 169 209 255 297
#     4  10  19  30  46  66  96 128 168 203 250 305
#     4  10  19  30  47  70  97 132 173 208 245 311
#     4  10  20  30  45  70  99 136 172 209 249 311
#     4  10  20  31  48  69  95 133 169 211 254 307
#     4  10  18  29  47  69 100 138 171 204 252 302
#     4  10  19  31  46  67  94 133 171 212 250 305
#
# _framework density 17.889648000000001
#
# number of rings (size 3 to 8) (size 9 to 14) (size 15 to 20)
#    0.000    2.000    1.429    5.143    0.000    2.286 
#    0.000    0.000    0.000    0.000    0.000    0.000 
#    0.000    1.143   17.143    3.714    0.000    1.143 
#
# Total GULP energy -346892.510195 kJ/mol
# GULP energy per Si atom -12389.018221 kJ/mol
# Density = 1.784893 g / cm^3
# Si number density = 17.889648 Si / 1000 Ang^3
#
#
#
# Elastic Constant Matrix: (Units=GPa)
#
#
# Indices 1 2 3 4 5 6 
#
# 1 67.9340 22.8697 4.6962 0.0016 -3.2423 0.0047
# 2 22.8697 72.8088 13.6240 0.0008 -5.8018 0.0029
# 3 4.6962 13.6240 37.6823 0.0057 -16.7845 -0.0012
# 4 0.0016 0.0008 0.0057 28.9832 -0.0039 -4.8625
# 5 -3.2423 -5.8018 -16.7845 -0.0039 24.8625 -0.0003
# 6 0.0047 0.0029 -0.0012 -4.8625 -0.0003 29.8531
#
#
#
# Elastic Compliance Matrix: (Units=1/GPa)
#
#
# Indices 1 2 3 4 5 6 
#
# 1 0.016486 -0.005146 0.000327 -0.000001 0.001170 -0.000002
# 2 -0.005146 0.016339 -0.005529 0.000001 -0.000591 -0.000001
# 3 0.000327 -0.005529 0.039955 -0.000004 0.025725 0.000002
# 4 -0.000001 0.000001 -0.000004 0.035472 0.000003 0.005778
# 5 0.001170 -0.000591 0.025725 0.000003 0.057603 0.000002
# 6 -0.000002 -0.000001 0.000002 0.005778 0.000002 0.034438
#
#
# Mechanical properties :
#
#
# Convention : Reuss Voigt Hill
#
# Bulk Modulus (GPa) = 19.20032 28.97834 24.08933
# Shear Modulus (GPa) = 20.97756 25.88877 23.43316
#
# Velocity S-wave (km/s) = 3.42805 3.80825 3.62314
# Velocity P-wave (km/s) = 5.14049 5.96411 5.56755
#
# Compressibility (1/GPa) = 0.05208246
#
# Stress axis : x y z
#
# Youngs Moduli (GPa) = 60.65803 61.20471 25.02841
#
# Poissons Ratio (x) = 0.31498 -0.00819
# Poissons Ratio (y) = 0.31217 0.13839
# Poissons Ratio (z) = -0.01984 0.33841
#
# Static dielectric constant tensor:
#      x y z
#    x 3.635470 0.000000 -0.355380 
#    y 0.000000 3.398320 0.000010 
#    z -0.355380 0.000010 3.221960 
# 
# 
# High freq. dielectric constant tensor:
#      x y z
#    x 1.690260 0.000000 -0.045530 
#    y 0.000000 1.667430 0.000000 
#    z -0.045530 0.000000 1.667960 
# 
# From -- ./inp_files/107927.got.cif
#   From: 2010.06.25/outbox.cif.g09.slc.cpg/sg15_54_cif.got.tgz:107927.got - 2010.06.28 07:06:18.
