data_PCOD8130299
_publ_section_title
;
Structure prediction by ZEFSAII (Michael W. Deem and Ramdas Pophale) SiO2 
 PCOD8130299
Probable space group: C 2/C
;
_chemical_formula_sum "Si O2"
_cell_formula_units_Z 56
_cell_length_a 18.917032
_cell_length_b 22.382657
_cell_length_c 8.929207
_cell_angle_alpha 90.000000
_cell_angle_beta 132.341570
_cell_angle_gamma 90.000000
_cell_volume 2794.510634
_symmetry_space_group_name_H-M "C 2/C"
_symmetry_group_IT_number 15
_symmetry_cell_setting 'monoclinic'
loop_
_space_group_symop_operation_xyz
x,y,z
-x,y,1/2-z
-x,-y,-z
x,-y,1/2+z
1/2+x,1/2+y,z
1/2-x,1/2+y,1/2-z
1/2-x,1/2-y,-z
1/2+x,1/2-y,1/2+z
loop_
_atom_site_type_symbol
_atom_site_label
_atom_site_fract_x
_atom_site_fract_y
_atom_site_fract_z
Si Si1 0.248055 0.081796 0.716258
Si Si2 0.230114 0.814446 0.649743
Si Si3 0.659326 0.695565 0.712833
Si Si4 0.127899 0.579354 0.118125
Si Si5 0.544874 0.135885 0.478696
Si Si6 0.539160 0.729724 0.972055
Si Si7 0.294890 0.994923 0.024447
O O1 0.183474 0.140771 0.637035
O O2 0.228300 0.049459 0.528984
O O3 0.359914 0.097395 0.885637
O O4 0.226217 0.034981 0.819854
O O5 0.294927 0.756984 0.780049
O O6 0.204335 0.818323 0.438283
O O7 0.286291 0.873378 0.773184
O O8 0.133724 0.811384 0.612140
O O9 0.544393 0.701820 0.545244
O O10 0.142522 0.536089 0.279015
O O11 0.026660 0.611007 0.997287
O O12 0.129193 0.542368 0.966329
O O13 0.500000 0.134031 0.250000
O O14 0.568040 0.203497 0.562417
O O15 0.500000 0.734155 0.750000
#
# Coordination Sequence:
#
# PCOD8130299 Si02
#       7
#     8   8   8   8   8   8   8
#     4  11  21  37  55  79 112 143 184 222 268 323
#     4  10  17  31  56  83 109 140 176 228 273 312
#     4  10  17  31  56  83 109 140 176 228 273 312
#     4  11  21  37  55  79 112 143 184 222 268 323
#     4  11  18  30  55  85 111 140 180 222 264 327
#     4   9  18  28  52  88 111 136 177 222 276 319
#     4  10  24  37  54  77 110 154 182 217 266 325
#
# _framework density 20.039287999999999
#
# number of rings (size 3 to 8) (size 9 to 14) (size 15 to 20)
#    0.000    1.714    5.714    0.000    0.000    4.000 
#    0.000    0.714    0.000    6.000    0.000    0.000 
#    0.000    0.000    0.000    0.000    0.000    0.000 
#
# Total GULP energy -347180.623366 kJ/mol
# GULP energy per Si atom -12399.307977 kJ/mol
# Density = 1.999368 g / cm^3
# Si number density = 20.039288 Si / 1000 Ang^3
#
#
#
# Elastic Constant Matrix: (Units=GPa)
#
#
# Indices 1 2 3 4 5 6 
#
# 1 133.9308 70.1024 35.4939 0.0000 10.0922 0.0000
# 2 70.1024 132.7888 32.3582 0.0000 -1.7588 0.0000
# 3 35.4939 32.3582 32.4086 0.0000 -7.8205 0.0000
# 4 0.0000 0.0000 0.0000 5.8428 0.0000 -9.8929
# 5 10.0922 -1.7588 -7.8205 0.0000 31.4377 0.0000
# 6 0.0000 0.0000 0.0000 -9.8929 0.0000 39.6052
#
#
#
# Elastic Compliance Matrix: (Units=1/GPa)
#
#
# Indices 1 2 3 4 5 6 
#
# 1 0.013570 -0.004218 -0.012510 0.000000 -0.007704 0.000000
# 2 -0.004218 0.011387 -0.006670 0.000000 0.000332 0.000000
# 3 -0.012510 -0.006670 0.055423 0.000000 0.017430 0.000000
# 4 0.000000 0.000000 0.000000 0.296592 0.000000 0.074085
# 5 -0.007704 0.000332 0.017430 0.000000 0.038637 0.000000
# 6 0.000000 0.000000 0.000000 0.074085 0.000000 0.043755
#
#
# Mechanical properties :
#
#
# Convention : Reuss Voigt Hill
#
# Bulk Modulus (GPa) = 29.77586 63.89303 46.83444
# Shear Modulus (GPa) = 9.66457 26.12206 17.89331
#
# Velocity S-wave (km/s) = 2.19847 3.61438 2.99140
# Velocity P-wave (km/s) = 4.61902 7.02648 5.94587
#
# Compressibility (1/GPa) = 0.03358425
#
# Stress axis : x y z
#
# Youngs Moduli (GPa) = 73.69214 87.81852 18.04312
#
# Poissons Ratio (x) = 0.37038 0.22572
# Poissons Ratio (y) = 0.31080 0.12035
# Poissons Ratio (z) = 0.92188 0.58578
#
# Static dielectric constant tensor:
#      x y z
#    x 3.834860 0.000000 -0.086530 
#    y 0.000000 3.875350 0.000000 
#    z -0.086530 0.000000 3.180810 
# 
# 
# High freq. dielectric constant tensor:
#      x y z
#    x 1.779120 0.000000 -0.010720 
#    y 0.000000 1.796830 0.000000 
#    z -0.010720 0.000000 1.731510 
# 
# From -- ./inp_files/50323.got.cif
#   From: 2010.06.25/outbox.cif.g09.slc.cpg/sg15_26_cif.got.tgz:50323.got - 2010.06.28 07:06:18.
