data_PCOD8130110
_publ_section_title
;
Structure prediction by ZEFSAII (Michael W. Deem and Ramdas Pophale) SiO2 
 PCOD8130110
Probable space group: C 2/C
;
_chemical_formula_sum "Si O2"
_cell_formula_units_Z 48
_cell_length_a 15.053907
_cell_length_b 21.397962
_cell_length_c 13.808856
_cell_angle_alpha 90.000000
_cell_angle_beta 140.050019
_cell_angle_gamma 90.000000
_cell_volume 2856.239356
_symmetry_space_group_name_H-M "C 2/C"
_symmetry_group_IT_number 15
_symmetry_cell_setting 'monoclinic'
loop_
_space_group_symop_operation_xyz
x,y,z
-x,y,1/2-z
-x,-y,-z
x,-y,1/2+z
1/2+x,1/2+y,z
1/2-x,1/2+y,1/2-z
1/2-x,1/2-y,-z
1/2+x,1/2-y,1/2+z
loop_
_atom_site_type_symbol
_atom_site_label
_atom_site_fract_x
_atom_site_fract_y
_atom_site_fract_z
Si Si1 0.784622 0.957372 0.809683
Si Si2 0.327030 0.616656 0.009181
Si Si3 0.897869 0.249068 0.077374
Si Si4 0.663497 0.871242 0.565706
Si Si5 0.423969 0.947164 0.284700
Si Si6 0.006422 0.008790 0.864161
O O1 0.739306 0.889437 0.729739
O O2 0.646635 0.991604 0.730434
O O3 0.894458 0.946458 0.988636
O O4 0.855053 0.001988 0.786027
O O5 0.415053 0.678506 0.050929
O O6 0.430511 0.560090 0.083368
O O7 0.279719 0.620805 0.080739
O O8 0.190637 0.606872 0.829889
O O9 0.900823 0.300888 0.993594
O O10 0.000000 0.267426 0.250000
O O11 0.750000 0.250000 0.000000
O O12 0.538007 0.920130 0.452268
O O13 0.500000 0.967628 0.250000
O O14 0.000000 0.036530 0.750000
#
# Coordination Sequence:
#
# PCOD8130110 Si02
#       6
#     8   8   8   8   8   8
#     4  10  20  29  48  70  93 135 169 199 246 298
#     4   9  17  29  48  68 100 141 153 191 246 295
#     4  10  19  28  45  71 101 142 167 184 240 311
#     4  10  17  29  43  67 100 131 164 196 231 301
#     4   9  18  32  46  67 100 135 167 200 245 286
#     4  10  18  32  47  69 100 129 163 205 248 291
#
# _framework density 16.805315
#
# number of rings (size 3 to 8) (size 9 to 14) (size 15 to 20)
#    0.000    2.333    1.667    3.500    2.333    0.000 
#    0.000    0.000    0.000    0.000    0.000    0.000 
#    0.000   25.333    0.000    0.000    0.000    0.000 
#
# Total GULP energy -297384.471709 kJ/mol
# GULP energy per Si atom -12391.019655 kJ/mol
# Density = 1.676707 g / cm^3
# Si number density = 16.805315 Si / 1000 Ang^3
#
#
#
# Elastic Constant Matrix: (Units=GPa)
#
#
# Indices 1 2 3 4 5 6 
#
# 1 57.7722 17.6294 31.1629 0.0000 -1.0112 0.0000
# 2 17.6294 84.9937 46.9764 0.0000 -9.8284 0.0000
# 3 31.1629 46.9764 104.6930 0.0000 -14.5412 0.0000
# 4 0.0000 0.0000 0.0000 27.4502 0.0000 -3.1385
# 5 -1.0112 -9.8284 -14.5412 0.0000 30.3360 0.0000
# 6 0.0000 0.0000 0.0000 -3.1385 0.0000 13.5002
#
#
#
# Elastic Compliance Matrix: (Units=1/GPa)
#
#
# Indices 1 2 3 4 5 6 
#
# 1 0.020898 -0.001327 -0.005987 0.000000 -0.002603 0.000000
# 2 -0.001327 0.015825 -0.006428 0.000000 0.002002 0.000000
# 3 -0.005987 -0.006428 0.014892 0.000000 0.004856 0.000000
# 4 0.000000 0.000000 0.000000 0.037424 0.000000 0.008700
# 5 -0.002603 0.002002 0.004856 0.000000 0.035854 0.000000
# 6 0.000000 0.000000 0.000000 0.008700 0.000000 0.076096
#
#
# Mechanical properties :
#
#
# Convention : Reuss Voigt Hill
#
# Bulk Modulus (GPa) = 41.43734 48.77739 45.10736
# Shear Modulus (GPa) = 21.14023 24.36996 22.75509
#
# Velocity S-wave (km/s) = 3.55061 3.81219 3.68372
# Velocity P-wave (km/s) = 6.44359 6.96169 6.70764
#
# Compressibility (1/GPa) = 0.02413282
#
# Stress axis : x y z
#
# Youngs Moduli (GPa) = 47.85152 63.19152 67.14813
#
# Poissons Ratio (x) = 0.08384 0.40199
# Poissons Ratio (y) = 0.06349 0.43161
# Poissons Ratio (z) = 0.28647 0.40618
#
# Static dielectric constant tensor:
#      x y z
#    x 3.037070 0.000000 0.091420 
#    y 0.000000 4.176300 0.000000 
#    z 0.091420 0.000000 3.466160 
# 
# 
# High freq. dielectric constant tensor:
#      x y z
#    x 1.615990 0.000000 0.022910 
#    y 0.000000 1.618840 0.000000 
#    z 0.022910 0.000000 1.664900 
# 
# From -- ./inp_files/155956.got.cif
#   From: 2010.06.25/outbox.cif.g09.slc.cpg/sg15_78_cif.got.tgz:155956.got - 2010.06.28 07:06:18.
