data_PCOD8130184
_publ_section_title
;
Structure prediction by ZEFSAII (Michael W. Deem and Ramdas Pophale) SiO2 
 PCOD8130184
Probable space group: C 2/C
;
_chemical_formula_sum "Si O2"
_cell_formula_units_Z 64
_cell_length_a 17.957640
_cell_length_b 12.353961
_cell_length_c 29.550927
_cell_angle_alpha 90.000000
_cell_angle_beta 30.175083
_cell_angle_gamma 90.000000
_cell_volume 3295.240627
_symmetry_space_group_name_H-M "C 2/C"
_symmetry_group_IT_number 15
_symmetry_cell_setting 'monoclinic'
loop_
_space_group_symop_operation_xyz
x,y,z
-x,y,1/2-z
-x,-y,-z
x,-y,1/2+z
1/2+x,1/2+y,z
1/2-x,1/2+y,1/2-z
1/2-x,1/2-y,-z
1/2+x,1/2-y,1/2+z
loop_
_atom_site_type_symbol
_atom_site_label
_atom_site_fract_x
_atom_site_fract_y
_atom_site_fract_z
Si Si1 0.138791 0.105674 0.880435
Si Si2 0.343594 0.873722 0.523582
Si Si3 0.968703 0.190271 0.096319
Si Si4 0.711584 0.058815 0.257188
Si Si5 0.155123 0.997356 0.461000
Si Si6 0.447879 0.266305 0.850448
Si Si7 0.250491 0.846814 0.667307
Si Si8 0.905454 0.474058 0.400030
O O1 0.218435 0.030594 0.877707
O O2 0.168381 0.232727 0.867306
O O3 0.203687 0.053524 0.799893
O O4 0.959083 0.097513 0.977055
O O5 0.502546 0.812298 0.436580
O O6 0.214597 0.784397 0.584055
O O7 0.315355 0.913357 0.589747
O O8 0.338417 0.963449 0.486605
O O9 0.793813 0.161886 0.190443
O O10 0.040869 0.173367 0.107695
O O11 0.054963 0.108731 0.019514
O O12 0.719646 0.072180 0.307100
O O13 0.541188 0.058089 0.330656
O O14 0.282011 0.020286 0.431049
O O15 0.577095 0.316292 0.750973
O O16 0.469151 0.138322 0.846910
#
# Coordination Sequence:
#
# PCOD8130184 Si02
#       8
#     8   8   8   8   8   8   8   8
#     4  10  20  36  54  81 108 145 181 227 272 328
#     4  11  19  31  58  83 112 139 175 229 287 334
#     4   9  16  31  50  77 107 138 172 209 274 328
#     4  10  23  34  50  78 115 149 182 221 271 323
#     4  10  18  32  58  80 106 135 181 223 279 326
#     4  10  17  30  51  83 111 136 167 224 286 320
#     4  11  21  35  53  80 115 148 184 219 271 336
#     4  11  19  34  53  83 113 140 175 230 274 330
#
# _framework density 19.421949999999999
#
# number of rings (size 3 to 8) (size 9 to 14) (size 15 to 20)
#    0.000    1.750    5.000    1.125    0.000    1.000 
#    0.000    0.625    0.000    0.000    0.000    0.000 
#    0.000    0.000    0.000    0.000    0.000    0.000 
#
# Total GULP energy -396507.149438 kJ/mol
# GULP energy per Si atom -12390.848420 kJ/mol
# Density = 1.937775 g / cm^3
# Si number density = 19.421950 Si / 1000 Ang^3
#
#
#
# Elastic Constant Matrix: (Units=GPa)
#
#
# Indices 1 2 3 4 5 6 
#
# 1 108.6247 29.5854 56.0783 0.0002 -2.4914 0.0000
# 2 29.5854 31.6453 18.0125 0.0001 -4.0995 0.0001
# 3 56.0783 18.0125 95.5985 0.0004 1.5926 -0.0003
# 4 0.0002 0.0001 0.0004 24.9474 -0.0002 -0.6880
# 5 -2.4914 -4.0995 1.5926 -0.0002 35.6629 0.0001
# 6 0.0000 0.0001 -0.0003 -0.6880 0.0001 20.3674
#
#
#
# Elastic Compliance Matrix: (Units=1/GPa)
#
#
# Indices 1 2 3 4 5 6 
#
# 1 0.015893 -0.010667 -0.007317 0.000000 0.000211 0.000000
# 2 -0.010667 0.043249 -0.001964 0.000000 0.004314 0.000000
# 3 -0.007317 -0.001964 0.015146 0.000000 -0.001413 0.000000
# 4 0.000000 0.000000 0.000000 0.040122 0.000000 0.001355
# 5 0.000211 0.004314 -0.001413 0.000000 0.028614 0.000000
# 6 0.000000 0.000000 0.000000 0.001355 0.000000 0.049144
#
#
# Mechanical properties :
#
#
# Convention : Reuss Voigt Hill
#
# Bulk Modulus (GPa) = 29.07469 49.24678 39.16073
# Shear Modulus (GPa) = 20.53154 25.00837 22.76995
#
# Velocity S-wave (km/s) = 3.25488 3.59225 3.42772
# Velocity P-wave (km/s) = 5.39705 6.52817 5.98937
#
# Compressibility (1/GPa) = 0.03439418
#
# Stress axis : x y z
#
# Youngs Moduli (GPa) = 62.91894 23.12174 66.02394
#
# Poissons Ratio (x) = 0.24664 0.48309
# Poissons Ratio (y) = 0.67115 0.12965
# Poissons Ratio (z) = 0.46037 0.04540
#
# Static dielectric constant tensor:
#      x y z
#    x 3.609470 0.000000 0.162680 
#    y 0.000000 3.082020 0.000000 
#    z 0.162680 0.000000 3.909590 
# 
# 
# High freq. dielectric constant tensor:
#      x y z
#    x 1.750140 0.000000 0.016200 
#    y 0.000000 1.697730 0.000000 
#    z 0.016200 0.000000 1.772430 
# 
# From -- ./inp_files/316382.got.cif
#   From: 2010.06.25/outbox.cif.g09.slc.cpg/sg15_159_cif.got.tgz:316382.got - 2010.06.28 07:06:18.
