data_PCOD8130074
_publ_section_title
;
Structure prediction by ZEFSAII (Michael W. Deem and Ramdas Pophale) SiO2 
 PCOD8130074
Probable space group: C 2/C
;
_chemical_formula_sum "Si O2"
_cell_formula_units_Z 64
_cell_length_a 17.138598
_cell_length_b 20.453707
_cell_length_c 16.839728
_cell_angle_alpha 90.000000
_cell_angle_beta 147.118387
_cell_angle_gamma 90.000000
_cell_volume 3204.839004
_symmetry_space_group_name_H-M "C 2/C"
_symmetry_group_IT_number 15
_symmetry_cell_setting 'monoclinic'
loop_
_space_group_symop_operation_xyz
x,y,z
-x,y,1/2-z
-x,-y,-z
x,-y,1/2+z
1/2+x,1/2+y,z
1/2-x,1/2+y,1/2-z
1/2-x,1/2-y,-z
1/2+x,1/2-y,1/2+z
loop_
_atom_site_type_symbol
_atom_site_label
_atom_site_fract_x
_atom_site_fract_y
_atom_site_fract_z
Si Si1 0.582392 0.691022 0.112665
Si Si2 0.975441 0.537177 0.561056
Si Si3 0.470608 0.459858 0.135522
Si Si4 0.180329 0.555476 0.308063
Si Si5 0.818543 0.061058 0.250896
Si Si6 0.371806 0.811043 0.777066
Si Si7 0.580410 0.167311 0.596681
Si Si8 0.893387 0.830532 0.309507
O O1 0.616529 0.634546 0.206351
O O2 0.703301 0.697420 0.148631
O O3 0.574698 0.764638 0.142841
O O4 0.439167 0.672161 0.941437
O O5 0.044695 0.494364 0.691618
O O6 0.058054 0.606396 0.636062
O O7 0.000000 0.500000 0.500000
O O8 0.803260 0.547764 0.420472
O O9 0.500000 0.481975 0.250000
O O10 0.554949 0.508410 0.149080
O O11 0.524707 0.385956 0.169120
O O12 0.299740 0.465147 0.974133
O O13 0.257276 0.556634 0.287603
O O14 0.115884 0.627998 0.273832
O O15 0.429017 0.739924 0.797259
O O16 0.447516 0.833488 0.922822
O O17 0.723677 0.155844 0.667071
#
# Coordination Sequence:
#
# PCOD8130074 Si02
#       8
#     8   8   8   8   8   8   8   8
#     4   9  17  30  51  81 113 136 165 223 267 318
#     4  10  17  29  53  83 111 133 169 220 276 320
#     4  12  25  38  51  74 109 149 189 222 261 320
#     4  10  19  35  56  80 106 133 179 229 272 315
#     4  10  19  35  55  78 103 137 176 229 272 309
#     4   9  16  31  50  76 111 137 168 226 261 311
#     4  10  17  27  51  88 114 131 169 218 277 318
#     4  10  19  30  52  75 109 144 175 215 271 312
#
# _framework density 19.969802000000001
#
# number of rings (size 3 to 8) (size 9 to 14) (size 15 to 20)
#    0.000    2.000    6.250    1.875    1.750    0.000 
#    0.000    1.250    0.000    0.000    0.000    3.500 
#    0.000    0.000    0.000    0.000    0.000    0.000 
#
# Total GULP energy -396480.389183 kJ/mol
# GULP energy per Si atom -12390.012162 kJ/mol
# Density = 1.992435 g / cm^3
# Si number density = 19.969802 Si / 1000 Ang^3
#
#
#
# Elastic Constant Matrix: (Units=GPa)
#
#
# Indices 1 2 3 4 5 6 
#
# 1 10.0171 7.2656 7.9751 0.0007 0.1901 0.0002
# 2 7.2656 149.6928 41.8393 0.0001 5.5921 0.0002
# 3 7.9751 41.8393 110.8857 0.0034 10.4414 0.0015
# 4 0.0007 0.0001 0.0034 34.1957 0.0019 10.4744
# 5 0.1901 5.5921 10.4414 0.0019 13.8629 0.0007
# 6 0.0002 0.0002 0.0015 10.4744 0.0007 9.2172
#
#
#
# Elastic Compliance Matrix: (Units=1/GPa)
#
#
# Indices 1 2 3 4 5 6 
#
# 1 0.107771 -0.003489 -0.006919 -0.000002 0.005140 0.000001
# 2 -0.003489 0.007593 -0.002508 0.000000 -0.001126 0.000000
# 3 -0.006919 -0.002508 0.011149 0.000000 -0.007290 -0.000001
# 4 -0.000002 0.000000 0.000000 0.044858 -0.000003 -0.050976
# 5 0.005140 -0.001126 -0.007290 -0.000003 0.078010 -0.000001
# 6 0.000001 0.000000 -0.000001 -0.050976 -0.000001 0.166421
#
#
# Mechanical properties :
#
#
# Convention : Reuss Voigt Hill
#
# Bulk Modulus (GPa) = 9.93237 42.75059 26.34148
# Shear Modulus (GPa) = 10.52208 25.68954 18.10581
#
# Velocity S-wave (km/s) = 2.29792 3.59056 3.01435
# Velocity P-wave (km/s) = 3.46772 6.21640 5.03332
#
# Compressibility (1/GPa) = 0.10068093
#
# Stress axis : x y z
#
# Youngs Moduli (GPa) = 9.27897 131.70503 89.69679
#
# Poissons Ratio (x) = 0.45953 0.62057
# Poissons Ratio (y) = 0.03238 0.22495
# Poissons Ratio (z) = 0.06420 0.33030
#
# Static dielectric constant tensor:
#      x y z
#    x 2.782980 0.000000 0.396620 
#    y 0.000000 4.312570 0.000000 
#    z 0.396620 0.000000 3.889420 
# 
# 
# High freq. dielectric constant tensor:
#      x y z
#    x 1.683220 0.000000 0.044410 
#    y 0.000000 1.808870 0.000000 
#    z 0.044410 0.000000 1.789920 
# 
# From -- ./inp_files/63276.got.cif
#   From: 2010.06.25/outbox.cif.g09.slc.cpg/sg15_32_cif.got.tgz:63276.got - 2010.06.28 07:06:18.
