data_PCOD8130611
_publ_section_title
;
Structure prediction by ZEFSAII (Michael W. Deem and Ramdas Pophale) SiO2 
 PCOD8130611
Probable space group: C 2/C
;
_chemical_formula_sum "Si O2"
_cell_formula_units_Z 56
_cell_length_a 16.365825
_cell_length_b 13.815141
_cell_length_c 13.290107
_cell_angle_alpha 90.000000
_cell_angle_beta 101.334225
_cell_angle_gamma 90.000000
_cell_volume 2946.240296
_symmetry_space_group_name_H-M "C 2/C"
_symmetry_group_IT_number 15
_symmetry_cell_setting 'monoclinic'
loop_
_space_group_symop_operation_xyz
x,y,z
-x,y,1/2-z
-x,-y,-z
x,-y,1/2+z
1/2+x,1/2+y,z
1/2-x,1/2+y,1/2-z
1/2-x,1/2-y,-z
1/2+x,1/2-y,1/2+z
loop_
_atom_site_type_symbol
_atom_site_label
_atom_site_fract_x
_atom_site_fract_y
_atom_site_fract_z
Si Si1 0.636448 0.395909 0.944097
Si Si2 0.461917 0.575399 0.344070
Si Si3 0.688919 0.481607 0.281536
Si Si4 0.584859 0.780757 0.145522
Si Si5 0.773303 0.477441 0.102756
Si Si6 0.102612 0.311570 0.374586
Si Si7 0.773134 0.650286 0.954581
O O1 0.545696 0.451409 0.927373
O O2 0.687909 0.426662 0.856362
O O3 0.630869 0.280170 0.947727
O O4 0.684551 0.429865 0.054145
O O5 0.500000 0.622111 0.250000
O O6 0.400423 0.485436 0.301590
O O7 0.415005 0.666096 0.385057
O O8 0.765791 0.493043 0.221743
O O9 0.703406 0.386638 0.355962
O O10 0.625210 0.789970 0.264796
O O11 0.494089 0.829879 0.125435
O O12 0.638706 0.839544 0.078900
O O13 0.847529 0.407976 0.084184
O O14 0.786397 0.577621 0.049653
O O15 0.750000 0.750000 0.000000
#
# Coordination Sequence:
#
# PCOD8130611 Si02
#       7
#     8   8   8   8   8   8   8
#     4   9  19  34  55  86 112 136 194 241 289 346
#     4   9  15  32  58  81 104 149 190 229 284 348
#     4  10  19  34  54  80 117 147 188 236 282 347
#     4  10  17  35  60  78 110 152 190 234 285 342
#     4  11  22  33  55  88 111 151 191 235 290 346
#     4  10  18  35  60  81 106 151 194 235 284 342
#     4  11  24  37  54  86 117 155 194 238 294 347
#
# _framework density 19.007276000000001
#
# number of rings (size 3 to 8) (size 9 to 14) (size 15 to 20)
#    0.000    2.000    5.714    1.286    0.000    1.143 
#    0.000    7.143    0.000    0.000   18.571    0.000 
#    0.000    0.000    0.000    0.000    0.000    0.000 
#
# Total GULP energy -346941.200765 kJ/mol
# GULP energy per Si atom -12390.757170 kJ/mol
# Density = 1.896401 g / cm^3
# Si number density = 19.007276 Si / 1000 Ang^3
#
#
#
# Elastic Constant Matrix: (Units=GPa)
#
#
# Indices 1 2 3 4 5 6 
#
# 1 86.8839 54.7207 35.2399 0.0000 -0.9788 0.0000
# 2 54.7207 118.0724 40.5347 0.0000 1.1464 0.0000
# 3 35.2399 40.5347 62.4468 0.0000 -3.8842 0.0000
# 4 0.0000 0.0000 0.0000 25.6839 0.0000 4.9791
# 5 -0.9788 1.1464 -3.8842 0.0000 32.0988 0.0000
# 6 0.0000 0.0000 0.0000 4.9791 0.0000 30.3375
#
#
#
# Elastic Compliance Matrix: (Units=1/GPa)
#
#
# Indices 1 2 3 4 5 6 
#
# 1 0.017875 -0.006205 -0.006057 0.000000 0.000034 0.000000
# 2 -0.006205 0.013102 -0.005082 0.000000 -0.001272 0.000000
# 3 -0.006057 -0.005082 0.022903 0.000000 0.002768 0.000000
# 4 0.000000 0.000000 0.000000 0.040214 0.000000 -0.006600
# 5 0.000034 -0.001272 0.002768 0.000000 0.031535 0.000000
# 6 0.000000 0.000000 0.000000 -0.006600 0.000000 0.034046
#
#
# Mechanical properties :
#
#
# Convention : Reuss Voigt Hill
#
# Bulk Modulus (GPa) = 52.10797 58.71042 55.40919
# Shear Modulus (GPa) = 24.90520 26.75124 25.82822
#
# Velocity S-wave (km/s) = 3.62373 3.75563 3.69027
# Velocity P-wave (km/s) = 6.70692 7.05420 6.88275
#
# Compressibility (1/GPa) = 0.01919092
#
# Stress axis : x y z
#
# Youngs Moduli (GPa) = 55.94483 76.32324 43.66229
#
# Poissons Ratio (x) = 0.47358 0.26448
# Poissons Ratio (y) = 0.34713 0.22191
# Poissons Ratio (z) = 0.33888 0.38790
#
# Static dielectric constant tensor:
#      x y z
#    x 3.583730 0.000000 0.082680 
#    y 0.000000 3.314840 0.000000 
#    z 0.082680 0.000000 3.495600 
# 
# 
# High freq. dielectric constant tensor:
#      x y z
#    x 1.734840 0.000000 -0.004530 
#    y 0.000000 1.718980 0.000000 
#    z -0.004530 0.000000 1.731930 
# 
# From -- ./inp_files/153497.got.cif
#   From: 2010.06.25/outbox.cif.g09.slc.cpg/sg15_77_cif.got.tgz:153497.got - 2010.06.28 07:06:18.
