data_PCOD8130217
_publ_section_title
;
Structure prediction by ZEFSAII (Michael W. Deem and Ramdas Pophale) SiO2 
 PCOD8130217
Probable space group: C 2/C
;
_chemical_formula_sum "Si O2"
_cell_formula_units_Z 64
_cell_length_a 11.174434
_cell_length_b 19.903789
_cell_length_c 17.537924
_cell_angle_alpha 90.000000
_cell_angle_beta 67.649183
_cell_angle_gamma 90.000000
_cell_volume 3607.625829
_symmetry_space_group_name_H-M "C 2/C"
_symmetry_group_IT_number 15
_symmetry_cell_setting 'monoclinic'
loop_
_space_group_symop_operation_xyz
x,y,z
-x,y,1/2-z
-x,-y,-z
x,-y,1/2+z
1/2+x,1/2+y,z
1/2-x,1/2+y,1/2-z
1/2-x,1/2-y,-z
1/2+x,1/2-y,1/2+z
loop_
_atom_site_type_symbol
_atom_site_label
_atom_site_fract_x
_atom_site_fract_y
_atom_site_fract_z
Si Si1 0.610027 0.832468 0.896835
Si Si2 0.636725 0.735400 0.190575
Si Si3 0.982726 0.785482 0.342205
Si Si4 0.717870 0.853394 0.398934
Si Si5 0.049565 0.317295 0.077549
Si Si6 0.399399 0.052461 0.839210
Si Si7 0.066737 0.450628 0.542795
Si Si8 0.230344 0.864946 0.280562
O O1 0.753042 0.821552 0.826380
O O2 0.510713 0.777181 0.889521
O O3 0.547228 0.904401 0.893593
O O4 0.633560 0.826085 0.981416
O O5 0.500000 0.704725 0.250000
O O6 0.617242 0.757849 0.107705
O O7 0.673742 0.800747 0.231794
O O8 0.083714 0.845074 0.336044
O O9 0.000000 0.763140 0.250000
O O10 0.839389 0.810104 0.398228
O O11 0.598322 0.802403 0.412545
O O12 0.677153 0.907870 0.472671
O O13 0.758263 0.889740 0.309641
O O14 0.040749 0.386515 0.127038
O O15 0.500000 0.030055 0.750000
O O16 0.267304 0.075495 0.829649
O O17 0.368135 0.990583 0.902993
O O18 0.000000 0.500000 0.500000
#
# Coordination Sequence:
#
# PCOD8130217 Si02
#       8
#     8   8   8   8   8   8   8   8
#     4  10  21  33  51  82 112 138 172 215 276 318
#     4  10  17  30  55  82 109 136 171 222 268 318
#     4   9  20  34  54  80 111 142 168 219 274 328
#     4  10  17  33  54  79 107 141 177 214 272 321
#     4  10  17  30  54  83 104 133 176 225 266 310
#     4  11  18  33  57  79  97 133 190 231 256 305
#     4  11  21  34  52  78 107 143 178 226 264 310
#     4   9  16  32  55  81 103 136 185 221 255 319
#
# _framework density 17.740199
#
# number of rings (size 3 to 8) (size 9 to 14) (size 15 to 20)
#    0.000    2.000    5.000    1.125    0.000    2.500 
#    0.000    0.625    2.750    3.750    0.000    0.000 
#    0.000    0.000    0.000    0.000    0.000    0.000 
#
# Total GULP energy -396633.593351 kJ/mol
# GULP energy per Si atom -12394.799792 kJ/mol
# Density = 1.769982 g / cm^3
# Si number density = 17.740199 Si / 1000 Ang^3
#
#
#
# Elastic Constant Matrix: (Units=GPa)
#
#
# Indices 1 2 3 4 5 6 
#
# 1 104.9818 40.2562 23.6074 0.0000 -7.0922 0.0000
# 2 40.2562 75.4862 35.8373 0.0000 -2.8167 0.0000
# 3 23.6074 35.8373 75.4721 0.0000 4.5283 0.0000
# 4 0.0000 0.0000 0.0000 29.3687 0.0000 -1.1160
# 5 -7.0922 -2.8167 4.5283 0.0000 27.6031 0.0000
# 6 0.0000 0.0000 0.0000 -1.1160 0.0000 14.5750
#
#
#
# Elastic Compliance Matrix: (Units=1/GPa)
#
#
# Indices 1 2 3 4 5 6 
#
# 1 0.012223 -0.005839 -0.001215 0.000000 0.002744 0.000000
# 2 -0.005839 0.020161 -0.007857 0.000000 0.001846 0.000000
# 3 -0.001215 -0.007857 0.017601 0.000000 -0.004002 0.000000
# 4 0.000000 0.000000 0.000000 0.034149 0.000000 0.002615
# 5 0.002744 0.001846 -0.004002 0.000000 0.037778 0.000000
# 6 0.000000 0.000000 0.000000 0.002615 0.000000 0.068811
#
#
# Mechanical properties :
#
#
# Convention : Reuss Voigt Hill
#
# Bulk Modulus (GPa) = 49.60014 50.59355 50.09684
# Shear Modulus (GPa) = 22.00058 24.72533 23.36295
#
# Velocity S-wave (km/s) = 3.52540 3.73734 3.63292
# Velocity P-wave (km/s) = 6.67766 6.87057 6.77480
#
# Compressibility (1/GPa) = 0.02016123
#
# Stress axis : x y z
#
# Youngs Moduli (GPa) = 81.81150 49.60166 56.81434
#
# Poissons Ratio (x) = 0.28963 0.06905
# Poissons Ratio (y) = 0.47771 0.44641
# Poissons Ratio (z) = 0.09943 0.38974
#
# Static dielectric constant tensor:
#      x y z
#    x 3.342980 0.000000 0.142390 
#    y 0.000000 3.018520 0.000000 
#    z 0.142390 0.000000 3.475810 
# 
# 
# High freq. dielectric constant tensor:
#      x y z
#    x 1.686160 0.000000 0.009080 
#    y 0.000000 1.642540 0.000000 
#    z 0.009080 0.000000 1.693960 
# 
# From -- ./inp_files/199958.got.cif
#   From: 2010.06.25/outbox.cif.g09.slc.cpg/sg15_100_cif.got.tgz:199958.got - 2010.06.28 07:06:18.
