data_PCOD8130824
_publ_section_title
;
Structure prediction by ZEFSAII (Michael W. Deem and Ramdas Pophale) SiO2 
 PCOD8130824
Probable space group: C 2/C
;
_chemical_formula_sum "Si O2"
_cell_formula_units_Z 64
_cell_length_a 9.493572
_cell_length_b 20.969850
_cell_length_c 27.073515
_cell_angle_alpha 90.000000
_cell_angle_beta 134.532824
_cell_angle_gamma 90.000000
_cell_volume 3842.085578
_symmetry_space_group_name_H-M "C 2/C"
_symmetry_group_IT_number 15
_symmetry_cell_setting 'monoclinic'
loop_
_space_group_symop_operation_xyz
x,y,z
-x,y,1/2-z
-x,-y,-z
x,-y,1/2+z
1/2+x,1/2+y,z
1/2-x,1/2+y,1/2-z
1/2-x,1/2-y,-z
1/2+x,1/2-y,1/2+z
loop_
_atom_site_type_symbol
_atom_site_label
_atom_site_fract_x
_atom_site_fract_y
_atom_site_fract_z
Si Si1 0.732188 0.693697 0.534367
Si Si2 0.398433 0.435943 0.532233
Si Si3 0.094718 0.806303 0.465633
Si Si4 0.230499 0.064057 0.032233
Si Si5 0.006760 0.754299 0.673256
Si Si6 0.818592 0.878965 0.827116
Si Si7 0.489872 0.878965 0.827116
Si Si8 0.313736 0.754299 0.826744
O O1 0.750000 0.750000 0.500000
O O2 0.741819 0.625804 0.508873
O O3 0.526159 0.701253 0.513080
O O4 0.919032 0.697964 0.617654
O O5 0.264595 0.500000 0.500000
O O6 0.542648 0.439038 0.521324
O O7 0.523879 0.431007 0.614206
O O8 0.250000 0.750000 0.500000
O O9 0.206325 0.874196 0.491127
O O10 0.948416 0.802036 0.382346
O O11 0.432947 0.068993 0.114206
O O12 0.066466 0.813813 0.654386
O O13 0.196172 0.727482 0.750000
O O14 0.840156 0.779166 0.670078
O O15 0.661929 0.863070 0.830965
O O16 0.706006 0.904150 0.750000
O O17 0.448922 0.813813 0.845614
#
# Coordination Sequence:
#
# PCOD8130824 Si02
#       8
#     8   8   8   8   8   8   8   8
#     4  10  18  29  47  68  90 118 151 187 226 267
#     4   9  17  29  44  65  93 121 148 183 226 266
#     4  10  18  29  47  68  90 118 151 187 226 267
#     4   9  17  29  44  65  93 121 148 183 226 266
#     4   9  17  28  43  66  93 117 145 185 231 271
#     4   9  16  27  45  67  88 114 151 187 221 267
#     4   9  16  27  45  67  88 114 151 187 221 267
#     4   9  17  28  43  66  93 117 145 185 231 271
#
# _framework density 16.657620000000001
#
# number of rings (size 3 to 8) (size 9 to 14) (size 15 to 20)
#    0.000    2.750    2.500    0.000    0.000    0.000 
#    0.000    1.250    0.000   10.500    0.000    0.000 
#    0.000    8.000    0.000    0.000    0.000    0.000 
#
# Total GULP energy -396561.241783 kJ/mol
# GULP energy per Si atom -12392.538806 kJ/mol
# Density = 1.661971 g / cm^3
# Si number density = 16.657620 Si / 1000 Ang^3
#
#
#
# Elastic Constant Matrix: (Units=GPa)
#
#
# Indices 1 2 3 4 5 6 
#
# 1 26.1281 22.7279 23.9820 -0.0001 0.5507 -0.0001
# 2 22.7279 124.5717 80.7071 0.0000 0.9593 0.0000
# 3 23.9820 80.7071 141.6576 -0.0003 1.3599 -0.0001
# 4 -0.0001 0.0000 -0.0003 27.6846 -0.0001 0.2041
# 5 0.5507 0.9593 1.3599 -0.0001 17.7332 -0.0001
# 6 -0.0001 0.0000 -0.0001 0.2041 -0.0001 15.3452
#
#
#
# Elastic Compliance Matrix: (Units=1/GPa)
#
#
# Indices 1 2 3 4 5 6 
#
# 1 0.047579 -0.005486 -0.004922 0.000000 -0.000803 0.000000
# 2 -0.005486 0.013357 -0.006681 0.000000 -0.000040 0.000000
# 3 -0.004922 -0.006681 0.011703 0.000000 -0.000383 0.000000
# 4 0.000000 0.000000 0.000000 0.036125 0.000000 -0.000481
# 5 -0.000803 -0.000040 -0.000383 0.000000 0.056448 0.000000
# 6 0.000000 0.000000 0.000000 -0.000481 0.000000 0.065174
#
#
# Mechanical properties :
#
#
# Convention : Reuss Voigt Hill
#
# Bulk Modulus (GPa) = 25.99976 60.79905 43.39940
# Shear Modulus (GPa) = 18.02564 23.14861 20.58713
#
# Velocity S-wave (km/s) = 3.29314 3.73187 3.51935
# Velocity P-wave (km/s) = 5.48652 7.42615 6.52876
#
# Compressibility (1/GPa) = 0.03846189
#
# Stress axis : x y z
#
# Youngs Moduli (GPa) = 21.01752 74.86669 85.45182
#
# Poissons Ratio (x) = 0.41071 0.42057
# Poissons Ratio (y) = 0.11530 0.57089
# Poissons Ratio (z) = 0.10344 0.50017
#
# Static dielectric constant tensor:
#      x y z
#    x 2.945060 0.000000 0.011680 
#    y 0.000000 3.109830 0.000000 
#    z 0.011680 0.000000 3.651050 
# 
# 
# High freq. dielectric constant tensor:
#      x y z
#    x 1.614670 0.000000 0.000850 
#    y 0.000000 1.606340 0.000000 
#    z 0.000850 0.000000 1.666070 
# 
# From -- ./inp_files/290009.got.cif
#   From: 2010.06.25/outbox.cif.g09.slc.cpg/sg15_146_cif.got.tgz:290009.got - 2010.06.28 07:06:18.
