data_PCOD8130868
_publ_section_title
;
Structure prediction by ZEFSAII (Michael W. Deem and Ramdas Pophale) SiO2 
 PCOD8130868
Probable space group: C 2/C
;
_chemical_formula_sum "Si O2"
_cell_formula_units_Z 60
_cell_length_a 23.293370
_cell_length_b 21.609886
_cell_length_c 16.588082
_cell_angle_alpha 90.000000
_cell_angle_beta 152.887931
_cell_angle_gamma 90.000000
_cell_volume 3805.317465
_symmetry_space_group_name_H-M "C 2/C"
_symmetry_group_IT_number 15
_symmetry_cell_setting 'monoclinic'
loop_
_space_group_symop_operation_xyz
x,y,z
-x,y,1/2-z
-x,-y,-z
x,-y,1/2+z
1/2+x,1/2+y,z
1/2-x,1/2+y,1/2-z
1/2-x,1/2-y,-z
1/2+x,1/2-y,1/2+z
loop_
_atom_site_type_symbol
_atom_site_label
_atom_site_fract_x
_atom_site_fract_y
_atom_site_fract_z
Si Si1 0.141594 0.869768 0.916141
Si Si2 0.782452 0.525316 0.663878
Si Si3 0.361570 0.778342 0.238739
Si Si4 0.260589 0.353830 0.627842
Si Si5 0.313802 0.055423 0.343808
Si Si6 0.994664 0.539007 0.337859
Si Si7 0.975598 0.619538 0.979992
Si Si8 0.500000 0.192988 0.750000
O O1 0.167485 0.883796 0.856183
O O2 0.000000 0.846126 0.750000
O O3 0.161783 0.936475 0.983130
O O4 0.233000 0.815389 0.061048
O O5 0.736323 0.486043 0.683308
O O6 0.885139 0.574172 0.819487
O O7 0.853240 0.483685 0.684701
O O8 0.321463 0.712413 0.224090
O O9 0.438931 0.810437 0.408624
O O10 0.440101 0.769612 0.252319
O O11 0.283732 0.403825 0.726739
O O12 0.110146 0.349985 0.423444
O O13 0.387277 0.105881 0.382710
O O14 0.403237 0.013324 0.511933
O O15 0.027022 0.602808 0.427680
O O16 0.000000 0.554068 0.250000
#
# Coordination Sequence:
#
# PCOD8130868 Si02
#       8
#     8   8   8   8   8   8   8   4
#     4  10  20  30  41  64  93 124 150 178 220 264
#     4   8  16  29  43  62  89 122 146 186 224 263
#     4  10  20  29  45  63  95 123 151 181 224 259
#     4  11  21  26  47  65  90 124 152 181 215 269
#     4   9  16  28  44  65  90 115 151 181 228 267
#     4   9  15  24  48  71  89 107 147 194 234 264
#     4   8  15  29  42  64  93 116 141 193 232 257
#     4  10  18  30  42  64  92 116 156 184 212 260
#
# _framework density 15.76741
#
# number of rings (size 3 to 8) (size 9 to 14) (size 15 to 20)
#    0.000    2.667    1.333    4.000    6.533    0.000 
#    0.000    0.667    0.000    0.000    0.000    4.667 
#    0.000    0.000    0.000    0.000    0.000    0.000 
#
# Total GULP energy -371649.502479 kJ/mol
# GULP energy per Si atom -12388.316749 kJ/mol
# Density = 1.573152 g / cm^3
# Si number density = 15.767410 Si / 1000 Ang^3
#
#
#
# Elastic Constant Matrix: (Units=GPa)
#
#
# Indices 1 2 3 4 5 6 
#
# 1 94.3312 50.1081 32.4157 0.0000 -13.4104 0.0000
# 2 50.1081 90.8089 29.6703 0.0000 -11.3532 0.0000
# 3 32.4157 29.6703 43.4916 0.0000 -0.5380 0.0000
# 4 0.0000 0.0000 0.0000 10.9768 0.0000 -2.2884
# 5 -13.4104 -11.3532 -0.5380 0.0000 26.4567 0.0000
# 6 0.0000 0.0000 0.0000 -2.2884 0.0000 29.8234
#
#
#
# Elastic Compliance Matrix: (Units=1/GPa)
#
#
# Indices 1 2 3 4 5 6 
#
# 1 0.017844 -0.006107 -0.009056 0.000000 0.006240 0.000000
# 2 -0.006107 0.017241 -0.007158 0.000000 0.004157 0.000000
# 3 -0.009056 -0.007158 0.034540 0.000000 -0.006960 0.000000
# 4 0.000000 0.000000 0.000000 0.092582 0.000000 0.007104
# 5 0.006240 0.004157 -0.006960 0.000000 0.042603 0.000000
# 6 0.000000 0.000000 0.000000 0.007104 0.000000 0.034076
#
#
# Mechanical properties :
#
#
# Convention : Reuss Voigt Hill
#
# Bulk Modulus (GPa) = 40.02976 50.33553 45.18265
# Shear Modulus (GPa) = 17.13169 21.21389 19.17279
#
# Velocity S-wave (km/s) = 3.29982 3.67199 3.49087
# Velocity P-wave (km/s) = 6.32149 7.06902 6.70568
#
# Compressibility (1/GPa) = 0.02498141
#
# Stress axis : x y z
#
# Youngs Moduli (GPa) = 56.04049 58.00209 28.95175
#
# Poissons Ratio (x) = 0.35424 0.26219
# Poissons Ratio (y) = 0.34226 0.20725
# Poissons Ratio (z) = 0.50752 0.41520
#
# Static dielectric constant tensor:
#      x y z
#    x 3.065630 0.000000 -0.050360 
#    y 0.000000 3.083030 0.000000 
#    z -0.050360 0.000000 2.908790 
# 
# 
# High freq. dielectric constant tensor:
#      x y z
#    x 1.604650 0.000000 0.002200 
#    y 0.000000 1.590160 0.000000 
#    z 0.002200 0.000000 1.562880 
# 
# From -- ./inp_files/169628.got.cif
#   From: 2010.06.25/outbox.cif.g09.slc.cpg/sg15_85_cif.got.tgz:169628.got - 2010.06.28 07:06:18.
