data_PCOD8130289
_publ_section_title
;
Structure prediction by ZEFSAII (Michael W. Deem and Ramdas Pophale) SiO2 
 PCOD8130289
Probable space group: C 2/C
;
_chemical_formula_sum "Si O2"
_cell_formula_units_Z 52
_cell_length_a 8.366920
_cell_length_b 29.370750
_cell_length_c 15.032258
_cell_angle_alpha 90.000000
_cell_angle_beta 49.160044
_cell_angle_gamma 90.000000
_cell_volume 2794.707175
_symmetry_space_group_name_H-M "C 2/C"
_symmetry_group_IT_number 15
_symmetry_cell_setting 'monoclinic'
loop_
_space_group_symop_operation_xyz
x,y,z
-x,y,1/2-z
-x,-y,-z
x,-y,1/2+z
1/2+x,1/2+y,z
1/2-x,1/2+y,1/2-z
1/2-x,1/2-y,-z
1/2+x,1/2-y,1/2+z
loop_
_atom_site_type_symbol
_atom_site_label
_atom_site_fract_x
_atom_site_fract_y
_atom_site_fract_z
Si Si1 0.597309 0.126829 0.433815
Si Si2 0.500000 0.563939 0.250000
Si Si3 0.641506 0.889173 0.115812
Si Si4 0.573713 0.308098 0.486630
Si Si5 0.195676 0.373673 0.614344
Si Si6 0.219148 0.780254 0.628252
Si Si7 0.499773 0.545149 0.443003
O O1 0.793672 0.094549 0.340117
O O2 0.530555 0.125898 0.562797
O O3 0.386682 0.115261 0.455126
O O4 0.668642 0.176161 0.369884
O O5 0.529383 0.532957 0.327330
O O6 0.500000 0.904309 0.250000
O O7 0.780752 0.848226 0.104954
O O8 0.773009 0.933414 0.042583
O O9 0.334905 0.327141 0.568721
O O10 0.612700 0.261030 0.419695
O O11 0.656577 0.296589 0.553584
O O12 0.321934 0.418452 0.597000
O O13 0.000000 0.365774 0.750000
O O14 0.000000 0.764250 0.750000
O O15 0.500000 0.500000 0.500000
#
# Coordination Sequence:
#
# PCOD8130289 Si02
#       7
#     8   4   8   8   8   8   8
#     4  10  19  33  60  84 110 153 194 227 288 335
#     4  10  18  40  60  84 112 148 190 228 282 358
#     4   9  19  38  56  75 113 152 189 227 287 348
#     4   9  20  32  51  82 111 151 193 235 278 334
#     4  11  20  36  58  83 117 147 189 244 294 329
#     4  10  17  31  55  81 111 151 200 230 271 340
#     4  10  22  39  59  86 111 144 189 239 282 352
#
# _framework density 18.606598999999999
#
# number of rings (size 3 to 8) (size 9 to 14) (size 15 to 20)
#    0.000    2.154    2.308    2.308    0.000    1.231 
#    2.769    3.846    0.000    0.000    0.000    0.000 
#    0.000    0.000    0.000    0.000    0.000    0.000 
#
# Total GULP energy -322127.041316 kJ/mol
# GULP energy per Si atom -12389.501589 kJ/mol
# Density = 1.856425 g / cm^3
# Si number density = 18.606599 Si / 1000 Ang^3
#
#
#
# Elastic Constant Matrix: (Units=GPa)
#
#
# Indices 1 2 3 4 5 6 
#
# 1 103.3491 37.3445 47.2277 0.0000 5.1543 0.0000
# 2 37.3445 102.6173 43.4292 0.0000 6.7680 0.0000
# 3 47.2277 43.4292 126.3798 0.0000 7.8256 0.0000
# 4 0.0000 0.0000 0.0000 26.4503 0.0000 8.9907
# 5 5.1543 6.7680 7.8256 0.0000 26.6649 0.0000
# 6 0.0000 0.0000 0.0000 8.9907 0.0000 21.3708
#
#
#
# Elastic Compliance Matrix: (Units=1/GPa)
#
#
# Indices 1 2 3 4 5 6 
#
# 1 0.012414 -0.002961 -0.003584 0.000000 -0.000596 0.000000
# 2 -0.002961 0.012193 -0.002981 0.000000 -0.001647 0.000000
# 3 -0.003584 -0.002981 0.010375 0.000000 -0.001595 0.000000
# 4 0.000000 0.000000 0.000000 0.044115 0.000000 -0.018559
# 5 -0.000596 -0.001647 -0.001595 0.000000 0.038504 0.000000
# 6 0.000000 0.000000 0.000000 -0.018559 0.000000 0.054601
#
#
# Mechanical properties :
#
#
# Convention : Reuss Voigt Hill
#
# Bulk Modulus (GPa) = 62.78264 65.37210 64.07737
# Shear Modulus (GPa) = 25.43680 28.52019 26.97849
#
# Velocity S-wave (km/s) = 3.70142 3.91935 3.81194
# Velocity P-wave (km/s) = 7.21684 7.46269 7.34080
#
# Compressibility (1/GPa) = 0.01592797
#
# Stress axis : x y z
#
# Youngs Moduli (GPa) = 80.55613 82.01403 96.38125
#
# Poissons Ratio (x) = 0.24287 0.34547
# Poissons Ratio (y) = 0.23855 0.28735
# Poissons Ratio (z) = 0.28875 0.24451
#
# Static dielectric constant tensor:
#      x y z
#    x 3.542590 0.000000 0.111670 
#    y 0.000000 3.499160 0.000000 
#    z 0.111670 0.000000 3.528120 
# 
# 
# High freq. dielectric constant tensor:
#      x y z
#    x 1.712570 0.000000 0.005100 
#    y 0.000000 1.713100 0.000000 
#    z 0.005100 0.000000 1.720860 
# 
# From -- ./inp_files/82322.got.cif
#   From: 2010.06.25/outbox.cif.g09.slc.cpg/sg15_42_cif.got.tgz:82322.got - 2010.06.28 07:06:18.
