data_PCOD8130011
_publ_section_title
;
Structure prediction by ZEFSAII (Michael W. Deem and Ramdas Pophale) SiO2 
 PCOD8130011
Probable space group: C 2/C
;
_chemical_formula_sum "Si O2"
_cell_formula_units_Z 44
_cell_length_a 26.957087
_cell_length_b 14.064873
_cell_length_c 14.346750
_cell_angle_alpha 90.000000
_cell_angle_beta 159.267052
_cell_angle_gamma 90.000000
_cell_volume 1925.666896
_symmetry_space_group_name_H-M "C 2/C"
_symmetry_group_IT_number 15
_symmetry_cell_setting 'monoclinic'
loop_
_space_group_symop_operation_xyz
x,y,z
-x,y,1/2-z
-x,-y,-z
x,-y,1/2+z
1/2+x,1/2+y,z
1/2-x,1/2+y,1/2-z
1/2-x,1/2-y,-z
1/2+x,1/2-y,1/2+z
loop_
_atom_site_type_symbol
_atom_site_label
_atom_site_fract_x
_atom_site_fract_y
_atom_site_fract_z
Si Si1 0.975553 0.880529 0.403097
Si Si2 0.500000 0.484360 0.250000
Si Si3 0.411579 0.771435 0.502843
Si Si4 0.267163 0.476426 0.573820
Si Si5 0.302020 0.965351 0.249332
Si Si6 0.651637 0.869135 0.541239
O O1 0.996136 0.767374 0.423665
O O2 0.087485 0.916425 0.676598
O O3 0.016293 0.920791 0.371530
O O4 0.820026 0.912232 0.163523
O O5 0.637675 0.549483 0.483461
O O6 0.390474 0.883381 0.454323
O O7 0.500000 0.752681 0.750000
O O8 0.261878 0.716547 0.241032
O O9 0.172896 0.456509 0.317676
O O10 0.183470 0.449343 0.518544
O O11 0.351603 0.070158 0.369066
O O12 0.500000 0.824699 0.250000
#
# Coordination Sequence:
#
# PCOD8130011 Si02
#       6
#     8   4   8   8   8   8
#     4   9  16  34  62  89 113 159 211 244 293 365
#     4  10  16  36  60  90 114 166 202 248 298 370
#     4  11  21  39  63  90 121 167 207 253 302 369
#     4   9  19  36  62  90 119 164 200 256 301 367
#     4  11  22  36  63  91 125 160 207 254 309 359
#     4  11  24  42  61  93 128 162 201 256 314 361
#
# _framework density 22.849226000000002
#
# number of rings (size 3 to 8) (size 9 to 14) (size 15 to 20)
#    0.000    1.818    4.545    1.636    1.273    3.636 
#    0.000    1.818    0.000    4.364    0.000    0.000 
#    0.000    0.000    0.000    0.000    0.000    0.000 
#
# Total GULP energy -272613.897864 kJ/mol
# GULP energy per Si atom -12391.540812 kJ/mol
# Density = 2.279722 g / cm^3
# Si number density = 22.849226 Si / 1000 Ang^3
#
#
#
# Elastic Constant Matrix: (Units=GPa)
#
#
# Indices 1 2 3 4 5 6 
#
# 1 41.8358 -14.7007 9.0902 0.0000 -20.3068 0.0000
# 2 -14.7007 58.7636 8.9355 0.0000 -3.0016 0.0000
# 3 9.0902 8.9355 118.7589 0.0000 -11.7792 0.0000
# 4 0.0000 0.0000 0.0000 32.3989 0.0000 0.0790
# 5 -20.3068 -3.0016 -11.7792 0.0000 36.0148 0.0000
# 6 0.0000 0.0000 0.0000 0.0790 0.0000 8.1098
#
#
#
# Elastic Compliance Matrix: (Units=1/GPa)
#
#
# Indices 1 2 3 4 5 6 
#
# 1 0.039061 0.011162 -0.001605 0.000000 0.022430 0.000000
# 2 0.011162 0.020442 -0.001653 0.000000 0.007457 0.000000
# 3 -0.001605 -0.001653 0.008851 0.000000 0.001852 0.000000
# 4 0.000000 0.000000 0.000000 0.030866 0.000000 -0.000301
# 5 0.022430 0.007457 0.001852 0.000000 0.041640 0.000000
# 6 0.000000 0.000000 0.000000 -0.000301 0.000000 0.123310
#
#
# Mechanical properties :
#
#
# Convention : Reuss Voigt Hill
#
# Bulk Modulus (GPa) = 11.88190 25.11204 18.49697
# Shear Modulus (GPa) = 18.08859 29.70693 23.89776
#
# Velocity S-wave (km/s) = 2.81668 3.60964 3.23753
# Velocity P-wave (km/s) = 3.97362 5.32793 4.69982
#
# Compressibility (1/GPa) = 0.08416164
#
# Stress axis : x y z
#
# Youngs Moduli (GPa) = 25.60098 48.91937 112.97715
#
# Poissons Ratio (x) = -0.54602 0.18132
# Poissons Ratio (y) = -0.28575 0.18673
# Poissons Ratio (z) = 0.04109 0.08086
#
# Static dielectric constant tensor:
#      x y z
#    x 3.985760 0.000000 -0.070100 
#    y 0.000000 3.778750 0.000000 
#    z -0.070100 0.000000 4.415660 
# 
# 
# High freq. dielectric constant tensor:
#      x y z
#    x 1.880940 0.000000 -0.017680 
#    y 0.000000 1.869150 0.000000 
#    z -0.017680 0.000000 1.917670 
# 
# From -- ./inp_files/182371.got.cif
#   From: 2010.06.25/outbox.cif.g09.slc.cpg/sg15_92_cif.got.tgz:182371.got - 2010.06.28 07:06:18.
