data_PCOD8130218
_publ_section_title
;
Structure prediction by ZEFSAII (Michael W. Deem and Ramdas Pophale) SiO2 
 PCOD8130218
Probable space group: C 2/C
;
_chemical_formula_sum "Si O2"
_cell_formula_units_Z 64
_cell_length_a 13.706338
_cell_length_b 16.442034
_cell_length_c 23.404927
_cell_angle_alpha 90.000000
_cell_angle_beta 142.625450
_cell_angle_gamma 90.000000
_cell_volume 3201.764270
_symmetry_space_group_name_H-M "C 2/C"
_symmetry_group_IT_number 15
_symmetry_cell_setting 'monoclinic'
loop_
_space_group_symop_operation_xyz
x,y,z
-x,y,1/2-z
-x,-y,-z
x,-y,1/2+z
1/2+x,1/2+y,z
1/2-x,1/2+y,1/2-z
1/2-x,1/2-y,-z
1/2+x,1/2-y,1/2+z
loop_
_atom_site_type_symbol
_atom_site_label
_atom_site_fract_x
_atom_site_fract_y
_atom_site_fract_z
Si Si1 0.678738 0.159202 0.842310
Si Si2 0.556555 0.647744 0.619961
Si Si3 0.326917 0.492332 0.177809
Si Si4 0.193594 0.349037 0.171768
Si Si5 0.244170 0.058347 0.976929
Si Si6 0.089747 0.696047 0.503288
Si Si7 0.843502 0.612131 0.546137
Si Si8 0.753622 0.840386 0.619278
O O1 0.500000 0.122240 0.750000
O O2 0.810545 0.114517 0.863548
O O3 0.734426 0.150242 0.933441
O O4 0.674370 0.255465 0.826288
O O5 0.662325 0.686561 0.721317
O O6 0.438251 0.574650 0.585250
O O7 0.445377 0.714562 0.537104
O O8 0.500000 0.451493 0.250000
O O9 0.232211 0.445238 0.182922
O O10 0.235719 0.479690 0.076298
O O11 0.341963 0.588960 0.197038
O O12 0.198437 0.302013 0.112433
O O13 0.022184 0.349434 0.123583
O O14 0.331878 0.145946 0.013083
O O15 0.333825 0.986326 0.053538
O O16 0.931410 0.650216 0.449972
O O17 0.731562 0.642886 0.441925
#
# Coordination Sequence:
#
# PCOD8130218 Si02
#       8
#     8   8   8   8   8   8   8   8
#     4  11  21  35  54  76 108 148 186 223 272 333
#     4  11  21  36  58  81 113 152 191 225 277 336
#     4  10  17  30  54  84 108 132 177 234 281 322
#     4  10  19  35  58  82 113 146 184 231 286 329
#     4  10  20  35  56  82 108 147 183 228 279 331
#     4   9  20  35  57  84 111 143 183 234 282 329
#     4  10  20  36  57  76 110 146 182 229 286 329
#     4   9  19  33  54  83 106 134 180 233 284 327
#
# _framework density 19.988980000000002
#
# number of rings (size 3 to 8) (size 9 to 14) (size 15 to 20)
#    0.000    2.000    2.500    1.875    0.000    3.500 
#    0.000    0.000    2.750    0.000    0.000    0.000 
#    0.000    0.000    0.000    0.000    0.000    0.000 
#
# Total GULP energy -396443.329708 kJ/mol
# GULP energy per Si atom -12388.854053 kJ/mol
# Density = 1.994348 g / cm^3
# Si number density = 19.988980 Si / 1000 Ang^3
#
#
#
# Elastic Constant Matrix: (Units=GPa)
#
#
# Indices 1 2 3 4 5 6 
#
# 1 95.5093 15.8410 11.7858 0.0001 1.2960 0.0000
# 2 15.8410 50.5066 11.8577 0.0000 -4.1826 0.0000
# 3 11.7858 11.8577 66.3413 0.0002 -1.8879 0.0000
# 4 0.0001 0.0000 0.0002 16.9016 0.0001 3.0423
# 5 1.2960 -4.1826 -1.8879 0.0001 26.0596 0.0000
# 6 0.0000 0.0000 0.0000 3.0423 0.0000 19.1418
#
#
#
# Elastic Compliance Matrix: (Units=1/GPa)
#
#
# Indices 1 2 3 4 5 6 
#
# 1 0.011207 -0.003275 -0.001439 0.000000 -0.001187 0.000000
# 2 -0.003275 0.021870 -0.003229 0.000000 0.003439 0.000000
# 3 -0.001439 -0.003229 0.015927 0.000000 0.000707 0.000000
# 4 0.000000 0.000000 0.000000 0.060908 0.000000 -0.009680
# 5 -0.001187 0.003439 0.000707 0.000000 0.039036 0.000000
# 6 0.000000 0.000000 0.000000 -0.009680 0.000000 0.053780
#
#
# Mechanical properties :
#
#
# Convention : Reuss Voigt Hill
#
# Bulk Modulus (GPa) = 30.19736 32.36958 31.28347
# Shear Modulus (GPa) = 21.77186 23.94545 22.85866
#
# Velocity S-wave (km/s) = 3.30387 3.46487 3.38533
# Velocity P-wave (km/s) = 5.44921 5.67767 5.56462
#
# Compressibility (1/GPa) = 0.03311548
#
# Stress axis : x y z
#
# Youngs Moduli (GPa) = 89.22856 45.72546 62.78812
#
# Poissons Ratio (x) = 0.14977 0.09037
# Poissons Ratio (y) = 0.29226 0.20275
# Poissons Ratio (z) = 0.12843 0.14765
#
# Static dielectric constant tensor:
#      x y z
#    x 3.733300 0.000000 -0.004390 
#    y 0.000000 3.561670 0.000000 
#    z -0.004390 0.000000 3.589840 
# 
# 
# High freq. dielectric constant tensor:
#      x y z
#    x 1.783560 0.000000 0.007290 
#    y 0.000000 1.753640 0.000000 
#    z 0.007290 0.000000 1.766030 
# 
# From -- ./inp_files/154887.got.cif
#   From: 2010.06.25/outbox.cif.g09.slc.cpg/sg15_78_cif.got.tgz:154887.got - 2010.06.28 07:06:18.
