data_PCOD8130224
_publ_section_title
;
Structure prediction by ZEFSAII (Michael W. Deem and Ramdas Pophale) SiO2 
 PCOD8130224
Probable space group: C 2/C
;
_chemical_formula_sum "Si O2"
_cell_formula_units_Z 64
_cell_length_a 19.681417
_cell_length_b 11.493642
_cell_length_c 34.055889
_cell_angle_alpha 90.000000
_cell_angle_beta 154.585705
_cell_angle_gamma 90.000000
_cell_volume 3306.176164
_symmetry_space_group_name_H-M "C 2/C"
_symmetry_group_IT_number 15
_symmetry_cell_setting 'monoclinic'
loop_
_space_group_symop_operation_xyz
x,y,z
-x,y,1/2-z
-x,-y,-z
x,-y,1/2+z
1/2+x,1/2+y,z
1/2-x,1/2+y,1/2-z
1/2-x,1/2-y,-z
1/2+x,1/2-y,1/2+z
loop_
_atom_site_type_symbol
_atom_site_label
_atom_site_fract_x
_atom_site_fract_y
_atom_site_fract_z
Si Si1 0.749596 0.491982 0.493139
Si Si2 0.233167 0.524107 0.642461
Si Si3 0.483299 0.659634 0.584091
Si Si4 0.522673 0.863559 0.158334
Si Si5 0.072463 0.605242 0.484626
Si Si6 0.755882 0.286914 0.289434
Si Si7 0.204460 0.964486 0.695790
Si Si8 0.945113 0.109877 0.301560
O O1 0.681816 0.382881 0.482595
O O2 0.886000 0.441996 0.536432
O O3 0.615598 0.556176 0.398611
O O4 0.841647 0.590400 0.566543
O O5 0.215137 0.572014 0.588846
O O6 0.278212 0.636941 0.690839
O O7 0.380251 0.435615 0.725599
O O8 0.081319 0.454645 0.578354
O O9 0.452335 0.755520 0.534162
O O10 0.609980 0.706059 0.682418
O O11 0.558138 0.542681 0.603764
O O12 0.578131 0.826236 0.143546
O O13 0.541556 0.749103 0.195132
O O14 0.635770 0.967469 0.231007
O O15 0.781346 0.157020 0.319335
O O16 0.177958 0.934424 0.728626
#
# Coordination Sequence:
#
# PCOD8130224 Si02
#       8
#     8   8   8   8   8   8   8   8
#     4  11  19  33  51  84 112 140 179 228 279 322
#     4  11  20  38  53  80 109 145 184 225 281 333
#     4  10  20  34  53  82 111 139 184 233 272 329
#     4  10  17  30  55  80 109 133 180 232 274 311
#     4  11  23  34  56  79 113 141 180 232 281 326
#     4  10  17  33  55  77 108 144 185 223 270 330
#     4   9  17  30  55  76 103 140 182 228 267 313
#     4  10  19  32  51  82 108 140 180 225 274 332
#
# _framework density 19.357710000000001
#
# number of rings (size 3 to 8) (size 9 to 14) (size 15 to 20)
#    0.000    1.750    5.000    3.750    0.000    0.500 
#    0.000    0.625    0.000    0.000    3.250    0.000 
#    0.000    0.000    0.000    0.000    0.000    0.000 
#
# Total GULP energy -396532.396829 kJ/mol
# GULP energy per Si atom -12391.637401 kJ/mol
# Density = 1.931365 g / cm^3
# Si number density = 19.357710 Si / 1000 Ang^3
#
#
#
# Elastic Constant Matrix: (Units=GPa)
#
#
# Indices 1 2 3 4 5 6 
#
# 1 34.2687 31.6393 23.8233 0.0000 1.8332 -0.0001
# 2 31.6393 153.8085 50.5973 -0.0001 -1.3611 0.0000
# 3 23.8233 50.5973 87.4884 0.0006 1.3035 0.0002
# 4 0.0000 -0.0001 0.0006 35.5041 -0.0001 -3.0355
# 5 1.8332 -1.3611 1.3035 -0.0001 25.2359 -0.0001
# 6 -0.0001 0.0000 0.0002 -3.0355 -0.0001 14.8398
#
#
#
# Elastic Compliance Matrix: (Units=1/GPa)
#
#
# Indices 1 2 3 4 5 6 
#
# 1 0.039850 -0.005763 -0.007476 0.000000 -0.002819 0.000000
# 2 -0.005763 0.008874 -0.003579 0.000000 0.001082 0.000000
# 3 -0.007476 -0.003579 0.015543 0.000000 -0.000453 0.000000
# 4 0.000000 0.000000 0.000000 0.028667 0.000000 0.005864
# 5 -0.002819 0.001082 -0.000453 0.000000 0.039913 0.000000
# 6 0.000000 0.000000 0.000000 0.005864 0.000000 0.068586
#
#
# Mechanical properties :
#
#
# Convention : Reuss Voigt Hill
#
# Bulk Modulus (GPa) = 32.64762 54.18726 43.41744
# Shear Modulus (GPa) = 20.38498 26.41635 23.40066
#
# Velocity S-wave (km/s) = 3.24862 3.69811 3.48063
# Velocity P-wave (km/s) = 5.56538 6.80354 6.21537
#
# Compressibility (1/GPa) = 0.03063010
#
# Stress axis : x y z
#
# Youngs Moduli (GPa) = 25.09399 112.68903 64.33968
#
# Poissons Ratio (x) = 0.64942 0.48103
# Poissons Ratio (y) = 0.14461 0.23027
# Poissons Ratio (z) = 0.18761 0.40331
#
# Static dielectric constant tensor:
#      x y z
#    x 3.123300 0.000000 0.141230 
#    y 0.000000 3.943210 0.000000 
#    z 0.141230 0.000000 3.546620 
# 
# 
# High freq. dielectric constant tensor:
#      x y z
#    x 1.697210 0.000000 0.029580 
#    y 0.000000 1.777250 0.000000 
#    z 0.029580 0.000000 1.743800 
# 
# From -- ./inp_files/316236.got.cif
#   From: 2010.06.25/outbox.cif.g09.slc.cpg/sg15_159_cif.got.tgz:316236.got - 2010.06.28 07:06:18.
