data_PCOD8130960
_publ_section_title
;
Structure prediction by ZEFSAII (Michael W. Deem and Ramdas Pophale) SiO2 
 PCOD8130960
Probable space group: C 2/C
;
_chemical_formula_sum "Si O2"
_cell_formula_units_Z 52
_cell_length_a 9.631341
_cell_length_b 20.010958
_cell_length_c 14.008264
_cell_angle_alpha 90.000000
_cell_angle_beta 96.759202
_cell_angle_gamma 90.000000
_cell_volume 2681.080686
_symmetry_space_group_name_H-M "C 2/C"
_symmetry_group_IT_number 15
_symmetry_cell_setting 'monoclinic'
loop_
_space_group_symop_operation_xyz
x,y,z
-x,y,1/2-z
-x,-y,-z
x,-y,1/2+z
1/2+x,1/2+y,z
1/2-x,1/2+y,1/2-z
1/2-x,1/2-y,-z
1/2+x,1/2-y,1/2+z
loop_
_atom_site_type_symbol
_atom_site_label
_atom_site_fract_x
_atom_site_fract_y
_atom_site_fract_z
Si Si1 0.883830 0.644478 0.381644
Si Si2 0.284956 0.810918 0.378428
Si Si3 0.473653 0.735225 0.532073
Si Si4 0.657501 0.273778 0.792342
Si Si5 0.751304 0.663456 0.565890
Si Si6 0.500000 0.957238 0.750000
Si Si7 0.345790 0.914632 0.244938
O O1 0.741437 0.656170 0.309162
O O2 0.840718 0.629686 0.487791
O O3 0.981169 0.587002 0.343861
O O4 0.971533 0.713427 0.383158
O O5 0.423809 0.780771 0.438851
O O6 0.155427 0.807420 0.439179
O O7 0.261803 0.769469 0.280060
O O8 0.294854 0.889005 0.345393
O O9 0.594819 0.681453 0.516686
O O10 0.500000 0.290677 0.750000
O O11 0.672354 0.232481 0.893754
O O12 0.745808 0.610004 0.651440
O O13 0.637996 0.004951 0.763801
O O14 0.500000 0.879750 0.250000
#
# Coordination Sequence:
#
# PCOD8130960 Si02
#       7
#     8   8   8   8   8   4   8
#     4  11  20  35  55  83 110 136 182 233 261 328
#     4  10  18  33  53  81 122 136 172 221 275 335
#     4  10  20  31  56  94 109 138 170 226 292 320
#     4  10  18  30  54  83 114 142 165 221 291 330
#     4  10  19  33  56  84 111 137 180 220 280 327
#     4  10  24  38  54  74 106 148 202 214 264 308
#     4   9  20  37  53  74 106 152 186 212 260 322
#
# _framework density 19.395164999999999
#
# number of rings (size 3 to 8) (size 9 to 14) (size 15 to 20)
#    0.462    1.538    0.000    7.385    0.000    5.538 
#    0.000    0.000    3.385    0.923    0.000    0.000 
#    0.000    0.000    0.000    0.000    0.000    0.000 
#
# Total GULP energy -322112.344309 kJ/mol
# GULP energy per Si atom -12388.936320 kJ/mol
# Density = 1.935102 g / cm^3
# Si number density = 19.395165 Si / 1000 Ang^3
#
#
#
# Elastic Constant Matrix: (Units=GPa)
#
#
# Indices 1 2 3 4 5 6 
#
# 1 79.0496 28.9414 40.6603 0.0000 -1.0750 0.0000
# 2 28.9414 93.0147 38.1754 0.0000 -11.7244 0.0000
# 3 40.6603 38.1754 94.1288 0.0000 -5.4916 0.0000
# 4 0.0000 0.0000 0.0000 23.0515 0.0000 -8.8865
# 5 -1.0750 -11.7244 -5.4916 0.0000 32.1616 0.0000
# 6 0.0000 0.0000 0.0000 -8.8865 0.0000 29.3459
#
#
#
# Elastic Compliance Matrix: (Units=1/GPa)
#
#
# Indices 1 2 3 4 5 6 
#
# 1 0.016884 -0.002902 -0.006207 0.000000 -0.001553 0.000000
# 2 -0.002902 0.013886 -0.004130 0.000000 0.004260 0.000000
# 3 -0.006207 -0.004130 0.015030 0.000000 0.000853 0.000000
# 4 0.000000 0.000000 0.000000 0.049115 0.000000 0.014873
# 5 -0.001553 0.004260 0.000853 0.000000 0.032740 0.000000
# 6 0.000000 0.000000 0.000000 0.014873 0.000000 0.038580
#
#
# Mechanical properties :
#
#
# Convention : Reuss Voigt Hill
#
# Bulk Modulus (GPa) = 51.75291 53.52746 52.64019
# Shear Modulus (GPa) = 25.10648 27.47290 26.28969
#
# Velocity S-wave (km/s) = 3.60178 3.76770 3.68567
# Velocity P-wave (km/s) = 6.63614 6.82537 6.73142
#
# Compressibility (1/GPa) = 0.01932259
#
# Stress axis : x y z
#
# Youngs Moduli (GPa) = 59.22666 72.01666 66.53525
#
# Poissons Ratio (x) = 0.20897 0.41300
# Poissons Ratio (y) = 0.17186 0.27476
# Poissons Ratio (z) = 0.36763 0.29740
#
# Static dielectric constant tensor:
#      x y z
#    x 3.471060 0.000000 0.069250 
#    y 0.000000 3.187920 0.000000 
#    z 0.069250 0.000000 3.644520 
# 
# 
# High freq. dielectric constant tensor:
#      x y z
#    x 1.749870 0.000000 -0.003060 
#    y 0.000000 1.705690 0.000000 
#    z -0.003060 0.000000 1.763840 
# 
# From -- ./inp_files/136121.got.cif
#   From: 2010.06.25/outbox.cif.g09.slc.cpg/sg15_69_cif.got.tgz:136121.got - 2010.06.28 07:06:18.
