data_PCOD8130377
_publ_section_title
;
Structure prediction by ZEFSAII (Michael W. Deem and Ramdas Pophale) SiO2 
 PCOD8130377
Probable space group: C 2/C
;
_chemical_formula_sum "Si O2"
_cell_formula_units_Z 56
_cell_length_a 9.619547
_cell_length_b 22.344943
_cell_length_c 14.506371
_cell_angle_alpha 90.000000
_cell_angle_beta 109.363662
_cell_angle_gamma 90.000000
_cell_volume 2941.736545
_symmetry_space_group_name_H-M "C 2/C"
_symmetry_group_IT_number 15
_symmetry_cell_setting 'monoclinic'
loop_
_space_group_symop_operation_xyz
x,y,z
-x,y,1/2-z
-x,-y,-z
x,-y,1/2+z
1/2+x,1/2+y,z
1/2-x,1/2+y,1/2-z
1/2-x,1/2-y,-z
1/2+x,1/2-y,1/2+z
loop_
_atom_site_type_symbol
_atom_site_label
_atom_site_fract_x
_atom_site_fract_y
_atom_site_fract_z
Si Si1 0.862762 0.496396 0.165617
Si Si2 0.884511 0.552220 0.987410
Si Si3 0.052855 0.746396 0.665617
Si Si4 0.353637 0.306725 0.273040
Si Si5 0.669402 0.443275 0.273040
Si Si6 0.352899 0.697780 0.987410
Si Si7 0.911354 0.375000 0.072708
O O1 0.726378 0.486671 0.204468
O O2 0.921603 0.433105 0.139161
O O3 0.000000 0.525150 0.250000
O O4 0.818067 0.544352 0.076002
O O5 0.750865 0.545264 0.887136
O O6 0.979157 0.613480 0.991067
O O7 0.000000 0.500000 0.000000
O O8 0.228090 0.736671 0.704468
O O9 0.000000 0.775150 0.750000
O O10 0.007935 0.794352 0.576002
O O11 0.967558 0.683105 0.639161
O O12 0.500000 0.291344 0.250000
O O13 0.303437 0.375000 0.250000
O O14 0.386271 0.295264 0.387136
O O15 0.500000 0.458656 0.250000
O O16 0.250000 0.750000 0.000000
O O17 0.261910 0.636520 0.991067
#
# Coordination Sequence:
#
# PCOD8130377 Si02
#       7
#     8   8   8   8   8   8   8
#     4  11  18  33  59  85 112 147 194 237 285 343
#     4  10  20  31  58  88 103 148 194 233 289 338
#     4  11  18  33  59  85 112 147 194 237 285 343
#     4  11  21  35  56  87 117 147 191 244 288 334
#     4  11  21  35  56  87 117 147 191 244 288 334
#     4  10  20  31  58  88 103 148 194 233 289 338
#     4  10  17  32  54  84 112 138 196 236 273 332
#
# _framework density 19.036373999999999
#
# number of rings (size 3 to 8) (size 9 to 14) (size 15 to 20)
#    0.000    1.429    8.571    0.429    0.000    1.143 
#    0.000    0.000    0.000   10.286    0.000    0.000 
#    0.000    0.000    0.000    0.000    0.000    0.000 
#
# Total GULP energy -346992.838203 kJ/mol
# GULP energy per Si atom -12392.601364 kJ/mol
# Density = 1.899305 g / cm^3
# Si number density = 19.036374 Si / 1000 Ang^3
#
#
#
# Elastic Constant Matrix: (Units=GPa)
#
#
# Indices 1 2 3 4 5 6 
#
# 1 138.0700 21.1509 78.8576 0.0000 -0.2364 0.0000
# 2 21.1509 24.9222 43.9299 0.0000 -0.5340 0.0000
# 3 78.8576 43.9299 177.0194 0.0000 -0.6767 0.0000
# 4 0.0000 0.0000 0.0000 20.1076 0.0000 0.0223
# 5 -0.2364 -0.5340 -0.6767 0.0000 34.6590 0.0000
# 6 0.0000 0.0000 0.0000 0.0223 0.0000 21.0605
#
#
#
# Elastic Compliance Matrix: (Units=1/GPa)
#
#
# Indices 1 2 3 4 5 6 
#
# 1 0.009731 -0.001098 -0.004063 0.000000 -0.000030 0.000000
# 2 -0.001098 0.071468 -0.017244 0.000000 0.000757 0.000000
# 3 -0.004063 -0.017244 0.011738 0.000000 -0.000064 0.000000
# 4 0.000000 0.000000 0.000000 0.049733 0.000000 -0.000053
# 5 -0.000030 0.000757 -0.000064 0.000000 0.028863 0.000000
# 6 0.000000 0.000000 0.000000 -0.000053 0.000000 0.047482
#
#
# Mechanical properties :
#
#
# Convention : Reuss Voigt Hill
#
# Bulk Modulus (GPa) = 20.77777 69.76538 45.27158
# Shear Modulus (GPa) = 17.86561 28.23696 23.05129
#
# Velocity S-wave (km/s) = 3.06682 3.85556 3.48358
# Velocity P-wave (km/s) = 4.84551 7.51987 6.32564
#
# Compressibility (1/GPa) = 0.04812835
#
# Stress axis : x y z
#
# Youngs Moduli (GPa) = 102.76227 13.99218 85.19413
#
# Poissons Ratio (x) = 0.01537 0.34611
# Poissons Ratio (y) = 0.11286 1.46907
# Poissons Ratio (z) = 0.41748 0.24128
#
# Static dielectric constant tensor:
#      x y z
#    x 3.988800 0.000000 0.003300 
#    y 0.000000 3.609160 0.000000 
#    z 0.003300 0.000000 3.848040 
# 
# 
# High freq. dielectric constant tensor:
#      x y z
#    x 1.742050 0.000000 -0.000100 
#    y 0.000000 1.696350 0.000000 
#    z -0.000100 0.000000 1.746450 
# 
# From -- ./inp_files/137482.got.cif
#   From: 2010.06.25/outbox.cif.g09.slc.cpg/sg15_69_cif.got.tgz:137482.got - 2010.06.28 07:06:18.
