data_PCOD8130822
_publ_section_title
;
Structure prediction by ZEFSAII (Michael W. Deem and Ramdas Pophale) SiO2 
 PCOD8130822
Probable space group: C 2/C
;
_chemical_formula_sum "Si O2"
_cell_formula_units_Z 44
_cell_length_a 22.275468
_cell_length_b 15.373914
_cell_length_c 8.953805
_cell_angle_alpha 90.000000
_cell_angle_beta 124.480309
_cell_angle_gamma 90.000000
_cell_volume 2527.639736
_symmetry_space_group_name_H-M "C 2/C"
_symmetry_group_IT_number 15
_symmetry_cell_setting 'monoclinic'
loop_
_space_group_symop_operation_xyz
x,y,z
-x,y,1/2-z
-x,-y,-z
x,-y,1/2+z
1/2+x,1/2+y,z
1/2-x,1/2+y,1/2-z
1/2-x,1/2-y,-z
1/2+x,1/2-y,1/2+z
loop_
_atom_site_type_symbol
_atom_site_label
_atom_site_fract_x
_atom_site_fract_y
_atom_site_fract_z
Si Si1 0.361198 0.272403 0.213973
Si Si2 0.272058 0.111615 0.968711
Si Si3 0.831280 0.499138 0.304795
Si Si4 0.000000 0.736027 0.250000
Si Si5 0.047539 0.371242 0.093217
Si Si6 0.397136 0.841614 0.024702
O O1 0.311569 0.357750 0.135594
O O2 0.439433 0.294493 0.248894
O O3 0.372374 0.245427 0.403050
O O4 0.325842 0.191417 0.077134
O O5 0.286764 0.078248 0.821816
O O6 0.285709 0.031255 0.098356
O O7 0.910774 0.462801 0.367901
O O8 0.838172 0.581279 0.426761
O O9 0.044305 0.677898 0.431254
O O10 0.090462 0.317048 0.284233
O O11 0.966795 0.385050 0.041431
#
# Coordination Sequence:
#
# PCOD8130822 Si02
#       6
#     8   8   8   4   8   8
#     4   9  19  35  50  73 101 142 166 211 246 305
#     4  10  20  33  51  72 108 133 174 203 255 298
#     4  11  18  31  47  73 102 139 166 206 247 304
#     4  10  18  32  56  74 102 134 172 206 256 294
#     4  10  18  29  46  77 102 135 163 200 252 307
#     4   9  19  30  46  71 108 132 168 200 251 305
#
# _framework density 17.407544000000001
#
# number of rings (size 3 to 8) (size 9 to 14) (size 15 to 20)
#    0.000    2.182    3.636    0.545    0.000    1.455 
#    0.000    2.727    0.000    1.091    0.000    0.000 
#    0.000    0.000    0.000    0.000    0.000    0.000 
#
# Total GULP energy -272649.770218 kJ/mol
# GULP energy per Si atom -12393.171374 kJ/mol
# Density = 1.736792 g / cm^3
# Si number density = 17.407544 Si / 1000 Ang^3
#
#
#
# Elastic Constant Matrix: (Units=GPa)
#
#
# Indices 1 2 3 4 5 6 
#
# 1 68.0027 31.4371 34.1882 0.0000 5.3189 0.0000
# 2 31.4371 45.5577 32.1235 0.0000 3.6487 0.0000
# 3 34.1882 32.1235 97.7914 0.0000 -4.6724 0.0000
# 4 0.0000 0.0000 0.0000 28.9718 0.0000 10.4932
# 5 5.3189 3.6487 -4.6724 0.0000 25.4854 0.0000
# 6 0.0000 0.0000 0.0000 10.4932 0.0000 26.2381
#
#
#
# Elastic Compliance Matrix: (Units=1/GPa)
#
#
# Indices 1 2 3 4 5 6 
#
# 1 0.022859 -0.012648 -0.004013 0.000000 -0.003696 0.000000
# 2 -0.012648 0.036460 -0.007746 0.000000 -0.004000 0.000000
# 3 -0.004013 -0.007746 0.014393 0.000000 0.004585 0.000000
# 4 0.000000 0.000000 0.000000 0.040363 0.000000 -0.016142
# 5 -0.003696 -0.004000 0.004585 0.000000 0.041423 0.000000
# 6 0.000000 0.000000 0.000000 -0.016142 0.000000 0.044568
#
#
# Mechanical properties :
#
#
# Convention : Reuss Voigt Hill
#
# Bulk Modulus (GPa) = 40.16595 45.20549 42.68572
# Shear Modulus (GPa) = 19.44162 23.71259 21.57711
#
# Velocity S-wave (km/s) = 3.34556 3.69481 3.52451
# Velocity P-wave (km/s) = 6.16828 6.65037 6.41385
#
# Compressibility (1/GPa) = 0.02489671
#
# Stress axis : x y z
#
# Youngs Moduli (GPa) = 43.74599 27.42712 69.48019
#
# Poissons Ratio (x) = 0.34690 0.27886
# Poissons Ratio (y) = 0.55330 0.53820
# Poissons Ratio (z) = 0.17557 0.21245
#
# Static dielectric constant tensor:
#      x y z
#    x 3.131980 0.000000 -0.042940 
#    y 0.000000 2.777550 0.000000 
#    z -0.042940 0.000000 3.450730 
# 
# 
# High freq. dielectric constant tensor:
#      x y z
#    x 1.661740 0.000000 -0.011180 
#    y 0.000000 1.619240 0.000000 
#    z -0.011180 0.000000 1.681250 
# 
# From -- ./inp_files/47061.got.cif
#   From: 2010.06.25/outbox.cif.g09.slc.cpg/sg15_24_cif.got.tgz:47061.got - 2010.06.28 07:06:18.
