data_PCOD8130812
_publ_section_title
;
Structure prediction by ZEFSAII (Michael W. Deem and Ramdas Pophale) SiO2 
 PCOD8130812
Probable space group: C 2/C
;
_chemical_formula_sum "Si O2"
_cell_formula_units_Z 48
_cell_length_a 20.570432
_cell_length_b 24.393273
_cell_length_c 5.175876
_cell_angle_alpha 90.000000
_cell_angle_beta 88.146152
_cell_angle_gamma 90.000000
_cell_volume 2595.792552
_symmetry_space_group_name_H-M "C 2/C"
_symmetry_group_IT_number 15
_symmetry_cell_setting 'monoclinic'
loop_
_space_group_symop_operation_xyz
x,y,z
-x,y,1/2-z
-x,-y,-z
x,-y,1/2+z
1/2+x,1/2+y,z
1/2-x,1/2+y,1/2-z
1/2-x,1/2-y,-z
1/2+x,1/2-y,1/2+z
loop_
_atom_site_type_symbol
_atom_site_label
_atom_site_fract_x
_atom_site_fract_y
_atom_site_fract_z
Si Si1 0.224135 0.979492 0.672432
Si Si2 0.073183 0.642414 0.777734
Si Si3 0.124086 0.694029 0.273369
Si Si4 0.263006 0.352298 0.856566
Si Si5 0.132329 0.473183 0.281562
Si Si6 0.801144 0.207008 0.880802
O O1 0.232319 0.916583 0.601128
O O2 0.185586 0.010653 0.446326
O O3 0.291404 0.011826 0.731990
O O4 0.090184 0.687005 0.555598
O O5 0.122955 0.591683 0.749739
O O6 0.000000 0.620884 0.750000
O O7 0.078364 0.670099 0.056270
O O8 0.191616 0.661135 0.261102
O O9 0.135055 0.758838 0.214241
O O10 0.313727 0.334362 0.620705
O O11 0.274530 0.322927 0.128712
O O12 0.098489 0.495219 0.546315
O O13 0.750000 0.250000 0.000000
#
# Coordination Sequence:
#
# PCOD8130812 Si02
#       6
#     8   8   8   8   8   8
#     4  10  18  29  45  67  94 129 162 193 238 290
#     4  12  24  36  51  70  95 134 180 219 254 288
#     4  11  20  36  52  68  96 123 160 216 266 299
#     4  11  19  32  52  74  97 122 165 209 253 311
#     4  10  20  33  47  65  88 124 169 213 255 282
#     4  10  20  32  51  76  93 118 157 210 267 314
#
# _framework density 18.49146
#
# number of rings (size 3 to 8) (size 9 to 14) (size 15 to 20)
#    0.000    1.333    0.000   11.500    0.000    0.667 
#    0.000    0.000    0.000    0.000    0.000    0.000 
#    0.000    0.000    0.000    0.000    0.000  210.000 
#
# Total GULP energy -297422.910056 kJ/mol
# GULP energy per Si atom -12392.621252 kJ/mol
# Density = 1.844937 g / cm^3
# Si number density = 18.491460 Si / 1000 Ang^3
#
#
#
# Elastic Constant Matrix: (Units=GPa)
#
#
# Indices 1 2 3 4 5 6 
#
# 1 18.6045 19.7141 12.9377 0.0000 2.5070 0.0000
# 2 19.7141 93.8742 44.5187 0.0000 5.3238 0.0000
# 3 12.9377 44.5187 177.1800 0.0000 10.5766 0.0000
# 4 0.0000 0.0000 0.0000 35.9521 0.0000 -0.1594
# 5 2.5070 5.3238 10.5766 0.0000 20.1206 0.0000
# 6 0.0000 0.0000 0.0000 -0.1594 0.0000 10.5972
#
#
#
# Elastic Compliance Matrix: (Units=1/GPa)
#
#
# Indices 1 2 3 4 5 6 
#
# 1 0.069895 -0.013776 -0.001383 0.000000 -0.004336 0.000000
# 2 -0.013776 0.014863 -0.002680 0.000000 -0.000807 0.000000
# 3 -0.001383 -0.002680 0.006572 0.000000 -0.002573 0.000000
# 4 0.000000 0.000000 0.000000 0.027817 0.000000 0.000418
# 5 -0.004336 -0.000807 -0.002573 0.000000 0.051807 0.000000
# 6 0.000000 0.000000 0.000000 0.000418 0.000000 0.094371
#
#
# Mechanical properties :
#
#
# Convention : Reuss Voigt Hill
#
# Bulk Modulus (GPa) = 17.96966 49.33329 33.65148
# Shear Modulus (GPa) = 15.64684 27.49986 21.57335
#
# Velocity S-wave (km/s) = 2.91205 3.86056 3.41935
# Velocity P-wave (km/s) = 4.58755 6.82706 5.81612
#
# Compressibility (1/GPa) = 0.05564936
#
# Stress axis : x y z
#
# Youngs Moduli (GPa) = 14.30724 67.28335 152.15969
#
# Poissons Ratio (x) = 0.92692 0.21049
# Poissons Ratio (y) = 0.19710 0.40783
# Poissons Ratio (z) = 0.01979 0.18034
#
# Static dielectric constant tensor:
#      x y z
#    x 2.885990 0.000000 -0.162780 
#    y 0.000000 3.612860 0.000000 
#    z -0.162780 0.000000 4.615820 
# 
# 
# High freq. dielectric constant tensor:
#      x y z
#    x 1.625990 0.000000 0.000000 
#    y 0.000000 1.717910 0.000000 
#    z 0.000000 0.000000 1.764520 
# 
# From -- ./inp_files/10738.got.cif
#   From: 2010.06.25/outbox.cif.g09.slc.cpg/sg15_6_cif.got.tgz:10738.got - 2010.06.28 07:06:18.
