data_PCOD8130281
_publ_section_title
;
Structure prediction by ZEFSAII (Michael W. Deem and Ramdas Pophale) SiO2 
 PCOD8130281
Probable space group: C 2/C
;
_chemical_formula_sum "Si O2"
_cell_formula_units_Z 44
_cell_length_a 25.628284
_cell_length_b 11.820237
_cell_length_c 9.105436
_cell_angle_alpha 90.000000
_cell_angle_beta 120.376263
_cell_angle_gamma 90.000000
_cell_volume 2379.676684
_symmetry_space_group_name_H-M "C 2/C"
_symmetry_group_IT_number 15
_symmetry_cell_setting 'monoclinic'
loop_
_space_group_symop_operation_xyz
x,y,z
-x,y,1/2-z
-x,-y,-z
x,-y,1/2+z
1/2+x,1/2+y,z
1/2-x,1/2+y,1/2-z
1/2-x,1/2-y,-z
1/2+x,1/2-y,1/2+z
loop_
_atom_site_type_symbol
_atom_site_label
_atom_site_fract_x
_atom_site_fract_y
_atom_site_fract_z
Si Si1 0.201706 0.151468 0.442552
Si Si2 0.606702 0.179698 0.743296
Si Si3 0.063206 0.642089 0.378700
Si Si4 0.500000 0.074160 0.750000
Si Si5 0.249504 0.496862 0.736059
Si Si6 0.831950 0.443536 0.632838
O O1 0.250000 0.250000 0.500000
O O2 0.134989 0.207484 0.355127
O O3 0.211098 0.076381 0.601109
O O4 0.205712 0.077308 0.299627
O O5 0.598982 0.203030 0.558869
O O6 0.539239 0.156382 0.704793
O O7 0.652552 0.076745 0.836193
O O8 0.045443 0.511706 0.403573
O O9 0.107706 0.633445 0.299143
O O10 0.000000 0.706568 0.250000
O O11 0.205824 0.414879 0.773505
O O12 0.208377 0.574145 0.570588
#
# Coordination Sequence:
#
# PCOD8130281 Si02
#       6
#     8   8   8   4   8   8
#     4  11  21  37  59  78 117 152 188 229 283 331
#     4  11  18  33  54  79 110 149 176 226 287 344
#     4   9  18  28  50  84 117 138 170 230 290 339
#     4   8  20  28  54  82 110 140 182 230 290 338
#     4  10  20  34  53  83 110 151 187 226 268 332
#     4  10  17  31  54  76 117 144 175 219 281 338
#
# _framework density 18.489906999999999
#
# number of rings (size 3 to 8) (size 9 to 14) (size 15 to 20)
#    0.545    1.455    5.455    0.545    0.000    0.000 
#    0.000    8.182    0.000    1.091    0.000    0.000 
#    0.000    0.000    0.000    0.000    0.000    0.000 
#
# Total GULP energy -272554.797739 kJ/mol
# GULP energy per Si atom -12388.854443 kJ/mol
# Density = 1.844782 g / cm^3
# Si number density = 18.489907 Si / 1000 Ang^3
#
#
#
# Elastic Constant Matrix: (Units=GPa)
#
#
# Indices 1 2 3 4 5 6 
#
# 1 45.8658 6.0551 15.3932 0.0000 2.0408 0.0000
# 2 6.0551 40.9604 23.2534 0.0000 4.4519 0.0000
# 3 15.3932 23.2534 96.2831 0.0000 -3.2174 0.0000
# 4 0.0000 0.0000 0.0000 28.7884 0.0000 6.4252
# 5 2.0408 4.4519 -3.2174 0.0000 24.1853 0.0000
# 6 0.0000 0.0000 0.0000 6.4252 0.0000 19.1652
#
#
#
# Elastic Compliance Matrix: (Units=1/GPa)
#
#
# Indices 1 2 3 4 5 6 
#
# 1 0.023234 -0.001211 -0.003496 0.000000 -0.002203 0.000000
# 2 -0.001211 0.029295 -0.007090 0.000000 -0.006234 0.000000
# 3 -0.003496 -0.007090 0.012767 0.000000 0.003299 0.000000
# 4 0.000000 0.000000 0.000000 0.037545 0.000000 -0.012587
# 5 -0.002203 -0.006234 0.003299 0.000000 0.043119 0.000000
# 6 0.000000 0.000000 0.000000 -0.012587 0.000000 0.056398
#
#
# Mechanical properties :
#
#
# Convention : Reuss Voigt Hill
#
# Bulk Modulus (GPa) = 23.97850 30.27918 27.12884
# Shear Modulus (GPa) = 20.84610 23.65498 22.25054
#
# Velocity S-wave (km/s) = 3.36137 3.58067 3.47275
# Velocity P-wave (km/s) = 5.29732 5.78849 5.54834
#
# Compressibility (1/GPa) = 0.04170402
#
# Stress axis : x y z
#
# Youngs Moduli (GPa) = 43.04080 34.13517 78.32440
#
# Poissons Ratio (x) = 0.04133 0.27380
# Poissons Ratio (y) = 0.05211 0.55531
# Poissons Ratio (z) = 0.15046 0.24201
#
# Static dielectric constant tensor:
#      x y z
#    x 3.543460 0.000000 0.003120 
#    y 0.000000 2.989970 0.000000 
#    z 0.003120 0.000000 3.409340 
# 
# 
# High freq. dielectric constant tensor:
#      x y z
#    x 1.717440 0.000000 -0.001770 
#    y 0.000000 1.644800 0.000000 
#    z -0.001770 0.000000 1.722070 
# 
# From -- ./inp_files/64914.got.cif
#   From: 2010.06.25/outbox.cif.g09.slc.cpg/sg15_33_cif.got.tgz:64914.got - 2010.06.28 07:06:18.
