data_PCOD8130196
_publ_section_title
;
Structure prediction by ZEFSAII (Michael W. Deem and Ramdas Pophale) SiO2 
 PCOD8130196
Probable space group: C 2/C
;
_chemical_formula_sum "Si O2"
_cell_formula_units_Z 64
_cell_length_a 14.911961
_cell_length_b 17.944424
_cell_length_c 13.724113
_cell_angle_alpha 90.000000
_cell_angle_beta 63.486874
_cell_angle_gamma 90.000000
_cell_volume 3286.170786
_symmetry_space_group_name_H-M "C 2/C"
_symmetry_group_IT_number 15
_symmetry_cell_setting 'monoclinic'
loop_
_space_group_symop_operation_xyz
x,y,z
-x,y,1/2-z
-x,-y,-z
x,-y,1/2+z
1/2+x,1/2+y,z
1/2-x,1/2+y,1/2-z
1/2-x,1/2-y,-z
1/2+x,1/2-y,1/2+z
loop_
_atom_site_type_symbol
_atom_site_label
_atom_site_fract_x
_atom_site_fract_y
_atom_site_fract_z
Si Si1 0.509307 0.493775 0.135686
Si Si2 0.886406 0.235340 0.277347
Si Si3 0.682649 0.402074 0.580691
Si Si4 0.731460 0.879394 0.162655
Si Si5 0.405516 0.342607 0.414648
Si Si6 0.274353 0.323822 0.654679
Si Si7 0.619517 0.296609 0.279214
Si Si8 0.784994 0.977304 0.733988
O O1 0.500000 0.466258 0.250000
O O2 0.573253 0.569619 0.098715
O O3 0.562409 0.423470 0.057252
O O4 0.399573 0.506753 0.144252
O O5 0.821817 0.184046 0.383023
O O6 0.862518 0.323313 0.292667
O O7 0.864234 0.204252 0.180653
O O8 0.000000 0.222901 0.250000
O O9 0.756258 0.408013 0.453602
O O10 0.722263 0.456271 0.647942
O O11 0.827100 0.832758 0.153361
O O12 0.716284 0.950775 0.241256
O O13 0.316497 0.310712 0.525225
O O14 0.502429 0.287035 0.364574
O O15 0.365685 0.349855 0.322704
O O16 0.170418 0.281402 0.725577
O O17 0.246300 0.409439 0.687173
#
# Coordination Sequence:
#
# PCOD8130196 Si02
#       8
#     8   8   8   8   8   8   8   8
#     4  10  17  30  52  82 112 135 165 225 284 337
#     4  10  22  38  53  81 114 146 195 237 272 336
#     4  10  20  33  55  85 116 143 177 234 291 336
#     4  11  21  35  58  81 110 155 184 232 288 340
#     4  11  19  35  57  81 117 150 179 230 288 339
#     4  10  22  35  55  83 111 151 184 235 283 334
#     4  10  21  35  52  84 115 143 192 225 276 351
#     4  10  20  34  50  84 114 135 184 231 277 346
#
# _framework density 19.475555
#
# number of rings (size 3 to 8) (size 9 to 14) (size 15 to 20)
#    0.000    1.750    2.500    4.125    3.500    1.000 
#    0.000    0.000    2.750    0.750    0.000    0.000 
#    0.000    0.000    0.000    0.000    0.000    0.000 
#
# Total GULP energy -396633.619709 kJ/mol
# GULP energy per Si atom -12394.800616 kJ/mol
# Density = 1.943123 g / cm^3
# Si number density = 19.475555 Si / 1000 Ang^3
#
#
#
# Elastic Constant Matrix: (Units=GPa)
#
#
# Indices 1 2 3 4 5 6 
#
# 1 35.0280 20.3694 9.2731 0.0000 4.2996 0.0000
# 2 20.3694 129.0504 26.5007 0.0000 -5.5394 0.0000
# 3 9.2731 26.5007 78.6238 0.0000 11.3010 0.0000
# 4 0.0000 0.0000 0.0000 20.9589 0.0000 -0.3982
# 5 4.2996 -5.5394 11.3010 0.0000 18.3099 0.0000
# 6 0.0000 0.0000 0.0000 -0.3982 0.0000 29.8234
#
#
#
# Elastic Compliance Matrix: (Units=1/GPa)
#
#
# Indices 1 2 3 4 5 6 
#
# 1 0.033008 -0.005432 -0.000781 0.000000 -0.008912 0.000000
# 2 -0.005432 0.009599 -0.003506 0.000000 0.006344 0.000000
# 3 -0.000781 -0.003506 0.015493 0.000000 -0.010440 0.000000
# 4 0.000000 0.000000 0.000000 0.047724 0.000000 0.000637
# 5 -0.008912 0.006344 -0.010440 0.000000 0.065071 0.000000
# 6 0.000000 0.000000 0.000000 0.000637 0.000000 0.033539
#
#
# Mechanical properties :
#
#
# Convention : Reuss Voigt Hill
#
# Bulk Modulus (GPa) = 25.86596 39.44319 32.65458
# Shear Modulus (GPa) = 21.11833 26.25573 23.68703
#
# Velocity S-wave (km/s) = 3.29652 3.67568 3.49125
# Velocity P-wave (km/s) = 5.27252 6.18957 5.74936
#
# Compressibility (1/GPa) = 0.03866085
#
# Stress axis : x y z
#
# Youngs Moduli (GPa) = 30.29545 104.18103 64.54375
#
# Poissons Ratio (x) = 0.56593 0.05042
# Poissons Ratio (y) = 0.16457 0.22632
# Poissons Ratio (z) = 0.02366 0.36530
#
# Static dielectric constant tensor:
#      x y z
#    x 3.417870 0.000000 0.218030 
#    y 0.000000 3.696460 0.000000 
#    z 0.218030 0.000000 3.398630 
# 
# 
# High freq. dielectric constant tensor:
#      x y z
#    x 1.730220 0.000000 0.030120 
#    y 0.000000 1.759700 0.000000 
#    z 0.030120 0.000000 1.746200 
# 
# From -- ./inp_files/155178.got.cif
#   From: 2010.06.25/outbox.cif.g09.slc.cpg/sg15_78_cif.got.tgz:155178.got - 2010.06.28 07:06:18.
