data_PCOD8130347
_publ_section_title
;
Structure prediction by ZEFSAII (Michael W. Deem and Ramdas Pophale) SiO2 
 PCOD8130347
Probable space group: C 2/C
;
_chemical_formula_sum "Si O2"
_cell_formula_units_Z 56
_cell_length_a 23.737410
_cell_length_b 11.865841
_cell_length_c 18.252117
_cell_angle_alpha 90.000000
_cell_angle_beta 149.043309
_cell_angle_gamma 90.000000
_cell_volume 2644.463784
_symmetry_space_group_name_H-M "C 2/C"
_symmetry_group_IT_number 15
_symmetry_cell_setting 'monoclinic'
loop_
_space_group_symop_operation_xyz
x,y,z
-x,y,1/2-z
-x,-y,-z
x,-y,1/2+z
1/2+x,1/2+y,z
1/2-x,1/2+y,1/2-z
1/2-x,1/2-y,-z
1/2+x,1/2-y,1/2+z
loop_
_atom_site_type_symbol
_atom_site_label
_atom_site_fract_x
_atom_site_fract_y
_atom_site_fract_z
Si Si1 0.818345 0.813268 0.014813
Si Si2 0.623246 0.181105 0.208703
Si Si3 0.578756 0.588718 0.739510
Si Si4 0.613714 0.868343 0.020545
Si Si5 0.788368 0.220613 0.828929
Si Si6 0.096367 0.002843 0.047779
Si Si7 0.733632 0.566053 0.329082
O O1 0.729833 0.880272 0.864563
O O2 0.888587 0.723010 0.047137
O O3 0.750000 0.750000 0.000000
O O4 0.902608 0.895129 0.152698
O O5 0.626079 0.308749 0.244186
O O6 0.637874 0.196239 0.138804
O O7 0.512916 0.111740 0.099633
O O8 0.448300 0.574087 0.572886
O O9 0.640776 0.474770 0.782319
O O10 0.681615 0.823636 0.166145
O O11 0.660215 0.986608 0.042459
O O12 0.865660 0.118395 0.940249
O O13 0.757994 0.299640 0.865638
O O14 0.196500 0.060729 0.201735
O O15 0.000000 0.000000 0.000000
#
# Coordination Sequence:
#
# PCOD8130347 Si02
#       7
#     8   8   8   8   8   8   8
#     4   9  17  32  47  77 109 136 186 226 277 334
#     4  10  18  31  50  76 114 143 176 230 282 334
#     4  10  17  32  52  74 110 147 188 230 278 328
#     4  10  19  32  50  79 117 142 177 241 282 326
#     4  10  19  30  50  80 113 146 191 220 274 355
#     4   9  16  31  50  75 105 153 185 224 279 329
#     4  10  18  31  48  75 113 148 179 227 288 330
#
# _framework density 21.176316
#
# number of rings (size 3 to 8) (size 9 to 14) (size 15 to 20)
#    0.000    2.286    7.143    0.857    2.000    2.857 
#    0.000    0.000    0.000    0.000    0.000    1.000 
#   21.429    0.143    0.000    0.000    0.000    0.000 
#
# Total GULP energy -346966.630688 kJ/mol
# GULP energy per Si atom -12391.665382 kJ/mol
# Density = 2.112812 g / cm^3
# Si number density = 21.176316 Si / 1000 Ang^3
#
#
#
# Elastic Constant Matrix: (Units=GPa)
#
#
# Indices 1 2 3 4 5 6 
#
# 1 15.7137 2.7682 23.0614 0.0000 -7.2838 0.0000
# 2 2.7682 89.6866 28.3493 0.0000 -9.1106 0.0000
# 3 23.0614 28.3493 120.2721 0.0000 -0.1994 0.0000
# 4 0.0000 0.0000 0.0000 36.1436 0.0000 -1.0199
# 5 -7.2838 -9.1106 -0.1994 0.0000 36.0310 0.0000
# 6 0.0000 0.0000 0.0000 -1.0199 0.0000 29.4710
#
#
#
# Elastic Compliance Matrix: (Units=1/GPa)
#
#
# Indices 1 2 3 4 5 6 
#
# 1 0.104329 0.005803 -0.021335 0.000000 0.022440 0.000000
# 2 0.005803 0.012711 -0.004102 0.000000 0.004364 0.000000
# 3 -0.021335 -0.004102 0.013363 0.000000 -0.005276 0.000000
# 4 0.000000 0.000000 0.000000 0.027694 0.000000 0.000958
# 5 0.022440 0.004364 -0.005276 0.000000 0.033365 0.000000
# 6 0.000000 0.000000 0.000000 0.000958 0.000000 0.033965
#
#
# Mechanical properties :
#
#
# Convention : Reuss Voigt Hill
#
# Bulk Modulus (GPa) = 10.97255 37.11446 24.04351
# Shear Modulus (GPa) = 16.94497 31.76201 24.35349
#
# Velocity S-wave (km/s) = 2.83182 3.87703 3.39489
# Velocity P-wave (km/s) = 3.98561 6.13240 5.17162
#
# Compressibility (1/GPa) = 0.09113650
#
# Stress axis : x y z
#
# Youngs Moduli (GPa) = 9.58503 78.67429 74.83130
#
# Poissons Ratio (x) = -0.45657 1.59654
# Poissons Ratio (y) = -0.05562 0.30692
# Poissons Ratio (z) = 0.20450 0.32268
#
# Static dielectric constant tensor:
#      x y z
#    x 3.879440 0.000000 -0.148490 
#    y 0.000000 3.705630 0.000000 
#    z -0.148490 0.000000 4.404230 
# 
# 
# High freq. dielectric constant tensor:
#      x y z
#    x 1.818470 0.000000 0.024670 
#    y 0.000000 1.794460 0.000000 
#    z 0.024670 0.000000 1.830750 
# 
# From -- ./inp_files/257419.got.cif
#   From: 2010.06.25/outbox.cif.g09.slc.cpg/sg15_129_cif.got.tgz:257419.got - 2010.06.28 07:06:18.
