data_PCOD8130673
_publ_section_title
;
Structure prediction by ZEFSAII (Michael W. Deem and Ramdas Pophale) SiO2 
 PCOD8130673
Probable space group: C 2/C
;
_chemical_formula_sum "Si O2"
_cell_formula_units_Z 56
_cell_length_a 15.462680
_cell_length_b 11.721630
_cell_length_c 14.851972
_cell_angle_alpha 90.000000
_cell_angle_beta 89.813031
_cell_angle_gamma 90.000000
_cell_volume 2691.873123
_symmetry_space_group_name_H-M "C 2/C"
_symmetry_group_IT_number 15
_symmetry_cell_setting 'monoclinic'
loop_
_space_group_symop_operation_xyz
x,y,z
-x,y,1/2-z
-x,-y,-z
x,-y,1/2+z
1/2+x,1/2+y,z
1/2-x,1/2+y,1/2-z
1/2-x,1/2-y,-z
1/2+x,1/2-y,1/2+z
loop_
_atom_site_type_symbol
_atom_site_label
_atom_site_fract_x
_atom_site_fract_y
_atom_site_fract_z
Si Si1 0.841741 0.041172 0.932860
Si Si2 0.645711 0.194157 0.067505
Si Si3 0.988043 0.538228 0.353332
Si Si4 0.157741 0.573583 0.887779
Si Si5 0.709016 0.528089 0.370262
Si Si6 0.593620 0.385584 0.709438
Si Si7 0.151255 0.359340 0.184844
O O1 0.853235 0.173721 0.909793
O O2 0.746539 0.002561 0.897677
O O3 0.913139 0.971375 0.875981
O O4 0.849048 0.016568 0.039444
O O5 0.552766 0.145772 0.096009
O O6 0.720671 0.129201 0.122375
O O7 0.659714 0.175631 0.960867
O O8 0.927214 0.427072 0.361537
O O9 0.000000 0.574043 0.250000
O O10 0.078278 0.513158 0.403833
O O11 0.146067 0.629983 0.791885
O O12 0.648594 0.554031 0.286657
O O13 0.758103 0.407673 0.353252
O O14 0.500000 0.355196 0.750000
O O15 0.639787 0.274414 0.666972
#
# Coordination Sequence:
#
# PCOD8130673 Si02
#       7
#     8   8   8   8   8   8   8
#     4  11  23  38  60  89 123 163 199 244 309 363
#     4  10  20  35  61  90 122 158 202 250 301 360
#     4   9  19  33  57  89 123 156 202 252 297 345
#     4  10  17  36  60  89 115 155 207 252 297 350
#     4  10  22  41  63  88 119 156 207 254 294 357
#     4  12  25  41  62  88 124 163 201 244 304 366
#     4  10  20  38  62  87 118 160 202 248 299 356
#
# _framework density 20.803359
#
# number of rings (size 3 to 8) (size 9 to 14) (size 15 to 20)
#    0.000    1.714    1.429    5.143    0.000    1.714 
#    0.000    1.429    0.000    0.000    0.000    0.000 
#    0.000    0.000    0.000    0.000    0.000    0.000 
#
# Total GULP energy -347251.176911 kJ/mol
# GULP energy per Si atom -12401.827747 kJ/mol
# Density = 2.075601 g / cm^3
# Si number density = 20.803359 Si / 1000 Ang^3
#
#
#
# Elastic Constant Matrix: (Units=GPa)
#
#
# Indices 1 2 3 4 5 6 
#
# 1 61.4585 35.8842 18.4763 0.0000 -2.7995 0.0000
# 2 35.8842 120.3490 50.6272 0.0000 -18.9369 0.0000
# 3 18.4763 50.6272 73.4292 0.0000 -7.1051 0.0000
# 4 0.0000 0.0000 0.0000 22.6933 0.0000 -4.2357
# 5 -2.7995 -18.9369 -7.1051 0.0000 24.8794 0.0000
# 6 0.0000 0.0000 0.0000 -4.2357 0.0000 15.9198
#
#
#
# Elastic Compliance Matrix: (Units=1/GPa)
#
#
# Indices 1 2 3 4 5 6 
#
# 1 0.019927 -0.005815 -0.001250 0.000000 -0.002541 0.000000
# 2 -0.005815 0.014634 -0.007828 0.000000 0.008249 0.000000
# 3 -0.001250 -0.007828 0.019273 0.000000 -0.000595 0.000000
# 4 0.000000 0.000000 0.000000 0.046369 0.000000 0.012337
# 5 -0.002541 0.008249 -0.000595 0.000000 0.046016 0.000000
# 6 0.000000 0.000000 0.000000 0.012337 0.000000 0.066097
#
#
# Mechanical properties :
#
#
# Convention : Reuss Voigt Hill
#
# Bulk Modulus (GPa) = 41.58746 51.69025 46.63886
# Shear Modulus (GPa) = 19.99041 22.71511 21.35276
#
# Velocity S-wave (km/s) = 3.10324 3.30797 3.20724
# Velocity P-wave (km/s) = 5.73361 6.28420 6.01521
#
# Compressibility (1/GPa) = 0.02404571
#
# Stress axis : x y z
#
# Youngs Moduli (GPa) = 50.18381 68.33268 51.88590
#
# Poissons Ratio (x) = 0.39738 0.06487
# Poissons Ratio (y) = 0.29184 0.40619
# Poissons Ratio (z) = 0.06275 0.53494
#
# Static dielectric constant tensor:
#      x y z
#    x 3.932460 0.000000 -0.099020 
#    y 0.000000 3.570430 0.000000 
#    z -0.099020 0.000000 3.826170 
# 
# 
# High freq. dielectric constant tensor:
#      x y z
#    x 1.809520 0.000000 -0.002650 
#    y 0.000000 1.793260 0.000000 
#    z -0.002650 0.000000 1.821050 
# 
# From -- ./inp_files/152597.got.cif
#   From: 2010.06.25/outbox.cif.g09.slc.cpg/sg15_77_cif.got.tgz:152597.got - 2010.06.28 07:06:18.
