data_PCOD8130810
_publ_section_title
;
Structure prediction by ZEFSAII (Michael W. Deem and Ramdas Pophale) SiO2 
 PCOD8130810
Probable space group: C 2/C
;
_chemical_formula_sum "Si O2"
_cell_formula_units_Z 64
_cell_length_a 20.082648
_cell_length_b 30.516574
_cell_length_c 7.964411
_cell_angle_alpha 90.000000
_cell_angle_beta 129.042736
_cell_angle_gamma 90.000000
_cell_volume 3790.971271
_symmetry_space_group_name_H-M "C 2/C"
_symmetry_group_IT_number 15
_symmetry_cell_setting 'monoclinic'
loop_
_space_group_symop_operation_xyz
x,y,z
-x,y,1/2-z
-x,-y,-z
x,-y,1/2+z
1/2+x,1/2+y,z
1/2-x,1/2+y,1/2-z
1/2-x,1/2-y,-z
1/2+x,1/2-y,1/2+z
loop_
_atom_site_type_symbol
_atom_site_label
_atom_site_fract_x
_atom_site_fract_y
_atom_site_fract_z
Si Si1 0.905749 0.050969 0.404638
Si Si2 0.295662 0.196431 0.917125
Si Si3 0.303096 0.793810 0.056288
Si Si4 0.369799 0.758915 0.840911
Si Si5 0.331520 0.628062 0.793330
Si Si6 0.841572 0.142388 0.196570
Si Si7 0.013447 0.180873 0.465737
Si Si8 0.098828 0.956834 0.209839
O O1 0.846771 0.091375 0.254466
O O2 0.903770 0.050937 0.599093
O O3 0.003046 0.052926 0.485492
O O4 0.866842 0.005458 0.274643
O O5 0.340022 0.193838 0.801262
O O6 0.214257 0.228777 0.782326
O O7 0.257989 0.148727 0.914039
O O8 0.364217 0.210282 0.167282
O O9 0.250000 0.750000 0.000000
O O10 0.375189 0.785654 0.026946
O O11 0.244771 0.832953 0.883480
O O12 0.457155 0.731031 0.960204
O O13 0.333399 0.575910 0.770600
O O14 0.340853 0.644790 0.996494
O O15 0.415674 0.648796 0.836148
O O16 0.921468 0.169852 0.403967
O O17 0.000000 0.170017 0.250000
#
# Coordination Sequence:
#
# PCOD8130810 Si02
#       8
#     8   8   8   8   8   8   8   8
#     4  10  20  29  40  58  78 111 142 183 222 255
#     4   8  16  27  40  60  77 104 136 175 212 257
#     4   9  17  29  43  61  81 107 142 179 217 260
#     4   9  16  28  45  56  79 111 136 176 219 262
#     4   9  16  27  43  56  78 105 137 179 219 249
#     4  10  18  29  45  62  83 108 145 191 221 254
#     4   9  16  27  44  60  80 108 141 177 227 256
#     4  10  19  30  40  56  82 108 144 181 222 258
#
# _framework density 16.882218000000002
#
# number of rings (size 3 to 8) (size 9 to 14) (size 15 to 20)
#    0.000    2.750    1.250    3.000    1.750    1.000 
#    0.000    0.000    0.000    0.000    0.000    0.000 
#    0.000    0.000    0.000    0.000    0.000    5.000 
#
# Total GULP energy -396420.734620 kJ/mol
# GULP energy per Si atom -12388.147957 kJ/mol
# Density = 1.684379 g / cm^3
# Si number density = 16.882218 Si / 1000 Ang^3
#
#
#
# Elastic Constant Matrix: (Units=GPa)
#
#
# Indices 1 2 3 4 5 6 
#
# 1 30.0069 27.5536 16.5931 0.0000 -7.0128 0.0000
# 2 27.5536 119.9236 24.7564 0.0000 7.0358 0.0000
# 3 16.5931 24.7564 39.7279 0.0000 -8.4065 0.0000
# 4 0.0000 0.0000 0.0000 30.0620 0.0000 3.0783
# 5 -7.0128 7.0358 -8.4065 0.0000 11.3210 0.0000
# 6 0.0000 0.0000 0.0000 3.0783 0.0000 24.4120
#
#
#
# Elastic Compliance Matrix: (Units=1/GPa)
#
#
# Indices 1 2 3 4 5 6 
#
# 1 0.060700 -0.014861 -0.007334 0.000000 0.041391 0.000000
# 2 -0.014861 0.014911 -0.008298 0.000000 -0.024634 0.000000
# 3 -0.007334 -0.008298 0.039786 0.000000 0.030158 0.000000
# 4 0.000000 0.000000 0.000000 0.033700 0.000000 -0.004249
# 5 0.041391 -0.024634 0.030158 0.000000 0.151676 0.000000
# 6 0.000000 0.000000 0.000000 -0.004249 0.000000 0.041499
#
#
# Mechanical properties :
#
#
# Convention : Reuss Voigt Hill
#
# Bulk Modulus (GPa) = 18.37779 36.38494 27.38137
# Shear Modulus (GPa) = 11.86537 21.20937 16.53737
#
# Velocity S-wave (km/s) = 2.65397 3.54830 3.13321
# Velocity P-wave (km/s) = 4.50566 6.19566 5.41697
#
# Compressibility (1/GPa) = 0.05441350
#
# Stress axis : x y z
#
# Youngs Moduli (GPa) = 16.47440 67.06332 25.13427
#
# Poissons Ratio (x) = 0.99662 0.18432
# Poissons Ratio (y) = 0.24483 0.20856
# Poissons Ratio (z) = 0.12082 0.55647
#
# Static dielectric constant tensor:
#      x y z
#    x 2.995240 0.000000 -0.208860 
#    y 0.000000 3.018990 0.000000 
#    z -0.208860 0.000000 3.241790 
# 
# 
# High freq. dielectric constant tensor:
#      x y z
#    x 1.604290 0.000000 -0.035030 
#    y 0.000000 1.640070 0.000000 
#    z -0.035030 0.000000 1.631170 
# 
# From -- ./inp_files/63850.got.cif
#   From: 2010.06.25/outbox.cif.g09.slc.cpg/sg15_32_cif.got.tgz:63850.got - 2010.06.28 07:06:18.
