data_PCOD8130368
_publ_section_title
;
Structure prediction by ZEFSAII (Michael W. Deem and Ramdas Pophale) SiO2 
 PCOD8130368
Probable space group: C 2/C
;
_chemical_formula_sum "Si O2"
_cell_formula_units_Z 56
_cell_length_a 17.069530
_cell_length_b 9.582412
_cell_length_c 24.538201
_cell_angle_alpha 90.000000
_cell_angle_beta 48.498194
_cell_angle_gamma 90.000000
_cell_volume 3005.959696
_symmetry_space_group_name_H-M "C 2/C"
_symmetry_group_IT_number 15
_symmetry_cell_setting 'monoclinic'
loop_
_space_group_symop_operation_xyz
x,y,z
-x,y,1/2-z
-x,-y,-z
x,-y,1/2+z
1/2+x,1/2+y,z
1/2-x,1/2+y,1/2-z
1/2-x,1/2-y,-z
1/2+x,1/2-y,1/2+z
loop_
_atom_site_type_symbol
_atom_site_label
_atom_site_fract_x
_atom_site_fract_y
_atom_site_fract_z
Si Si1 0.042420 0.957061 0.037850
Si Si2 0.256547 0.463758 0.615293
Si Si3 0.915395 0.323871 0.331871
Si Si4 0.194950 0.105039 0.186633
Si Si5 0.148920 0.184340 0.846867
Si Si6 0.554303 0.697811 0.351230
Si Si7 0.753400 0.198264 0.815749
O O1 0.977675 0.821772 0.089658
O O2 0.022753 0.085510 0.087110
O O3 0.164277 0.925351 0.970854
O O4 0.000000 0.000000 0.000000
O O5 0.170308 0.555980 0.624858
O O6 0.306064 0.543839 0.644897
O O7 0.207749 0.322223 0.662647
O O8 0.866110 0.174258 0.336088
O O9 0.000000 0.377114 0.250000
O O10 0.974593 0.309717 0.362014
O O11 0.306114 0.182212 0.142745
O O12 0.125082 0.122837 0.272930
O O13 0.224324 0.944746 0.161778
O O14 0.179617 0.190826 0.769901
O O15 0.629982 0.777923 0.359066
#
# Coordination Sequence:
#
# PCOD8130368 Si02
#       7
#     8   8   8   8   8   8   8
#     4  10  17  32  53  84 112 141 186 225 277 319
#     4  10  20  33  55  80 111 144 181 232 272 332
#     4   9  20  36  53  78 112 140 183 227 277 325
#     4   9  18  31  53  80 109 139 181 229 273 321
#     4   9  16  30  51  79 106 141 182 227 263 321
#     4  10  18  32  57  81 106 144 185 226 267 328
#     4  11  17  31  57  85 102 135 192 229 265 312
#
# _framework density 18.629659
#
# number of rings (size 3 to 8) (size 9 to 14) (size 15 to 20)
#    0.000    2.286    4.286    1.714    0.000    0.571 
#    0.000    2.857    3.143    0.857    0.000    0.000 
#    0.000    0.000    0.000    0.000    0.000    0.000 
#
# Total GULP energy -346976.936626 kJ/mol
# GULP energy per Si atom -12392.033451 kJ/mol
# Density = 1.858726 g / cm^3
# Si number density = 18.629659 Si / 1000 Ang^3
#
#
#
# Elastic Constant Matrix: (Units=GPa)
#
#
# Indices 1 2 3 4 5 6 
#
# 1 62.0580 24.4764 19.4410 0.0000 -7.9730 0.0000
# 2 24.4764 109.7496 34.6569 0.0000 -9.0354 0.0002
# 3 19.4410 34.6569 97.0509 0.0000 -14.4854 0.0000
# 4 0.0000 0.0000 0.0000 28.0945 0.0000 -5.6070
# 5 -7.9730 -9.0354 -14.4854 0.0000 16.0498 0.0000
# 6 0.0000 0.0002 0.0000 -5.6070 0.0000 15.3018
#
#
#
# Elastic Compliance Matrix: (Units=1/GPa)
#
#
# Indices 1 2 3 4 5 6 
#
# 1 0.018652 -0.003123 -0.001734 0.000000 0.005943 0.000000
# 2 -0.003123 0.010907 -0.002987 0.000000 0.001893 0.000000
# 3 -0.001734 -0.002987 0.013103 0.000000 0.009283 0.000000
# 4 0.000000 0.000000 0.000000 0.038403 0.000000 0.014072
# 5 0.005943 0.001893 0.009283 0.000000 0.074703 0.000000
# 6 0.000000 0.000000 0.000000 0.014072 0.000000 0.070508
#
#
# Mechanical properties :
#
#
# Convention : Reuss Voigt Hill
#
# Bulk Modulus (GPa) = 37.07126 47.33411 42.20269
# Shear Modulus (GPa) = 19.92381 24.57483 22.24932
#
# Velocity S-wave (km/s) = 3.27382 3.63591 3.45961
# Velocity P-wave (km/s) = 5.85088 6.56427 6.21781
#
# Compressibility (1/GPa) = 0.02697507
#
# Stress axis : x y z
#
# Youngs Moduli (GPa) = 53.61214 91.68274 76.31590
#
# Poissons Ratio (x) = 0.28633 0.13235
# Poissons Ratio (y) = 0.16743 0.22794
# Poissons Ratio (z) = 0.09298 0.27384
#
# Static dielectric constant tensor:
#      x y z
#    x 3.422460 0.000000 -0.422700 
#    y 0.000000 3.329640 0.000000 
#    z -0.422700 0.000000 3.977000 
# 
# 
# High freq. dielectric constant tensor:
#      x y z
#    x 1.702650 0.000000 -0.009600 
#    y 0.000000 1.706060 0.000000 
#    z -0.009600 0.000000 1.713730 
# 
# From -- ./inp_files/246978.got.cif
#   From: 2010.06.25/outbox.cif.g09.slc.cpg/sg15_124_cif.got.tgz:246978.got - 2010.06.28 07:06:18.
