data_PCOD8130339
_publ_section_title
;
Structure prediction by ZEFSAII (Michael W. Deem and Ramdas Pophale) SiO2 
 PCOD8130339
Probable space group: C 2/C
;
_chemical_formula_sum "Si O2"
_cell_formula_units_Z 56
_cell_length_a 26.445858
_cell_length_b 7.265333
_cell_length_c 19.214520
_cell_angle_alpha 90.000000
_cell_angle_beta 143.460336
_cell_angle_gamma 90.000000
_cell_volume 2198.043747
_symmetry_space_group_name_H-M "C 2/C"
_symmetry_group_IT_number 15
_symmetry_cell_setting 'monoclinic'
loop_
_space_group_symop_operation_xyz
x,y,z
-x,y,1/2-z
-x,-y,-z
x,-y,1/2+z
1/2+x,1/2+y,z
1/2-x,1/2+y,1/2-z
1/2-x,1/2-y,-z
1/2+x,1/2-y,1/2+z
loop_
_atom_site_type_symbol
_atom_site_label
_atom_site_fract_x
_atom_site_fract_y
_atom_site_fract_z
Si Si1 0.952356 0.161272 0.486552
Si Si2 0.723140 0.477375 0.904301
Si Si3 0.667456 0.069400 0.100306
Si Si4 0.687333 0.046232 0.863098
Si Si5 0.786154 0.013430 0.845243
Si Si6 0.033486 0.030881 0.707615
Si Si7 0.982124 0.638270 0.884017
O O1 0.851098 0.129829 0.382160
O O2 0.964292 0.333031 0.447280
O O3 0.000000 0.000000 0.500000
O O4 0.989714 0.177752 0.606474
O O5 0.768028 0.527188 0.881935
O O6 0.701662 0.263483 0.880637
O O7 0.633783 0.581561 0.815964
O O8 0.792287 0.535563 0.038848
O O9 0.697163 0.983990 0.205748
O O10 0.669209 0.289440 0.103606
O O11 0.569505 0.019201 0.974964
O O12 0.591127 0.010191 0.731095
O O13 0.758318 0.953951 0.891831
O O14 0.011935 0.827114 0.654177
O O15 0.000000 0.048654 0.750000
#
# Coordination Sequence:
#
# PCOD8130339 Si02
#       7
#     8   8   8   8   8   8   8
#     4  10  17  32  51  76 112 144 191 237 285 336
#     4   9  19  31  50  83 112 143 178 244 294 341
#     4  11  22  34  58  82 115 152 193 235 298 339
#     4   9  19  33  51  77 114 139 183 233 295 339
#     4  11  20  36  55  82 111 152 191 240 284 350
#     4  10  18  29  52  81 113 145 186 243 297 339
#     4  10  21  33  53  82 115 151 187 246 290 349
#
# _framework density 25.477201000000001
#
# number of rings (size 3 to 8) (size 9 to 14) (size 15 to 20)
#    0.000    2.000    2.857    4.286    6.000    0.571 
#    0.000    0.000    0.000    0.857    3.714    0.000 
#    0.000    0.000    0.000    0.000    0.000    0.000 
#
# Total GULP energy -347020.009648 kJ/mol
# GULP energy per Si atom -12393.571773 kJ/mol
# Density = 2.541921 g / cm^3
# Si number density = 25.477201 Si / 1000 Ang^3
#
#
#
# Elastic Constant Matrix: (Units=GPa)
#
#
# Indices 1 2 3 4 5 6 
#
# 1 141.1274 9.5710 75.0426 0.0000 3.5599 0.0000
# 2 9.5710 10.7678 15.8317 0.0001 6.0196 0.0000
# 3 75.0426 15.8317 191.6526 0.0000 10.9228 0.0000
# 4 0.0000 0.0001 0.0000 21.4170 0.0000 10.0791
# 5 3.5599 6.0196 10.9228 0.0000 62.4236 0.0000
# 6 0.0000 0.0000 0.0000 10.0791 0.0000 15.8822
#
#
#
# Elastic Compliance Matrix: (Units=1/GPa)
#
#
# Indices 1 2 3 4 5 6 
#
# 1 0.009055 -0.003439 -0.003284 0.000000 0.000390 0.000000
# 2 -0.003439 0.111971 -0.007372 0.000000 -0.009311 0.000000
# 3 -0.003284 -0.007372 0.007133 0.000000 -0.000350 0.000000
# 4 0.000000 0.000000 0.000000 0.066575 0.000000 -0.042250
# 5 0.000390 -0.009311 -0.000350 0.000000 0.016956 0.000000
# 6 0.000000 0.000000 0.000000 -0.042250 0.000000 0.089776
#
#
# Mechanical properties :
#
#
# Convention : Reuss Voigt Hill
#
# Bulk Modulus (GPa) = 10.00309 60.49317 35.24813
# Shear Modulus (GPa) = 13.77490 36.15141 24.96315
#
# Velocity S-wave (km/s) = 2.32777 3.77101 3.13361
# Velocity P-wave (km/s) = 3.34058 6.53883 5.19210
#
# Compressibility (1/GPa) = 0.09996916
#
# Stress axis : x y z
#
# Youngs Moduli (GPa) = 110.43274 8.93088 140.20304
#
# Poissons Ratio (x) = 0.03071 0.46040
# Poissons Ratio (y) = 0.37974 1.03363
# Poissons Ratio (z) = 0.36264 0.06584
#
# Static dielectric constant tensor:
#      x y z
#    x 4.725950 0.000000 -0.087800 
#    y 0.000000 4.158620 0.000000 
#    z -0.087800 0.000000 5.089930 
# 
# 
# High freq. dielectric constant tensor:
#      x y z
#    x 2.022120 0.000000 0.003660 
#    y 0.000000 1.988160 0.000000 
#    z 0.003660 0.000000 2.033360 
# 
# From -- ./inp_files/222062.got.cif
#   From: 2010.06.25/outbox.cif.g09.slc.cpg/sg15_112_cif.got.tgz:222062.got - 2010.06.28 07:06:18.
