data_PCOD8130498
_publ_section_title
;
Structure prediction by ZEFSAII (Michael W. Deem and Ramdas Pophale) SiO2 
 PCOD8130498
Probable space group: C 2/C
;
_chemical_formula_sum "Si O2"
_cell_formula_units_Z 64
_cell_length_a 25.228779
_cell_length_b 15.267155
_cell_length_c 9.670546
_cell_angle_alpha 90.000000
_cell_angle_beta 97.997235
_cell_angle_gamma 90.000000
_cell_volume 3688.595760
_symmetry_space_group_name_H-M "C 2/C"
_symmetry_group_IT_number 15
_symmetry_cell_setting 'monoclinic'
loop_
_space_group_symop_operation_xyz
x,y,z
-x,y,1/2-z
-x,-y,-z
x,-y,1/2+z
1/2+x,1/2+y,z
1/2-x,1/2+y,1/2-z
1/2-x,1/2-y,-z
1/2+x,1/2-y,1/2+z
loop_
_atom_site_type_symbol
_atom_site_label
_atom_site_fract_x
_atom_site_fract_y
_atom_site_fract_z
Si Si1 0.194172 0.096058 0.288083
Si Si2 0.659724 0.789945 0.314460
Si Si3 0.601489 0.965137 0.601372
Si Si4 0.683885 0.107379 0.561625
Si Si5 0.808594 0.667403 0.370615
Si Si6 0.198159 0.055410 0.981828
Si Si7 0.441296 0.093630 0.690739
Si Si8 0.193968 0.761226 0.397575
O O1 0.161336 0.187225 0.275579
O O2 0.257024 0.106735 0.337703
O O3 0.172760 0.029551 0.398108
O O4 0.187233 0.046675 0.140139
O O5 0.692244 0.849513 0.216669
O O6 0.688175 0.798863 0.472152
O O7 0.598968 0.825609 0.296210
O O8 0.640382 0.032414 0.539160
O O9 0.572333 0.008279 0.721361
O O10 0.638352 0.883624 0.660213
O O11 0.559023 0.933850 0.470481
O O12 0.739012 0.065655 0.528840
O O13 0.659571 0.181875 0.450030
O O14 0.800276 0.749917 0.265374
O O15 0.168638 0.143746 0.916617
O O16 0.500000 0.128233 0.750000
O O17 0.250000 0.750000 0.500000
#
# Coordination Sequence:
#
# PCOD8130498 Si02
#       8
#     8   8   8   8   8   8   8   8
#     4  12  22  34  46  75 105 140 178 213 250 311
#     4  10  23  34  52  74 103 140 181 214 260 313
#     4  10  20  31  55  81 104 137 175 209 260 317
#     4  10  17  34  49  68 104 142 174 203 249 312
#     4  11  20  32  50  73 110 141 177 207 246 314
#     4  11  23  30  49  68 105 141 178 210 252 292
#     4  10  21  37  55  78 105 136 177 226 266 307
#     4  10  18  32  45  64  98 147 174 206 243 295
#
# _framework density 17.350776
#
# number of rings (size 3 to 8) (size 9 to 14) (size 15 to 20)
#    0.000    1.500    5.000    2.250    3.500    0.000 
#    0.000    0.000    0.000    0.000    0.000    0.875 
#    0.000    0.000    0.000    0.000    0.000    0.000 
#
# Total GULP energy -396645.620910 kJ/mol
# GULP energy per Si atom -12395.175653 kJ/mol
# Density = 1.731129 g / cm^3
# Si number density = 17.350776 Si / 1000 Ang^3
#
#
#
# Elastic Constant Matrix: (Units=GPa)
#
#
# Indices 1 2 3 4 5 6 
#
# 1 37.7548 13.7113 24.5313 0.0000 6.1234 0.0000
# 2 13.7113 79.4124 39.3862 0.0000 4.4508 0.0000
# 3 24.5313 39.3862 127.9070 0.0000 -4.2844 0.0000
# 4 0.0000 0.0000 0.0000 34.7562 0.0000 -6.1805
# 5 6.1234 4.4508 -4.2844 0.0000 21.0607 0.0000
# 6 0.0000 0.0000 0.0000 -6.1805 0.0000 14.8145
#
#
#
# Elastic Compliance Matrix: (Units=1/GPa)
#
#
# Indices 1 2 3 4 5 6 
#
# 1 0.032819 -0.002119 -0.005987 0.000000 -0.010312 0.000000
# 2 -0.002119 0.015359 -0.004441 0.000000 -0.003533 0.000000
# 3 -0.005987 -0.004441 0.010495 0.000000 0.004815 0.000000
# 4 0.000000 0.000000 0.000000 0.031077 0.000000 0.012965
# 5 -0.010312 -0.003533 0.004815 0.000000 0.052206 0.000000
# 6 0.000000 0.000000 0.000000 0.012965 0.000000 0.072910
#
#
# Mechanical properties :
#
#
# Convention : Reuss Voigt Hill
#
# Bulk Modulus (GPa) = 29.78128 44.48128 37.13128
# Shear Modulus (GPa) = 19.90795 25.28931 22.59863
#
# Velocity S-wave (km/s) = 3.39098 3.82191 3.61287
# Velocity P-wave (km/s) = 5.70378 6.72072 6.23303
#
# Compressibility (1/GPa) = 0.03357814
#
# Stress axis : x y z
#
# Youngs Moduli (GPa) = 30.47007 65.10740 95.27969
#
# Poissons Ratio (x) = 0.13796 0.57047
# Poissons Ratio (y) = 0.06457 0.42318
# Poissons Ratio (z) = 0.18243 0.28917
#
# Static dielectric constant tensor:
#      x y z
#    x 2.833930 0.000000 -0.166310 
#    y 0.000000 3.586790 0.000000 
#    z -0.166310 0.000000 3.433570 
# 
# 
# High freq. dielectric constant tensor:
#      x y z
#    x 1.606850 0.000000 -0.018480 
#    y 0.000000 1.673680 0.000000 
#    z -0.018480 0.000000 1.690070 
# 
# From -- ./inp_files/66258.got.cif
#   From: 2010.06.25/outbox.cif.g09.slc.cpg/sg15_34_cif.got.tgz:66258.got - 2010.06.28 07:06:18.
