data_PCOD8130665
_publ_section_title
;
Structure prediction by ZEFSAII (Michael W. Deem and Ramdas Pophale) SiO2 
 PCOD8130665
Probable space group: C 2/C
;
_chemical_formula_sum "Si O2"
_cell_formula_units_Z 48
_cell_length_a 12.336159
_cell_length_b 12.543598
_cell_length_c 19.610773
_cell_angle_alpha 90.000000
_cell_angle_beta 130.081002
_cell_angle_gamma 90.000000
_cell_volume 2321.853588
_symmetry_space_group_name_H-M "C 2/C"
_symmetry_group_IT_number 15
_symmetry_cell_setting 'monoclinic'
loop_
_space_group_symop_operation_xyz
x,y,z
-x,y,1/2-z
-x,-y,-z
x,-y,1/2+z
1/2+x,1/2+y,z
1/2-x,1/2+y,1/2-z
1/2-x,1/2-y,-z
1/2+x,1/2-y,1/2+z
loop_
_atom_site_type_symbol
_atom_site_label
_atom_site_fract_x
_atom_site_fract_y
_atom_site_fract_z
Si Si1 0.438822 0.936384 0.798606
Si Si2 0.766758 0.369399 0.534074
Si Si3 0.362143 0.413110 0.553319
Si Si4 0.389873 0.837552 0.296619
Si Si5 0.661905 0.652083 0.140587
Si Si6 0.198090 0.280182 0.381330
O O1 0.500000 0.969138 0.750000
O O2 0.564599 0.887594 0.894614
O O3 0.309984 0.855212 0.740777
O O4 0.361218 0.039090 0.799889
O O5 0.750000 0.250000 0.500000
O O6 0.698157 0.466311 0.462394
O O7 0.683738 0.377685 0.571453
O O8 0.534110 0.417866 0.621827
O O9 0.319083 0.353006 0.465375
O O10 0.301489 0.342923 0.592264
O O11 0.372709 0.776431 0.361364
O O12 0.553181 0.835242 0.342862
O O13 0.289893 0.786964 0.196173
#
# Coordination Sequence:
#
# PCOD8130665 Si02
#       6
#     8   8   8   8   8   8
#     4  10  19  38  60  78 113 160 189 225 292 350
#     4  11  23  40  57  81 123 164 187 224 293 354
#     4  10  19  36  60  87 113 144 195 240 287 332
#     4  10  17  36  59  86 109 143 197 237 287 336
#     4  10  23  35  58  88 110 149 202 238 277 339
#     4   9  17  32  64  88 107 140 189 249 288 329
#
# _framework density 20.67314
#
# number of rings (size 3 to 8) (size 9 to 14) (size 15 to 20)
#    0.000    2.000    3.333    1.500    0.000    2.667 
#    3.000    0.833    7.333    0.000    0.000    0.000 
#    0.000    0.000    0.000    0.000    0.000    0.000 
#
# Total GULP energy -297351.840870 kJ/mol
# GULP energy per Si atom -12389.660036 kJ/mol
# Density = 2.062609 g / cm^3
# Si number density = 20.673140 Si / 1000 Ang^3
#
#
#
# Elastic Constant Matrix: (Units=GPa)
#
#
# Indices 1 2 3 4 5 6 
#
# 1 42.5967 31.3835 22.8400 0.0000 18.7946 0.0000
# 2 31.3835 143.2471 38.2426 0.0000 8.6171 0.0000
# 3 22.8400 38.2426 83.5822 0.0000 20.3041 0.0000
# 4 0.0000 0.0000 0.0000 29.8866 0.0000 -5.7666
# 5 18.7946 8.6171 20.3041 0.0000 27.1660 0.0000
# 6 0.0000 0.0000 0.0000 -5.7666 0.0000 15.9627
#
#
#
# Elastic Compliance Matrix: (Units=1/GPa)
#
#
# Indices 1 2 3 4 5 6 
#
# 1 0.040252 -0.006830 -0.001999 0.000000 -0.024188 0.000000
# 2 -0.006830 0.009113 -0.003358 0.000000 0.004345 0.000000
# 3 -0.001999 -0.003358 0.016437 0.000000 -0.009837 0.000000
# 4 0.000000 0.000000 0.000000 0.035967 0.000000 0.012993
# 5 -0.024188 0.004345 -0.009837 0.000000 0.059519 0.000000
# 6 0.000000 0.000000 0.000000 0.012993 0.000000 0.067340
#
#
# Mechanical properties :
#
#
# Convention : Reuss Voigt Hill
#
# Bulk Modulus (GPa) = 24.13892 50.48425 37.31158
# Shear Modulus (GPa) = 18.73996 26.40040 22.57018
#
# Velocity S-wave (km/s) = 3.01406 3.57744 3.30777
# Velocity P-wave (km/s) = 4.88002 6.44495 5.71629
#
# Compressibility (1/GPa) = 0.04142688
#
# Stress axis : x y z
#
# Youngs Moduli (GPa) = 24.84351 109.73865 60.83956
#
# Poissons Ratio (x) = 0.74952 0.12159
# Poissons Ratio (y) = 0.16968 0.20433
# Poissons Ratio (z) = 0.04965 0.36856
#
# Static dielectric constant tensor:
#      x y z
#    x 3.466050 0.000000 0.148740 
#    y 0.000000 3.752530 0.000000 
#    z 0.148740 0.000000 4.016000 
# 
# 
# High freq. dielectric constant tensor:
#      x y z
#    x 1.776090 0.000000 0.022010 
#    y 0.000000 1.809120 0.000000 
#    z 0.022010 0.000000 1.807360 
# 
# From -- ./inp_files/196210.got.cif
#   From: 2010.06.25/outbox.cif.g09.slc.cpg/sg15_99_cif.got.tgz:196210.got - 2010.06.28 07:06:18.
