data_PCOD8130111
_publ_section_title
;
Structure prediction by ZEFSAII (Michael W. Deem and Ramdas Pophale) SiO2 
 PCOD8130111
Probable space group: C 2/C
;
_chemical_formula_sum "Si O2"
_cell_formula_units_Z 52
_cell_length_a 29.093412
_cell_length_b 22.201705
_cell_length_c 5.241757
_cell_angle_alpha 90.000000
_cell_angle_beta 105.828179
_cell_angle_gamma 90.000000
_cell_volume 3257.398149
_symmetry_space_group_name_H-M "C 2/C"
_symmetry_group_IT_number 15
_symmetry_cell_setting 'monoclinic'
loop_
_space_group_symop_operation_xyz
x,y,z
-x,y,1/2-z
-x,-y,-z
x,-y,1/2+z
1/2+x,1/2+y,z
1/2-x,1/2+y,1/2-z
1/2-x,1/2-y,-z
1/2+x,1/2-y,1/2+z
loop_
_atom_site_type_symbol
_atom_site_label
_atom_site_fract_x
_atom_site_fract_y
_atom_site_fract_z
Si Si1 0.632440 0.256931 0.794442
Si Si2 0.500000 0.889134 0.250000
Si Si3 0.523523 0.227169 0.539883
Si Si4 0.274553 0.844066 0.513944
Si Si5 0.403524 0.960541 0.112279
Si Si6 0.680522 0.869645 0.420464
Si Si7 0.676504 0.715101 0.863702
O O1 0.579618 0.236569 0.640770
O O2 0.665968 0.199382 0.870853
O O3 0.650522 0.299869 0.592152
O O4 0.638054 0.291248 0.073954
O O5 0.489584 0.844603 0.474461
O O6 0.455175 0.932103 0.144645
O O7 0.500000 0.259986 0.750000
O O8 0.500000 0.255020 0.250000
O O9 0.294869 0.885986 0.313722
O O10 0.303583 0.782321 0.581867
O O11 0.218822 0.832199 0.377849
O O12 0.281216 0.878519 0.793010
O O13 0.365192 0.907878 0.070012
O O14 0.396199 0.997314 0.359107
#
# Coordination Sequence:
#
# PCOD8130111 Si02
#       7
#     8   4   8   8   8   8   8
#     4  10  17  29  44  61  85 106 131 173 210 261
#     4  10  24  36  50  58  80 106 154 192 244 272
#     4  10  20  30  47  61  80 111 151 174 222 273
#     4   9  17  28  46  64  84 102 123 154 206 286
#     4  12  25  36  48  63  80 106 149 199 240 271
#     4  10  18  32  46  59  81 107 129 166 227 273
#     4   9  17  26  43  68  84 100 125 157 209 259
#
# _framework density 15.963661999999999
#
# number of rings (size 3 to 8) (size 9 to 14) (size 15 to 20)
#    0.462    1.538    1.538    3.231    2.154    4.923 
#    0.000    0.000    0.000    0.000    0.000    0.000 
#    0.000    0.000    0.000    0.000    0.000    0.000 
#
# Total GULP energy -322154.100361 kJ/mol
# GULP energy per Si atom -12390.542322 kJ/mol
# Density = 1.592733 g / cm^3
# Si number density = 15.963662 Si / 1000 Ang^3
#
#
#
# Elastic Constant Matrix: (Units=GPa)
#
#
# Indices 1 2 3 4 5 6 
#
# 1 47.7597 14.2130 38.2691 0.0000 -11.2533 0.0000
# 2 14.2130 16.2787 13.2675 0.0000 1.9052 0.0000
# 3 38.2691 13.2675 148.4913 0.0000 -9.6410 0.0000
# 4 0.0000 0.0000 0.0000 9.7726 0.0000 -1.3192
# 5 -11.2533 1.9052 -9.6410 0.0000 23.6005 0.0000
# 6 0.0000 0.0000 0.0000 -1.3192 0.0000 -12.2010
#
#
#
# Elastic Compliance Matrix: (Units=1/GPa)
#
#
# Indices 1 2 3 4 5 6 
#
# 1 0.039941 -0.032065 -0.006188 0.000000 0.019105 0.000000
# 2 -0.032065 0.093492 -0.001615 0.000000 -0.023497 0.000000
# 3 -0.006188 -0.001615 0.008516 0.000000 0.000659 0.000000
# 4 0.000000 0.000000 0.000000 0.100854 0.000000 -0.010904
# 5 0.019105 -0.023497 0.000659 0.000000 0.053648 0.000000
# 6 0.000000 0.000000 0.000000 -0.010904 0.000000 -0.080781
#
#
# Mechanical properties :
#
#
# Convention : Reuss Voigt Hill
#
# Bulk Modulus (GPa) = 16.07384 38.22543 27.14963
# Shear Modulus (GPa) = 15.81558 14.01977 14.91768
#
# Velocity S-wave (km/s) = 3.15099 2.96671 3.06024
# Velocity P-wave (km/s) = 4.83003 5.97766 5.43423
#
# Compressibility (1/GPa) = 0.06221290
#
# Stress axis : x y z
#
# Youngs Moduli (GPa) = 25.03724 10.69605 117.42235
#
# Poissons Ratio (x) = 0.34297 0.72662
# Poissons Ratio (y) = 0.80282 0.18966
# Poissons Ratio (z) = 0.15493 0.01728
#
# Static dielectric constant tensor:
#      x y z
#    x 3.057760 0.000000 -0.186560 
#    y 0.000000 2.474930 0.000000 
#    z -0.186560 0.000000 3.451550 
# 
# 
# High freq. dielectric constant tensor:
#      x y z
#    x 1.615530 0.000000 -0.011110 
#    y 0.000000 1.531890 0.000000 
#    z -0.011110 0.000000 1.637490 
# 
# From -- ./inp_files/16075.got.cif
#   From: 2010.06.25/outbox.cif.g09.slc.cpg/sg15_9_cif.got.tgz:16075.got - 2010.06.28 07:06:18.
