data_PCOD8130546
_publ_section_title
;
Structure prediction by ZEFSAII (Michael W. Deem and Ramdas Pophale) SiO2 
 PCOD8130546
Probable space group: C 2/C
;
_chemical_formula_sum "Si O2"
_cell_formula_units_Z 52
_cell_length_a 29.689785
_cell_length_b 8.325099
_cell_length_c 21.379289
_cell_angle_alpha 90.000000
_cell_angle_beta 151.674608
_cell_angle_gamma 90.000000
_cell_volume 2507.299037
_symmetry_space_group_name_H-M "C 2/C"
_symmetry_group_IT_number 15
_symmetry_cell_setting 'monoclinic'
loop_
_space_group_symop_operation_xyz
x,y,z
-x,y,1/2-z
-x,-y,-z
x,-y,1/2+z
1/2+x,1/2+y,z
1/2-x,1/2+y,1/2-z
1/2-x,1/2-y,-z
1/2+x,1/2-y,1/2+z
loop_
_atom_site_type_symbol
_atom_site_label
_atom_site_fract_x
_atom_site_fract_y
_atom_site_fract_z
Si Si1 0.500000 0.709240 0.250000
Si Si2 0.498828 0.244800 0.552555
Si Si3 0.006234 0.976803 0.150339
Si Si4 0.834489 0.236618 0.440995
Si Si5 0.685426 0.661828 0.228171
Si Si6 0.134968 0.183069 0.716762
Si Si7 0.114481 0.597068 0.983439
O O1 0.545390 0.596087 0.251604
O O2 0.418067 0.822178 0.121318
O O3 0.475224 0.421805 0.551358
O O4 0.611849 0.231462 0.678855
O O5 0.442824 0.220961 0.418993
O O6 0.467503 0.110812 0.564067
O O7 0.089754 0.856466 0.229597
O O8 0.913192 0.886266 0.063500
O O9 0.827820 0.217914 0.358687
O O10 0.729257 0.207042 0.341440
O O11 0.867095 0.411034 0.503991
O O12 0.665734 0.473768 0.214916
O O13 0.793032 0.696908 0.380832
#
# Coordination Sequence:
#
# PCOD8130546 Si02
#       7
#     4   8   8   8   8   8   8
#     4  10  24  44  60  70 112 168 204 222 282 344
#     4  10  17  34  58  85 122 149 182 223 294 354
#     4  10  20  39  59  81 110 163 196 224 276 354
#     4  11  20  33  60  92 117 139 187 246 293 323
#     4  10  18  33  57  89 116 147 180 230 298 344
#     4  10  18  33  58  90 123 142 186 231 290 346
#     4  10  23  36  55  88 119 147 189 245 279 335
#
# _framework density 20.739447999999999
#
# number of rings (size 3 to 8) (size 9 to 14) (size 15 to 20)
#    0.000    1.846    4.615    0.923    0.000    1.231 
#    0.000   13.077    0.000    0.000    0.000    0.000 
#    0.000    0.000    0.000    0.000    0.000    0.000 
#
# Total GULP energy -322293.185101 kJ/mol
# GULP energy per Si atom -12395.891735 kJ/mol
# Density = 2.069224 g / cm^3
# Si number density = 20.739448 Si / 1000 Ang^3
#
#
#
# Elastic Constant Matrix: (Units=GPa)
#
#
# Indices 1 2 3 4 5 6 
#
# 1 55.3382 13.2717 31.5333 0.0000 1.6750 0.0000
# 2 13.2717 42.1656 31.0629 0.0000 -4.9895 0.0000
# 3 31.5333 31.0629 94.2754 0.0000 -4.2066 0.0000
# 4 0.0000 0.0000 0.0000 28.8915 0.0000 -1.0222
# 5 1.6750 -4.9895 -4.2066 0.0000 33.0147 0.0000
# 6 0.0000 0.0000 0.0000 -1.0222 0.0000 27.5823
#
#
#
# Elastic Compliance Matrix: (Units=1/GPa)
#
#
# Indices 1 2 3 4 5 6 
#
# 1 0.022638 -0.002312 -0.006917 0.000000 -0.002379 0.000000
# 2 -0.002312 0.031947 -0.009587 0.000000 0.003724 0.000000
# 3 -0.006917 -0.009587 0.016122 0.000000 0.000956 0.000000
# 4 0.000000 0.000000 0.000000 0.034658 0.000000 0.001284
# 5 -0.002379 0.003724 0.000956 0.000000 0.031095 0.000000
# 6 0.000000 0.000000 0.000000 0.001284 0.000000 0.036303
#
#
# Mechanical properties :
#
#
# Convention : Reuss Voigt Hill
#
# Bulk Modulus (GPa) = 30.23234 38.16833 34.20033
# Shear Modulus (GPa) = 22.58170 25.62514 24.10342
#
# Velocity S-wave (km/s) = 3.30332 3.51889 3.41281
# Velocity P-wave (km/s) = 5.39982 5.91217 5.66180
#
# Compressibility (1/GPa) = 0.03307716
#
# Stress axis : x y z
#
# Youngs Moduli (GPa) = 44.17279 31.30210 62.02658
#
# Poissons Ratio (x) = 0.07236 0.42901
# Poissons Ratio (y) = 0.10211 0.59464
# Poissons Ratio (z) = 0.30553 0.30009
#
# Static dielectric constant tensor:
#      x y z
#    x 3.790590 0.000000 0.354280 
#    y 0.000000 3.550690 0.000000 
#    z 0.354280 0.000000 3.848520 
# 
# 
# High freq. dielectric constant tensor:
#      x y z
#    x 1.801030 0.000000 0.020710 
#    y 0.000000 1.791000 0.000000 
#    z 0.020710 0.000000 1.800180 
# 
# From -- ./inp_files/166338.got.cif
#   From: 2010.06.25/outbox.cif.g09.slc.cpg/sg15_84_cif.got.tgz:166338.got - 2010.06.28 07:06:18.
