data_PCOD8130432
_publ_section_title
;
Structure prediction by ZEFSAII (Michael W. Deem and Ramdas Pophale) SiO2 
 PCOD8130432
Probable space group: C 2/C
;
_chemical_formula_sum "Si O2"
_cell_formula_units_Z 64
_cell_length_a 21.503255
_cell_length_b 10.377146
_cell_length_c 25.632049
_cell_angle_alpha 90.000000
_cell_angle_beta 140.861602
_cell_angle_gamma 90.000000
_cell_volume 3610.185543
_symmetry_space_group_name_H-M "C 2/C"
_symmetry_group_IT_number 15
_symmetry_cell_setting 'monoclinic'
loop_
_space_group_symop_operation_xyz
x,y,z
-x,y,1/2-z
-x,-y,-z
x,-y,1/2+z
1/2+x,1/2+y,z
1/2-x,1/2+y,1/2-z
1/2-x,1/2-y,-z
1/2+x,1/2-y,1/2+z
loop_
_atom_site_type_symbol
_atom_site_label
_atom_site_fract_x
_atom_site_fract_y
_atom_site_fract_z
Si Si1 0.546182 0.086832 0.227369
Si Si2 0.061911 0.296431 0.448552
Si Si3 0.258485 0.559574 0.326745
Si Si4 0.545366 0.218259 0.726518
Si Si5 0.824207 0.541682 0.335314
Si Si6 0.726185 0.273834 0.124871
Si Si7 0.534670 0.921801 0.928433
Si Si8 0.106867 0.291922 0.075284
O O1 0.500000 0.147029 0.250000
O O2 0.661661 0.115244 0.293430
O O3 0.478740 0.145401 0.136884
O O4 0.534989 0.934033 0.220149
O O5 0.165248 0.224569 0.530438
O O6 0.096181 0.445439 0.463815
O O7 0.012501 0.235438 0.363673
O O8 0.986151 0.281702 0.447199
O O9 0.254769 0.562430 0.261469
O O10 0.286022 0.414692 0.359236
O O11 0.346258 0.652340 0.399276
O O12 0.500000 0.277941 0.750000
O O13 0.658848 0.262695 0.802704
O O14 0.824616 0.662958 0.373796
O O15 0.813163 0.402227 0.356333
O O16 0.928546 0.527035 0.376017
O O17 0.576126 0.821048 0.996094
#
# Coordination Sequence:
#
# PCOD8130432 Si02
#       8
#     8   8   8   8   8   8   8   8
#     4   8  16  33  52  69  93 131 177 211 237 283
#     4  10  18  32  53  75 104 134 168 207 248 302
#     4  10  21  29  49  78 102 128 163 209 257 298
#     4   9  19  33  51  76 101 131 174 215 245 291
#     4  10  17  33  51  71 100 133 167 201 245 304
#     4  11  19  33  53  76 103 134 167 207 258 297
#     4   9  16  30  52  73  94 130 172 203 234 299
#     4  11  18  32  49  78 104 127 163 204 249 302
#
# _framework density 17.727620999999999
#
# number of rings (size 3 to 8) (size 9 to 14) (size 15 to 20)
#    0.000    2.250    2.500    4.500    0.000    1.000 
#    0.000    0.625    0.000    0.750    0.000    0.000 
#    0.000    0.000    0.000    0.000    0.000    0.000 
#
# Total GULP energy -396466.847263 kJ/mol
# GULP energy per Si atom -12389.588977 kJ/mol
# Density = 1.768727 g / cm^3
# Si number density = 17.727621 Si / 1000 Ang^3
#
#
#
# Elastic Constant Matrix: (Units=GPa)
#
#
# Indices 1 2 3 4 5 6 
#
# 1 66.8824 14.6050 47.0479 0.0000 -21.9364 0.0000
# 2 14.6050 57.2639 23.9043 0.0000 -0.9735 0.0000
# 3 47.0479 23.9043 142.6316 0.0000 -15.0956 0.0000
# 4 0.0000 0.0000 0.0000 25.0881 0.0000 6.0803
# 5 -21.9364 -0.9735 -15.0956 0.0000 22.1385 0.0000
# 6 0.0000 0.0000 0.0000 6.0803 0.0000 6.1729
#
#
#
# Elastic Compliance Matrix: (Units=1/GPa)
#
#
# Indices 1 2 3 4 5 6 
#
# 1 0.027656 -0.004166 -0.005974 0.000000 0.023146 0.000000
# 2 -0.004166 0.019446 -0.002405 0.000000 -0.004913 0.000000
# 3 -0.005974 -0.002405 0.009427 0.000000 0.000403 0.000000
# 4 0.000000 0.000000 0.000000 0.052359 0.000000 -0.051573
# 5 0.023146 -0.004913 0.000403 0.000000 0.068164 0.000000
# 6 0.000000 0.000000 0.000000 -0.051573 0.000000 0.212799
#
#
# Mechanical properties :
#
#
# Convention : Reuss Voigt Hill
#
# Bulk Modulus (GPa) = 31.80825 48.65473 40.23149
# Shear Modulus (GPa) = 11.75309 22.76127 17.25718
#
# Velocity S-wave (km/s) = 2.57764 3.58710 3.12342
# Velocity P-wave (km/s) = 5.18080 6.68294 5.97923
#
# Compressibility (1/GPa) = 0.03143838
#
# Stress axis : x y z
#
# Youngs Moduli (GPa) = 36.15899 51.42478 106.07355
#
# Poissons Ratio (x) = 0.21424 0.63373
# Poissons Ratio (y) = 0.15064 0.25508
# Poissons Ratio (z) = 0.21603 0.12367
#
# Static dielectric constant tensor:
#      x y z
#    x 3.589290 0.000000 -0.500100 
#    y 0.000000 2.941570 0.000000 
#    z -0.500100 0.000000 3.823230 
# 
# 
# High freq. dielectric constant tensor:
#      x y z
#    x 1.662140 0.000000 -0.014070 
#    y 0.000000 1.650730 0.000000 
#    z -0.014070 0.000000 1.700620 
# 
# From -- ./inp_files/279906.got.cif
#   From: 2010.06.25/outbox.cif.g09.slc.cpg/sg15_140_cif.got.tgz:279906.got - 2010.06.28 07:06:18.
