data_PCOD8130154
_publ_section_title
;
Structure prediction by ZEFSAII (Michael W. Deem and Ramdas Pophale) SiO2 
 PCOD8130154
Probable space group: C 2/C
;
_chemical_formula_sum "Si O2"
_cell_formula_units_Z 52
_cell_length_a 17.567997
_cell_length_b 10.126305
_cell_length_c 17.619207
_cell_angle_alpha 90.000000
_cell_angle_beta 119.008126
_cell_angle_gamma 90.000000
_cell_volume 2741.225237
_symmetry_space_group_name_H-M "C 2/C"
_symmetry_group_IT_number 15
_symmetry_cell_setting 'monoclinic'
loop_
_space_group_symop_operation_xyz
x,y,z
-x,y,1/2-z
-x,-y,-z
x,-y,1/2+z
1/2+x,1/2+y,z
1/2-x,1/2+y,1/2-z
1/2-x,1/2-y,-z
1/2+x,1/2-y,1/2+z
loop_
_atom_site_type_symbol
_atom_site_label
_atom_site_fract_x
_atom_site_fract_y
_atom_site_fract_z
Si Si1 0.670409 0.274139 0.372302
Si Si2 0.199518 0.579461 0.113805
Si Si3 0.378725 0.568862 0.296035
Si Si4 0.237626 0.468565 0.975951
Si Si5 0.500000 0.426918 0.250000
Si Si6 0.316842 0.168981 0.818182
Si Si7 0.195793 0.127259 0.629068
O O1 0.696123 0.363113 0.456665
O O2 0.666700 0.119575 0.395430
O O3 0.576201 0.325309 0.305080
O O4 0.736625 0.284411 0.333143
O O5 0.297381 0.564783 0.197196
O O6 0.140965 0.463341 0.124368
O O7 0.158674 0.722941 0.107850
O O8 0.196801 0.556942 0.022501
O O9 0.468721 0.530027 0.299301
O O10 0.385563 0.712022 0.340452
O O11 0.372358 0.462735 0.360070
O O12 0.287443 0.570439 0.945997
O O13 0.285644 0.130298 0.719061
#
# Coordination Sequence:
#
# PCOD8130154 Si02
#       7
#     8   8   8   8   4   8   8
#     4  10  20  33  58  79 123 140 198 233 296 326
#     4   9  18  32  55  84 109 140 192 241 273 333
#     4  10  19  33  56  83 112 145 195 238 280 333
#     4  10  18  33  54  87 111 151 185 245 277 345
#     4  12  20  36  56  92 114 152 188 258 282 344
#     4   9  17  34  52  82 106 153 185 237 265 349
#     4  10  17  29  58  84 106 144 200 227 273 340
#
# _framework density 18.969619999999999
#
# number of rings (size 3 to 8) (size 9 to 14) (size 15 to 20)
#    0.000    2.154    6.154    0.462    0.000    0.000 
#    0.000    0.769    0.000    9.231    0.000    0.000 
#    0.000    0.000    0.000    0.000    0.000    0.000 
#
# Total GULP energy -322094.839391 kJ/mol
# GULP energy per Si atom -12388.263054 kJ/mol
# Density = 1.892644 g / cm^3
# Si number density = 18.969620 Si / 1000 Ang^3
#
#
#
# Elastic Constant Matrix: (Units=GPa)
#
#
# Indices 1 2 3 4 5 6 
#
# 1 57.3481 42.1501 20.0096 0.0000 -12.5609 0.0000
# 2 42.1501 157.4626 37.6416 0.0000 -24.4448 0.0000
# 3 20.0096 37.6416 69.9528 0.0000 -25.5842 0.0000
# 4 0.0000 0.0000 0.0000 28.6036 0.0000 -5.9848
# 5 -12.5609 -24.4448 -25.5842 0.0000 25.3861 0.0000
# 6 0.0000 0.0000 0.0000 -5.9848 0.0000 18.7109
#
#
#
# Elastic Compliance Matrix: (Units=1/GPa)
#
#
# Indices 1 2 3 4 5 6 
#
# 1 0.022763 -0.004880 -0.002351 0.000000 0.004194 0.000000
# 2 -0.004880 0.008733 -0.001759 0.000000 0.004221 0.000000
# 3 -0.002351 -0.001759 0.023550 0.000000 0.020876 0.000000
# 4 0.000000 0.000000 0.000000 0.037468 0.000000 0.011984
# 5 0.004194 0.004221 0.020876 0.000000 0.066571 0.000000
# 6 0.000000 0.000000 0.000000 0.011984 0.000000 0.057278
#
#
# Mechanical properties :
#
#
# Convention : Reuss Voigt Hill
#
# Bulk Modulus (GPa) = 26.98003 53.81845 40.39924
# Shear Modulus (GPa) = 20.26760 26.87094 23.56927
#
# Velocity S-wave (km/s) = 3.27222 3.76776 3.52870
# Velocity P-wave (km/s) = 5.34137 6.88189 6.15998
#
# Compressibility (1/GPa) = 0.03706445
#
# Stress axis : x y z
#
# Youngs Moduli (GPa) = 43.93034 114.50862 42.46331
#
# Poissons Ratio (x) = 0.55882 0.09984
# Poissons Ratio (y) = 0.21439 0.07471
# Poissons Ratio (z) = 0.10329 0.20146
#
# Static dielectric constant tensor:
#      x y z
#    x 2.950430 0.000000 -0.329440 
#    y 0.000000 3.977070 0.000000 
#    z -0.329440 0.000000 3.535710 
# 
# 
# High freq. dielectric constant tensor:
#      x y z
#    x 1.670020 0.000000 -0.041570 
#    y 0.000000 1.763620 0.000000 
#    z -0.041570 0.000000 1.734750 
# 
# From -- ./inp_files/203622.got.cif
#   From: 2010.06.25/outbox.cif.g09.slc.cpg/sg15_102_cif.got.tgz:203622.got - 2010.06.28 07:06:18.
