data_PCOD8130018
_publ_section_title
;
Structure prediction by ZEFSAII (Michael W. Deem and Ramdas Pophale) SiO2 
 PCOD8130018
Probable space group: C 2/C
;
_chemical_formula_sum "Si O2"
_cell_formula_units_Z 44
_cell_length_a 11.789893
_cell_length_b 14.893695
_cell_length_c 26.422973
_cell_angle_alpha 90.000000
_cell_angle_beta 29.911954
_cell_angle_gamma 90.000000
_cell_volume 2313.694526
_symmetry_space_group_name_H-M "C 2/C"
_symmetry_group_IT_number 15
_symmetry_cell_setting 'monoclinic'
loop_
_space_group_symop_operation_xyz
x,y,z
-x,y,1/2-z
-x,-y,-z
x,-y,1/2+z
1/2+x,1/2+y,z
1/2-x,1/2+y,1/2-z
1/2-x,1/2-y,-z
1/2+x,1/2-y,1/2+z
loop_
_atom_site_type_symbol
_atom_site_label
_atom_site_fract_x
_atom_site_fract_y
_atom_site_fract_z
Si Si1 0.285843 0.760201 0.427167
Si Si2 0.881805 0.051313 0.499797
Si Si3 0.873820 0.380277 0.922257
Si Si4 0.000000 0.222002 0.750000
Si Si5 0.687194 0.343714 0.804105
Si Si6 0.849793 0.287731 0.038216
O O1 0.250000 0.750000 0.500000
O O2 0.270502 0.866064 0.419452
O O3 0.531245 0.713379 0.324289
O O4 0.092151 0.706991 0.471817
O O5 0.054155 0.083215 0.389280
O O6 0.718074 0.980142 0.536813
O O7 0.000000 0.000000 0.500000
O O8 0.722752 0.316293 0.944017
O O9 0.126963 0.391381 0.802582
O O10 0.875908 0.341042 0.977091
O O11 0.803027 0.279084 0.799793
O O12 0.853840 0.167103 0.848746
#
# Coordination Sequence:
#
# PCOD8130018 Si02
#       6
#     8   8   8   4   8   8
#     4  10  19  37  63  88 116 164 203 243 302 369
#     4  11  19  38  63  92 120 155 210 258 299 350
#     4  10  22  38  57  92 127 153 197 257 303 358
#     4  10  16  36  64  80 112 168 204 230 294 372
#     4  10  21  38  60  86 125 165 194 247 318 358
#     4  10  19  37  61  85 121 160 195 245 304 364
#
# _framework density 19.017204
#
# number of rings (size 3 to 8) (size 9 to 14) (size 15 to 20)
#    0.000    1.818    5.455    1.091    0.000    0.727 
#    9.818    5.455    0.000    0.000    0.000    0.000 
#    0.000    0.000    0.000    0.000    0.000    0.000 
#
# Total GULP energy -272604.557686 kJ/mol
# GULP energy per Si atom -12391.116258 kJ/mol
# Density = 1.897392 g / cm^3
# Si number density = 19.017204 Si / 1000 Ang^3
#
#
#
# Elastic Constant Matrix: (Units=GPa)
#
#
# Indices 1 2 3 4 5 6 
#
# 1 114.9563 35.6014 54.7793 0.0018 -17.7056 -0.0029
# 2 35.6014 88.2565 50.0154 -0.0065 -9.9654 0.0036
# 3 54.7793 50.0154 144.6327 0.0067 -1.1661 -0.0051
# 4 0.0018 -0.0065 0.0067 31.0201 -0.0019 0.2292
# 5 -17.7056 -9.9654 -1.1661 -0.0019 37.5604 0.0017
# 6 -0.0029 0.0036 -0.0051 0.2292 0.0017 16.4535
#
#
#
# Elastic Compliance Matrix: (Units=1/GPa)
#
#
# Indices 1 2 3 4 5 6 
#
# 1 0.011894 -0.002128 -0.003729 0.000000 0.004926 0.000001
# 2 -0.002128 0.014974 -0.004349 0.000004 0.002835 -0.000005
# 3 -0.003729 -0.004349 0.009809 -0.000003 -0.002607 0.000004
# 4 0.000000 0.000004 -0.000003 0.032241 0.000003 -0.000449
# 5 0.004926 0.002835 -0.002607 0.000003 0.029617 -0.000004
# 6 0.000001 -0.000005 0.000004 -0.000449 -0.000004 0.060784
#
#
# Mechanical properties :
#
#
# Convention : Reuss Voigt Hill
#
# Bulk Modulus (GPa) = 61.48526 69.84866 65.66696
# Shear Modulus (GPa) = 27.00475 30.83676 28.92075
#
# Velocity S-wave (km/s) = 3.77240 4.03118 3.90393
# Velocity P-wave (km/s) = 7.16772 7.64697 7.41122
#
# Compressibility (1/GPa) = 0.01626406
#
# Stress axis : x y z
#
# Youngs Moduli (GPa) = 84.07757 66.78288 101.94303
#
# Poissons Ratio (x) = 0.14213 0.38015
# Poissons Ratio (y) = 0.17894 0.44337
# Poissons Ratio (z) = 0.31353 0.29045
#
# Static dielectric constant tensor:
#      x y z
#    x 4.280740 0.000640 -0.742300 
#    y 0.000640 3.808310 -0.000470 
#    z -0.742300 -0.000470 4.218450 
# 
# 
# High freq. dielectric constant tensor:
#      x y z
#    x 1.751100 0.000000 -0.006380 
#    y 0.000000 1.708130 0.000000 
#    z -0.006380 0.000000 1.743260 
# 
# From -- ./inp_files/198064.got.cif
#   From: 2010.06.25/outbox.cif.g09.slc.cpg/sg15_100_cif.got.tgz:198064.got - 2010.06.28 07:06:18.
