data_PCOD8130118
_publ_section_title
;
Structure prediction by ZEFSAII (Michael W. Deem and Ramdas Pophale) SiO2 
 PCOD8130118
Probable space group: C 2/C
;
_chemical_formula_sum "Si O2"
_cell_formula_units_Z 52
_cell_length_a 17.768270
_cell_length_b 24.989662
_cell_length_c 14.586575
_cell_angle_alpha 90.000000
_cell_angle_beta 30.633844
_cell_angle_gamma 90.000000
_cell_volume 3300.239485
_symmetry_space_group_name_H-M "C 2/C"
_symmetry_group_IT_number 15
_symmetry_cell_setting 'monoclinic'
loop_
_space_group_symop_operation_xyz
x,y,z
-x,y,1/2-z
-x,-y,-z
x,-y,1/2+z
1/2+x,1/2+y,z
1/2-x,1/2+y,1/2-z
1/2-x,1/2-y,-z
1/2+x,1/2-y,1/2+z
loop_
_atom_site_type_symbol
_atom_site_label
_atom_site_fract_x
_atom_site_fract_y
_atom_site_fract_z
Si Si1 0.179657 0.398790 0.728022
Si Si2 0.134353 0.003186 0.929213
Si Si3 0.500000 0.482794 0.250000
Si Si4 0.593541 0.048358 0.939713
Si Si5 0.273404 0.918783 0.026781
Si Si6 0.324021 0.307344 0.327719
Si Si7 0.843968 0.794983 0.523917
O O1 0.289801 0.444771 0.648605
O O2 0.147209 0.407453 0.653171
O O3 0.249045 0.340862 0.674019
O O4 0.020351 0.401239 0.947181
O O5 0.252298 0.049791 0.778307
O O6 0.076134 0.019068 0.091770
O O7 0.000000 0.000000 0.000000
O O8 0.613492 0.443572 0.179911
O O9 0.632187 0.041277 0.007588
O O10 0.500000 0.000000 0.000000
O O11 0.247863 0.865214 0.115137
O O12 0.221328 0.263498 0.385052
O O13 0.332625 0.301839 0.427584
O O14 0.489010 0.300428 0.114848
#
# Coordination Sequence:
#
# PCOD8130118 Si02
#       7
#     8   8   4   8   8   8   8
#     4   9  19  30  44  63  91 124 163 192 225 273
#     4  10  18  31  47  66  88 119 161 196 232 276
#     4  10  18  30  50  68  86 124 164 192 228 280
#     4  10  20  30  43  64  89 118 161 200 233 265
#     4  10  17  29  47  63  90 126 164 188 229 274
#     4   9  17  26  41  60  88 121 159 197 219 260
#     4   9  17  28  39  61  88 120 162 193 222 262
#
# _framework density 15.756432999999999
#
# number of rings (size 3 to 8) (size 9 to 14) (size 15 to 20)
#    0.000    2.462    1.538    3.231    2.154    0.000 
#    0.000    0.000    0.000    0.000    0.000    0.000 
#    0.000    0.000    0.000    5.538   18.462    8.154 
#
# Total GULP energy -322091.837424 kJ/mol
# GULP energy per Si atom -12388.147593 kJ/mol
# Density = 1.572057 g / cm^3
# Si number density = 15.756433 Si / 1000 Ang^3
#
#
#
# Elastic Constant Matrix: (Units=GPa)
#
#
# Indices 1 2 3 4 5 6 
#
# 1 64.8471 32.7310 27.7189 0.0064 -9.5995 0.0093
# 2 32.7310 66.7058 44.9114 -0.0074 -3.7289 0.0106
# 3 27.7189 44.9114 124.9867 0.0755 -6.4972 -0.0535
# 4 0.0064 -0.0074 0.0755 27.7915 -0.0442 -2.4085
# 5 -9.5995 -3.7289 -6.4972 -0.0442 19.3348 0.0164
# 6 0.0093 0.0106 -0.0535 -2.4085 0.0164 14.2546
#
#
#
# Elastic Compliance Matrix: (Units=1/GPa)
#
#
# Indices 1 2 3 4 5 6 
#
# 1 0.022000 -0.009666 -0.000952 0.000007 0.008739 -0.000020
# 2 -0.009666 0.024062 -0.006627 0.000020 -0.002385 -0.000030
# 3 -0.000952 -0.006627 0.010689 -0.000024 0.001841 0.000039
# 4 0.000007 0.000020 -0.000024 0.036517 0.000077 0.006170
# 5 0.008739 -0.002385 0.001841 0.000077 0.056218 -0.000048
# 6 -0.000020 -0.000030 0.000039 0.006170 -0.000048 0.071196
#
#
# Mechanical properties :
#
#
# Convention : Reuss Voigt Hill
#
# Bulk Modulus (GPa) = 44.91747 51.91804 48.41775
# Shear Modulus (GPa) = 19.04104 22.35472 20.69788
#
# Velocity S-wave (km/s) = 3.48006 3.77074 3.62831
# Velocity P-wave (km/s) = 6.68708 7.20971 6.95331
#
# Compressibility (1/GPa) = 0.02226305
#
# Stress axis : x y z
#
# Youngs Moduli (GPa) = 45.45462 41.55897 93.55592
#
# Poissons Ratio (x) = 0.40170 0.08903
# Poissons Ratio (y) = 0.43935 0.61996
# Poissons Ratio (z) = 0.04325 0.27540
#
# Static dielectric constant tensor:
#      x y z
#    x 2.779150 -0.000140 -0.249360 
#    y -0.000140 3.045840 0.000000 
#    z -0.249360 0.000000 3.348800 
# 
# 
# High freq. dielectric constant tensor:
#      x y z
#    x 1.574660 0.000000 -0.038370 
#    y 0.000000 1.577680 0.000010 
#    z -0.038370 0.000010 1.612460 
# 
# From -- ./inp_files/43079.got.cif
#   From: 2010.06.25/outbox.cif.g09.slc.cpg/sg15_22_cif.got.tgz:43079.got - 2010.06.28 07:06:18.
