data_PCOD8130264
_publ_section_title
;
Structure prediction by ZEFSAII (Michael W. Deem and Ramdas Pophale) SiO2 
 PCOD8130264
Probable space group: C 2/C
;
_chemical_formula_sum "Si O2"
_cell_formula_units_Z 56
_cell_length_a 14.459130
_cell_length_b 22.613134
_cell_length_c 8.975585
_cell_angle_alpha 90.000000
_cell_angle_beta 106.597735
_cell_angle_gamma 90.000000
_cell_volume 2812.435163
_symmetry_space_group_name_H-M "C 2/C"
_symmetry_group_IT_number 15
_symmetry_cell_setting 'monoclinic'
loop_
_space_group_symop_operation_xyz
x,y,z
-x,y,1/2-z
-x,-y,-z
x,-y,1/2+z
1/2+x,1/2+y,z
1/2-x,1/2+y,1/2-z
1/2-x,1/2-y,-z
1/2+x,1/2-y,1/2+z
loop_
_atom_site_type_symbol
_atom_site_label
_atom_site_fract_x
_atom_site_fract_y
_atom_site_fract_z
Si Si1 0.732978 0.076544 0.963358
Si Si2 0.696053 0.798871 0.569744
Si Si3 0.770550 0.005140 0.723646
Si Si4 0.134376 0.924542 0.483694
Si Si5 0.193324 0.796232 0.572836
Si Si6 0.486874 0.736341 0.078883
Si Si7 0.953244 0.898055 0.573455
O O1 0.702579 0.050474 0.787717
O O2 0.691787 0.141176 0.971308
O O3 0.849964 0.071852 0.011317
O O4 0.700744 0.031872 0.080477
O O5 0.750000 0.750000 0.500000
O O6 0.752279 0.808791 0.747991
O O7 0.585704 0.778439 0.547530
O O8 0.849409 0.042236 0.664652
O O9 0.819852 0.958451 0.856033
O O10 0.182405 0.859525 0.488942
O O11 0.020267 0.917649 0.465443
O O12 0.250000 0.750000 0.500000
O O13 0.089315 0.766545 0.546262
O O14 0.500000 0.763061 0.250000
O O15 0.437318 0.672235 0.068321
O O16 0.000000 0.918734 0.750000
#
# Coordination Sequence:
#
# PCOD8130264 Si02
#       7
#     8   8   8   8   8   8   8
#     4  11  21  36  54  83 112 156 202 245 295 358
#     4  12  21  38  65  87 120 162 203 245 304 361
#     4  10  22  35  53  79 118 157 203 239 291 365
#     4  10  21  36  52  80 116 157 195 239 300 358
#     4  11  24  40  60  92 129 156 197 262 310 352
#     4  10  20  36  60  90 120 158 200 247 303 368
#     4  10  17  31  51  76 118 151 190 240 291 353
#
# _framework density 19.911570999999999
#
# number of rings (size 3 to 8) (size 9 to 14) (size 15 to 20)
#    0.000    1.429    5.714    0.857    2.000    4.571 
#    0.000    2.857    0.000    0.000    0.000   11.000 
#    0.000    0.000    0.000    0.000    0.000    0.000 
#
# Total GULP energy -347130.897748 kJ/mol
# GULP energy per Si atom -12397.532062 kJ/mol
# Density = 1.986625 g / cm^3
# Si number density = 19.911571 Si / 1000 Ang^3
#
#
#
# Elastic Constant Matrix: (Units=GPa)
#
#
# Indices 1 2 3 4 5 6 
#
# 1 71.6192 51.6560 28.1355 0.0000 -4.6838 0.0000
# 2 51.6560 127.1891 33.7763 0.0000 -16.2084 0.0000
# 3 28.1355 33.7763 55.3004 0.0000 -15.9942 0.0000
# 4 0.0000 0.0000 0.0000 30.4789 0.0000 -11.1342
# 5 -4.6838 -16.2084 -15.9942 0.0000 30.2882 0.0000
# 6 0.0000 0.0000 0.0000 -11.1342 0.0000 35.8977
#
#
#
# Elastic Compliance Matrix: (Units=1/GPa)
#
#
# Indices 1 2 3 4 5 6 
#
# 1 0.022252 -0.007493 -0.008155 0.000000 -0.004875 0.000000
# 2 -0.007493 0.012052 -0.002383 0.000000 0.004033 0.000000
# 3 -0.008155 -0.002383 0.027091 0.000000 0.011770 0.000000
# 4 0.000000 0.000000 0.000000 0.037002 0.000000 0.011477
# 5 -0.004875 0.004033 0.011770 0.000000 0.040636 0.000000
# 6 0.000000 0.000000 0.000000 0.011477 0.000000 0.031417
#
#
# Mechanical properties :
#
#
# Convention : Reuss Voigt Hill
#
# Bulk Modulus (GPa) = 39.47118 53.47158 46.47138
# Shear Modulus (GPa) = 23.26071 28.70235 25.98153
#
# Velocity S-wave (km/s) = 3.42160 3.80082 3.61618
# Velocity P-wave (km/s) = 5.95618 6.79518 6.38946
#
# Compressibility (1/GPa) = 0.02533494
#
# Stress axis : x y z
#
# Youngs Moduli (GPa) = 44.94016 82.97319 36.91225
#
# Poissons Ratio (x) = 0.62171 0.30100
# Poissons Ratio (y) = 0.33673 0.08795
# Poissons Ratio (z) = 0.36647 0.19769
#
# Static dielectric constant tensor:
#      x y z
#    x 3.463580 0.000000 -0.191800 
#    y 0.000000 3.865650 0.000000 
#    z -0.191800 0.000000 3.496680 
# 
# 
# High freq. dielectric constant tensor:
#      x y z
#    x 1.739220 0.000000 -0.022770 
#    y 0.000000 1.791090 0.000000 
#    z -0.022770 0.000000 1.768350 
# 
# From -- ./inp_files/42746.got.cif
#   From: 2010.06.25/outbox.cif.g09.slc.cpg/sg15_22_cif.got.tgz:42746.got - 2010.06.28 07:06:18.
