data_PCOD8130764
_publ_section_title
;
Structure prediction by ZEFSAII (Michael W. Deem and Ramdas Pophale) SiO2 
 PCOD8130764
Probable space group: C 2/C
;
_chemical_formula_sum "Si O2"
_cell_formula_units_Z 48
_cell_length_a 13.888613
_cell_length_b 35.191022
_cell_length_c 14.297190
_cell_angle_alpha 90.000000
_cell_angle_beta 159.431572
_cell_angle_gamma 90.000000
_cell_volume 2454.999909
_symmetry_space_group_name_H-M "C 2/C"
_symmetry_group_IT_number 15
_symmetry_cell_setting 'monoclinic'
loop_
_space_group_symop_operation_xyz
x,y,z
-x,y,1/2-z
-x,-y,-z
x,-y,1/2+z
1/2+x,1/2+y,z
1/2-x,1/2+y,1/2-z
1/2-x,1/2-y,-z
1/2+x,1/2-y,1/2+z
loop_
_atom_site_type_symbol
_atom_site_label
_atom_site_fract_x
_atom_site_fract_y
_atom_site_fract_z
Si Si1 0.000000 0.713678 0.750000
Si Si2 0.000000 0.166438 0.250000
Si Si3 0.706227 0.898714 0.246123
Si Si4 0.000000 0.986460 0.750000
Si Si5 0.071541 0.269745 0.524214
Si Si6 0.212467 0.980296 0.258489
Si Si7 0.217737 0.853558 0.764496
Si Si8 0.000000 0.567827 0.750000
O O1 0.723504 0.689089 0.517696
O O2 0.905676 0.736368 0.569390
O O3 0.164738 0.140646 0.327113
O O4 0.794174 0.936186 0.272242
O O5 0.590180 0.906288 0.244561
O O6 0.950887 0.867558 0.466133
O O7 0.466893 0.880986 0.964831
O O8 0.888737 0.014519 0.728251
O O9 0.755163 0.959225 0.499252
O O10 0.182806 0.310153 0.660980
O O11 0.748092 0.261457 0.243926
O O12 0.500000 0.000000 0.500000
O O13 0.000000 0.000000 0.000000
#
# Coordination Sequence:
#
# PCOD8130764 Si02
#       8
#     4   4   8   4   8   8   8   4
#     4  10  18  28  44  63  88 130 182 234 274 314
#     4  10  18  32  44  63  98 132 178 232 274 320
#     4  12  22  36  54  79 109 145 183 234 286 331
#     4  12  22  41  60  87 112 145 194 239 270 342
#     4  11  20  32  47  65  93 137 185 231 276 326
#     4  12  23  41  61  86 114 150 189 231 288 340
#     4  11  22  34  48  72 104 138 183 233 283 327
#     4  12  22  35  60  81 108 151 188 239 290 318
#
# _framework density 19.551935
#
# number of rings (size 3 to 8) (size 9 to 14) (size 15 to 20)
#    0.000    0.667    3.333    8.500    0.000    1.333 
#    0.000    0.000    0.000    0.000    0.000    0.000 
#    0.000    0.000    0.000   15.000    0.000    0.000 
#
# Total GULP energy -297320.059116 kJ/mol
# GULP energy per Si atom -12388.335797 kJ/mol
# Density = 1.950743 g / cm^3
# Si number density = 19.551935 Si / 1000 Ang^3
#
#
#
# Elastic Constant Matrix: (Units=GPa)
#
#
# Indices 1 2 3 4 5 6 
#
# 1 61.2640 20.7527 23.2028 -0.0006 6.1985 -0.0001
# 2 20.7527 103.6285 49.0188 0.0006 10.8616 0.0000
# 3 23.2028 49.0188 145.1111 -0.0011 27.5948 -0.0008
# 4 -0.0006 0.0006 -0.0011 43.3700 -0.0019 1.3224
# 5 6.1985 10.8616 27.5948 -0.0019 11.1771 -0.0003
# 6 -0.0001 0.0000 -0.0008 1.3224 -0.0003 19.7303
#
#
#
# Elastic Compliance Matrix: (Units=1/GPa)
#
#
# Indices 1 2 3 4 5 6 
#
# 1 0.018107 -0.002601 -0.001108 0.000000 -0.004779 0.000000
# 2 -0.002601 0.011912 -0.003169 0.000000 -0.002310 0.000000
# 3 -0.001108 -0.003169 0.014017 -0.000001 -0.030914 0.000000
# 4 0.000000 0.000000 -0.000001 0.023105 0.000007 -0.001549
# 5 -0.004779 -0.002310 -0.030914 0.000007 0.170685 0.000001
# 6 0.000000 0.000000 0.000000 -0.001549 0.000001 0.050787
#
#
# Mechanical properties :
#
#
# Convention : Reuss Voigt Hill
#
# Bulk Modulus (GPa) = 33.02404 55.10580 44.06492
# Shear Modulus (GPa) = 16.00193 29.32411 22.66302
#
# Velocity S-wave (km/s) = 2.86393 3.87693 3.40828
# Velocity P-wave (km/s) = 5.27856 6.94884 6.17048
#
# Compressibility (1/GPa) = 0.03028097
#
# Stress axis : x y z
#
# Youngs Moduli (GPa) = 55.22721 83.95098 71.34003
#
# Poissons Ratio (x) = 0.21837 0.07903
# Poissons Ratio (y) = 0.14366 0.22605
# Poissons Ratio (z) = 0.06118 0.26600
#
# Static dielectric constant tensor:
#      x y z
#    x 3.087660 0.000000 0.218140 
#    y 0.000000 3.593500 0.000000 
#    z 0.218140 0.000000 4.141830 
# 
# 
# High freq. dielectric constant tensor:
#      x y z
#    x 1.670860 0.000000 0.024260 
#    y 0.000000 1.772070 0.000000 
#    z 0.024260 0.000000 1.802740 
# 
# From -- ./inp_files/8747.got.cif
#   From: 2010.06.25/outbox.cif.g09.slc.cpg/sg15_5_cif.got.tgz:8747.got - 2010.06.28 07:06:18.
