data_PCOD8130729
_publ_section_title
;
Structure prediction by ZEFSAII (Michael W. Deem and Ramdas Pophale) SiO2 
 PCOD8130729
Probable space group: C 2/C
;
_chemical_formula_sum "Si O2"
_cell_formula_units_Z 56
_cell_length_a 18.323276
_cell_length_b 34.562502
_cell_length_c 22.318009
_cell_angle_alpha 90.000000
_cell_angle_beta 162.439173
_cell_angle_gamma 90.000000
_cell_volume 4264.470817
_symmetry_space_group_name_H-M "C 2/C"
_symmetry_group_IT_number 15
_symmetry_cell_setting 'monoclinic'
loop_
_space_group_symop_operation_xyz
x,y,z
-x,y,1/2-z
-x,-y,-z
x,-y,1/2+z
1/2+x,1/2+y,z
1/2-x,1/2+y,1/2-z
1/2-x,1/2-y,-z
1/2+x,1/2-y,1/2+z
loop_
_atom_site_type_symbol
_atom_site_label
_atom_site_fract_x
_atom_site_fract_y
_atom_site_fract_z
Si Si1 0.874251 0.569902 0.437126
Si Si2 0.189550 0.850751 0.844824
Si Si3 0.109633 0.791954 0.953674
Si Si4 0.888287 0.039824 0.841758
Si Si5 0.986009 0.291965 0.141971
Si Si6 0.297883 0.960159 0.751414
Si Si7 0.187890 0.009796 0.843868
O O1 0.768917 0.607827 0.384500
O O2 0.801771 0.569800 0.310057
O O3 0.757812 0.533271 0.378901
O O4 0.165281 0.569793 0.673429
O O5 0.000000 0.856678 0.750000
O O6 0.080198 0.826308 0.704135
O O7 0.424387 0.826328 0.048327
O O8 0.270332 0.788696 0.020332
O O9 0.262794 0.803626 0.131325
O O10 0.986695 0.749993 0.868283
O O11 0.937038 0.032466 0.809442
O O12 0.809759 0.000003 0.809768
O O13 0.129819 0.055532 0.064972
O O14 0.573662 0.967476 0.946165
O O15 0.000000 0.007758 0.750000
#
# Coordination Sequence:
#
# PCOD8130729 Si02
#       7
#     8   8   8   8   8   8   8
#     4   9  17  27  38  54  77 102 127 160 197 231
#     4  10  18  25  36  54  74  96 127 168 206 227
#     4   9  15  24  36  48  64  90 123 158 194 229
#     4   8  15  28  42  53  71 102 130 150 183 234
#     4   9  15  24  36  48  64  90 123 158 194 229
#     4   8  15  28  42  53  71 102 130 150 183 234
#     4   9  16  26  41  60  77  94 125 164 197 226
#
# _framework density 13.131758
#
# number of rings (size 3 to 8) (size 9 to 14) (size 15 to 20)
#    0.000    3.143    1.429    2.143    0.000    1.714 
#    0.000    0.000    0.000    5.143    0.000    0.000 
#    0.000    0.000    0.000    0.000    0.000   22.857 
#
# Total GULP energy -346948.998777 kJ/mol
# GULP energy per Si atom -12391.035671 kJ/mol
# Density = 1.310187 g / cm^3
# Si number density = 13.131758 Si / 1000 Ang^3
#
#
#
# Elastic Constant Matrix: (Units=GPa)
#
#
# Indices 1 2 3 4 5 6 
#
# 1 60.6514 27.7467 44.8812 0.0055 -0.5539 0.0007
# 2 27.7467 77.4267 43.2419 -0.0070 -6.0327 -0.0002
# 3 44.8812 43.2419 115.6270 -0.0073 -21.1694 -0.0030
# 4 0.0055 -0.0070 -0.0073 15.3533 0.0071 -0.6151
# 5 -0.5539 -6.0327 -21.1694 0.0071 16.4179 0.0029
# 6 0.0007 -0.0002 -0.0030 -0.6151 0.0029 13.8045
#
#
#
# Elastic Compliance Matrix: (Units=1/GPa)
#
#
# Indices 1 2 3 4 5 6 
#
# 1 0.027049 -0.004352 -0.011778 -0.000010 -0.015873 -0.000001
# 2 -0.004352 0.017101 -0.004690 0.000007 0.000090 0.000000
# 3 -0.011778 -0.004690 0.019093 0.000001 0.022498 0.000000
# 4 -0.000010 0.000007 0.000001 0.065249 -0.000025 0.002907
# 5 -0.015873 0.000090 0.022498 -0.000025 0.089416 -0.000014
# 6 -0.000001 0.000000 0.000000 0.002907 -0.000014 0.072570
#
#
# Mechanical properties :
#
#
# Convention : Reuss Voigt Hill
#
# Bulk Modulus (GPa) = 46.28767 53.93832 50.11299
# Shear Modulus (GPa) = 14.73541 18.30415 16.51978
#
# Velocity S-wave (km/s) = 3.35344 3.73753 3.55068
# Velocity P-wave (km/s) = 7.09361 7.73236 7.41986
#
# Compressibility (1/GPa) = 0.02160403
#
# Stress axis : x y z
#
# Youngs Moduli (GPa) = 36.96971 58.47516 52.37557
#
# Poissons Ratio (x) = 0.25451 0.61686
# Poissons Ratio (y) = 0.16091 0.24562
# Poissons Ratio (z) = 0.43542 0.27422
#
# Static dielectric constant tensor:
#      x y z
#    x 2.344370 0.000000 -0.262480 
#    y 0.000000 2.452940 -0.000030 
#    z -0.262480 -0.000030 3.022680 
# 
# 
# High freq. dielectric constant tensor:
#      x y z
#    x 1.455980 0.000000 -0.021810 
#    y 0.000000 1.477380 0.000000 
#    z -0.021810 0.000000 1.512260 
# 
# From -- ./inp_files/250465.got.cif
#   From: 2010.06.25/outbox.cif.g09.slc.cpg/sg15_126_cif.got.tgz:250465.got - 2010.06.28 07:06:18.
