data_PCOD8130051
_publ_section_title
;
Structure prediction by ZEFSAII (Michael W. Deem and Ramdas Pophale) SiO2 
 PCOD8130051
Probable space group: C 2/C
;
_chemical_formula_sum "Si O2"
_cell_formula_units_Z 64
_cell_length_a 16.818030
_cell_length_b 14.012957
_cell_length_c 16.916436
_cell_angle_alpha 90.000000
_cell_angle_beta 68.367515
_cell_angle_gamma 90.000000
_cell_volume 3705.909163
_symmetry_space_group_name_H-M "C 2/C"
_symmetry_group_IT_number 15
_symmetry_cell_setting 'monoclinic'
loop_
_space_group_symop_operation_xyz
x,y,z
-x,y,1/2-z
-x,-y,-z
x,-y,1/2+z
1/2+x,1/2+y,z
1/2-x,1/2+y,1/2-z
1/2-x,1/2-y,-z
1/2+x,1/2-y,1/2+z
loop_
_atom_site_type_symbol
_atom_site_label
_atom_site_fract_x
_atom_site_fract_y
_atom_site_fract_z
Si Si1 0.909203 0.814060 0.252410
Si Si2 0.904344 0.081600 0.607373
Si Si3 0.833736 0.171487 0.050594
Si Si4 0.093350 0.401003 0.692420
Si Si5 0.925142 0.004640 0.440900
Si Si6 0.170874 0.629176 0.006291
Si Si7 0.236768 0.053644 0.294283
Si Si8 0.293641 0.520666 0.859367
O O1 0.908826 0.819955 0.156009
O O2 0.893211 0.708301 0.287169
O O3 0.834472 0.880495 0.314233
O O4 0.000000 0.852835 0.250000
O O5 0.975734 0.008971 0.619964
O O6 0.919203 0.091106 0.507547
O O7 0.810530 0.038531 0.653711
O O8 0.867382 0.280441 0.029035
O O9 0.807956 0.148028 0.151242
O O10 0.902272 0.096325 0.991938
O O11 0.748788 0.162578 0.031097
O O12 0.100766 0.411059 0.594172
O O13 0.164985 0.459463 0.714155
O O14 0.000000 0.439730 0.750000
O O15 0.861998 0.030181 0.392433
O O16 0.204124 0.546066 0.935457
O O17 0.228030 0.054003 0.202381
#
# Coordination Sequence:
#
# PCOD8130051 Si02
#       8
#     8   8   8   8   8   8   8   8
#     4  10  17  26  44  72  97 119 144 194 243 281
#     4   9  17  26  42  67 101 121 152 182 235 294
#     4   8  14  25  43  64  99 118 152 182 234 291
#     4  10  20  32  48  68  94 119 158 207 247 279
#     4   9  15  25  41  68  97 131 144 182 232 290
#     4   9  16  27  45  67  87 129 151 191 239 277
#     4   9  18  29  40  66  96 128 153 189 233 284
#     4  10  17  27  46  66 103 125 157 184 227 297
#
# _framework density 17.269717
#
# number of rings (size 3 to 8) (size 9 to 14) (size 15 to 20)
#    0.000    2.750    1.250    3.750    1.750    0.000 
#    0.000    0.625    0.000    0.750    0.000    0.000 
#   45.000    0.000    0.000    0.000    0.000    0.000 
#
# Total GULP energy -396432.210684 kJ/mol
# GULP energy per Si atom -12388.506584 kJ/mol
# Density = 1.723041 g / cm^3
# Si number density = 17.269717 Si / 1000 Ang^3
#
#
#
# Elastic Constant Matrix: (Units=GPa)
#
#
# Indices 1 2 3 4 5 6 
#
# 1 84.0015 21.1504 41.0538 0.0000 -4.8757 0.0000
# 2 21.1504 24.7113 26.4688 0.0000 7.4233 0.0000
# 3 41.0538 26.4688 111.5121 0.0000 6.6765 0.0000
# 4 0.0000 0.0000 0.0000 20.7092 0.0000 7.9080
# 5 -4.8757 7.4233 6.6765 0.0000 33.4618 0.0000
# 6 0.0000 0.0000 0.0000 7.9080 0.0000 14.6943
#
#
#
# Elastic Compliance Matrix: (Units=1/GPa)
#
#
# Indices 1 2 3 4 5 6 
#
# 1 0.017245 -0.012589 -0.003723 0.000000 0.006048 0.000000
# 2 -0.012589 0.066670 -0.010318 0.000000 -0.014566 0.000000
# 3 -0.003723 -0.010318 0.012836 0.000000 -0.000815 0.000000
# 4 0.000000 0.000000 0.000000 0.060778 0.000000 -0.032708
# 5 0.006048 -0.014566 -0.000815 0.000000 0.034160 0.000000
# 6 0.000000 0.000000 0.000000 -0.032708 0.000000 0.085656
#
#
# Mechanical properties :
#
#
# Convention : Reuss Voigt Hill
#
# Bulk Modulus (GPa) = 22.99341 44.17452 33.58396
# Shear Modulus (GPa) = 14.48852 22.54320 18.51586
#
# Velocity S-wave (km/s) = 2.89961 3.61690 3.27793
# Velocity P-wave (km/s) = 4.95515 6.56333 5.81510
#
# Compressibility (1/GPa) = 0.04349073
#
# Stress axis : x y z
#
# Youngs Moduli (GPa) = 57.98858 14.99931 77.90568
#
# Poissons Ratio (x) = 0.18883 0.29002
# Poissons Ratio (y) = 0.73003 0.80383
# Poissons Ratio (z) = 0.21587 0.15476
#
# Static dielectric constant tensor:
#      x y z
#    x 3.281680 0.000000 -0.073540 
#    y 0.000000 2.838250 0.000000 
#    z -0.073540 0.000000 3.751420 
# 
# 
# High freq. dielectric constant tensor:
#      x y z
#    x 1.652750 0.000000 -0.012080 
#    y 0.000000 1.599880 0.000000 
#    z -0.012080 0.000000 1.682240 
# 
# From -- ./inp_files/210962.got.cif
#   From: 2010.06.25/outbox.cif.g09.slc.cpg/sg15_106_cif.got.tgz:210962.got - 2010.06.28 07:06:18.
