data_PCOD8130975
_publ_section_title
;
Structure prediction by ZEFSAII (Michael W. Deem and Ramdas Pophale) SiO2 
 PCOD8130975
Probable space group: C 2/C
;
_chemical_formula_sum "Si O2"
_cell_formula_units_Z 64
_cell_length_a 19.091570
_cell_length_b 9.587730
_cell_length_c 20.017428
_cell_angle_alpha 90.000000
_cell_angle_beta 84.592283
_cell_angle_gamma 90.000000
_cell_volume 3647.778652
_symmetry_space_group_name_H-M "C 2/C"
_symmetry_group_IT_number 15
_symmetry_cell_setting 'monoclinic'
loop_
_space_group_symop_operation_xyz
x,y,z
-x,y,1/2-z
-x,-y,-z
x,-y,1/2+z
1/2+x,1/2+y,z
1/2-x,1/2+y,1/2-z
1/2-x,1/2-y,-z
1/2+x,1/2-y,1/2+z
loop_
_atom_site_type_symbol
_atom_site_label
_atom_site_fract_x
_atom_site_fract_y
_atom_site_fract_z
Si Si1 0.826916 0.561623 0.172393
Si Si2 0.164533 0.298186 0.579369
Si Si3 0.317685 0.966704 0.322719
Si Si4 0.337077 0.568627 0.158407
Si Si5 0.082030 0.179799 0.813216
Si Si6 0.818177 0.685330 0.574831
Si Si7 0.167436 0.152870 0.192386
Si Si8 0.080930 0.891389 0.169950
O O1 0.838187 0.503988 0.245496
O O2 0.886486 0.680875 0.156060
O O3 0.843453 0.444855 0.116029
O O4 0.746863 0.608815 0.166223
O O5 0.145575 0.431232 0.627087
O O6 0.161867 0.345727 0.503167
O O7 0.236273 0.219943 0.592419
O O8 0.107004 0.181090 0.600114
O O9 0.235128 0.983617 0.342287
O O10 0.343495 0.809093 0.334580
O O11 0.395638 0.452256 0.145420
O O12 0.355872 0.674780 0.097236
O O13 0.339380 0.654814 0.227103
O O14 0.115903 0.169580 0.735243
O O15 0.999430 0.154559 0.818026
O O16 0.105863 0.054335 0.165894
#
# Coordination Sequence:
#
# PCOD8130975 Si02
#       8
#     8   8   8   8   8   8   8   8
#     4  11  18  32  56  87 106 137 189 232 269 316
#     4  10  20  36  53  80 114 148 176 222 287 331
#     4  10  18  30  55  83 108 135 185 236 267 315
#     4   9  18  30  51  82 108 138 179 229 272 320
#     4  10  20  34  56  81 111 142 184 226 275 330
#     4  10  20  34  55  81 113 143 180 227 280 327
#     4  10  18  30  55  84 108 135 184 234 271 314
#     4  10  20  36  54  79 113 148 175 223 284 336
#
# _framework density 17.544924999999999
#
# number of rings (size 3 to 8) (size 9 to 14) (size 15 to 20)
#    0.000    2.000    5.000    0.000    0.000    0.000 
#    0.000    4.375    2.750    0.000    0.000    0.000 
#    0.000    0.000    0.000    0.000    0.000    0.000 
#
# Total GULP energy -396483.520565 kJ/mol
# GULP energy per Si atom -12390.110018 kJ/mol
# Density = 1.750499 g / cm^3
# Si number density = 17.544925 Si / 1000 Ang^3
#
#
#
# Elastic Constant Matrix: (Units=GPa)
#
#
# Indices 1 2 3 4 5 6 
#
# 1 54.0792 40.3689 22.5469 0.0000 1.6162 0.0000
# 2 40.3689 141.8399 64.1199 0.0000 1.5888 0.0000
# 3 22.5469 64.1199 87.1048 0.0000 3.0513 0.0000
# 4 0.0000 0.0000 0.0000 26.4297 0.0000 4.6185
# 5 1.6162 1.5888 3.0513 0.0000 13.0371 0.0000
# 6 0.0000 0.0000 0.0000 4.6185 0.0000 27.5280
#
#
#
# Elastic Compliance Matrix: (Units=1/GPa)
#
#
# Indices 1 2 3 4 5 6 
#
# 1 0.023699 -0.005965 -0.001680 0.000000 -0.001818 0.000000
# 2 -0.005965 0.012072 -0.007377 0.000000 0.000995 0.000000
# 3 -0.001680 -0.007377 0.017450 0.000000 -0.002977 0.000000
# 4 0.000000 0.000000 0.000000 0.038979 0.000000 -0.006540
# 5 -0.001818 0.000995 -0.002977 0.000000 0.077505 0.000000
# 6 0.000000 0.000000 0.000000 -0.006540 0.000000 0.037424
#
#
# Mechanical properties :
#
#
# Convention : Reuss Voigt Hill
#
# Bulk Modulus (GPa) = 43.14668 59.67725 51.41197
# Shear Modulus (GPa) = 20.41672 23.79818 22.10745
#
# Velocity S-wave (km/s) = 3.41498 3.68695 3.55357
# Velocity P-wave (km/s) = 6.33995 7.22583 6.79734
#
# Compressibility (1/GPa) = 0.02317676
#
# Stress axis : x y z
#
# Youngs Moduli (GPa) = 42.19596 82.83863 57.30722
#
# Poissons Ratio (x) = 0.49416 0.09625
# Poissons Ratio (y) = 0.25171 0.42275
# Poissons Ratio (z) = 0.07087 0.61110
#
# Static dielectric constant tensor:
#      x y z
#    x 3.058360 0.000000 0.056940 
#    y 0.000000 3.330710 0.000000 
#    z 0.056940 0.000000 3.097710 
# 
# 
# High freq. dielectric constant tensor:
#      x y z
#    x 1.650250 0.000000 0.000060 
#    y 0.000000 1.687970 0.000000 
#    z 0.000060 0.000000 1.655610 
# 
# From -- ./inp_files/251549.got.cif
#   From: 2010.06.25/outbox.cif.g09.slc.cpg/sg15_126_cif.got.tgz:251549.got - 2010.06.28 07:06:18.
