data_PCOD8130804
_publ_section_title
;
Structure prediction by ZEFSAII (Michael W. Deem and Ramdas Pophale) SiO2 
 PCOD8130804
Probable space group: C 2/C
;
_chemical_formula_sum "Si O2"
_cell_formula_units_Z 64
_cell_length_a 25.213433
_cell_length_b 21.306643
_cell_length_c 7.770960
_cell_angle_alpha 90.000000
_cell_angle_beta 95.780883
_cell_angle_gamma 90.000000
_cell_volume 4153.434721
_symmetry_space_group_name_H-M "C 2/C"
_symmetry_group_IT_number 15
_symmetry_cell_setting 'monoclinic'
loop_
_space_group_symop_operation_xyz
x,y,z
-x,y,1/2-z
-x,-y,-z
x,-y,1/2+z
1/2+x,1/2+y,z
1/2-x,1/2+y,1/2-z
1/2-x,1/2-y,-z
1/2+x,1/2-y,1/2+z
loop_
_atom_site_type_symbol
_atom_site_label
_atom_site_fract_x
_atom_site_fract_y
_atom_site_fract_z
Si Si1 0.229920 0.563074 0.541129
Si Si2 0.396501 0.071270 0.318104
Si Si3 0.224488 0.575646 0.149646
Si Si4 0.118046 0.372754 0.036736
Si Si5 0.711705 0.323585 0.324236
Si Si6 0.677606 0.250623 0.619921
Si Si7 0.788815 0.807097 0.541024
Si Si8 0.560533 0.055367 0.801790
O O1 0.242891 0.580301 0.350546
O O2 0.241237 0.490226 0.572739
O O3 0.169337 0.581577 0.569483
O O4 0.272417 0.603374 0.661649
O O5 0.338930 0.082652 0.382671
O O6 0.406714 0.121042 0.165452
O O7 0.435256 0.077289 0.496494
O O8 0.401674 0.004043 0.225165
O O9 0.252950 0.631457 0.059251
O O10 0.131825 0.300482 0.077006
O O11 0.076077 0.390295 0.172029
O O12 0.672988 0.300251 0.462458
O O13 0.765198 0.282208 0.353837
O O14 0.681072 0.315674 0.131888
O O15 0.669554 0.290902 0.793201
O O16 0.750000 0.750000 0.500000
O O17 0.500000 0.035017 0.750000
#
# Coordination Sequence:
#
# PCOD8130804 Si02
#       8
#     8   8   8   8   8   8   8   8
#     4  10  18  29  44  63  91 111 157 191 235 265
#     4  11  22  33  49  64  85 115 152 193 247 283
#     4  11  19  30  45  67  87 119 154 200 231 272
#     4  10  22  33  48  68  86 116 152 201 233 284
#     4   9  17  28  43  60  84 117 140 186 224 268
#     4   9  18  32  43  62  89 113 148 181 232 273
#     4  10  20  28  44  63  88 116 146 186 233 271
#     4  12  23  36  51  67  89 117 152 202 259 289
#
# _framework density 15.408932999999999
#
# number of rings (size 3 to 8) (size 9 to 14) (size 15 to 20)
#    0.000    1.750    3.750    1.875   10.500    0.000 
#    0.000    0.000    0.000    0.000    0.000    0.000 
#    0.000    0.000    0.000    0.000    0.000    1.250 
#
# Total GULP energy -396579.817491 kJ/mol
# GULP energy per Si atom -12393.119297 kJ/mol
# Density = 1.537386 g / cm^3
# Si number density = 15.408933 Si / 1000 Ang^3
#
#
#
# Elastic Constant Matrix: (Units=GPa)
#
#
# Indices 1 2 3 4 5 6 
#
# 1 22.3526 19.2150 24.3622 0.0000 -0.8451 0.0000
# 2 19.2150 81.3919 38.8813 0.0000 0.2753 0.0000
# 3 24.3622 38.8813 137.1891 0.0000 -0.8471 0.0000
# 4 0.0000 0.0000 0.0000 24.7885 0.0000 -1.6990
# 5 -0.8451 0.2753 -0.8471 0.0000 14.7624 0.0000
# 6 0.0000 0.0000 0.0000 -1.6990 0.0000 9.7910
#
#
#
# Elastic Compliance Matrix: (Units=1/GPa)
#
#
# Indices 1 2 3 4 5 6 
#
# 1 0.063167 -0.011075 -0.008058 0.000000 0.003360 0.000000
# 2 -0.011075 0.016155 -0.002619 0.000000 -0.001086 0.000000
# 3 -0.008058 -0.002619 0.009463 0.000000 0.000131 0.000000
# 4 0.000000 0.000000 0.000000 0.040827 0.000000 0.007084
# 5 0.003360 -0.001086 0.000131 0.000000 0.067960 0.000000
# 6 0.000000 0.000000 0.000000 0.007084 0.000000 0.103364
#
#
# Mechanical properties :
#
#
# Convention : Reuss Voigt Hill
#
# Bulk Modulus (GPa) = 22.08329 45.09452 33.58890
# Shear Modulus (GPa) = 13.90697 20.43339 17.17018
#
# Velocity S-wave (km/s) = 3.00747 3.64548 3.34174
# Velocity P-wave (km/s) = 5.14027 6.85916 6.06096
#
# Compressibility (1/GPa) = 0.04528312
#
# Stress axis : x y z
#
# Youngs Moduli (GPa) = 15.83111 61.89894 105.67341
#
# Poissons Ratio (x) = 0.68550 0.85150
# Poissons Ratio (y) = 0.17532 0.27673
# Poissons Ratio (z) = 0.12756 0.16210
#
# Static dielectric constant tensor:
#      x y z
#    x 2.414500 0.000000 -0.111770 
#    y 0.000000 2.744810 0.000000 
#    z -0.111770 0.000000 3.515190 
# 
# 
# High freq. dielectric constant tensor:
#      x y z
#    x 1.513390 0.000000 -0.015760 
#    y 0.000000 1.580250 0.000000 
#    z -0.015760 0.000000 1.622960 
# 
# From -- ./inp_files/63103.got.cif
#   From: 2010.06.25/outbox.cif.g09.slc.cpg/sg15_32_cif.got.tgz:63103.got - 2010.06.28 07:06:18.
