data_PCOD8130591
_publ_section_title
;
Structure prediction by ZEFSAII (Michael W. Deem and Ramdas Pophale) SiO2 
 PCOD8130591
Probable space group: C 2/C
;
_chemical_formula_sum "Si O2"
_cell_formula_units_Z 48
_cell_length_a 14.419161
_cell_length_b 12.607825
_cell_length_c 22.486297
_cell_angle_alpha 90.000000
_cell_angle_beta 139.188214
_cell_angle_gamma 90.000000
_cell_volume 2671.741313
_symmetry_space_group_name_H-M "C 2/C"
_symmetry_group_IT_number 15
_symmetry_cell_setting 'monoclinic'
loop_
_space_group_symop_operation_xyz
x,y,z
-x,y,1/2-z
-x,-y,-z
x,-y,1/2+z
1/2+x,1/2+y,z
1/2-x,1/2+y,1/2-z
1/2-x,1/2-y,-z
1/2+x,1/2-y,1/2+z
loop_
_atom_site_type_symbol
_atom_site_label
_atom_site_fract_x
_atom_site_fract_y
_atom_site_fract_z
Si Si1 0.287084 0.851104 0.978038
Si Si2 0.706437 0.163889 0.603630
Si Si3 0.182236 0.133334 0.721380
Si Si4 0.426654 0.205707 0.423468
Si Si5 0.926931 0.973453 0.152598
Si Si6 0.559814 0.979374 0.116886
O O1 0.327591 0.814839 0.931664
O O2 0.146772 0.922382 0.908727
O O3 0.250000 0.750000 0.000000
O O4 0.414623 0.922262 0.067164
O O5 0.787700 0.203101 0.703137
O O6 0.587260 0.245341 0.520136
O O7 0.817651 0.125099 0.608150
O O8 0.609327 0.060799 0.574874
O O9 0.158886 0.206176 0.653677
O O10 0.317984 0.056616 0.776567
O O11 0.043379 0.061401 0.661646
O O12 0.450031 0.105920 0.390547
O O13 0.000000 0.003993 0.250000
#
# Coordination Sequence:
#
# PCOD8130591 Si02
#       6
#     8   8   8   8   8   8
#     4  11  21  34  58  81 108 145 188 225 269 324
#     4   8  16  33  55  77 109 134 189 221 263 320
#     4   9  21  30  57  88 106 138 190 225 266 323
#     4  11  17  37  60  77 107 154 173 227 282 313
#     4  10  17  35  55  85 104 138 188 233 254 323
#     4   9  18  36  54  79 108 140 185 219 269 323
#
# _framework density 17.965810000000001
#
# number of rings (size 3 to 8) (size 9 to 14) (size 15 to 20)
#    1.000    1.333    3.333    1.000    0.000    3.333 
#    0.000    0.833    0.000    0.000    0.000    0.000 
#    0.000    0.000    0.000    0.000    0.000    0.000 
#
# Total GULP energy -297327.963018 kJ/mol
# GULP energy per Si atom -12388.665126 kJ/mol
# Density = 1.792492 g / cm^3
# Si number density = 17.965810 Si / 1000 Ang^3
#
#
#
# Elastic Constant Matrix: (Units=GPa)
#
#
# Indices 1 2 3 4 5 6 
#
# 1 61.3214 43.5943 45.8819 0.0000 14.5969 0.0000
# 2 43.5943 61.2782 48.4089 0.0000 0.9486 0.0000
# 3 45.8819 48.4089 115.6839 0.0000 15.7030 0.0000
# 4 0.0000 0.0000 0.0000 31.2587 0.0000 -2.7221
# 5 14.5969 0.9486 15.7030 0.0000 27.1267 0.0000
# 6 0.0000 0.0000 0.0000 -2.7221 0.0000 20.7716
#
#
#
# Elastic Compliance Matrix: (Units=1/GPa)
#
#
# Indices 1 2 3 4 5 6 
#
# 1 0.043565 -0.028795 -0.002370 0.000000 -0.021064 0.000000
# 2 -0.028795 0.044185 -0.009727 0.000000 0.019580 0.000000
# 3 -0.002370 -0.009727 0.014581 0.000000 -0.006825 0.000000
# 4 0.000000 0.000000 0.000000 0.032360 0.000000 0.004241
# 5 -0.021064 0.019580 -0.006825 0.000000 0.051465 0.000000
# 6 0.000000 0.000000 0.000000 0.004241 0.000000 0.048698
#
#
# Mechanical properties :
#
#
# Convention : Reuss Voigt Hill
#
# Bulk Modulus (GPa) = 48.66671 57.11705 52.89188
# Shear Modulus (GPa) = 15.45652 22.52463 18.99058
#
# Velocity S-wave (km/s) = 2.93632 3.54467 3.25474
# Velocity P-wave (km/s) = 6.21637 6.97238 6.60520
#
# Compressibility (1/GPa) = 0.02054793
#
# Stress axis : x y z
#
# Youngs Moduli (GPa) = 22.95396 22.63203 68.58210
#
# Poissons Ratio (x) = 0.65168 0.16255
# Poissons Ratio (y) = 0.66095 0.66710
# Poissons Ratio (z) = 0.05440 0.22014
#
# Static dielectric constant tensor:
#      x y z
#    x 3.065760 0.000000 0.336650 
#    y 0.000000 2.904100 0.000000 
#    z 0.336650 0.000000 3.585050 
# 
# 
# High freq. dielectric constant tensor:
#      x y z
#    x 1.668080 0.000000 0.030320 
#    y 0.000000 1.653590 0.000000 
#    z 0.030320 0.000000 1.709640 
# 
# From -- ./inp_files/274063.got.cif
#   From: 2010.06.25/outbox.cif.g09.slc.cpg/sg15_138_cif.got.tgz:274063.got - 2010.06.28 07:06:18.
