data_PCOD8130126
_publ_section_title
;
Structure prediction by ZEFSAII (Michael W. Deem and Ramdas Pophale) SiO2 
 PCOD8130126
Probable space group: C 2/C
;
_chemical_formula_sum "Si O2"
_cell_formula_units_Z 56
_cell_length_a 12.439285
_cell_length_b 27.799483
_cell_length_c 12.227732
_cell_angle_alpha 90.000000
_cell_angle_beta 48.626680
_cell_angle_gamma 90.000000
_cell_volume 3173.085908
_symmetry_space_group_name_H-M "C 2/C"
_symmetry_group_IT_number 15
_symmetry_cell_setting 'monoclinic'
loop_
_space_group_symop_operation_xyz
x,y,z
-x,y,1/2-z
-x,-y,-z
x,-y,1/2+z
1/2+x,1/2+y,z
1/2-x,1/2+y,1/2-z
1/2-x,1/2-y,-z
1/2+x,1/2-y,1/2+z
loop_
_atom_site_type_symbol
_atom_site_label
_atom_site_fract_x
_atom_site_fract_y
_atom_site_fract_z
Si Si1 0.170485 0.782278 0.965700
Si Si2 0.686492 0.610275 0.440928
Si Si3 0.611716 0.044294 0.076402
Si Si4 0.765360 0.050613 0.417800
Si Si5 0.914389 0.385744 0.598928
Si Si6 0.505368 0.546813 0.423329
Si Si7 0.441411 0.787830 0.665525
O O1 0.152061 0.837702 0.017095
O O2 0.268556 0.779936 0.789875
O O3 0.250000 0.750000 0.000000
O O4 0.012829 0.758949 0.060476
O O5 0.738901 0.571081 0.493986
O O6 0.818760 0.615231 0.271180
O O7 0.544841 0.591908 0.473696
O O8 0.500000 0.037677 0.250000
O O9 0.539941 0.075138 0.027817
O O10 0.651490 0.992093 0.004567
O O11 0.678407 0.099522 0.445611
O O12 0.873395 0.037516 0.248113
O O13 0.852015 0.058623 0.471937
O O14 0.976867 0.331465 0.556667
O O15 0.500000 0.500000 0.500000
O O16 0.500000 0.798656 0.750000
#
# Coordination Sequence:
#
# PCOD8130126 Si02
#       7
#     8   8   8   8   8   8   8
#     4   9  16  28  47  71  94 122 159 198 251 298
#     4   9  17  30  50  69  96 134 160 196 246 293
#     4  10  17  29  49  71  99 128 166 203 244 290
#     4  10  20  31  50  71  93 135 175 196 241 294
#     4   9  17  29  46  71  96 128 167 197 233 300
#     4  10  19  35  49  67 100 133 169 208 235 284
#     4   9  16  29  48  70  99 124 158 205 252 297
#
# _framework density 17.648436
#
# number of rings (size 3 to 8) (size 9 to 14) (size 15 to 20)
#    0.000    2.571    1.429    3.429    0.000    0.000 
#    0.000    5.714    0.000    0.857    0.000    0.000 
#    0.000    0.000    0.000    0.000    0.000    0.000 
#
# Total GULP energy -346942.320094 kJ/mol
# GULP energy per Si atom -12390.797146 kJ/mol
# Density = 1.760827 g / cm^3
# Si number density = 17.648436 Si / 1000 Ang^3
#
#
#
# Elastic Constant Matrix: (Units=GPa)
#
#
# Indices 1 2 3 4 5 6 
#
# 1 97.1578 44.6675 24.7599 0.0000 6.4237 0.0000
# 2 44.6675 127.0107 32.1741 0.0000 -0.8907 0.0000
# 3 24.7599 32.1741 32.0182 0.0000 -7.4350 0.0000
# 4 0.0000 0.0000 0.0000 28.2542 0.0000 -4.0997
# 5 6.4237 -0.8907 -7.4350 0.0000 20.3239 0.0000
# 6 0.0000 0.0000 0.0000 -4.0997 0.0000 25.5530
#
#
#
# Elastic Compliance Matrix: (Units=1/GPa)
#
#
# Indices 1 2 3 4 5 6 
#
# 1 0.014826 -0.002485 -0.011017 0.000000 -0.008825 0.000000
# 2 -0.002485 0.011245 -0.009924 0.000000 -0.002352 0.000000
# 3 -0.011017 -0.009924 0.055114 0.000000 0.023209 0.000000
# 4 0.000000 0.000000 0.000000 0.036237 0.000000 0.005814
# 5 -0.008825 -0.002352 0.023209 0.000000 0.060380 0.000000
# 6 0.000000 0.000000 0.000000 0.005814 0.000000 0.040067
#
#
# Mechanical properties :
#
#
# Convention : Reuss Voigt Hill
#
# Bulk Modulus (GPa) = 29.12739 51.04331 40.08535
# Shear Modulus (GPa) = 18.10507 25.13190 21.61849
#
# Velocity S-wave (km/s) = 3.20640 3.77773 3.50373
# Velocity P-wave (km/s) = 5.49983 6.92917 6.25546
#
# Compressibility (1/GPa) = 0.03433195
#
# Stress axis : x y z
#
# Youngs Moduli (GPa) = 67.44791 88.93041 18.14422
#
# Poissons Ratio (x) = 0.22100 0.19990
# Poissons Ratio (y) = 0.16762 0.18006
# Poissons Ratio (z) = 0.74310 0.88254
#
# Static dielectric constant tensor:
#      x y z
#    x 3.474750 0.000000 -0.288800 
#    y 0.000000 3.600400 0.000000 
#    z -0.288800 0.000000 3.119980 
# 
# 
# High freq. dielectric constant tensor:
#      x y z
#    x 1.671210 0.000000 -0.021130 
#    y 0.000000 1.684460 0.000000 
#    z -0.021130 0.000000 1.642840 
# 
# From -- ./inp_files/91721.got.cif
#   From: 2010.06.25/outbox.cif.g09.slc.cpg/sg15_46_cif.got.tgz:91721.got - 2010.06.28 07:06:18.
