data_PCOD8130445
_publ_section_title
;
Structure prediction by ZEFSAII (Michael W. Deem and Ramdas Pophale) SiO2 
 PCOD8130445
Probable space group: C 2/C
;
_chemical_formula_sum "Si O2"
_cell_formula_units_Z 60
_cell_length_a 28.018983
_cell_length_b 20.078525
_cell_length_c 12.617833
_cell_angle_alpha 90.000000
_cell_angle_beta 28.118220
_cell_angle_gamma 90.000000
_cell_volume 3345.487103
_symmetry_space_group_name_H-M "C 2/C"
_symmetry_group_IT_number 15
_symmetry_cell_setting 'monoclinic'
loop_
_space_group_symop_operation_xyz
x,y,z
-x,y,1/2-z
-x,-y,-z
x,-y,1/2+z
1/2+x,1/2+y,z
1/2-x,1/2+y,1/2-z
1/2-x,1/2-y,-z
1/2+x,1/2-y,1/2+z
loop_
_atom_site_type_symbol
_atom_site_label
_atom_site_fract_x
_atom_site_fract_y
_atom_site_fract_z
Si Si1 0.129695 0.294570 0.401354
Si Si2 0.111186 0.970292 0.801731
Si Si3 0.238956 0.910339 0.135354
Si Si4 0.948018 0.154266 0.966666
Si Si5 0.089864 0.325513 0.719179
Si Si6 0.690444 0.613640 0.955769
Si Si7 0.905054 0.792827 0.145576
Si Si8 0.500000 0.308086 0.750000
O O1 0.130517 0.215913 0.371757
O O2 0.125636 0.298328 0.535588
O O3 0.230230 0.329943 0.158574
O O4 0.031940 0.330437 0.539077
O O5 0.162712 0.939098 0.598593
O O6 0.188824 0.028388 0.676122
O O7 0.107937 0.915860 0.902808
O O8 0.000000 0.000000 0.000000
O O9 0.239247 0.924986 0.260526
O O10 0.185408 0.839910 0.214786
O O11 0.355771 0.897357 0.868718
O O12 0.000000 0.152845 0.750000
O O13 0.027340 0.163112 0.906868
O O14 0.131807 0.273738 0.724320
O O15 0.586641 0.644600 0.122581
O O16 0.963464 0.766795 0.924490
#
# Coordination Sequence:
#
# PCOD8130445 Si02
#       8
#     8   8   8   8   8   8   8   4
#     4   9  18  35  60  81 107 140 190 235 276 322
#     4  12  23  35  51  81 118 148 178 227 280 342
#     4  10  21  33  56  78 110 152 184 221 281 336
#     4  11  20  35  58  85 111 142 185 238 275 323
#     4   9  17  35  56  83 104 141 190 235 271 320
#     4  10  21  37  54  81 111 150 184 224 282 341
#     4  10  17  33  54  80 111 141 184 230 274 326
#     4  10  18  34  50  82 112 144 174 222 292 336
#
# _framework density 17.934608999999998
#
# number of rings (size 3 to 8) (size 9 to 14) (size 15 to 20)
#    0.000    1.867    5.333    1.200    1.867    0.533 
#    0.000    0.667    0.000    0.000    0.000    0.000 
#    0.000    0.000    0.000    0.000    0.000    0.000 
#
# Total GULP energy -371733.021552 kJ/mol
# GULP energy per Si atom -12391.100718 kJ/mol
# Density = 1.789379 g / cm^3
# Si number density = 17.934609 Si / 1000 Ang^3
#
#
#
# Elastic Constant Matrix: (Units=GPa)
#
#
# Indices 1 2 3 4 5 6 
#
# 1 79.9934 51.8385 47.2623 0.0000 3.8804 0.0000
# 2 51.8385 116.4045 66.4614 0.0000 -10.5042 0.0000
# 3 47.2623 66.4614 93.8687 0.0000 1.4187 0.0000
# 4 0.0000 0.0000 0.0000 29.1738 0.0000 6.4188
# 5 3.8804 -10.5042 1.4187 0.0000 35.8127 0.0000
# 6 0.0000 0.0000 0.0000 6.4188 0.0000 46.2707
#
#
#
# Elastic Compliance Matrix: (Units=1/GPa)
#
#
# Indices 1 2 3 4 5 6 
#
# 1 0.019925 -0.005886 -0.005809 0.000000 -0.003655 0.000000
# 2 -0.005886 0.016972 -0.009143 0.000000 0.005978 0.000000
# 3 -0.005809 -0.009143 0.020095 0.000000 -0.002848 0.000000
# 4 0.000000 0.000000 0.000000 0.035356 0.000000 -0.004905
# 5 -0.003655 0.005978 -0.002848 0.000000 0.030185 0.000000
# 6 0.000000 0.000000 0.000000 -0.004905 0.000000 0.022292
#
#
# Mechanical properties :
#
#
# Convention : Reuss Voigt Hill
#
# Bulk Modulus (GPa) = 65.29854 69.04345 67.17100
# Shear Modulus (GPa) = 26.09494 30.56506 28.33000
#
# Velocity S-wave (km/s) = 3.81859 4.13273 3.97876
# Velocity P-wave (km/s) = 7.47867 7.83285 7.65781
#
# Compressibility (1/GPa) = 0.01531428
#
# Stress axis : x y z
#
# Youngs Moduli (GPa) = 50.18778 58.92128 49.76432
#
# Poissons Ratio (x) = 0.34683 0.28910
# Poissons Ratio (y) = 0.29542 0.45500
# Poissons Ratio (z) = 0.29156 0.53872
#
# Static dielectric constant tensor:
#      x y z
#    x 3.621850 0.000000 0.055840 
#    y 0.000000 3.264910 0.000000 
#    z 0.055840 0.000000 3.660090 
# 
# 
# High freq. dielectric constant tensor:
#      x y z
#    x 1.701640 0.000000 0.004420 
#    y 0.000000 1.668880 0.000000 
#    z 0.004420 0.000000 1.689210 
# 
# From -- ./inp_files/127212.got.cif
#   From: 2010.06.25/outbox.cif.g09.slc.cpg/sg15_64_cif.got.tgz:127212.got - 2010.06.28 07:06:18.
