data_PCOD8130253
_publ_section_title
;
Structure prediction by ZEFSAII (Michael W. Deem and Ramdas Pophale) SiO2 
 PCOD8130253
Probable space group: C 2/C
;
_chemical_formula_sum "Si O2"
_cell_formula_units_Z 60
_cell_length_a 16.287970
_cell_length_b 17.102220
_cell_length_c 12.147479
_cell_angle_alpha 90.000000
_cell_angle_beta 71.585726
_cell_angle_gamma 90.000000
_cell_volume 3210.547261
_symmetry_space_group_name_H-M "C 2/C"
_symmetry_group_IT_number 15
_symmetry_cell_setting 'monoclinic'
loop_
_space_group_symop_operation_xyz
x,y,z
-x,y,1/2-z
-x,-y,-z
x,-y,1/2+z
1/2+x,1/2+y,z
1/2-x,1/2+y,1/2-z
1/2-x,1/2-y,-z
1/2+x,1/2-y,1/2+z
loop_
_atom_site_type_symbol
_atom_site_label
_atom_site_fract_x
_atom_site_fract_y
_atom_site_fract_z
Si Si1 0.695967 0.239352 0.857999
Si Si2 0.342604 0.167151 0.408631
Si Si3 0.604449 0.618600 0.327937
Si Si4 0.114721 0.003064 0.637829
Si Si5 0.199589 0.895852 0.281931
Si Si6 0.244909 0.976923 0.901315
Si Si7 0.500000 0.745278 0.750000
Si Si8 0.984416 0.885765 0.076481
O O1 0.752365 0.296316 0.909417
O O2 0.634440 0.290448 0.803251
O O3 0.756671 0.187290 0.754723
O O4 0.640977 0.186842 0.968864
O O5 0.417817 0.197589 0.296178
O O6 0.329406 0.072844 0.401958
O O7 0.590112 0.574749 0.217751
O O8 0.678336 0.575911 0.363422
O O9 0.518002 0.620479 0.437903
O O10 0.155529 0.075112 0.688374
O O11 0.026936 0.037586 0.618273
O O12 0.193605 0.983158 0.523582
O O13 0.271514 0.953387 0.305642
O O14 0.117826 0.894506 0.399812
O O15 0.499677 0.692433 0.859389
#
# Coordination Sequence:
#
# PCOD8130253 Si02
#       8
#     8   8   8   8   8   8   4   8
#     4  10  17  31  50  72 103 136 170 208 253 299
#     4  10  18  31  52  74 105 130 168 216 257 296
#     4   9  20  31  47  74 106 141 166 207 253 312
#     4  10  18  32  47  71 110 142 161 202 256 314
#     4  11  19  30  50  74 107 135 166 211 253 305
#     4   9  20  32  48  76 102 138 173 204 254 306
#     4  12  18  30  54  80 104 126 164 218 264 296
#     4  11  19  30  46  80 110 132 159 210 261 306
#
# _framework density 18.688403000000001
#
# number of rings (size 3 to 8) (size 9 to 14) (size 15 to 20)
#    0.000    1.867    5.333    0.000    0.000    5.867 
#    0.000    0.667    0.000    0.800    3.467    0.000 
#    0.000    0.000    0.000    0.000    0.000    0.000 
#
# Total GULP energy -371700.091735 kJ/mol
# GULP energy per Si atom -12390.003058 kJ/mol
# Density = 1.864587 g / cm^3
# Si number density = 18.688403 Si / 1000 Ang^3
#
#
#
# Elastic Constant Matrix: (Units=GPa)
#
#
# Indices 1 2 3 4 5 6 
#
# 1 40.6625 36.8045 25.2840 0.0000 -3.4981 0.0000
# 2 36.8045 99.0592 41.2257 0.0000 -0.3750 0.0000
# 3 25.2840 41.2257 64.4729 0.0000 -7.9916 0.0000
# 4 0.0000 0.0000 0.0000 14.7926 0.0000 -4.5012
# 5 -3.4981 -0.3750 -7.9916 0.0000 11.1253 0.0000
# 6 0.0000 0.0000 0.0000 -4.5012 0.0000 22.9693
#
#
#
# Elastic Compliance Matrix: (Units=1/GPa)
#
#
# Indices 1 2 3 4 5 6 
#
# 1 0.040664 -0.012004 -0.007395 0.000000 0.007069 0.000000
# 2 -0.012004 0.017731 -0.007710 0.000000 -0.008715 0.000000
# 3 -0.007395 -0.007710 0.025270 0.000000 0.015567 0.000000
# 4 0.000000 0.000000 0.000000 0.071888 0.000000 0.014087
# 5 0.007069 -0.008715 0.015567 0.000000 0.102997 0.000000
# 6 0.000000 0.000000 0.000000 0.014087 0.000000 0.046297
#
#
# Mechanical properties :
#
#
# Convention : Reuss Voigt Hill
#
# Bulk Modulus (GPa) = 33.95999 45.64702 39.80350
# Shear Modulus (GPa) = 13.55450 16.50280 15.02865
#
# Velocity S-wave (km/s) = 2.69604 2.97484 2.83887
# Velocity P-wave (km/s) = 5.28230 6.02311 5.66483
#
# Compressibility (1/GPa) = 0.02944642
#
# Stress axis : x y z
#
# Youngs Moduli (GPa) = 24.59168 56.39924 39.57225
#
# Poissons Ratio (x) = 0.67701 0.29264
# Poissons Ratio (y) = 0.29520 0.30511
# Poissons Ratio (z) = 0.18186 0.43485
#
# Static dielectric constant tensor:
#      x y z
#    x 3.207560 0.000000 -0.016070 
#    y 0.000000 3.732480 0.000000 
#    z -0.016070 0.000000 3.595660 
# 
# 
# High freq. dielectric constant tensor:
#      x y z
#    x 1.678890 0.000000 -0.008600 
#    y 0.000000 1.714180 0.000000 
#    z -0.008600 0.000000 1.726010 
# 
# From -- ./inp_files/106379.got.cif
#   From: 2010.06.25/outbox.cif.g09.slc.cpg/sg15_54_cif.got.tgz:106379.got - 2010.06.28 07:06:18.
