data_PCOD8130235
_publ_section_title
;
Structure prediction by ZEFSAII (Michael W. Deem and Ramdas Pophale) SiO2 
 PCOD8130235
Probable space group: C 2/C
;
_chemical_formula_sum "Si O2"
_cell_formula_units_Z 64
_cell_length_a 25.314846
_cell_length_b 16.875903
_cell_length_c 17.053065
_cell_angle_alpha 90.000000
_cell_angle_beta 25.622885
_cell_angle_gamma 90.000000
_cell_volume 3150.478823
_symmetry_space_group_name_H-M "C 2/C"
_symmetry_group_IT_number 15
_symmetry_cell_setting 'monoclinic'
loop_
_space_group_symop_operation_xyz
x,y,z
-x,y,1/2-z
-x,-y,-z
x,-y,1/2+z
1/2+x,1/2+y,z
1/2-x,1/2+y,1/2-z
1/2-x,1/2-y,-z
1/2+x,1/2-y,1/2+z
loop_
_atom_site_type_symbol
_atom_site_label
_atom_site_fract_x
_atom_site_fract_y
_atom_site_fract_z
Si Si1 0.394940 0.254179 0.021588
Si Si2 0.176610 0.347825 0.388553
Si Si3 0.868928 0.955067 0.411810
Si Si4 0.690143 0.493608 0.344824
Si Si5 0.492589 0.746165 0.969215
Si Si6 0.785238 0.138517 0.295373
Si Si7 0.543280 0.401141 0.799853
Si Si8 0.219814 0.828528 0.088200
O O1 0.479662 0.222302 0.979820
O O2 0.468016 0.321936 0.873954
O O3 0.277661 0.288129 0.221973
O O4 0.348665 0.182359 0.026793
O O5 0.202446 0.430715 0.311671
O O6 0.040567 0.320014 0.543437
O O7 0.180065 0.350096 0.479270
O O8 0.790862 0.904763 0.454384
O O9 0.000000 0.911444 0.250000
O O10 0.793426 0.962269 0.593502
O O11 0.899469 0.046242 0.346186
O O12 0.717704 0.552510 0.237869
O O13 0.553467 0.455254 0.521060
O O14 0.375297 0.690980 0.123912
O O15 0.594287 0.687782 0.800015
O O16 0.838161 0.127795 0.311402
O O17 0.250000 0.750000 0.000000
#
# Coordination Sequence:
#
# PCOD8130235 Si02
#       8
#     8   8   8   8   8   8   8   8
#     4   8  17  30  53  80 104 137 184 230 268 324
#     4   9  19  35  51  76 109 148 177 219 267 332
#     4  10  21  33  54  81 113 142 179 231 277 317
#     4  10  19  31  54  78 110 142 185 220 267 328
#     4   9  18  33  52  76 109 141 176 219 276 329
#     4  10  17  30  57  77 107 140 183 227 271 323
#     4   9  17  33  52  81 110 143 180 231 274 323
#     4  11  23  32  54  84 117 139 180 228 283 334
#
# _framework density 20.314373
#
# number of rings (size 3 to 8) (size 9 to 14) (size 15 to 20)
#    0.000    2.500    0.000    3.375    7.000    0.000 
#    0.000    0.625    0.000   30.000    0.000    0.000 
#    0.000    0.000    0.000    0.000    0.000    0.000 
#
# Total GULP energy -396422.823186 kJ/mol
# GULP energy per Si atom -12388.213225 kJ/mol
# Density = 2.026814 g / cm^3
# Si number density = 20.314373 Si / 1000 Ang^3
#
#
#
# Elastic Constant Matrix: (Units=GPa)
#
#
# Indices 1 2 3 4 5 6 
#
# 1 81.9303 36.8065 4.4598 0.0000 -10.5277 0.0000
# 2 36.8065 70.9670 10.4282 0.0000 -14.1013 0.0000
# 3 4.4598 10.4282 16.9205 0.0000 2.8291 0.0000
# 4 0.0000 0.0000 0.0000 26.2173 0.0000 0.6803
# 5 -10.5277 -14.1013 2.8291 0.0000 20.7991 0.0000
# 6 0.0000 0.0000 0.0000 0.6803 0.0000 41.7276
#
#
#
# Elastic Compliance Matrix: (Units=1/GPa)
#
#
# Indices 1 2 3 4 5 6 
#
# 1 0.016060 -0.007776 0.000084 0.000000 0.002845 0.000000
# 2 -0.007776 0.022927 -0.014347 0.000000 0.013559 0.000000
# 3 0.000084 -0.014347 0.071158 0.000000 -0.019363 0.000000
# 4 0.000000 0.000000 0.000000 0.038159 0.000000 -0.000622
# 5 0.002845 0.013559 -0.019363 0.000000 0.061346 0.000000
# 6 0.000000 0.000000 0.000000 -0.000622 0.000000 0.023975
#
#
# Mechanical properties :
#
#
# Convention : Reuss Voigt Hill
#
# Bulk Modulus (GPa) = 15.13662 30.35630 22.74646
# Shear Modulus (GPa) = 16.68193 25.62368 21.15281
#
# Velocity S-wave (km/s) = 2.86875 3.55541 3.23038
# Velocity P-wave (km/s) = 4.29422 5.64184 5.01351
#
# Compressibility (1/GPa) = 0.06606495
#
# Stress axis : x y z
#
# Youngs Moduli (GPa) = 62.26647 43.61729 14.05327
#
# Poissons Ratio (x) = 0.33918 -0.00118
# Poissons Ratio (y) = 0.48421 0.20163
# Poissons Ratio (z) = -0.00523 0.62579
#
# Static dielectric constant tensor:
#      x y z
#    x 4.047790 0.000000 -0.152840 
#    y 0.000000 3.967820 0.000000 
#    z -0.152840 0.000000 3.394390 
# 
# 
# High freq. dielectric constant tensor:
#      x y z
#    x 1.799930 0.000000 0.002530 
#    y 0.000000 1.787100 0.000000 
#    z 0.002530 0.000000 1.746660 
# 
# From -- ./inp_files/174209.got.cif
#   From: 2010.06.25/outbox.cif.g09.slc.cpg/sg15_88_cif.got.tgz:174209.got - 2010.06.28 07:06:18.
