data_PCOD8130747
_publ_section_title
;
Structure prediction by ZEFSAII (Michael W. Deem and Ramdas Pophale) SiO2 
 PCOD8130747
Probable space group: C 2/C
;
_chemical_formula_sum "Si O2"
_cell_formula_units_Z 32
_cell_length_a 10.178416
_cell_length_b 32.954138
_cell_length_c 5.013697
_cell_angle_alpha 90.000000
_cell_angle_beta 119.538954
_cell_angle_gamma 90.000000
_cell_volume 1463.112857
_symmetry_space_group_name_H-M "C 2/C"
_symmetry_group_IT_number 15
_symmetry_cell_setting 'monoclinic'
loop_
_space_group_symop_operation_xyz
x,y,z
-x,y,1/2-z
-x,-y,-z
x,-y,1/2+z
1/2+x,1/2+y,z
1/2-x,1/2+y,1/2-z
1/2-x,1/2-y,-z
1/2+x,1/2-y,1/2+z
loop_
_atom_site_type_symbol
_atom_site_label
_atom_site_fract_x
_atom_site_fract_y
_atom_site_fract_z
Si Si1 0.828348 0.312839 0.997691
Si Si2 0.104266 0.230446 0.609950
Si Si3 0.176635 0.521240 0.372303
Si Si4 0.603575 0.105518 0.108679
O O1 0.813557 0.274908 0.768946
O O2 0.781551 0.356509 0.829847
O O3 0.000000 0.320203 0.250000
O O4 0.727188 0.303710 0.158898
O O5 0.000000 0.237875 0.250000
O O6 0.000000 0.216477 0.750000
O O7 0.249709 0.510194 0.730983
O O8 0.000000 0.514045 0.250000
O O9 0.205027 0.567127 0.299528
O O10 0.500000 0.093277 0.750000
O O11 0.500000 0.119442 0.250000
#
# Coordination Sequence:
#
# PCOD8130747 Si02
#       4
#     8   8   8   8
#     4   9  20  34  52  74  99 129 165 202 241 286
#     4  10  21  36  52  71  99 132 164 200 243 288
#     4   9  15  24  37  56  87 123 150 179 230 287
#     4  10  18  27  42  65  92 122 157 194 233 281
#
# _framework density 21.871176999999999
#
# number of rings (size 3 to 8) (size 9 to 14) (size 15 to 20)
#    0.000    2.500    0.000    4.500    0.000   13.000 
#    0.000    0.000    0.000    0.000    0.000    0.000 
#    0.000    6.000    0.000    0.000    0.000    2.000 
#
# Total GULP energy -198208.767507 kJ/mol
# GULP energy per Si atom -12388.047969 kJ/mol
# Density = 2.182140 g / cm^3
# Si number density = 21.871177 Si / 1000 Ang^3
#
#
#
# Elastic Constant Matrix: (Units=GPa)
#
#
# Indices 1 2 3 4 5 6 
#
# 1 92.5499 49.9738 29.2240 0.0000 -36.5583 0.0000
# 2 49.9738 194.1056 38.8443 0.0000 -32.9703 0.0000
# 3 29.2240 38.8443 68.1704 0.0000 -45.3287 0.0000
# 4 0.0000 0.0000 0.0000 33.9844 0.0000 -12.1218
# 5 -36.5583 -32.9703 -45.3287 0.0000 34.6673 0.0000
# 6 0.0000 0.0000 0.0000 -12.1218 0.0000 26.7525
#
#
#
# Elastic Compliance Matrix: (Units=1/GPa)
#
#
# Indices 1 2 3 4 5 6 
#
# 1 0.066752 -0.002618 0.138054 0.000000 0.248413 0.000000
# 2 -0.002618 0.006325 -0.002433 0.000000 0.000073 0.000000
# 3 0.138054 -0.002433 0.399283 0.000000 0.665346 0.000000
# 4 0.000000 0.000000 0.000000 0.035098 0.000000 0.015903
# 5 0.248413 0.000073 0.665346 0.000000 1.160840 0.000000
# 6 0.000000 0.000000 0.000000 0.015903 0.000000 0.044586
#
#
# Mechanical properties :
#
#
# Convention : Reuss Voigt Hill
#
# Bulk Modulus (GPa) = 1.35434 65.65666 33.50550
# Shear Modulus (GPa) = 2.95334 34.86644 18.90989
#
# Velocity S-wave (km/s) = 1.16330 3.99704 2.94360
# Velocity P-wave (km/s) = 1.55722 7.16845 5.18708
#
# Compressibility (1/GPa) = 0.73836558
#
# Stress axis : x y z
#
# Youngs Moduli (GPa) = 14.98073 158.09618 2.50449
#
# Poissons Ratio (x) = 0.41393 -0.34575
# Poissons Ratio (y) = 0.03922 0.00609
# Poissons Ratio (z) = -2.06815 0.38467
#
# Static dielectric constant tensor:
#      x y z
#    x 3.572270 0.000000 -0.397920 
#    y 0.000000 4.342570 0.000000 
#    z -0.397920 0.000000 4.381440 
# 
# 
# High freq. dielectric constant tensor:
#      x y z
#    x 1.794480 0.000000 -0.043610 
#    y 0.000000 1.864800 0.000000 
#    z -0.043610 0.000000 1.861680 
# 
# From -- ./inp_files/2376.got.cif
#   From: 2010.06.25/outbox.cif.g09.slc.cpg/sg15_2_cif.got.tgz:2376.got - 2010.06.28 07:06:18.
