data_PCOD8130326
_publ_section_title
;
Structure prediction by ZEFSAII (Michael W. Deem and Ramdas Pophale) SiO2 
 PCOD8130326
Probable space group: C 2/C
;
_chemical_formula_sum "Si O2"
_cell_formula_units_Z 36
_cell_length_a 14.551398
_cell_length_b 21.030719
_cell_length_c 8.876199
_cell_angle_alpha 90.000000
_cell_angle_beta 127.588713
_cell_angle_gamma 90.000000
_cell_volume 2152.463131
_symmetry_space_group_name_H-M "C 2/C"
_symmetry_group_IT_number 15
_symmetry_cell_setting 'monoclinic'
loop_
_space_group_symop_operation_xyz
x,y,z
-x,y,1/2-z
-x,-y,-z
x,-y,1/2+z
1/2+x,1/2+y,z
1/2-x,1/2+y,1/2-z
1/2-x,1/2-y,-z
1/2+x,1/2-y,1/2+z
loop_
_atom_site_type_symbol
_atom_site_label
_atom_site_fract_x
_atom_site_fract_y
_atom_site_fract_z
Si Si1 0.500000 0.500000 0.750000
Si Si2 0.380455 0.419597 0.380455
Si Si3 0.118877 0.778449 0.118877
Si Si4 0.000000 0.697264 0.250000
Si Si5 0.658770 0.849077 0.158770
Si Si6 0.000000 0.302736 0.250000
O O1 0.417137 0.456577 0.566427
O O2 0.582863 0.543423 0.732153
O O3 0.438590 0.349235 0.438590
O O4 0.239768 0.412057 0.239768
O O5 0.080990 0.741533 0.229575
O O6 0.259039 0.785819 0.259039
O O7 0.080991 0.741533 0.932406
O O8 0.079773 0.651534 0.430944
O O9 0.579773 0.848466 0.228602
#
# Coordination Sequence:
#
# PCOD8130326 Si02
#       6
#     4   8   8   4   8   4
#     4  10  18  38  52  72  96 122 158 226 232 282
#     4   9  20  32  53  73  97 122 167 198 254 271
#     4   9  18  30  49  77  99 132 153 196 234 303
#     4  10  17  32  48  72 112 124 155 190 240 290
#     4   9  20  30  48  74 101 134 158 191 233 299
#     4  10  17  32  48  72 112 124 155 190 240 290
#
# _framework density 16.725026
#
# number of rings (size 3 to 8) (size 9 to 14) (size 15 to 20)
#    1.333    1.333    0.000    2.667    0.000    0.000 
#    0.000    6.667    0.000    4.000    0.000    0.000 
#    0.000    0.000    0.000    0.000    0.000    0.000 
#
# Total GULP energy -223082.017765 kJ/mol
# GULP energy per Si atom -12393.445431 kJ/mol
# Density = 1.668696 g / cm^3
# Si number density = 16.725026 Si / 1000 Ang^3
#
#
#
# Elastic Constant Matrix: (Units=GPa)
#
#
# Indices 1 2 3 4 5 6 
#
# 1 123.0100 46.4097 77.6732 0.0000 -3.7267 0.0000
# 2 46.4097 79.3868 50.0985 0.0000 -4.6778 0.0000
# 3 77.6732 50.0985 132.9741 0.0000 -8.9077 0.0000
# 4 0.0000 0.0000 0.0000 13.1282 0.0000 13.0793
# 5 -3.7267 -4.6778 -8.9077 0.0000 30.7078 0.0000
# 6 0.0000 0.0000 0.0000 13.0793 0.0000 23.4428
#
#
#
# Elastic Compliance Matrix: (Units=1/GPa)
#
#
# Indices 1 2 3 4 5 6 
#
# 1 0.013761 -0.003918 -0.006619 0.000000 -0.000847 0.000000
# 2 -0.003918 0.017657 -0.004299 0.000000 0.000967 0.000000
# 3 -0.006619 -0.004299 0.013164 0.000000 0.002361 0.000000
# 4 0.000000 0.000000 0.000000 0.171500 0.000000 -0.095684
# 5 -0.000847 0.000967 0.002361 0.000000 0.033294 0.000000
# 6 0.000000 0.000000 0.000000 -0.095684 0.000000 0.096041
#
#
# Mechanical properties :
#
#
# Convention : Reuss Voigt Hill
#
# Bulk Modulus (GPa) = 67.06476 75.97045 71.51761
# Shear Modulus (GPa) = 13.15582 24.20172 18.67877
#
# Velocity S-wave (km/s) = 2.80767 3.80812 3.34550
# Velocity P-wave (km/s) = 7.12013 8.05342 7.60111
#
# Compressibility (1/GPa) = 0.01491096
#
# Stress axis : x y z
#
# Youngs Moduli (GPa) = 72.66707 56.63518 75.96248
#
# Poissons Ratio (x) = 0.22188 0.50280
# Poissons Ratio (y) = 0.28469 0.32657
# Poissons Ratio (z) = 0.48099 0.24348
#
# Static dielectric constant tensor:
#      x y z
#    x 3.108220 0.000000 -0.068520 
#    y 0.000000 2.863200 0.000000 
#    z -0.068520 0.000000 3.162260 
# 
# 
# High freq. dielectric constant tensor:
#      x y z
#    x 1.647130 0.000000 -0.009150 
#    y 0.000000 1.614940 0.000000 
#    z -0.009150 0.000000 1.654340 
# 
# From -- ./inp_files/30608.got.cif
#   From: 2010.06.25/outbox.cif.g09.slc.cpg/sg15_16_cif.got.tgz:30608.got - 2010.06.28 07:06:18.
