data_PCOD8130865
_publ_section_title
;
Structure prediction by ZEFSAII (Michael W. Deem and Ramdas Pophale) SiO2 
 PCOD8130865
Probable space group: C 2/C
;
_chemical_formula_sum "Si O2"
_cell_formula_units_Z 40
_cell_length_a 26.035859
_cell_length_b 10.142593
_cell_length_c 9.251296
_cell_angle_alpha 90.000000
_cell_angle_beta 50.665392
_cell_angle_gamma 90.000000
_cell_volume 1889.556735
_symmetry_space_group_name_H-M "C 2/C"
_symmetry_group_IT_number 15
_symmetry_cell_setting 'monoclinic'
loop_
_space_group_symop_operation_xyz
x,y,z
-x,y,1/2-z
-x,-y,-z
x,-y,1/2+z
1/2+x,1/2+y,z
1/2-x,1/2+y,1/2-z
1/2-x,1/2-y,-z
1/2+x,1/2-y,1/2+z
loop_
_atom_site_type_symbol
_atom_site_label
_atom_site_fract_x
_atom_site_fract_y
_atom_site_fract_z
Si Si1 0.234721 0.410449 0.911456
Si Si2 0.514584 0.804762 0.877448
Si Si3 0.206692 0.123830 0.896980
Si Si4 0.934763 0.807676 0.938176
Si Si5 0.086246 0.423611 0.230388
O O1 0.233924 0.272384 0.825049
O O2 0.247986 0.526412 0.775735
O O3 0.290280 0.409950 0.937893
O O4 0.164757 0.432498 0.117155
O O5 0.500000 0.733260 0.750000
O O6 0.557944 0.931803 0.760689
O O7 0.555767 0.704372 0.905637
O O8 0.446061 0.846112 0.077470
O O9 0.130294 0.107869 0.983135
O O10 0.927995 0.657484 0.891317
O O11 0.000000 0.875283 0.750000
#
# Coordination Sequence:
#
# PCOD8130865 Si02
#       5
#     8   8   8   8   8
#     4  10  23  41  64  93 129 165 206 256 315 375
#     4  10  18  29  55  91 120 157 205 258 315 360
#     4  10  23  43  63  92 123 171 207 259 312 368
#     4   9  19  38  57  83 123 164 204 258 307 363
#     4   9  18  32  55  86 126 156 195 261 319 359
#
# _framework density 21.168986
#
# number of rings (size 3 to 8) (size 9 to 14) (size 15 to 20)
#    0.000    2.400    0.000    3.000    8.400    0.800 
#    0.000    1.000    0.000    0.000    0.000    0.000 
#    0.000    0.000    0.000    0.000    0.000    0.000 
#
# Total GULP energy -248001.858326 kJ/mol
# GULP energy per Si atom -12400.092916 kJ/mol
# Density = 2.112080 g / cm^3
# Si number density = 21.168986 Si / 1000 Ang^3
#
#
#
# Elastic Constant Matrix: (Units=GPa)
#
#
# Indices 1 2 3 4 5 6 
#
# 1 140.1028 29.4439 61.6162 0.0000 12.3692 0.0000
# 2 29.4439 71.5701 45.4500 0.0000 -6.1256 0.0000
# 3 61.6162 45.4500 90.7833 0.0000 11.6909 0.0000
# 4 0.0000 0.0000 0.0000 14.2083 0.0000 2.0223
# 5 12.3692 -6.1256 11.6909 0.0000 41.5692 0.0000
# 6 0.0000 0.0000 0.0000 2.0223 0.0000 21.2544
#
#
#
# Elastic Compliance Matrix: (Units=1/GPa)
#
#
# Indices 1 2 3 4 5 6 
#
# 1 0.010226 0.000018 -0.006804 0.000000 -0.001127 0.000000
# 2 0.000018 0.022107 -0.011931 0.000000 0.006608 0.000000
# 3 -0.006804 -0.011931 0.022383 0.000000 -0.006028 0.000000
# 4 0.000000 0.000000 0.000000 0.071348 0.000000 -0.006789
# 5 -0.001127 0.006608 -0.006028 0.000000 0.027061 0.000000
# 6 0.000000 0.000000 0.000000 -0.006789 0.000000 0.047695
#
#
# Mechanical properties :
#
#
# Convention : Reuss Voigt Hill
#
# Bulk Modulus (GPa) = 57.86653 63.94183 60.90418
# Shear Modulus (GPa) = 20.49065 26.46946 23.48006
#
# Velocity S-wave (km/s) = 3.11457 3.53992 3.33404
# Velocity P-wave (km/s) = 6.35051 6.85413 6.60712
#
# Compressibility (1/GPa) = 0.01728115
#
# Stress axis : x y z
#
# Youngs Moduli (GPa) = 97.79190 45.23436 44.67747
#
# Poissons Ratio (x) = -0.00080 0.30399
# Poissons Ratio (y) = -0.00172 0.53303
# Poissons Ratio (z) = 0.66539 0.53967
#
# Static dielectric constant tensor:
#      x y z
#    x 4.078420 0.000000 -0.038690 
#    y 0.000000 3.425920 0.000000 
#    z -0.038690 0.000000 3.721480 
# 
# 
# High freq. dielectric constant tensor:
#      x y z
#    x 1.845650 0.000000 0.001410 
#    y 0.000000 1.791670 0.000000 
#    z 0.001410 0.000000 1.819050 
# 
# From -- ./inp_files/60455.got.cif
#   From: 2010.06.25/outbox.cif.g09.slc.cpg/sg15_31_cif.got.tgz:60455.got - 2010.06.28 07:06:18.
