data_PCOD8130566
_publ_section_title
;
Structure prediction by ZEFSAII (Michael W. Deem and Ramdas Pophale) SiO2 
 PCOD8130566
Probable space group: C 2/C
;
_chemical_formula_sum "Si O2"
_cell_formula_units_Z 60
_cell_length_a 18.036958
_cell_length_b 18.082544
_cell_length_c 15.298699
_cell_angle_alpha 90.000000
_cell_angle_beta 39.702096
_cell_angle_gamma 90.000000
_cell_volume 3187.421426
_symmetry_space_group_name_H-M "C 2/C"
_symmetry_group_IT_number 15
_symmetry_cell_setting 'monoclinic'
loop_
_space_group_symop_operation_xyz
x,y,z
-x,y,1/2-z
-x,-y,-z
x,-y,1/2+z
1/2+x,1/2+y,z
1/2-x,1/2+y,1/2-z
1/2-x,1/2-y,-z
1/2+x,1/2-y,1/2+z
loop_
_atom_site_type_symbol
_atom_site_label
_atom_site_fract_x
_atom_site_fract_y
_atom_site_fract_z
Si Si1 0.168495 0.272920 0.709474
Si Si2 0.148424 0.110976 0.473655
Si Si3 0.065568 0.153237 0.363191
Si Si4 0.260133 0.222572 0.088181
Si Si5 0.275919 0.155872 0.737550
Si Si6 0.500000 0.684491 0.750000
Si Si7 0.472253 0.190611 0.997728
Si Si8 0.104801 0.961439 0.458007
O O1 0.243840 0.338162 0.596715
O O2 0.245274 0.207037 0.682042
O O3 0.101252 0.238018 0.689892
O O4 0.087175 0.314312 0.853667
O O5 0.132927 0.118840 0.383885
O O6 0.039405 0.133681 0.632775
O O7 0.166764 0.021648 0.465640
O O8 0.152680 0.167858 0.204432
O O9 0.015033 0.226771 0.449456
O O10 0.960488 0.101286 0.424996
O O11 0.253327 0.296681 0.150832
O O12 0.378526 0.177153 0.004368
O O13 0.250000 0.250000 0.000000
O O14 0.414799 0.136700 0.609756
O O15 0.200877 0.079732 0.808936
O O16 0.000000 0.000000 0.500000
#
# Coordination Sequence:
#
# PCOD8130566 Si02
#       8
#     8   8   8   8   8   4   8   8
#     4  11  18  36  59  87 115 150 198 244 293 338
#     4  11  21  35  55  85 115 148 192 249 288 348
#     4  10  17  36  58  82 114 150 181 242 292 348
#     4  10  20  33  59  91 113 145 200 239 287 348
#     4  10  19  36  60  83 118 155 188 243 294 353
#     4  12  22  34  58  88 112 152 208 248 286 338
#     4  10  17  34  61  82 115 144 197 236 287 342
#     4  10  20  36  58  83 118 155 196 234 306 354
#
# _framework density 18.823993999999999
#
# number of rings (size 3 to 8) (size 9 to 14) (size 15 to 20)
#    0.000    1.600    8.000    1.200    0.000    2.133 
#    2.400    0.667    0.000    1.600    0.000    0.000 
#    0.000    0.000    0.000    0.000    0.000    0.000 
#
# Total GULP energy -371647.342274 kJ/mol
# GULP energy per Si atom -12388.244742 kJ/mol
# Density = 1.878115 g / cm^3
# Si number density = 18.823994 Si / 1000 Ang^3
#
#
#
# Elastic Constant Matrix: (Units=GPa)
#
#
# Indices 1 2 3 4 5 6 
#
# 1 67.1537 21.8843 33.6237 0.0000 -0.7335 0.0000
# 2 21.8843 87.7087 35.6047 0.0000 -16.3155 0.0000
# 3 33.6237 35.6047 104.9746 0.0000 -17.7838 0.0000
# 4 0.0000 0.0000 0.0000 32.4912 0.0000 -15.1001
# 5 -0.7335 -16.3155 -17.7838 0.0000 34.2411 0.0000
# 6 0.0000 0.0000 0.0000 -15.1001 0.0000 16.2230
#
#
#
# Elastic Compliance Matrix: (Units=1/GPa)
#
#
# Indices 1 2 3 4 5 6 
#
# 1 0.018669 -0.003130 -0.005595 0.000000 -0.003998 0.000000
# 2 -0.003130 0.014367 -0.002984 0.000000 0.005228 0.000000
# 3 -0.005595 -0.002984 0.013234 0.000000 0.005331 0.000000
# 4 0.000000 0.000000 0.000000 0.054241 0.000000 0.050486
# 5 -0.003998 0.005228 0.005331 0.000000 0.034379 0.000000
# 6 0.000000 0.000000 0.000000 0.050486 0.000000 0.108632
#
#
# Mechanical properties :
#
#
# Convention : Reuss Voigt Hill
#
# Bulk Modulus (GPa) = 43.76501 49.11806 46.44154
# Shear Modulus (GPa) = 18.21106 27.83935 23.02520
#
# Velocity S-wave (km/s) = 3.11374 3.84986 3.50120
# Velocity P-wave (km/s) = 6.01891 6.77583 6.40855
#
# Compressibility (1/GPa) = 0.02284931
#
# Stress axis : x y z
#
# Youngs Moduli (GPa) = 53.56392 69.60632 75.56468
#
# Poissons Ratio (x) = 0.21790 0.42281
# Poissons Ratio (y) = 0.16768 0.22551
# Poissons Ratio (z) = 0.29971 0.20773
#
# Static dielectric constant tensor:
#      x y z
#    x 3.890960 0.000000 -0.626470 
#    y 0.000000 3.906760 0.000000 
#    z -0.626470 0.000000 3.760400 
# 
# 
# High freq. dielectric constant tensor:
#      x y z
#    x 1.711630 0.000000 -0.018290 
#    y 0.000000 1.706090 0.000000 
#    z -0.018290 0.000000 1.734950 
# 
# From -- ./inp_files/163531.got.cif
#   From: 2010.06.25/outbox.cif.g09.slc.cpg/sg15_82_cif.got.tgz:163531.got - 2010.06.28 07:06:18.
