data_PCOD8130019
_publ_section_title
;
Structure prediction by ZEFSAII (Michael W. Deem and Ramdas Pophale) SiO2 
 PCOD8130019
Probable space group: C 2/C
;
_chemical_formula_sum "Si O2"
_cell_formula_units_Z 60
_cell_length_a 14.778018
_cell_length_b 13.651623
_cell_length_c 15.222261
_cell_angle_alpha 90.000000
_cell_angle_beta 91.124354
_cell_angle_gamma 90.000000
_cell_volume 3070.407479
_symmetry_space_group_name_H-M "C 2/C"
_symmetry_group_IT_number 15
_symmetry_cell_setting 'monoclinic'
loop_
_space_group_symop_operation_xyz
x,y,z
-x,y,1/2-z
-x,-y,-z
x,-y,1/2+z
1/2+x,1/2+y,z
1/2-x,1/2+y,1/2-z
1/2-x,1/2-y,-z
1/2+x,1/2-y,1/2+z
loop_
_atom_site_type_symbol
_atom_site_label
_atom_site_fract_x
_atom_site_fract_y
_atom_site_fract_z
Si Si1 0.179677 0.567085 0.108926
Si Si2 0.552307 0.285840 0.937547
Si Si3 0.409558 0.281977 0.805198
Si Si4 0.815780 0.608849 0.590240
Si Si5 0.371456 0.287578 0.378313
Si Si6 0.395667 0.074583 0.763424
Si Si7 0.500000 0.604075 0.750000
Si Si8 0.869309 0.055689 0.180419
O O1 0.168388 0.679514 0.138536
O O2 0.104737 0.502087 0.156310
O O3 0.270598 0.519361 0.150447
O O4 0.173467 0.554367 0.003269
O O5 0.446110 0.282105 0.906759
O O6 0.612809 0.197216 0.900804
O O7 0.596583 0.383747 0.901941
O O8 0.555783 0.285322 0.042095
O O9 0.500000 0.286103 0.750000
O O10 0.353099 0.181649 0.789077
O O11 0.357787 0.380124 0.771155
O O12 0.712433 0.643396 0.597704
O O13 0.842452 0.538941 0.673713
O O14 0.428643 0.326868 0.298184
O O15 0.500000 0.092732 0.750000
O O16 0.562378 0.535118 0.811226
#
# Coordination Sequence:
#
# PCOD8130019 Si02
#       8
#     8   8   8   8   8   8   4   8
#     4  11  23  37  61  87 118 160 198 235 298 362
#     4  10  16  36  64  82 103 154 200 234 275 345
#     4   9  16  33  59  83 107 140 198 244 271 332
#     4  11  19  40  63  85 113 157 203 241 282 357
#     4  11  23  39  57  85 126 154 189 244 300 352
#     4  11  21  36  59  87 115 146 194 251 294 337
#     4  12  26  36  56  94 126 152 194 250 306 342
#     4  11  18  37  60  84 111 153 198 235 286 346
#
# _framework density 19.541381000000001
#
# number of rings (size 3 to 8) (size 9 to 14) (size 15 to 20)
#    0.000    1.333    8.667    1.600    0.933    1.067 
#    0.000    0.000    0.000    0.000    0.000    6.533 
#    0.000    0.000    0.000    0.000    0.000    0.000 
#
# Total GULP energy -371708.886796 kJ/mol
# GULP energy per Si atom -12390.296227 kJ/mol
# Density = 1.949690 g / cm^3
# Si number density = 19.541381 Si / 1000 Ang^3
#
#
#
# Elastic Constant Matrix: (Units=GPa)
#
#
# Indices 1 2 3 4 5 6 
#
# 1 49.0428 8.0485 28.7907 0.0000 13.8496 0.0000
# 2 8.0485 34.2473 24.0760 0.0000 -5.7811 0.0000
# 3 28.7907 24.0760 95.9238 0.0000 9.7629 0.0000
# 4 0.0000 0.0000 0.0000 24.7888 0.0000 -6.1669
# 5 13.8496 -5.7811 9.7629 0.0000 34.7482 0.0000
# 6 0.0000 0.0000 0.0000 -6.1669 0.0000 10.3277
#
#
#
# Elastic Compliance Matrix: (Units=1/GPa)
#
#
# Indices 1 2 3 4 5 6 
#
# 1 0.027468 -0.003654 -0.006332 0.000000 -0.009777 0.000000
# 2 -0.003654 0.038658 -0.009686 0.000000 0.010609 0.000000
# 3 -0.006332 -0.009686 0.015095 0.000000 -0.003329 0.000000
# 4 0.000000 0.000000 0.000000 0.047379 0.000000 0.028291
# 5 -0.009777 0.010609 -0.003329 0.000000 0.035376 0.000000
# 6 0.000000 0.000000 0.000000 0.028291 0.000000 0.113720
#
#
# Mechanical properties :
#
#
# Convention : Reuss Voigt Hill
#
# Bulk Modulus (GPa) = 23.87915 33.44936 28.66425
# Shear Modulus (GPa) = 15.10571 21.85951 18.48261
#
# Velocity S-wave (km/s) = 2.78332 3.34822 3.07875
# Velocity P-wave (km/s) = 4.75137 5.66584 5.22864
#
# Compressibility (1/GPa) = 0.04187754
#
# Stress axis : x y z
#
# Youngs Moduli (GPa) = 36.40551 25.86764 66.24551
#
# Poissons Ratio (x) = 0.09453 0.41948
# Poissons Ratio (y) = 0.13303 0.64165
# Poissons Ratio (z) = 0.23053 0.25055
#
# Static dielectric constant tensor:
#      x y z
#    x 3.611230 0.000000 0.559010 
#    y 0.000000 3.479160 0.000000 
#    z 0.559010 0.000000 3.937590 
# 
# 
# High freq. dielectric constant tensor:
#      x y z
#    x 1.745740 0.000000 0.033950 
#    y 0.000000 1.740750 0.000000 
#    z 0.033950 0.000000 1.756790 
# 
# From -- ./inp_files/160936.got.cif
#   From: 2010.06.25/outbox.cif.g09.slc.cpg/sg15_81_cif.got.tgz:160936.got - 2010.06.28 07:06:18.
