data_PCOD8130073
_publ_section_title
;
Structure prediction by ZEFSAII (Michael W. Deem and Ramdas Pophale) SiO2 
 PCOD8130073
Probable space group: C 2/C
;
_chemical_formula_sum "Si O2"
_cell_formula_units_Z 60
_cell_length_a 21.209247
_cell_length_b 25.418513
_cell_length_c 13.418978
_cell_angle_alpha 90.000000
_cell_angle_beta 30.148380
_cell_angle_gamma 90.000000
_cell_volume 3633.348589
_symmetry_space_group_name_H-M "C 2/C"
_symmetry_group_IT_number 15
_symmetry_cell_setting 'monoclinic'
loop_
_space_group_symop_operation_xyz
x,y,z
-x,y,1/2-z
-x,-y,-z
x,-y,1/2+z
1/2+x,1/2+y,z
1/2-x,1/2+y,1/2-z
1/2-x,1/2-y,-z
1/2+x,1/2-y,1/2+z
loop_
_atom_site_type_symbol
_atom_site_label
_atom_site_fract_x
_atom_site_fract_y
_atom_site_fract_z
Si Si1 0.779621 0.010599 0.028187
Si Si2 0.558673 0.267821 0.774106
Si Si3 0.137754 0.431760 0.104700
Si Si4 0.207161 0.328281 0.126691
Si Si5 0.876122 0.147304 0.570128
Si Si6 0.500000 0.429954 0.750000
Si Si7 0.826836 0.037504 0.180848
Si Si8 0.895672 0.932812 0.199267
O O1 0.755739 0.030118 0.172468
O O2 0.656371 0.982858 0.150537
O O3 0.823767 0.060514 0.902208
O O4 0.886290 0.966103 0.870475
O O5 0.500000 0.248767 0.750000
O O6 0.674588 0.307089 0.597273
O O7 0.600551 0.216612 0.778576
O O8 0.452044 0.298409 0.982247
O O9 0.151604 0.378930 0.148931
O O10 0.000000 0.435719 0.250000
O O11 0.236488 0.431260 0.878683
O O12 0.248462 0.342929 0.182667
O O13 0.846469 0.121728 0.717791
O O14 0.965640 0.106478 0.389665
O O15 0.860079 0.979774 0.173711
O O16 0.954513 0.070086 0.988664
#
# Coordination Sequence:
#
# PCOD8130073 Si02
#       8
#     8   8   8   8   8   4   8   8
#     4  11  19  31  48  71  97 128 168 206 242 277
#     4   9  17  27  43  65  89 120 152 202 247 290
#     4  11  22  31  43  65  99 140 168 185 229 306
#     4  10  17  29  43  61  94 125 157 192 237 293
#     4  11  17  27  45  70  97 126 152 197 255 294
#     4  12  14  28  48  70  94 126 152 202 246 286
#     4  10  18  29  46  68  95 128 162 205 240 275
#     4  10  17  27  49  73  93 122 163 208 248 284
#
# _framework density 16.513691999999999
#
# number of rings (size 3 to 8) (size 9 to 14) (size 15 to 20)
#    0.000    1.600    6.000    2.800    0.000    0.533 
#    0.000    0.000    0.000    0.000    0.000    0.000 
#    0.000   46.933    0.000    0.133    0.000    0.000 
#
# Total GULP energy -371986.566545 kJ/mol
# GULP energy per Si atom -12399.552218 kJ/mol
# Density = 1.647611 g / cm^3
# Si number density = 16.513692 Si / 1000 Ang^3
#
#
#
# Elastic Constant Matrix: (Units=GPa)
#
#
# Indices 1 2 3 4 5 6 
#
# 1 102.2490 44.5440 32.2515 -0.0005 -8.7675 0.0001
# 2 44.5440 72.8447 26.3222 -0.0014 -7.3652 0.0002
# 3 32.2515 26.3222 38.4245 -0.0051 -13.1768 0.0016
# 4 -0.0005 -0.0014 -0.0051 13.2200 0.0017 -6.2677
# 5 -8.7675 -7.3652 -13.1768 0.0017 30.0687 -0.0010
# 6 0.0001 0.0002 0.0016 -6.2677 -0.0010 33.2422
#
#
#
# Elastic Compliance Matrix: (Units=1/GPa)
#
#
# Indices 1 2 3 4 5 6 
#
# 1 0.015179 -0.006188 -0.008830 -0.000003 -0.000959 0.000000
# 2 -0.006188 0.020803 -0.009330 -0.000001 -0.000797 0.000000
# 3 -0.008830 -0.009330 0.044911 0.000015 0.014821 0.000001
# 4 -0.000003 -0.000001 0.000015 0.083069 0.000001 0.015662
# 5 -0.000959 -0.000797 0.014821 0.000001 0.039277 0.000001
# 6 0.000000 0.000000 0.000001 0.015662 0.000001 0.033035
#
#
# Mechanical properties :
#
#
# Convention : Reuss Voigt Hill
#
# Bulk Modulus (GPa) = 31.06062 46.63930 38.84996
# Shear Modulus (GPa) = 16.90894 22.66622 19.78758
#
# Velocity S-wave (km/s) = 3.20337 3.70884 3.46533
# Velocity P-wave (km/s) = 5.70368 6.82970 6.29193
#
# Compressibility (1/GPa) = 0.03219511
#
# Stress axis : x y z
#
# Youngs Moduli (GPa) = 65.88151 48.07114 22.26642
#
# Poissons Ratio (x) = 0.29746 0.19662
# Poissons Ratio (y) = 0.40767 0.20775
# Poissons Ratio (z) = 0.58176 0.44851
#
# Static dielectric constant tensor:
#      x y z
#    x 3.315580 0.000000 -0.145910 
#    y 0.000000 3.090600 0.000000 
#    z -0.145910 0.000000 2.899130 
# 
# 
# High freq. dielectric constant tensor:
#      x y z
#    x 1.642160 0.000000 -0.021020 
#    y 0.000000 1.618100 0.000000 
#    z -0.021020 0.000000 1.593400 
# 
# From -- ./inp_files/169765.got.cif
#   From: 2010.06.25/outbox.cif.g09.slc.cpg/sg15_85_cif.got.tgz:169765.got - 2010.06.28 07:06:18.
