data_PCOD8130614
_publ_section_title
;
Structure prediction by ZEFSAII (Michael W. Deem and Ramdas Pophale) SiO2 
 PCOD8130614
Probable space group: C 2/C
;
_chemical_formula_sum "Si O2"
_cell_formula_units_Z 56
_cell_length_a 9.158720
_cell_length_b 28.514903
_cell_length_c 11.358347
_cell_angle_alpha 90.000000
_cell_angle_beta 75.774615
_cell_angle_gamma 90.000000
_cell_volume 2875.387702
_symmetry_space_group_name_H-M "C 2/C"
_symmetry_group_IT_number 15
_symmetry_cell_setting 'monoclinic'
loop_
_space_group_symop_operation_xyz
x,y,z
-x,y,1/2-z
-x,-y,-z
x,-y,1/2+z
1/2+x,1/2+y,z
1/2-x,1/2+y,1/2-z
1/2-x,1/2-y,-z
1/2+x,1/2-y,1/2+z
loop_
_atom_site_type_symbol
_atom_site_label
_atom_site_fract_x
_atom_site_fract_y
_atom_site_fract_z
Si Si1 0.170174 0.131578 0.674931
Si Si2 0.415747 0.487620 0.639885
Si Si3 0.668908 0.062980 0.681448
Si Si4 0.771063 0.858863 0.009753
Si Si5 0.677985 0.791648 0.229501
Si Si6 0.321925 0.314729 0.765746
Si Si7 0.615069 0.385504 0.929281
O O1 0.248187 0.093824 0.739797
O O2 0.263065 0.180364 0.667312
O O3 0.188436 0.109941 0.542372
O O4 0.000000 0.139996 0.750000
O O5 0.500000 0.499643 0.750000
O O6 0.500000 0.500000 0.500000
O O7 0.258470 0.514569 0.658111
O O8 0.374941 0.432836 0.649152
O O9 0.500000 0.050579 0.750000
O O10 0.671268 0.094950 0.561644
O O11 0.730861 0.840580 0.887972
O O12 0.942927 0.873393 0.984073
O O13 0.751313 0.814885 0.100317
O O14 0.500000 0.795184 0.250000
O O15 0.735151 0.738464 0.233230
O O16 0.500000 0.315807 0.750000
O O17 0.291873 0.344328 0.653946
#
# Coordination Sequence:
#
# PCOD8130614 Si02
#       7
#     8   8   8   8   8   8   8
#     4  11  19  38  62  89 117 159 207 254 302 370
#     4  12  23  41  69  98 124 166 216 261 315 375
#     4  11  23  39  65  92 120 160 209 256 311 373
#     4  10  17  35  60  86 116 154 205 252 298 362
#     4  10  20  35  60  88 118 158 204 254 310 365
#     4   9  20  34  55  89 121 159 201 251 313 368
#     4  11  21  36  62  89 122 156 208 261 301 367
#
# _framework density 19.475633999999999
#
# number of rings (size 3 to 8) (size 9 to 14) (size 15 to 20)
#    0.000    1.429    4.286    4.714    0.000    0.571 
#    0.000    2.857    6.286    0.000    0.000    0.000 
#    0.000    0.000    0.000    0.000    0.000    0.000 
#
# Total GULP energy -346999.978794 kJ/mol
# GULP energy per Si atom -12392.856386 kJ/mol
# Density = 1.943131 g / cm^3
# Si number density = 19.475634 Si / 1000 Ang^3
#
#
#
# Elastic Constant Matrix: (Units=GPa)
#
#
# Indices 1 2 3 4 5 6 
#
# 1 80.9636 49.4524 31.3634 0.0000 -10.9829 0.0000
# 2 49.4524 134.5252 54.8471 0.0000 -18.7046 0.0000
# 3 31.3634 54.8471 98.4727 0.0000 -3.2102 0.0000
# 4 0.0000 0.0000 0.0000 39.8868 0.0000 -14.9229
# 5 -10.9829 -18.7046 -3.2102 0.0000 26.3981 0.0000
# 6 0.0000 0.0000 0.0000 -14.9229 0.0000 42.3530
#
#
#
# Elastic Compliance Matrix: (Units=1/GPa)
#
#
# Indices 1 2 3 4 5 6 
#
# 1 0.016618 -0.004566 -0.002641 0.000000 0.003358 0.000000
# 2 -0.004566 0.011996 -0.005032 0.000000 0.005989 0.000000
# 3 -0.002641 -0.005032 0.013701 0.000000 -0.002998 0.000000
# 4 0.000000 0.000000 0.000000 0.028878 0.000000 0.010175
# 5 0.003358 0.005989 -0.002998 0.000000 0.043157 0.000000
# 6 0.000000 0.000000 0.000000 0.010175 0.000000 0.027196
#
#
# Mechanical properties :
#
#
# Convention : Reuss Voigt Hill
#
# Bulk Modulus (GPa) = 56.05684 65.03192 60.54438
# Shear Modulus (GPa) = 29.07484 33.61413 31.34449
#
# Velocity S-wave (km/s) = 3.86798 4.15897 4.01611
# Velocity P-wave (km/s) = 6.98526 7.51842 7.25674
#
# Compressibility (1/GPa) = 0.01783904
#
# Stress axis : x y z
#
# Youngs Moduli (GPa) = 60.17490 83.35934 72.98602
#
# Poissons Ratio (x) = 0.38058 0.19272
# Poissons Ratio (y) = 0.27473 0.36729
# Poissons Ratio (z) = 0.15889 0.41949
#
# Static dielectric constant tensor:
#      x y z
#    x 4.473160 0.000000 -0.151980 
#    y 0.000000 3.997100 0.000000 
#    z -0.151980 0.000000 4.079810 
# 
# 
# High freq. dielectric constant tensor:
#      x y z
#    x 1.725630 0.000000 -0.000010 
#    y 0.000000 1.772010 0.000000 
#    z -0.000010 0.000000 1.765890 
# 
# From -- ./inp_files/81289.got.cif
#   From: 2010.06.25/outbox.cif.g09.slc.cpg/sg15_41_cif.got.tgz:81289.got - 2010.06.28 07:06:18.
