data_PCOD8130730
_publ_section_title
;
Structure prediction by ZEFSAII (Michael W. Deem and Ramdas Pophale) SiO2 
 PCOD8130730
Probable space group: C 2/C
;
_chemical_formula_sum "Si O2"
_cell_formula_units_Z 64
_cell_length_a 16.117522
_cell_length_b 34.239354
_cell_length_c 21.574762
_cell_angle_alpha 90.000000
_cell_angle_beta 159.389442
_cell_angle_gamma 90.000000
_cell_volume 4191.118558
_symmetry_space_group_name_H-M "C 2/C"
_symmetry_group_IT_number 15
_symmetry_cell_setting 'monoclinic'
loop_
_space_group_symop_operation_xyz
x,y,z
-x,y,1/2-z
-x,-y,-z
x,-y,1/2+z
1/2+x,1/2+y,z
1/2-x,1/2+y,1/2-z
1/2-x,1/2-y,-z
1/2+x,1/2-y,1/2+z
loop_
_atom_site_type_symbol
_atom_site_label
_atom_site_fract_x
_atom_site_fract_y
_atom_site_fract_z
Si Si1 0.628142 0.162268 0.947172
Si Si2 0.887865 0.415376 0.256146
Si Si3 0.739746 0.624961 0.330376
Si Si4 0.654701 0.498755 0.797387
Si Si5 0.862097 0.064493 0.036222
Si Si6 0.074761 0.558985 0.585387
Si Si7 0.038549 0.804106 0.649046
Si Si8 0.661615 0.228272 0.802122
O O1 0.473110 0.129056 0.804765
O O2 0.454414 0.199659 0.829957
O O3 0.714795 0.147079 0.073566
O O4 0.849319 0.175891 0.061957
O O5 0.805665 0.424327 0.268514
O O6 0.112803 0.442009 0.395694
O O7 0.669468 0.424587 0.058222
O O8 0.500494 0.599304 0.168363
O O9 0.717176 0.659183 0.261951
O O10 0.951677 0.595059 0.462814
O O11 0.500000 0.505564 0.750000
O O12 0.504534 0.475901 0.640393
O O13 0.726156 0.540852 0.819667
O O14 0.887701 0.473886 0.975645
O O15 0.183012 0.770368 0.785409
O O16 0.919171 0.787585 0.503014
O O17 0.500000 0.231596 0.750000
#
# Coordination Sequence:
#
# PCOD8130730 Si02
#       8
#     8   8   8   8   8   8   8   8
#     4  10  18  25  38  53  80 110 149 183 210 242
#     4  10  18  29  41  65  83 110 154 182 208 262
#     4  10  18  28  42  57  77 112 143 185 211 251
#     4  10  18  33  48  64  87 111 136 185 226 266
#     4  10  19  27  44  61  84 113 144 180 227 245
#     4   9  20  30  47  67  82 109 151 177 220 271
#     4  11  18  26  37  51  80 113 148 181 217 244
#     4  10  19  26  33  55  79 113 150 182 210 252
#
# _framework density 15.270386999999999
#
# number of rings (size 3 to 8) (size 9 to 14) (size 15 to 20)
#    0.000    2.000    2.500    4.125    5.250    0.500 
#    0.000    0.000    0.000    0.000    0.000    0.000 
#    0.000    0.000    0.000   10.125    0.000    1.500 
#
# Total GULP energy -396571.850711 kJ/mol
# GULP energy per Si atom -12392.870335 kJ/mol
# Density = 1.523563 g / cm^3
# Si number density = 15.270387 Si / 1000 Ang^3
#
#
#
# Elastic Constant Matrix: (Units=GPa)
#
#
# Indices 1 2 3 4 5 6 
#
# 1 42.6055 32.3074 30.2748 0.0039 -4.6191 0.0003
# 2 32.3074 110.1987 48.4271 0.0000 -5.4794 -0.0030
# 3 30.2748 48.4271 73.9419 0.0432 -19.3803 -0.0161
# 4 0.0039 0.0000 0.0432 27.3611 0.0142 -1.0129
# 5 -4.6191 -5.4794 -19.3803 0.0142 18.8798 -0.0030
# 6 0.0003 -0.0030 -0.0161 -1.0129 -0.0030 16.7433
#
#
#
# Elastic Compliance Matrix: (Units=1/GPa)
#
#
# Indices 1 2 3 4 5 6 
#
# 1 0.035884 -0.005161 -0.012865 0.000018 -0.005925 -0.000014
# 2 -0.005161 0.014127 -0.008749 0.000018 -0.006144 -0.000006
# 3 -0.012865 -0.008749 0.031509 -0.000061 0.026657 0.000030
# 4 0.000018 0.000018 -0.000061 0.036630 -0.000080 0.002216
# 5 -0.005925 -0.006144 0.026657 -0.000080 0.077098 0.000034
# 6 -0.000014 -0.000006 0.000030 0.002216 0.000034 0.059859
#
#
# Mechanical properties :
#
#
# Convention : Reuss Voigt Hill
#
# Bulk Modulus (GPa) = 35.75431 49.86276 42.80853
# Shear Modulus (GPa) = 15.72412 20.31262 18.01837
#
# Velocity S-wave (km/s) = 3.21240 3.65114 3.43877
# Velocity P-wave (km/s) = 6.10117 7.10624 6.62280
#
# Compressibility (1/GPa) = 0.02796866
#
# Stress axis : x y z
#
# Youngs Moduli (GPa) = 27.86734 70.78546 31.73712
#
# Poissons Ratio (x) = 0.36535 0.40830
# Poissons Ratio (y) = 0.14383 0.27768
# Poissons Ratio (z) = 0.35851 0.61934
#
# Static dielectric constant tensor:
#      x y z
#    x 2.449400 0.000000 -0.329000 
#    y 0.000000 3.276460 -0.000010 
#    z -0.329000 -0.000010 3.129200 
# 
# 
# High freq. dielectric constant tensor:
#      x y z
#    x 1.512180 0.000000 -0.043890 
#    y 0.000000 1.598680 0.000000 
#    z -0.043890 0.000000 1.584860 
# 
# From -- ./inp_files/278374.got.cif
#   From: 2010.06.25/outbox.cif.g09.slc.cpg/sg15_140_cif.got.tgz:278374.got - 2010.06.28 07:06:18.
