data_PCOD8130049
_publ_section_title
;
Structure prediction by ZEFSAII (Michael W. Deem and Ramdas Pophale) SiO2 
 PCOD8130049
Probable space group: C 2/C
;
_chemical_formula_sum "Si O2"
_cell_formula_units_Z 48
_cell_length_a 22.532606
_cell_length_b 15.994827
_cell_length_c 23.587791
_cell_angle_alpha 90.000000
_cell_angle_beta 159.698992
_cell_angle_gamma 90.000000
_cell_volume 2949.496100
_symmetry_space_group_name_H-M "C 2/C"
_symmetry_group_IT_number 15
_symmetry_cell_setting 'monoclinic'
loop_
_space_group_symop_operation_xyz
x,y,z
-x,y,1/2-z
-x,-y,-z
x,-y,1/2+z
1/2+x,1/2+y,z
1/2-x,1/2+y,1/2-z
1/2-x,1/2-y,-z
1/2+x,1/2-y,1/2+z
loop_
_atom_site_type_symbol
_atom_site_label
_atom_site_fract_x
_atom_site_fract_y
_atom_site_fract_z
Si Si1 0.097994 0.176616 0.917491
Si Si2 0.371575 0.276310 0.368393
Si Si3 0.740885 0.855567 0.051919
Si Si4 0.452862 0.873225 0.423568
Si Si5 0.521246 0.956864 0.937688
Si Si6 0.221217 0.844229 0.650203
O O1 0.183831 0.124275 0.942746
O O2 0.894862 0.160662 0.734115
O O3 0.119154 0.276196 0.932720
O O4 0.194110 0.146684 0.059334
O O5 0.402615 0.197426 0.437840
O O6 0.215946 0.330173 0.253708
O O7 0.330107 0.237869 0.268237
O O8 0.536257 0.336523 0.514093
O O9 0.624367 0.929279 0.973826
O O10 0.395269 0.916012 0.431382
O O11 0.525198 0.942518 0.445015
O O12 0.322671 0.927541 0.758805
#
# Coordination Sequence:
#
# PCOD8130049 Si02
#       6
#     8   8   8   8   8   8
#     4  10  18  28  42  61  87 125 151 171 208 261
#     4   9  17  30  46  63  86 120 153 181 214 264
#     4  10  19  28  41  61  90 120 153 180 206 251
#     4   9  18  31  46  62  87 118 150 183 224 260
#     4  10  19  29  42  65  92 118 145 187 223 251
#     4  10  17  26  43  63  88 115 146 178 215 258
#
# _framework density 16.273966999999999
#
# number of rings (size 3 to 8) (size 9 to 14) (size 15 to 20)
#    0.000    2.333    0.000    6.000    0.000    2.667 
#    0.000    3.333    0.000    0.000    0.000    0.000 
#    0.000   16.000    0.000    0.000    0.000    0.000 
#
# Total GULP energy -297425.139258 kJ/mol
# GULP energy per Si atom -12392.714136 kJ/mol
# Density = 1.623693 g / cm^3
# Si number density = 16.273967 Si / 1000 Ang^3
#
#
#
# Elastic Constant Matrix: (Units=GPa)
#
#
# Indices 1 2 3 4 5 6 
#
# 1 60.1187 46.3760 24.7982 -0.0492 4.0159 0.0100
# 2 46.3760 98.6285 46.9325 -0.1264 9.6701 -0.0279
# 3 24.7982 46.9325 102.3983 -0.1344 8.1068 -0.0198
# 4 -0.0492 -0.1264 -0.1344 17.4181 -0.0743 3.3364
# 5 4.0159 9.6701 8.1068 -0.0743 17.6011 -0.0079
# 6 0.0100 -0.0279 -0.0198 3.3364 -0.0079 26.8520
#
#
#
# Elastic Compliance Matrix: (Units=1/GPa)
#
#
# Indices 1 2 3 4 5 6 
#
# 1 0.026182 -0.011966 -0.000938 -0.000012 0.001032 -0.000021
# 2 -0.011966 0.018797 -0.005310 0.000037 -0.005151 0.000014
# 3 -0.000938 -0.005310 0.012640 0.000045 -0.002690 -0.000002
# 4 -0.000012 0.000037 0.000045 0.058813 0.000206 -0.007308
# 5 0.001032 -0.005151 -0.002690 0.000206 0.060649 -0.000015
# 6 -0.000021 0.000014 -0.000002 -0.007308 -0.000015 0.038149
#
#
# Mechanical properties :
#
#
# Convention : Reuss Voigt Hill
#
# Bulk Modulus (GPa) = 47.18801 55.26210 51.22505
# Shear Modulus (GPa) = 19.32574 21.91015 20.61795
#
# Velocity S-wave (km/s) = 3.44979 3.67322 3.56325
# Velocity P-wave (km/s) = 6.70276 7.21257 6.96233
#
# Compressibility (1/GPa) = 0.02119182
#
# Stress axis : x y z
#
# Youngs Moduli (GPa) = 38.19357 53.19891 79.11647
#
# Poissons Ratio (x) = 0.63658 0.07421
# Poissons Ratio (y) = 0.45703 0.42008
# Poissons Ratio (z) = 0.03582 0.28247
#
# Static dielectric constant tensor:
#      x y z
#    x 2.810650 0.000000 -0.009680 
#    y 0.000000 2.832820 -0.000020 
#    z -0.009680 -0.000020 3.316690 
# 
# 
# High freq. dielectric constant tensor:
#      x y z
#    x 1.585910 0.000000 0.002300 
#    y 0.000000 1.585860 0.000000 
#    z 0.002300 0.000000 1.648030 
# 
# From -- ./inp_files/47951.got.cif
#   From: 2010.06.25/outbox.cif.g09.slc.cpg/sg15_24_cif.got.tgz:47951.got - 2010.06.28 07:06:18.
