data_PCOD8130556
_publ_section_title
;
Structure prediction by ZEFSAII (Michael W. Deem and Ramdas Pophale) SiO2 
 PCOD8130556
Probable space group: C 2/C
;
_chemical_formula_sum "Si O2"
_cell_formula_units_Z 60
_cell_length_a 10.226031
_cell_length_b 16.201863
_cell_length_c 25.060751
_cell_angle_alpha 90.000000
_cell_angle_beta 52.260452
_cell_angle_gamma 90.000000
_cell_volume 3283.473268
_symmetry_space_group_name_H-M "C 2/C"
_symmetry_group_IT_number 15
_symmetry_cell_setting 'monoclinic'
loop_
_space_group_symop_operation_xyz
x,y,z
-x,y,1/2-z
-x,-y,-z
x,-y,1/2+z
1/2+x,1/2+y,z
1/2-x,1/2+y,1/2-z
1/2-x,1/2-y,-z
1/2+x,1/2-y,1/2+z
loop_
_atom_site_type_symbol
_atom_site_label
_atom_site_fract_x
_atom_site_fract_y
_atom_site_fract_z
Si Si1 0.233000 0.482417 0.365266
Si Si2 0.138445 0.116422 0.520944
Si Si3 0.576048 0.695650 0.429888
Si Si4 0.000000 0.875000 0.250000
Si Si5 0.921201 0.767583 0.365266
Si Si6 0.384287 0.445650 0.929888
Si Si7 0.951277 0.633578 0.979056
Si Si8 0.986435 0.375000 0.592377
O O1 0.336638 0.430736 0.296472
O O2 0.356413 0.529083 0.375242
O O3 0.111723 0.423280 0.429231
O O4 0.124281 0.548418 0.359699
O O5 0.037485 0.161653 0.499229
O O6 0.149416 0.173280 0.570769
O O7 0.322146 0.100691 0.453487
O O8 0.056039 0.027923 0.553948
O O9 0.767861 0.720917 0.375242
O O10 0.525102 0.625000 0.399932
O O11 0.467883 0.777924 0.446052
O O12 0.976054 0.819264 0.203528
O O13 0.046621 0.701582 0.359699
O O14 0.214828 0.411653 0.999229
O O15 0.932607 0.649309 0.046513
#
# Coordination Sequence:
#
# PCOD8130556 Si02
#       8
#     8   8   8   4   8   8   8   8
#     4  11  21  36  58  78 108 146 189 220 263 331
#     4  11  17  35  56  83 112 138 174 220 280 336
#     4  11  20  31  53  87 116 135 167 226 285 327
#     4  12  22  40  56  72  98 154 204 224 248 310
#     4  11  21  36  58  78 108 146 189 220 263 331
#     4  11  20  31  53  87 116 135 167 226 285 327
#     4  11  17  35  56  83 112 138 174 220 280 336
#     4  10  17  34  60  81 102 138 180 224 274 312
#
# _framework density 18.273332
#
# number of rings (size 3 to 8) (size 9 to 14) (size 15 to 20)
#    0.000    1.067    8.000    2.400    0.000    0.000 
#    2.400    0.000    0.000    0.000    0.000    7.467 
#    0.000    0.000    0.000    0.000    0.000    0.000 
#
# Total GULP energy -371941.503861 kJ/mol
# GULP energy per Si atom -12398.050129 kJ/mol
# Density = 1.823174 g / cm^3
# Si number density = 18.273332 Si / 1000 Ang^3
#
#
#
# Elastic Constant Matrix: (Units=GPa)
#
#
# Indices 1 2 3 4 5 6 
#
# 1 62.4797 49.5647 28.9695 0.0001 0.1340 -0.0001
# 2 49.5647 149.0495 45.7418 0.0000 0.0560 0.0000
# 3 28.9695 45.7418 85.0081 0.0000 -0.4651 0.0000
# 4 0.0001 0.0000 0.0000 25.2504 0.0000 0.2250
# 5 0.1340 0.0560 -0.4651 0.0000 12.1966 0.0001
# 6 -0.0001 0.0000 0.0000 0.2250 0.0001 40.5830
#
#
#
# Elastic Compliance Matrix: (Units=1/GPa)
#
#
# Indices 1 2 3 4 5 6 
#
# 1 0.023081 -0.006301 -0.004477 0.000000 -0.000395 0.000000
# 2 -0.006301 0.009757 -0.003103 0.000000 -0.000094 0.000000
# 3 -0.004477 -0.003103 0.014963 0.000000 0.000634 0.000000
# 4 0.000000 0.000000 0.000000 0.039605 0.000000 -0.000220
# 5 -0.000395 -0.000094 0.000634 0.000000 0.082019 0.000000
# 6 0.000000 0.000000 0.000000 -0.000220 0.000000 0.024642
#
#
# Mechanical properties :
#
#
# Convention : Reuss Voigt Hill
#
# Bulk Modulus (GPa) = 49.90734 60.56548 55.23641
# Shear Modulus (GPa) = 21.88103 27.09007 24.48555
#
# Velocity S-wave (km/s) = 3.46414 3.85449 3.66452
# Velocity P-wave (km/s) = 6.58569 7.28187 6.94251
#
# Compressibility (1/GPa) = 0.02003713
#
# Stress axis : x y z
#
# Youngs Moduli (GPa) = 43.32661 102.49130 66.83311
#
# Poissons Ratio (x) = 0.64580 0.29922
# Poissons Ratio (y) = 0.27300 0.20740
# Poissons Ratio (z) = 0.19398 0.31806
#
# Static dielectric constant tensor:
#      x y z
#    x 3.274760 0.000000 0.004270 
#    y 0.000000 3.848300 0.000000 
#    z 0.004270 0.000000 2.983500 
# 
# 
# High freq. dielectric constant tensor:
#      x y z
#    x 1.687500 0.000000 0.000440 
#    y 0.000000 1.735700 0.000000 
#    z 0.000440 0.000000 1.657330 
# 
# From -- ./inp_files/292690.got.cif
#   From: 2010.06.25/outbox.cif.g09.slc.cpg/sg15_147_cif.got.tgz:292690.got - 2010.06.28 07:06:18.
