data_PCOD8130996
_publ_section_title
;
Structure prediction by ZEFSAII (Michael W. Deem and Ramdas Pophale) SiO2 
 PCOD8130996
Probable space group: C 2/C
;
_chemical_formula_sum "Si O2"
_cell_formula_units_Z 48
_cell_length_a 25.872842
_cell_length_b 14.120882
_cell_length_c 19.874105
_cell_angle_alpha 90.000000
_cell_angle_beta 159.651472
_cell_angle_gamma 90.000000
_cell_volume 2524.849921
_symmetry_space_group_name_H-M "C 2/C"
_symmetry_group_IT_number 15
_symmetry_cell_setting 'monoclinic'
loop_
_space_group_symop_operation_xyz
x,y,z
-x,y,1/2-z
-x,-y,-z
x,-y,1/2+z
1/2+x,1/2+y,z
1/2-x,1/2+y,1/2-z
1/2-x,1/2-y,-z
1/2+x,1/2-y,1/2+z
loop_
_atom_site_type_symbol
_atom_site_label
_atom_site_fract_x
_atom_site_fract_y
_atom_site_fract_z
Si Si1 0.391545 0.979507 0.306392
Si Si2 0.424988 0.057612 0.089297
Si Si3 0.332020 0.423920 0.736792
Si Si4 0.247907 0.187536 0.781794
Si Si5 0.870846 0.999765 0.926857
Si Si6 0.561498 0.229089 0.605050
O O1 0.226929 0.021079 0.125254
O O2 0.397231 0.865743 0.302890
O O3 0.500000 0.000000 0.500000
O O4 0.446092 0.035140 0.307372
O O5 0.500000 0.088467 0.250000
O O6 0.320022 0.145564 0.938459
O O7 0.328778 0.961213 0.982774
O O8 0.342668 0.427762 0.831331
O O9 0.365233 0.313877 0.760623
O O10 0.451748 0.492281 0.844763
O O11 0.180893 0.102088 0.658759
O O12 0.375594 0.234084 0.893459
O O13 0.114473 0.262692 0.626005
#
# Coordination Sequence:
#
# PCOD8130996 Si02
#       6
#     8   8   8   8   8   8
#     4  11  18  34  54  81 103 135 177 216 260 302
#     4  11  22  37  52  73 113 149 169 202 267 328
#     4   9  16  31  52  81 103 130 171 218 264 295
#     4   9  18  31  50  81 105 133 169 217 262 301
#     4   8  16  29  52  78 104 128 172 222 254 301
#     4  10  18  30  58  83 101 123 179 233 251 291
#
# _framework density 19.011030999999999
#
# number of rings (size 3 to 8) (size 9 to 14) (size 15 to 20)
#    0.000    2.333    5.000    2.000    0.000    0.000 
#    0.000    2.500    0.000    0.000    0.000    0.000 
#    0.000    0.000    0.000    0.000    0.000    0.000 
#
# Total GULP energy -297315.609786 kJ/mol
# GULP energy per Si atom -12388.150408 kJ/mol
# Density = 1.896776 g / cm^3
# Si number density = 19.011031 Si / 1000 Ang^3
#
#
#
# Elastic Constant Matrix: (Units=GPa)
#
#
# Indices 1 2 3 4 5 6 
#
# 1 89.6977 -6.7636 40.0052 -0.0002 23.0957 -0.0001
# 2 -6.7636 25.5969 -6.6712 -0.0002 6.6140 -0.0003
# 3 40.0052 -6.6712 57.3063 -0.0003 15.7765 -0.0005
# 4 -0.0002 -0.0002 -0.0003 18.0546 -0.0005 7.0455
# 5 23.0957 6.6140 15.7765 -0.0005 34.8935 -0.0006
# 6 -0.0001 -0.0003 -0.0005 7.0455 -0.0006 17.4674
#
#
#
# Elastic Compliance Matrix: (Units=1/GPa)
#
#
# Indices 1 2 3 4 5 6 
#
# 1 0.017963 0.004353 -0.009746 0.000000 -0.008308 0.000000
# 2 0.004353 0.045533 0.006203 0.000000 -0.014317 0.000000
# 3 -0.009746 0.006203 0.026868 0.000000 -0.006873 0.000001
# 4 0.000000 0.000000 0.000000 0.065734 0.000001 -0.026514
# 5 -0.008308 -0.014317 -0.006873 0.000001 0.039979 0.000001
# 6 0.000000 0.000000 0.000001 -0.026514 0.000001 0.067944
#
#
# Mechanical properties :
#
#
# Convention : Reuss Voigt Hill
#
# Bulk Modulus (GPa) = 10.87130 25.08243 17.97686
# Shear Modulus (GPa) = 17.06126 23.81844 20.43985
#
# Velocity S-wave (km/s) = 2.99898 3.54344 3.28252
# Velocity P-wave (km/s) = 4.20983 5.47389 4.88294
#
# Compressibility (1/GPa) = 0.09198533
#
# Stress axis : x y z
#
# Youngs Moduli (GPa) = 55.67142 21.96186 37.21933
#
# Poissons Ratio (x) = -0.09560 0.36272
# Poissons Ratio (y) = -0.24234 -0.23088
# Poissons Ratio (z) = 0.54255 -0.13623
#
# Static dielectric constant tensor:
#      x y z
#    x 4.359740 0.000050 1.252240 
#    y 0.000050 3.802000 0.000020 
#    z 1.252240 0.000020 3.869540 
# 
# 
# High freq. dielectric constant tensor:
#      x y z
#    x 1.709350 0.000000 0.058380 
#    y 0.000000 1.737670 0.000000 
#    z 0.058380 0.000000 1.713850 
# 
# From -- ./inp_files/248950.got.cif
#   From: 2010.06.25/outbox.cif.g09.slc.cpg/sg15_125_cif.got.tgz:248950.got - 2010.06.28 07:06:18.
