data_PCOD8130117
_publ_section_title
;
Structure prediction by ZEFSAII (Michael W. Deem and Ramdas Pophale) SiO2 
 PCOD8130117
Probable space group: C 2/C
;
_chemical_formula_sum "Si O2"
_cell_formula_units_Z 60
_cell_length_a 20.018378
_cell_length_b 23.949206
_cell_length_c 9.067557
_cell_angle_alpha 90.000000
_cell_angle_beta 120.733432
_cell_angle_gamma 90.000000
_cell_volume 3736.659961
_symmetry_space_group_name_H-M "C 2/C"
_symmetry_group_IT_number 15
_symmetry_cell_setting 'monoclinic'
loop_
_space_group_symop_operation_xyz
x,y,z
-x,y,1/2-z
-x,-y,-z
x,-y,1/2+z
1/2+x,1/2+y,z
1/2-x,1/2+y,1/2-z
1/2-x,1/2-y,-z
1/2+x,1/2-y,1/2+z
loop_
_atom_site_type_symbol
_atom_site_label
_atom_site_fract_x
_atom_site_fract_y
_atom_site_fract_z
Si Si1 0.039386 0.076958 0.036082
Si Si2 0.394762 0.212001 0.000101
Si Si3 0.434413 0.780136 0.874710
Si Si4 0.706239 0.809484 0.613754
Si Si5 0.000000 0.004641 0.250000
Si Si6 0.653995 0.337202 0.553113
Si Si7 0.108848 0.847083 0.170371
Si Si8 0.254410 0.181295 0.664014
O O1 0.105178 0.123126 0.104881
O O2 0.052278 0.034319 0.914590
O O3 0.051793 0.044236 0.203342
O O4 0.953530 0.104614 0.930806
O O5 0.377461 0.276139 0.948210
O O6 0.328438 0.172681 0.855258
O O7 0.477357 0.198388 0.016578
O O8 0.396806 0.202129 0.176793
O O9 0.384811 0.811444 0.945211
O O10 0.432382 0.713051 0.890313
O O11 0.756247 0.841264 0.795495
O O12 0.720724 0.838107 0.471661
O O13 0.730823 0.745437 0.637913
O O14 0.644317 0.354468 0.373128
O O15 0.180535 0.854236 0.137372
#
# Coordination Sequence:
#
# PCOD8130117 Si02
#       8
#     8   8   8   8   4   8   8   8
#     4  11  20  36  48  68  88 120 152 194 234 279
#     4   9  16  27  43  63  86 119 155 185 215 256
#     4   9  16  27  43  63  86 119 155 185 215 256
#     4   9  18  28  38  61  89 113 148 189 221 253
#     4  10  24  34  48  66  92 110 150 202 248 262
#     4  10  17  29  47  62  83 118 157 184 217 273
#     4  10  17  29  47  62  83 118 157 184 217 273
#     4   9  18  28  38  61  89 113 148 189 221 253
#
# _framework density 16.057120000000001
#
# number of rings (size 3 to 8) (size 9 to 14) (size 15 to 20)
#    0.000    2.400    2.667    0.800    1.867    3.733 
#    0.000    0.000    0.000    0.000    0.000    0.000 
#    0.000    0.000    0.000    7.200    0.000    0.533 
#
# Total GULP energy -371852.637555 kJ/mol
# GULP energy per Si atom -12395.087918 kJ/mol
# Density = 1.602057 g / cm^3
# Si number density = 16.057120 Si / 1000 Ang^3
#
#
#
# Elastic Constant Matrix: (Units=GPa)
#
#
# Indices 1 2 3 4 5 6 
#
# 1 114.7528 25.0819 34.9701 0.0000 -5.1202 0.0000
# 2 25.0819 30.7428 17.0389 0.0000 -2.1808 0.0000
# 3 34.9701 17.0389 55.9183 0.0000 -2.5495 0.0000
# 4 0.0000 0.0000 0.0000 10.0519 0.0000 -7.5078
# 5 -5.1202 -2.1808 -2.5495 0.0000 24.9665 0.0000
# 6 0.0000 0.0000 0.0000 -7.5078 0.0000 15.0075
#
#
#
# Elastic Compliance Matrix: (Units=1/GPa)
#
#
# Indices 1 2 3 4 5 6 
#
# 1 0.011843 -0.006615 -0.005331 0.000000 0.001307 0.000000
# 2 -0.006615 0.042954 -0.008884 0.000000 0.001488 0.000000
# 3 -0.005331 -0.008884 0.023951 0.000000 0.000576 0.000000
# 4 0.000000 0.000000 0.000000 0.158830 0.000000 0.079458
# 5 0.001307 0.001488 0.000576 0.000000 0.040511 0.000000
# 6 0.000000 0.000000 0.000000 0.079458 0.000000 0.106384
#
#
# Mechanical properties :
#
#
# Convention : Reuss Voigt Hill
#
# Bulk Modulus (GPa) = 26.96308 39.51064 33.23686
# Shear Modulus (GPa) = 11.40263 18.29337 14.84800
#
# Velocity S-wave (km/s) = 2.66772 3.37897 3.04419
# Velocity P-wave (km/s) = 5.13005 6.31529 5.75327
#
# Compressibility (1/GPa) = 0.03708776
#
# Stress axis : x y z
#
# Youngs Moduli (GPa) = 84.43658 23.28062 41.75265
#
# Poissons Ratio (x) = 0.15400 0.22259
# Poissons Ratio (y) = 0.55854 0.37093
# Poissons Ratio (z) = 0.45015 0.20682
#
# Static dielectric constant tensor:
#      x y z
#    x 3.232890 0.000000 -0.065670 
#    y 0.000000 2.637440 0.000000 
#    z -0.065670 0.000000 3.156220 
# 
# 
# High freq. dielectric constant tensor:
#      x y z
#    x 1.623070 0.000000 -0.010600 
#    y 0.000000 1.552570 0.000000 
#    z -0.010600 0.000000 1.619130 
# 
# From -- ./inp_files/50185.got.cif
#   From: 2010.06.25/outbox.cif.g09.slc.cpg/sg15_26_cif.got.tgz:50185.got - 2010.06.28 07:06:18.
