data_PCOD8130140
_publ_section_title
;
Structure prediction by ZEFSAII (Michael W. Deem and Ramdas Pophale) SiO2 
 PCOD8130140
Probable space group: C 2/C
;
_chemical_formula_sum "Si O2"
_cell_formula_units_Z 48
_cell_length_a 17.456754
_cell_length_b 8.777838
_cell_length_c 23.801208
_cell_angle_alpha 90.000000
_cell_angle_beta 50.207044
_cell_angle_gamma 90.000000
_cell_volume 2802.309196
_symmetry_space_group_name_H-M "C 2/C"
_symmetry_group_IT_number 15
_symmetry_cell_setting 'monoclinic'
loop_
_space_group_symop_operation_xyz
x,y,z
-x,y,1/2-z
-x,-y,-z
x,-y,1/2+z
1/2+x,1/2+y,z
1/2-x,1/2+y,1/2-z
1/2-x,1/2-y,-z
1/2+x,1/2-y,1/2+z
loop_
_atom_site_type_symbol
_atom_site_label
_atom_site_fract_x
_atom_site_fract_y
_atom_site_fract_z
Si Si1 0.012832 0.605357 0.576401
Si Si2 0.233574 0.825840 0.947775
Si Si3 0.660182 0.043619 0.920050
Si Si4 0.632227 0.611927 0.026661
Si Si5 0.921093 0.527485 0.831496
Si Si6 0.698046 0.693300 0.110028
O O1 0.091297 0.506931 0.504107
O O2 0.033577 0.787893 0.558342
O O3 0.023704 0.559135 0.635704
O O4 0.901705 0.563334 0.608293
O O5 0.207983 0.704991 0.912115
O O6 0.334747 0.905366 0.880517
O O7 0.250000 0.750000 0.000000
O O8 0.139340 0.943997 0.995860
O O9 0.747462 0.916793 0.870335
O O10 0.641803 0.590372 0.089676
O O11 0.725468 0.704727 0.960232
O O12 0.878526 0.687409 0.825618
O O13 0.000000 0.461050 0.750000
#
# Coordination Sequence:
#
# PCOD8130140 Si02
#       6
#     8   8   8   8   8   8
#     4   9  18  31  49  75 101 126 162 205 248 296
#     4  11  17  29  53  78  99 129 166 209 256 292
#     4  10  17  29  52  78  99 123 160 212 252 285
#     4   8  14  26  46  70  98 122 158 194 236 294
#     4  10  20  35  51  68  97 138 172 203 249 310
#     4   8  14  28  47  67  90 129 162 189 234 302
#
# _framework density 17.128730999999998
#
# number of rings (size 3 to 8) (size 9 to 14) (size 15 to 20)
#    0.000    2.667    3.333    2.000    0.000    0.667 
#    0.000    2.500    0.000    0.000    0.000    0.000 
#    0.000    0.000    0.000    0.000    0.000    0.000 
#
# Total GULP energy -297349.127906 kJ/mol
# GULP energy per Si atom -12389.546996 kJ/mol
# Density = 1.708975 g / cm^3
# Si number density = 17.128731 Si / 1000 Ang^3
#
#
#
# Elastic Constant Matrix: (Units=GPa)
#
#
# Indices 1 2 3 4 5 6 
#
# 1 109.6525 55.3568 30.0819 0.0000 -0.5390 0.0002
# 2 55.3568 108.1988 29.0308 0.0000 -4.8599 0.0003
# 3 30.0819 29.0308 60.3695 0.0000 -2.1490 0.0000
# 4 0.0000 0.0000 0.0000 15.5343 0.0000 -3.7012
# 5 -0.5390 -4.8599 -2.1490 0.0000 11.9743 0.0000
# 6 0.0002 0.0003 0.0000 -3.7012 0.0000 29.7589
#
#
#
# Elastic Compliance Matrix: (Units=1/GPa)
#
#
# Indices 1 2 3 4 5 6 
#
# 1 0.013070 -0.005770 -0.003825 0.000000 -0.002440 0.000000
# 2 -0.005770 0.013299 -0.003359 0.000000 0.004535 0.000000
# 3 -0.003825 -0.003359 0.020160 0.000000 0.002083 0.000000
# 4 0.000000 0.000000 0.000000 0.066340 0.000000 0.008251
# 5 -0.002440 0.004535 0.002083 0.000000 0.085617 0.000000
# 6 0.000000 0.000000 0.000000 0.008251 0.000000 0.034630
#
#
# Mechanical properties :
#
#
# Convention : Reuss Voigt Hill
#
# Bulk Modulus (GPa) = 48.49266 56.35109 52.42187
# Shear Modulus (GPa) = 18.80430 22.37025 20.58727
#
# Velocity S-wave (km/s) = 3.31693 3.61779 3.47063
# Velocity P-wave (km/s) = 6.56061 7.10079 6.83604
#
# Compressibility (1/GPa) = 0.02062168
#
# Stress axis : x y z
#
# Youngs Moduli (GPa) = 76.51065 75.19174 49.60366
#
# Poissons Ratio (x) = 0.43388 0.18972
# Poissons Ratio (y) = 0.44149 0.16660
# Poissons Ratio (z) = 0.29264 0.25255
#
# Static dielectric constant tensor:
#      x y z
#    x 3.268910 0.000000 -0.141050 
#    y 0.000000 3.492570 0.000000 
#    z -0.141050 0.000000 2.844280 
# 
# 
# High freq. dielectric constant tensor:
#      x y z
#    x 1.651040 0.000000 -0.002160 
#    y 0.000000 1.668160 0.000000 
#    z -0.002160 0.000000 1.609390 
# 
# From -- ./inp_files/208569.got.cif
#   From: 2010.06.25/outbox.cif.g09.slc.cpg/sg15_105_cif.got.tgz:208569.got - 2010.06.28 07:06:18.
