data_PCOD8130912
_publ_section_title
;
Structure prediction by ZEFSAII (Michael W. Deem and Ramdas Pophale) SiO2 
 PCOD8130912
Probable space group: C 2/C
;
_chemical_formula_sum "Si O2"
_cell_formula_units_Z 40
_cell_length_a 23.981403
_cell_length_b 11.256848
_cell_length_c 27.429976
_cell_angle_alpha 90.000000
_cell_angle_beta 159.998381
_cell_angle_gamma 90.000000
_cell_volume 2532.807692
_symmetry_space_group_name_H-M "C 2/C"
_symmetry_group_IT_number 15
_symmetry_cell_setting 'monoclinic'
loop_
_space_group_symop_operation_xyz
x,y,z
-x,y,1/2-z
-x,-y,-z
x,-y,1/2+z
1/2+x,1/2+y,z
1/2-x,1/2+y,1/2-z
1/2-x,1/2-y,-z
1/2+x,1/2-y,1/2+z
loop_
_atom_site_type_symbol
_atom_site_label
_atom_site_fract_x
_atom_site_fract_y
_atom_site_fract_z
Si Si1 0.609059 0.225802 0.977010
Si Si2 0.087931 0.368489 0.273242
Si Si3 0.114363 0.038309 0.525613
Si Si4 0.523011 0.867958 0.036514
Si Si5 0.881309 0.151207 0.866552
O O1 0.545307 0.166382 0.875877
O O2 0.579821 0.138245 0.998110
O O3 0.801684 0.250544 0.127225
O O4 0.523280 0.352534 0.922136
O O5 0.205207 0.476178 0.350610
O O6 0.000000 0.410959 0.250000
O O7 0.147405 0.074577 0.608597
O O8 0.008360 0.918805 0.435601
O O9 0.711611 0.833847 0.199201
O O10 0.452093 0.780384 0.936997
O O11 0.500000 0.000000 0.000000
#
# Coordination Sequence:
#
# PCOD8130912 Si02
#       5
#     8   8   8   8   8
#     4   9  18  32  46  74 105 130 172 213 256 306
#     4  10  18  30  50  75 103 140 171 213 262 305
#     4   8  19  30  52  64 107 130 169 210 261 302
#     4  11  22  31  54  77 105 143 174 207 266 318
#     4  10  20  34  48  73 106 136 169 213 263 308
#
# _framework density 15.79275
#
# number of rings (size 3 to 8) (size 9 to 14) (size 15 to 20)
#    1.200    1.200    2.000    0.600   11.200    0.000 
#    0.000    0.000    0.000    0.000    0.000    7.000 
#    0.000    0.000    0.000    0.000    0.000    0.000 
#
# Total GULP energy -247781.933179 kJ/mol
# GULP energy per Si atom -12389.096659 kJ/mol
# Density = 1.575680 g / cm^3
# Si number density = 15.792750 Si / 1000 Ang^3
#
#
#
# Elastic Constant Matrix: (Units=GPa)
#
#
# Indices 1 2 3 4 5 6 
#
# 1 93.0833 33.5186 21.9393 -0.0046 12.1561 -0.0020
# 2 33.5186 79.5178 30.0947 0.0040 0.4544 0.0050
# 3 21.9393 30.0947 82.0402 0.0177 3.2936 0.0036
# 4 -0.0046 0.0040 0.0177 24.2141 0.0042 4.4129
# 5 12.1561 0.4544 3.2936 0.0042 24.9879 -0.0019
# 6 -0.0020 0.0050 0.0036 4.4129 -0.0019 18.3529
#
#
#
# Elastic Compliance Matrix: (Units=1/GPa)
#
#
# Indices 1 2 3 4 5 6 
#
# 1 0.013818 -0.005210 -0.001526 0.000006 -0.006426 0.000001
# 2 -0.005210 0.016573 -0.004801 0.000000 0.002866 -0.000004
# 3 -0.001526 -0.004801 0.014401 -0.000010 -0.001069 0.000001
# 4 0.000006 0.000000 -0.000010 0.043191 -0.000009 -0.010385
# 5 -0.006426 0.002866 -0.001069 -0.000009 0.043234 0.000005
# 6 0.000001 -0.000004 0.000001 -0.010385 0.000005 0.056984
#
#
# Mechanical properties :
#
#
# Convention : Reuss Voigt Hill
#
# Bulk Modulus (GPa) = 46.04610 47.30516 46.67563
# Shear Modulus (GPa) = 22.88163 24.78357 23.83260
#
# Velocity S-wave (km/s) = 3.81053 3.96574 3.88891
# Velocity P-wave (km/s) = 6.96993 7.14060 7.05578
#
# Compressibility (1/GPa) = 0.02171737
#
# Stress axis : x y z
#
# Youngs Moduli (GPa) = 72.36831 60.33993 69.43824
#
# Poissons Ratio (x) = 0.31440 0.10596
# Poissons Ratio (y) = 0.37707 0.33338
# Poissons Ratio (z) = 0.11043 0.28970
#
# Static dielectric constant tensor:
#      x y z
#    x 2.887360 0.000000 0.087700 
#    y 0.000000 2.775960 -0.000010 
#    z 0.087700 -0.000010 3.013160 
# 
# 
# High freq. dielectric constant tensor:
#      x y z
#    x 1.589320 0.000000 0.002810 
#    y 0.000000 1.573910 0.000000 
#    z 0.002810 0.000000 1.611880 
# 
# From -- ./inp_files/283432.got.cif
#   From: 2010.06.25/outbox.cif.g09.slc.cpg/sg15_142_cif.got.tgz:283432.got - 2010.06.28 07:06:18.
