data_PCOD8130215
_publ_section_title
;
Structure prediction by ZEFSAII (Michael W. Deem and Ramdas Pophale) SiO2 
 PCOD8130215
Probable space group: C 2/C
;
_chemical_formula_sum "Si O2"
_cell_formula_units_Z 64
_cell_length_a 26.941662
_cell_length_b 22.097773
_cell_length_c 18.353109
_cell_angle_alpha 90.000000
_cell_angle_beta 159.971970
_cell_angle_gamma 90.000000
_cell_volume 3742.118321
_symmetry_space_group_name_H-M "C 2/C"
_symmetry_group_IT_number 15
_symmetry_cell_setting 'monoclinic'
loop_
_space_group_symop_operation_xyz
x,y,z
-x,y,1/2-z
-x,-y,-z
x,-y,1/2+z
1/2+x,1/2+y,z
1/2-x,1/2+y,1/2-z
1/2-x,1/2-y,-z
1/2+x,1/2-y,1/2+z
loop_
_atom_site_type_symbol
_atom_site_label
_atom_site_fract_x
_atom_site_fract_y
_atom_site_fract_z
Si Si1 0.805057 0.011460 0.039677
Si Si2 0.328736 0.033849 0.012348
Si Si3 0.864549 0.997543 0.965061
Si Si4 0.658938 0.576674 0.203253
Si Si5 0.340765 0.603913 0.828396
Si Si6 0.654028 0.820601 0.481920
Si Si7 0.632576 0.309966 0.013592
Si Si8 0.805765 0.149464 0.049768
O O1 0.757868 0.080038 0.995108
O O2 0.972530 0.007111 0.287135
O O3 0.769671 0.992561 0.907730
O O4 0.715977 0.963432 0.964839
O O5 0.500000 0.024831 0.250000
O O6 0.277182 0.095021 0.899298
O O7 0.236977 0.978421 0.851860
O O8 0.803490 0.055448 0.838905
O O9 0.853765 0.937994 0.899899
O O10 0.754913 0.636132 0.340824
O O11 0.502436 0.590863 0.021914
O O12 0.316243 0.669494 0.834195
O O13 0.624240 0.761792 0.490735
O O14 0.733457 0.809396 0.513556
O O15 0.500000 0.850449 0.250000
O O16 0.738931 0.332234 0.094556
O O17 0.477668 0.341963 0.792045
#
# Coordination Sequence:
#
# PCOD8130215 Si02
#       8
#     8   8   8   8   8   8   8   8
#     4  11  17  31  57  79 106 138 174 217 266 315
#     4  11  21  34  53  80 110 140 173 216 275 319
#     4  10  17  30  54  82 100 134 182 217 254 316
#     4  11  20  34  52  79 112 140 180 212 264 317
#     4  11  18  36  55  78 103 145 182 219 254 321
#     4  12  23  32  51  77 114 146 173 215 263 313
#     4  11  20  33  53  75 104 146 183 213 249 318
#     4  11  19  33  49  78 110 140 179 206 262 315
#
# _framework density 17.102613000000002
#
# number of rings (size 3 to 8) (size 9 to 14) (size 15 to 20)
#    0.000    1.000    8.750    2.250    0.000    0.000 
#    0.000    3.750    0.000    0.000    3.250    1.750 
#    0.000    0.000    0.000    0.000    0.000    0.000 
#
# Total GULP energy -396477.222830 kJ/mol
# GULP energy per Si atom -12389.913213 kJ/mol
# Density = 1.706369 g / cm^3
# Si number density = 17.102613 Si / 1000 Ang^3
#
#
#
# Elastic Constant Matrix: (Units=GPa)
#
#
# Indices 1 2 3 4 5 6 
#
# 1 120.2658 41.0916 29.6939 0.0000 -8.7770 0.0000
# 2 41.0916 55.0446 20.9588 0.0000 -9.9669 0.0000
# 3 29.6939 20.9588 55.2261 0.0000 -1.8472 0.0000
# 4 0.0000 0.0000 0.0000 66.8677 0.0000 -49.9585
# 5 -8.7770 -9.9669 -1.8472 0.0000 17.9808 0.0000
# 6 0.0000 0.0000 0.0000 -49.9585 0.0000 63.0905
#
#
#
# Elastic Compliance Matrix: (Units=1/GPa)
#
#
# Indices 1 2 3 4 5 6 
#
# 1 0.011739 -0.007159 -0.003548 0.000000 0.001397 0.000000
# 2 -0.007159 0.028008 -0.006399 0.000000 0.011373 0.000000
# 3 -0.003548 -0.006399 0.022344 0.000000 -0.002984 0.000000
# 4 0.000000 0.000000 0.000000 0.036620 0.000000 0.028997
# 5 0.001397 0.011373 -0.002984 0.000000 0.062294 0.000000
# 6 0.000000 0.000000 0.000000 0.028997 0.000000 0.038812
#
#
# Mechanical properties :
#
#
# Convention : Reuss Voigt Hill
#
# Bulk Modulus (GPa) = 35.87183 46.00278 40.93731
# Shear Modulus (GPa) = 20.54886 38.84061 29.69473
#
# Velocity S-wave (km/s) = 3.47003 4.77071 4.17138
# Velocity P-wave (km/s) = 6.08891 7.56985 6.86941
#
# Compressibility (1/GPa) = 0.02787703
#
# Stress axis : x y z
#
# Youngs Moduli (GPa) = 85.18539 35.70464 44.75499
#
# Poissons Ratio (x) = 0.25563 0.15879
# Poissons Ratio (y) = 0.60988 0.28640
# Poissons Ratio (z) = 0.30224 0.22848
#
# Static dielectric constant tensor:
#      x y z
#    x 5.145610 0.000000 -0.104100 
#    y 0.000000 3.100250 0.000000 
#    z -0.104100 0.000000 3.071080 
# 
# 
# High freq. dielectric constant tensor:
#      x y z
#    x 1.678110 0.000000 0.000530 
#    y 0.000000 1.628020 0.000000 
#    z 0.000530 0.000000 1.627560 
# 
# From -- ./inp_files/223235.got.cif
#   From: 2010.06.25/outbox.cif.g09.slc.cpg/sg15_112_cif.got.tgz:223235.got - 2010.06.28 07:06:18.
