data_PCOD8130054
_publ_section_title
;
Structure prediction by ZEFSAII (Michael W. Deem and Ramdas Pophale) SiO2 
 PCOD8130054
Probable space group: C 2/C
;
_chemical_formula_sum "Si O2"
_cell_formula_units_Z 64
_cell_length_a 21.017238
_cell_length_b 28.466794
_cell_length_c 7.674336
_cell_angle_alpha 90.000000
_cell_angle_beta 90.000000
_cell_angle_gamma 90.000000
_cell_volume 4591.504460
_symmetry_space_group_name_H-M "C 2/C"
_symmetry_group_IT_number 15
_symmetry_cell_setting 'monoclinic'
loop_
_space_group_symop_operation_xyz
x,y,z
-x,y,1/2-z
-x,-y,-z
x,-y,1/2+z
1/2+x,1/2+y,z
1/2-x,1/2+y,1/2-z
1/2-x,1/2-y,-z
1/2+x,1/2-y,1/2+z
loop_
_atom_site_type_symbol
_atom_site_label
_atom_site_fract_x
_atom_site_fract_y
_atom_site_fract_z
Si Si1 0.427409 0.730064 0.302351
Si Si2 0.267730 0.325275 0.500000
Si Si3 0.072649 0.948000 0.701121
Si Si4 0.149316 0.732211 0.000000
Si Si5 0.427351 0.448000 0.201121
Si Si6 0.153941 0.137273 0.201086
Si Si7 0.846059 0.862727 0.201086
Si Si8 0.572591 0.730064 0.802351
O O1 0.500000 0.724246 0.250000
O O2 0.393944 0.767451 0.173863
O O3 0.396239 0.679187 0.281539
O O4 0.420323 0.748729 0.500000
O O5 0.192167 0.314908 0.500000
O O6 0.305601 0.276974 0.500000
O O7 0.285015 0.353768 0.676124
O O8 0.285015 0.353768 0.323875
O O9 0.078572 0.940304 0.500000
O O10 0.119243 0.908893 0.781819
O O11 0.000000 0.939443 0.750000
O O12 0.095991 0.000000 0.750000
O O13 0.106056 0.732549 0.173863
O O14 0.500000 0.439443 0.250000
O O15 0.380757 0.408893 0.281819
O O16 0.176782 0.131660 0.000000
O O17 0.896240 0.820813 0.218461
O O18 0.500000 0.724247 0.750000
#
# Coordination Sequence:
#
# PCOD8130054 Si02
#       8
#     8   8   8   8   8   8   8   8
#     4  10  17  27  42  60  83 104 132 171 205 241
#     4   9  18  30  46  53  80 106 135 172 201 244
#     4  10  19  28  39  57  80 105 138 177 215 245
#     4   9  18  30  40  64  76 103 137 165 207 242
#     4  10  19  28  39  57  80 105 138 177 215 245
#     4   9  19  29  41  59  77 106 142 174 204 239
#     4   9  19  29  41  59  77 106 142 174 204 239
#     4  10  17  27  42  60  83 104 132 171 205 241
#
# _framework density 13.938787
#
# number of rings (size 3 to 8) (size 9 to 14) (size 15 to 20)
#    0.000    2.500    1.250    2.250    3.500    1.000 
#    0.000    5.000    0.000    0.000    0.000    0.000 
#    0.000    0.000    0.000    0.000    0.000    3.750 
#
# Total GULP energy -396632.729454 kJ/mol
# GULP energy per Si atom -12394.772795 kJ/mol
# Density = 1.390706 g / cm^3
# Si number density = 13.938787 Si / 1000 Ang^3
#
#
#
# Elastic Constant Matrix: (Units=GPa)
#
#
# Indices 1 2 3 4 5 6 
#
# 1 53.2666 37.2879 41.6090 0.0000 0.0000 0.0000
# 2 37.2879 59.9235 34.9451 0.0000 0.0000 0.0000
# 3 41.6090 34.9451 100.2412 0.0000 0.0000 0.0000
# 4 0.0000 0.0000 0.0000 15.9807 0.0000 0.0000
# 5 0.0000 0.0000 0.0000 0.0000 20.5635 0.0000
# 6 0.0000 0.0000 0.0000 0.0000 0.0000 23.9409
#
#
#
# Elastic Compliance Matrix: (Units=1/GPa)
#
#
# Indices 1 2 3 4 5 6 
#
# 1 0.039804 -0.018995 -0.009900 0.000000 0.000000 0.000000
# 2 -0.018995 0.030011 -0.002577 0.000000 0.000000 0.000000
# 3 -0.009900 -0.002577 0.014984 0.000000 0.000000 0.000000
# 4 0.000000 0.000000 0.000000 0.062575 0.000000 0.000000
# 5 0.000000 0.000000 0.000000 0.000000 0.048630 0.000000
# 6 0.000000 0.000000 0.000000 0.000000 0.000000 0.041770
#
#
# Mechanical properties :
#
#
# Convention : Reuss Voigt Hill
#
# Bulk Modulus (GPa) = 45.75972 49.01281 47.38626
# Shear Modulus (GPa) = 16.23358 18.73632 17.48495
#
# Velocity S-wave (km/s) = 3.41638 3.67029 3.54561
# Velocity P-wave (km/s) = 6.96150 7.29388 7.12962
#
# Compressibility (1/GPa) = 0.02185328
#
# Stress axis : x y z
#
# Youngs Moduli (GPa) = 25.12305 33.32134 66.73779
#
# Poissons Ratio (x) = 0.63294 0.66073
# Poissons Ratio (y) = 0.47721 0.17202
# Poissons Ratio (z) = 0.24873 0.08588
#
# Static dielectric constant tensor:
#      x y z
#    x 2.627550 0.000000 0.000000 
#    y 0.000000 2.496300 0.000000 
#    z 0.000000 0.000000 3.047150 
# 
# 
# High freq. dielectric constant tensor:
#      x y z
#    x 1.501220 0.000000 0.000000 
#    y 0.000000 1.496280 0.000000 
#    z 0.000000 0.000000 1.553590 
# 
# From -- ./inp_files/51894.got.cif
#   From: 2010.06.25/outbox.cif.g09.slc.cpg/sg15_26_cif.got.tgz:51894.got - 2010.06.28 07:06:18.
