data_PCOD8130909
_publ_section_title
;
Structure prediction by ZEFSAII (Michael W. Deem and Ramdas Pophale) SiO2 
 PCOD8130909
Probable space group: C 2/C
;
_chemical_formula_sum "Si O2"
_cell_formula_units_Z 52
_cell_length_a 14.050402
_cell_length_b 25.105032
_cell_length_c 8.861163
_cell_angle_alpha 90.000000
_cell_angle_beta 115.104700
_cell_angle_gamma 90.000000
_cell_volume 2830.381752
_symmetry_space_group_name_H-M "C 2/C"
_symmetry_group_IT_number 15
_symmetry_cell_setting 'monoclinic'
loop_
_space_group_symop_operation_xyz
x,y,z
-x,y,1/2-z
-x,-y,-z
x,-y,1/2+z
1/2+x,1/2+y,z
1/2-x,1/2+y,1/2-z
1/2-x,1/2-y,-z
1/2+x,1/2-y,1/2+z
loop_
_atom_site_type_symbol
_atom_site_label
_atom_site_fract_x
_atom_site_fract_y
_atom_site_fract_z
Si Si1 0.882789 0.264192 0.653881
Si Si2 0.611392 0.542243 0.406018
Si Si3 0.612543 0.564950 0.760516
Si Si4 0.804244 0.860059 0.696695
Si Si5 0.706859 0.340631 0.477806
Si Si6 0.000000 0.215905 0.250000
Si Si7 0.839631 0.727186 0.456156
O O1 0.818652 0.311053 0.525718
O O2 0.879525 0.207122 0.567950
O O3 0.000000 0.285900 0.750000
O O4 0.828599 0.251526 0.778573
O O5 0.500000 0.550285 0.250000
O O6 0.601559 0.547729 0.579259
O O7 0.656623 0.484540 0.388964
O O8 0.689203 0.586886 0.396615
O O9 0.500000 0.582234 0.750000
O O10 0.687107 0.616749 0.830319
O O11 0.690890 0.835411 0.571587
O O12 0.904078 0.821022 0.738322
O O13 0.799809 0.873608 0.871088
O O14 0.955858 0.256754 0.092506
O O15 0.750000 0.750000 0.500000
#
# Coordination Sequence:
#
# PCOD8130909 Si02
#       7
#     8   8   8   8   8   4   8
#     4  10  20  35  54  78 111 148 185 220 269 323
#     4  11  21  35  53  78 107 141 176 221 275 327
#     4  11  22  34  55  78 107 138 179 222 271 330
#     4  10  19  33  51  75 108 140 176 220 264 318
#     4  10  21  34  53  79 108 143 181 221 267 317
#     4  10  18  30  50  72 108 144 176 212 264 310
#     4   9  20  32  49  76 106 145 178 221 262 317
#
# _framework density 18.37208
#
# number of rings (size 3 to 8) (size 9 to 14) (size 15 to 20)
#    0.000    1.846    0.769    5.077    4.308    1.231 
#    0.000    0.000    0.000    0.000    2.000    3.231 
#    0.000    0.000    0.000    0.000    0.000    0.000 
#
# Total GULP energy -322141.794479 kJ/mol
# GULP energy per Si atom -12390.069018 kJ/mol
# Density = 1.833026 g / cm^3
# Si number density = 18.372080 Si / 1000 Ang^3
#
#
#
# Elastic Constant Matrix: (Units=GPa)
#
#
# Indices 1 2 3 4 5 6 
#
# 1 52.0003 35.6570 26.0911 0.0000 3.5595 0.0000
# 2 35.6570 123.9090 56.3428 0.0000 8.7813 0.0000
# 3 26.0911 56.3428 101.2908 0.0000 -3.6134 0.0000
# 4 0.0000 0.0000 0.0000 35.0639 0.0000 0.2673
# 5 3.5595 8.7813 -3.6134 0.0000 36.4741 0.0000
# 6 0.0000 0.0000 0.0000 0.2673 0.0000 23.8340
#
#
#
# Elastic Compliance Matrix: (Units=1/GPa)
#
#
# Indices 1 2 3 4 5 6 
#
# 1 0.024794 -0.005496 -0.003380 0.000000 -0.001431 0.000000
# 2 -0.005496 0.012409 -0.005594 0.000000 -0.003005 0.000000
# 3 -0.003380 -0.005594 0.013964 0.000000 0.003060 0.000000
# 4 0.000000 0.000000 0.000000 0.028522 0.000000 -0.000320
# 5 -0.001431 -0.003005 0.003060 0.000000 0.028583 0.000000
# 6 0.000000 0.000000 0.000000 -0.000320 0.000000 0.041961
#
#
# Mechanical properties :
#
#
# Convention : Reuss Voigt Hill
#
# Bulk Modulus (GPa) = 44.99320 57.04242 51.01781
# Shear Modulus (GPa) = 26.79812 29.68168 28.23990
#
# Velocity S-wave (km/s) = 3.82335 4.02380 3.92485
# Velocity P-wave (km/s) = 6.63580 7.25973 6.95477
#
# Compressibility (1/GPa) = 0.02222558
#
# Stress axis : x y z
#
# Youngs Moduli (GPa) = 40.33312 80.58940 71.61329
#
# Poissons Ratio (x) = 0.44295 0.24207
# Poissons Ratio (y) = 0.22168 0.40058
# Poissons Ratio (z) = 0.13633 0.45079
#
# Static dielectric constant tensor:
#      x y z
#    x 3.332690 0.000000 0.056690 
#    y 0.000000 3.550850 0.000000 
#    z 0.056690 0.000000 3.703220 
# 
# 
# High freq. dielectric constant tensor:
#      x y z
#    x 1.682700 0.000000 -0.016810 
#    y 0.000000 1.704010 0.000000 
#    z -0.016810 0.000000 1.722840 
# 
# From -- ./inp_files/43247.got.cif
#   From: 2010.06.25/outbox.cif.g09.slc.cpg/sg15_22_cif.got.tgz:43247.got - 2010.06.28 07:06:18.
