data_PCOD8130060
_publ_section_title
;
Structure prediction by ZEFSAII (Michael W. Deem and Ramdas Pophale) SiO2 
 PCOD8130060
Probable space group: C 2/C
;
_chemical_formula_sum "Si O2"
_cell_formula_units_Z 40
_cell_length_a 13.162528
_cell_length_b 11.244096
_cell_length_c 13.880218
_cell_angle_alpha 90.000000
_cell_angle_beta 105.296198
_cell_angle_gamma 90.000000
_cell_volume 1981.509270
_symmetry_space_group_name_H-M "C 2/C"
_symmetry_group_IT_number 15
_symmetry_cell_setting 'monoclinic'
loop_
_space_group_symop_operation_xyz
x,y,z
-x,y,1/2-z
-x,-y,-z
x,-y,1/2+z
1/2+x,1/2+y,z
1/2-x,1/2+y,1/2-z
1/2-x,1/2-y,-z
1/2+x,1/2-y,1/2+z
loop_
_atom_site_type_symbol
_atom_site_label
_atom_site_fract_x
_atom_site_fract_y
_atom_site_fract_z
Si Si1 0.881733 0.316254 0.243444
Si Si2 0.390018 0.399171 0.611303
Si Si3 0.696874 0.446875 0.102864
Si Si4 0.602222 0.693384 0.070118
Si Si5 0.514337 0.647458 0.855547
O O1 0.856854 0.186098 0.190915
O O2 0.804940 0.415583 0.182820
O O3 0.861708 0.304768 0.354458
O O4 0.000000 0.358419 0.250000
O O5 0.299365 0.399770 0.506748
O O6 0.495527 0.352850 0.589581
O O7 0.414276 0.532244 0.653829
O O8 0.688709 0.589445 0.097334
O O9 0.598977 0.387543 0.132230
O O10 0.577751 0.725964 0.951650
O O11 0.500000 0.717644 0.750000
#
# Coordination Sequence:
#
# PCOD8130060 Si02
#       5
#     8   8   8   8   8
#     4  10  17  27  44  68  92 116 145 182 220 262
#     4   8  14  25  43  67  88 106 142 193 231 253
#     4   9  16  26  43  67  91 116 145 182 224 260
#     4   8  16  27  41  66  93 112 143 185 220 258
#     4   9  15  27  45  64  88 116 145 184 224 255
#
# _framework density 20.186633
#
# number of rings (size 3 to 8) (size 9 to 14) (size 15 to 20)
#    0.000    3.200    0.000    6.000    0.000    0.000 
#    0.000    1.000    0.000    1.200    0.000   36.400 
#    0.000    0.000    0.000    0.200    0.000    0.000 
#
# Total GULP energy -247768.618115 kJ/mol
# GULP energy per Si atom -12388.430906 kJ/mol
# Density = 2.014069 g / cm^3
# Si number density = 20.186633 Si / 1000 Ang^3
#
#
#
# Elastic Constant Matrix: (Units=GPa)
#
#
# Indices 1 2 3 4 5 6 
#
# 1 44.2519 19.0166 43.7618 0.0000 16.8251 0.0000
# 2 19.0166 20.8025 33.4496 0.0000 9.9358 0.0000
# 3 43.7618 33.4496 202.5152 0.0000 10.7240 0.0000
# 4 0.0000 0.0000 0.0000 17.8703 0.0000 4.4342
# 5 16.8251 9.9358 10.7240 0.0000 33.8227 0.0000
# 6 0.0000 0.0000 0.0000 4.4342 0.0000 14.0278
#
#
#
# Elastic Compliance Matrix: (Units=1/GPa)
#
#
# Indices 1 2 3 4 5 6 
#
# 1 0.042795 -0.026524 -0.004223 0.000000 -0.012158 0.000000
# 2 -0.026524 0.091780 -0.008847 0.000000 -0.010962 0.000000
# 3 -0.004223 -0.008847 0.007183 0.000000 0.002422 0.000000
# 4 0.000000 0.000000 0.000000 0.060721 0.000000 -0.019194
# 5 -0.012158 -0.010962 0.002422 0.000000 0.038066 0.000000
# 6 0.000000 0.000000 0.000000 -0.019194 0.000000 0.077354
#
#
# Mechanical properties :
#
#
# Convention : Reuss Voigt Hill
#
# Bulk Modulus (GPa) = 15.98216 51.11396 33.54806
# Shear Modulus (GPa) = 11.96332 24.56695 18.26513
#
# Velocity S-wave (km/s) = 2.43705 3.49232 3.01127
# Velocity P-wave (km/s) = 3.98163 6.45271 5.36147
#
# Compressibility (1/GPa) = 0.06256976
#
# Stress axis : x y z
#
# Youngs Moduli (GPa) = 23.36740 10.89565 139.20867
#
# Poissons Ratio (x) = 0.28900 0.58784
# Poissons Ratio (y) = 0.61980 1.23162
# Poissons Ratio (z) = 0.09867 0.09640
#
# Static dielectric constant tensor:
#      x y z
#    x 3.219570 0.000000 -0.068140 
#    y 0.000000 3.192940 0.000000 
#    z -0.068140 0.000000 4.771800 
# 
# 
# High freq. dielectric constant tensor:
#      x y z
#    x 1.748650 0.000000 0.002190 
#    y 0.000000 1.717840 0.000000 
#    z 0.002190 0.000000 1.823260 
# 
# From -- ./inp_files/142361.got.cif
#   From: 2010.06.25/outbox.cif.g09.slc.cpg/sg15_72_cif.got.tgz:142361.got - 2010.06.28 07:06:18.
