data_PCOD8130328
_publ_section_title
;
Structure prediction by ZEFSAII (Michael W. Deem and Ramdas Pophale) SiO2 
 PCOD8130328
Probable space group: C 2/C
;
_chemical_formula_sum "Si O2"
_cell_formula_units_Z 56
_cell_length_a 11.598458
_cell_length_b 26.675880
_cell_length_c 14.523754
_cell_angle_alpha 90.000000
_cell_angle_beta 138.612399
_cell_angle_gamma 90.000000
_cell_volume 2970.965323
_symmetry_space_group_name_H-M "C 2/C"
_symmetry_group_IT_number 15
_symmetry_cell_setting 'monoclinic'
loop_
_space_group_symop_operation_xyz
x,y,z
-x,y,1/2-z
-x,-y,-z
x,-y,1/2+z
1/2+x,1/2+y,z
1/2-x,1/2+y,1/2-z
1/2-x,1/2-y,-z
1/2+x,1/2-y,1/2+z
loop_
_atom_site_type_symbol
_atom_site_label
_atom_site_fract_x
_atom_site_fract_y
_atom_site_fract_z
Si Si1 0.511385 0.613072 0.019282
Si Si2 0.988035 0.216034 0.089222
Si Si3 0.226396 0.984960 0.319400
Si Si4 0.181549 0.093522 0.306486
Si Si5 0.318239 0.044093 0.682100
Si Si6 0.850546 0.958781 0.036791
Si Si7 0.272233 0.802240 0.904419
O O1 0.496892 0.673334 0.015141
O O2 0.643008 0.593985 0.175550
O O3 0.322017 0.587713 0.918505
O O4 0.600682 0.595277 0.977084
O O5 0.830724 0.201302 0.061896
O O6 0.164655 0.219906 0.253453
O O7 0.949560 0.269757 0.018391
O O8 0.347681 0.965843 0.309236
O O9 0.244748 0.949837 0.421422
O O10 0.029007 0.988975 0.162961
O O11 0.275402 0.040921 0.385053
O O12 0.312751 0.138944 0.411589
O O13 0.000000 0.103044 0.250000
O O14 0.500000 0.063473 0.750000
O O15 0.263277 0.991991 0.600933
#
# Coordination Sequence:
#
# PCOD8130328 Si02
#       7
#     8   8   8   8   8   8   8
#     4  10  17  32  49  69  98 137 180 202 244 312
#     4   9  17  30  45  70 100 134 169 218 258 313
#     4  10  18  31  54  69 100 133 181 213 234 300
#     4  11  14  27  49  73  87 132 177 210 238 304
#     4  11  21  32  44  75 112 136 161 210 268 305
#     4  10  18  31  52  72  94 137 184 210 236 303
#     4   9  17  27  45  69  99 129 170 206 267 308
#
# _framework density 18.849091000000001
#
# number of rings (size 3 to 8) (size 9 to 14) (size 15 to 20)
#    0.000    2.000    7.143    0.857    0.000    0.571 
#    5.143    0.000    0.000    0.000    0.000    0.000 
#    8.571   42.286    0.000    0.000    0.000    0.000 
#
# Total GULP energy -347027.633486 kJ/mol
# GULP energy per Si atom -12393.844053 kJ/mol
# Density = 1.880619 g / cm^3
# Si number density = 18.849091 Si / 1000 Ang^3
#
#
#
# Elastic Constant Matrix: (Units=GPa)
#
#
# Indices 1 2 3 4 5 6 
#
# 1 97.9370 32.8854 33.0654 0.0000 -26.0522 0.0000
# 2 32.8854 102.1073 32.3776 0.0000 -19.3494 0.0000
# 3 33.0654 32.3776 45.6716 0.0000 -16.8982 0.0000
# 4 0.0000 0.0000 0.0000 28.0085 0.0000 -5.3684
# 5 -26.0522 -19.3494 -16.8982 0.0000 22.8074 0.0000
# 6 0.0000 0.0000 0.0000 -5.3684 0.0000 16.8911
#
#
#
# Elastic Compliance Matrix: (Units=1/GPa)
#
#
# Indices 1 2 3 4 5 6 
#
# 1 0.016046 -0.000696 -0.006283 0.000000 0.013083 0.000000
# 2 -0.000696 0.013210 -0.006900 0.000000 0.005299 0.000000
# 3 -0.006283 -0.006900 0.036528 0.000000 0.014033 0.000000
# 4 0.000000 0.000000 0.000000 0.038019 0.000000 0.012083
# 5 0.013083 0.005299 0.014033 0.000000 0.073683 0.000000
# 6 0.000000 0.000000 0.000000 0.012083 0.000000 0.063043
#
#
# Mechanical properties :
#
#
# Convention : Reuss Voigt Hill
#
# Bulk Modulus (GPa) = 26.29797 49.15253 37.72525
# Shear Modulus (GPa) = 17.79597 23.36725 20.58161
#
# Velocity S-wave (km/s) = 3.07600 3.52476 3.30800
# Velocity P-wave (km/s) = 5.15731 6.53443 5.88628
#
# Compressibility (1/GPa) = 0.03802575
#
# Stress axis : x y z
#
# Youngs Moduli (GPa) = 62.32157 75.69954 27.37648
#
# Poissons Ratio (x) = 0.05272 0.17199
# Poissons Ratio (y) = 0.04340 0.18890
# Poissons Ratio (z) = 0.39154 0.52232
#
# Static dielectric constant tensor:
#      x y z
#    x 3.325310 0.000000 -0.333330 
#    y 0.000000 3.464160 0.000000 
#    z -0.333330 0.000000 3.441890 
# 
# 
# High freq. dielectric constant tensor:
#      x y z
#    x 1.694420 0.000000 -0.027200 
#    y 0.000000 1.712820 0.000000 
#    z -0.027200 0.000000 1.723760 
# 
# From -- ./inp_files/148582.got.cif
#   From: 2010.06.25/outbox.cif.g09.slc.cpg/sg15_75_cif.got.tgz:148582.got - 2010.06.28 07:06:18.
