data_PCOD8130164
_publ_section_title
;
Structure prediction by ZEFSAII (Michael W. Deem and Ramdas Pophale) SiO2 
 PCOD8130164
Probable space group: C 2/C
;
_chemical_formula_sum "Si O2"
_cell_formula_units_Z 56
_cell_length_a 24.153342
_cell_length_b 13.224585
_cell_length_c 10.740496
_cell_angle_alpha 90.000000
_cell_angle_beta 104.708119
_cell_angle_gamma 90.000000
_cell_volume 3318.288795
_symmetry_space_group_name_H-M "C 2/C"
_symmetry_group_IT_number 15
_symmetry_cell_setting 'monoclinic'
loop_
_space_group_symop_operation_xyz
x,y,z
-x,y,1/2-z
-x,-y,-z
x,-y,1/2+z
1/2+x,1/2+y,z
1/2-x,1/2+y,1/2-z
1/2-x,1/2-y,-z
1/2+x,1/2-y,1/2+z
loop_
_atom_site_type_symbol
_atom_site_label
_atom_site_fract_x
_atom_site_fract_y
_atom_site_fract_z
Si Si1 0.436601 0.608638 0.725136
Si Si2 0.654508 0.603006 0.005448
Si Si3 0.238469 0.401778 0.335079
Si Si4 0.173259 0.795759 0.748300
Si Si5 0.866888 0.113426 0.919061
Si Si6 0.935177 0.130327 0.205730
Si Si7 0.263320 0.516985 0.105159
O O1 0.500000 0.653453 0.750000
O O2 0.404973 0.645556 0.581907
O O3 0.403571 0.653778 0.824440
O O4 0.437375 0.487788 0.737557
O O5 0.687102 0.685496 0.109213
O O6 0.641767 0.507843 0.088464
O O7 0.690646 0.569235 0.904780
O O8 0.190718 0.316213 0.296635
O O9 0.301081 0.346729 0.376615
O O10 0.231104 0.476973 0.210604
O O11 0.226008 0.464048 0.456999
O O12 0.104360 0.809558 0.718605
O O13 0.205188 0.877111 0.852672
O O14 0.903815 0.150888 0.056771
O O15 0.000000 0.173996 0.250000
#
# Coordination Sequence:
#
# PCOD8130164 Si02
#       7
#     8   8   8   8   8   8   8
#     4  10  18  27  45  66  98 145 167 187 242 300
#     4  10  17  30  48  66 108 131 166 207 238 289
#     4  11  22  34  57  72 104 137 170 213 262 297
#     4  12  20  33  53  77 100 142 171 203 256 305
#     4  10  17  32  43  67 101 136 167 199 245 294
#     4  10  20  28  45  70 100 132 170 206 235 299
#     4  11  19  38  48  75 107 134 170 218 246 301
#
# _framework density 16.876168
#
# number of rings (size 3 to 8) (size 9 to 14) (size 15 to 20)
#    0.000    1.429   10.000    0.429    2.000    2.286 
#    0.000    0.000    0.000    0.000    0.000    1.000 
#    0.000    0.000    0.000    0.000    0.000    0.000 
#
# Total GULP energy -346913.698208 kJ/mol
# GULP energy per Si atom -12389.774936 kJ/mol
# Density = 1.683776 g / cm^3
# Si number density = 16.876168 Si / 1000 Ang^3
#
#
#
# Elastic Constant Matrix: (Units=GPa)
#
#
# Indices 1 2 3 4 5 6 
#
# 1 42.4278 17.9868 27.6282 0.0000 -0.0811 0.0000
# 2 17.9868 39.3884 31.1411 0.0000 3.8125 0.0000
# 3 27.6282 31.1411 90.7040 0.0000 -1.6669 0.0000
# 4 0.0000 0.0000 0.0000 16.3845 0.0000 2.1627
# 5 -0.0811 3.8125 -1.6669 0.0000 22.4537 0.0000
# 6 0.0000 0.0000 0.0000 2.1627 0.0000 14.3611
#
#
#
# Elastic Compliance Matrix: (Units=1/GPa)
#
#
# Indices 1 2 3 4 5 6 
#
# 1 0.031787 -0.009612 -0.006359 0.000000 0.001275 0.000000
# 2 -0.009612 0.038827 -0.010539 0.000000 -0.007410 0.000000
# 3 -0.006359 -0.010539 0.016635 0.000000 0.003001 0.000000
# 4 0.000000 0.000000 0.000000 0.062271 0.000000 -0.009377
# 5 0.001275 -0.007410 0.003001 0.000000 0.046022 0.000000
# 6 0.000000 0.000000 0.000000 -0.009377 0.000000 0.071044
#
#
# Mechanical properties :
#
#
# Convention : Reuss Voigt Hill
#
# Bulk Modulus (GPa) = 29.21366 36.22582 32.71974
# Shear Modulus (GPa) = 15.10503 17.02414 16.06459
#
# Velocity S-wave (km/s) = 2.99499 3.17956 3.08865
# Velocity P-wave (km/s) = 5.41370 5.91538 5.67009
#
# Compressibility (1/GPa) = 0.03423056
#
# Stress axis : x y z
#
# Youngs Moduli (GPa) = 31.45894 25.75547 60.11352
#
# Poissons Ratio (x) = 0.24755 0.38226
# Poissons Ratio (y) = 0.30237 0.63352
# Poissons Ratio (z) = 0.20005 0.27143
#
# Static dielectric constant tensor:
#      x y z
#    x 3.130810 0.000000 -0.004050 
#    y 0.000000 2.560420 0.000000 
#    z -0.004050 0.000000 3.486780 
# 
# 
# High freq. dielectric constant tensor:
#      x y z
#    x 1.627630 0.000000 -0.010510 
#    y 0.000000 1.571540 0.000000 
#    z -0.010510 0.000000 1.679650 
# 
# From -- ./inp_files/112347.got.cif
#   From: 2010.06.25/outbox.cif.g09.slc.cpg/sg15_57_cif.got.tgz:112347.got - 2010.06.28 07:06:18.
