data_PCOD8130320
_publ_section_title
;
Structure prediction by ZEFSAII (Michael W. Deem and Ramdas Pophale) SiO2 
 PCOD8130320
Probable space group: C 2/C
;
_chemical_formula_sum "Si O2"
_cell_formula_units_Z 60
_cell_length_a 10.526315
_cell_length_b 17.051413
_cell_length_c 18.451253
_cell_angle_alpha 90.000000
_cell_angle_beta 64.291776
_cell_angle_gamma 90.000000
_cell_volume 2983.970381
_symmetry_space_group_name_H-M "C 2/C"
_symmetry_group_IT_number 15
_symmetry_cell_setting 'monoclinic'
loop_
_space_group_symop_operation_xyz
x,y,z
-x,y,1/2-z
-x,-y,-z
x,-y,1/2+z
1/2+x,1/2+y,z
1/2-x,1/2+y,1/2-z
1/2-x,1/2-y,-z
1/2+x,1/2-y,1/2+z
loop_
_atom_site_type_symbol
_atom_site_label
_atom_site_fract_x
_atom_site_fract_y
_atom_site_fract_z
Si Si1 0.509533 0.274680 0.163716
Si Si2 0.941963 0.365638 0.191602
Si Si3 0.803397 0.470361 0.426720
Si Si4 0.335509 0.416196 0.174412
Si Si5 0.527853 0.882520 0.588201
Si Si6 0.741939 0.972306 0.897816
Si Si7 0.696181 0.844016 0.412732
Si Si8 0.000000 0.988362 0.750000
O O1 0.500000 0.294511 0.250000
O O2 0.391345 0.326598 0.151676
O O3 0.479720 0.182865 0.157529
O O4 0.667517 0.294557 0.098388
O O5 0.818442 0.422782 0.251161
O O6 0.874176 0.310824 0.145251
O O7 0.000000 0.320203 0.250000
O O8 0.064465 0.415424 0.123975
O O9 0.675654 0.455604 0.402263
O O10 0.849054 0.561694 0.410787
O O11 0.745073 0.449561 0.521033
O O12 0.448694 0.460025 0.195204
O O13 0.400149 0.938058 0.599070
O O14 0.582398 0.835845 0.504288
O O15 0.872777 0.937968 0.817474
O O16 0.738572 0.065812 0.888438
#
# Coordination Sequence:
#
# PCOD8130320 Si02
#       8
#     8   8   8   8   8   8   8   4
#     4  12  23  38  59  89 123 158 194 248 300 353
#     4  10  17  31  65  91 107 149 218 240 274 351
#     4  10  21  37  64  94 114 153 206 254 291 352
#     4  11  20  37  61  87 118 159 206 237 287 370
#     4  11  23  38  62  93 123 148 194 262 306 336
#     4  11  20  38  63  88 122 158 200 249 300 356
#     4  11  18  40  63  86 117 164 206 234 292 373
#     4  12  20  36  64  84 118 166 210 232 302 364
#
# _framework density 20.107437999999998
#
# number of rings (size 3 to 8) (size 9 to 14) (size 15 to 20)
#    0.000    1.067    7.333    1.200    0.000    3.200 
#    0.000    0.667    7.333    0.000    0.000    0.000 
#    0.000    0.000    0.000    0.000    0.000    0.000 
#
# Total GULP energy -371856.163329 kJ/mol
# GULP energy per Si atom -12395.205444 kJ/mol
# Density = 2.006167 g / cm^3
# Si number density = 20.107438 Si / 1000 Ang^3
#
#
#
# Elastic Constant Matrix: (Units=GPa)
#
#
# Indices 1 2 3 4 5 6 
#
# 1 103.6526 29.0386 42.6401 0.0000 21.4883 0.0000
# 2 29.0386 63.2013 25.4635 0.0000 12.9796 0.0000
# 3 42.6401 25.4635 95.3546 0.0000 0.0107 0.0000
# 4 0.0000 0.0000 0.0000 19.9242 0.0000 1.0540
# 5 21.4883 12.9796 0.0107 0.0000 43.7235 0.0000
# 6 0.0000 0.0000 0.0000 1.0540 0.0000 14.4749
#
#
#
# Elastic Compliance Matrix: (Units=1/GPa)
#
#
# Indices 1 2 3 4 5 6 
#
# 1 0.013965 -0.002996 -0.005444 0.000000 -0.005972 0.000000
# 2 -0.002996 0.019672 -0.003913 0.000000 -0.004366 0.000000
# 3 -0.005444 -0.003913 0.013966 0.000000 0.003834 0.000000
# 4 0.000000 0.000000 0.000000 0.050384 0.000000 -0.003669
# 5 -0.005972 -0.004366 0.003834 0.000000 0.027101 0.000000
# 6 0.000000 0.000000 0.000000 -0.003669 0.000000 0.069352
#
#
# Mechanical properties :
#
#
# Convention : Reuss Voigt Hill
#
# Bulk Modulus (GPa) = 43.67432 50.72142 47.19787
# Shear Modulus (GPa) = 22.04789 26.62894 24.33841
#
# Velocity S-wave (km/s) = 3.31494 3.64309 3.48288
# Velocity P-wave (km/s) = 6.03485 6.55561 6.30061
#
# Compressibility (1/GPa) = 0.02289675
#
# Stress axis : x y z
#
# Youngs Moduli (GPa) = 71.60963 50.83261 71.60279
#
# Poissons Ratio (x) = 0.15232 0.38979
# Poissons Ratio (y) = 0.21458 0.28017
# Poissons Ratio (z) = 0.38983 0.19890
#
# Static dielectric constant tensor:
#      x y z
#    x 3.946950 0.000000 0.159830 
#    y 0.000000 3.155270 0.000000 
#    z 0.159830 0.000000 3.979190 
# 
# 
# High freq. dielectric constant tensor:
#      x y z
#    x 1.795890 0.000000 0.002630 
#    y 0.000000 1.726230 0.000000 
#    z 0.002630 0.000000 1.801050 
# 
# From -- ./inp_files/199512.got.cif
#   From: 2010.06.25/outbox.cif.g09.slc.cpg/sg15_100_cif.got.tgz:199512.got - 2010.06.28 07:06:18.
