data_PCOD8130004
_publ_section_title
;
Structure prediction by ZEFSAII (Michael W. Deem and Ramdas Pophale) SiO2 
 PCOD8130004
Probable space group: C 2/C
;
_chemical_formula_sum "Si O2"
_cell_formula_units_Z 60
_cell_length_a 31.637826
_cell_length_b 16.861732
_cell_length_c 12.953121
_cell_angle_alpha 90.000000
_cell_angle_beta 155.323811
_cell_angle_gamma 90.000000
_cell_volume 2884.886784
_symmetry_space_group_name_H-M "C 2/C"
_symmetry_group_IT_number 15
_symmetry_cell_setting 'monoclinic'
loop_
_space_group_symop_operation_xyz
x,y,z
-x,y,1/2-z
-x,-y,-z
x,-y,1/2+z
1/2+x,1/2+y,z
1/2-x,1/2+y,1/2-z
1/2-x,1/2-y,-z
1/2+x,1/2-y,1/2+z
loop_
_atom_site_type_symbol
_atom_site_label
_atom_site_fract_x
_atom_site_fract_y
_atom_site_fract_z
Si Si1 0.000000 0.146855 0.250000
Si Si2 0.864202 0.371869 0.038574
Si Si3 0.778655 0.482717 0.464308
Si Si4 0.674793 0.275393 0.920920
Si Si5 0.310273 0.573586 0.926046
Si Si6 0.597264 0.877431 0.609645
Si Si7 0.609712 0.541453 0.744486
Si Si8 0.052053 0.213531 0.574591
O O1 0.079597 0.089940 0.374010
O O2 0.046676 0.204004 0.439065
O O3 0.827798 0.283851 0.987509
O O4 0.979675 0.388707 0.325810
O O5 0.801347 0.429605 0.973957
O O6 0.845104 0.380432 0.873148
O O7 0.774480 0.429147 0.351026
O O8 0.861374 0.449309 0.728133
O O9 0.666506 0.482263 0.264812
O O10 0.559850 0.281973 0.622493
O O11 0.750000 0.250000 0.000000
O O12 0.719436 0.358998 0.058273
O O13 0.321339 0.489106 0.008148
O O14 0.613736 0.796784 0.715661
O O15 0.500000 0.500000 0.500000
O O16 0.606970 0.637596 0.747633
#
# Coordination Sequence:
#
# PCOD8130004 Si02
#       8
#     4   8   8   8   8   8   8   8
#     4  10  16  36  58  86 118 166 202 240 308 374
#     4  10  22  40  66  93 121 166 216 263 309 378
#     4  12  24  39  62  95 125 166 210 260 319 369
#     4  10  20  37  63  88 125 165 212 254 319 372
#     4  11  21  37  57  89 124 160 206 255 311 377
#     4  10  22  43  65  92 125 164 216 261 313 374
#     4  12  22  37  63  92 129 163 206 257 314 376
#     4  10  20  37  65  90 124 166 207 256 312 374
#
# _framework density 20.798044000000001
#
# number of rings (size 3 to 8) (size 9 to 14) (size 15 to 20)
#    0.000    1.333    4.000    4.400    0.000    0.533 
#    2.400    1.333    0.000    0.000    0.000    0.000 
#    0.000    0.000    0.000    0.000    0.000    0.000 
#
# Total GULP energy -371796.212338 kJ/mol
# GULP energy per Si atom -12393.207078 kJ/mol
# Density = 2.075071 g / cm^3
# Si number density = 20.798044 Si / 1000 Ang^3
#
#
#
# Elastic Constant Matrix: (Units=GPa)
#
#
# Indices 1 2 3 4 5 6 
#
# 1 116.3427 32.2241 35.5049 0.0000 7.0048 0.0000
# 2 32.2241 96.5150 30.5024 0.0000 6.2110 0.0000
# 3 35.5049 30.5024 57.5842 0.0000 -14.0947 0.0000
# 4 0.0000 0.0000 0.0000 29.3937 0.0000 -3.3058
# 5 7.0048 6.2110 -14.0947 0.0000 29.4852 0.0000
# 6 0.0000 0.0000 0.0000 -3.3058 0.0000 32.2786
#
#
#
# Elastic Compliance Matrix: (Units=1/GPa)
#
#
# Indices 1 2 3 4 5 6 
#
# 1 0.011817 -0.000835 -0.008480 0.000000 -0.006685 0.000000
# 2 -0.000835 0.013725 -0.008397 0.000000 -0.006707 0.000000
# 3 -0.008480 -0.008397 0.031674 0.000000 0.018924 0.000000
# 4 0.000000 0.000000 0.000000 0.034417 0.000000 0.003525
# 5 -0.006685 -0.006707 0.018924 0.000000 0.045963 0.000000
# 6 0.000000 0.000000 0.000000 0.003525 0.000000 0.031341
#
#
# Mechanical properties :
#
#
# Convention : Reuss Voigt Hill
#
# Bulk Modulus (GPa) = 45.88730 51.87831 48.88281
# Shear Modulus (GPa) = 23.62661 29.71222 26.66941
#
# Velocity S-wave (km/s) = 3.37412 3.78379 3.58481
# Velocity P-wave (km/s) = 6.10661 6.63984 6.37880
#
# Compressibility (1/GPa) = 0.02179252
#
# Stress axis : x y z
#
# Youngs Moduli (GPa) = 84.62404 72.85824 31.57137
#
# Poissons Ratio (x) = 0.06086 0.26772
# Poissons Ratio (y) = 0.07068 0.26510
# Poissons Ratio (z) = 0.71760 0.61178
#
# Static dielectric constant tensor:
#      x y z
#    x 3.950330 0.000000 -0.068960 
#    y 0.000000 4.031030 0.000000 
#    z -0.068960 0.000000 3.812100 
# 
# 
# High freq. dielectric constant tensor:
#      x y z
#    x 1.818690 0.000000 0.003720 
#    y 0.000000 1.822980 0.000000 
#    z 0.003720 0.000000 1.789750 
# 
# From -- ./inp_files/127241.got.cif
#   From: 2010.06.25/outbox.cif.g09.slc.cpg/sg15_64_cif.got.tgz:127241.got - 2010.06.28 07:06:18.
