data_PCOD8130449
_publ_section_title
;
Structure prediction by ZEFSAII (Michael W. Deem and Ramdas Pophale) SiO2 
 PCOD8130449
Probable space group: C 2/C
;
_chemical_formula_sum "Si O2"
_cell_formula_units_Z 48
_cell_length_a 15.549710
_cell_length_b 9.200916
_cell_length_c 19.025888
_cell_angle_alpha 90.000000
_cell_angle_beta 107.061464
_cell_angle_gamma 90.000000
_cell_volume 2602.267281
_symmetry_space_group_name_H-M "C 2/C"
_symmetry_group_IT_number 15
_symmetry_cell_setting 'monoclinic'
loop_
_space_group_symop_operation_xyz
x,y,z
-x,y,1/2-z
-x,-y,-z
x,-y,1/2+z
1/2+x,1/2+y,z
1/2-x,1/2+y,1/2-z
1/2-x,1/2-y,-z
1/2+x,1/2-y,1/2+z
loop_
_atom_site_type_symbol
_atom_site_label
_atom_site_fract_x
_atom_site_fract_y
_atom_site_fract_z
Si Si1 0.089177 0.597333 0.302840
Si Si2 0.031942 0.082143 0.831263
Si Si3 0.839641 0.950156 0.336173
Si Si4 0.294668 0.407492 0.591239
Si Si5 0.713473 0.925905 0.429736
Si Si6 0.265224 0.846522 0.773410
O O1 0.070480 0.759126 0.324928
O O2 0.128801 0.513227 0.379033
O O3 0.153801 0.587653 0.251559
O O4 0.000000 0.522425 0.250000
O O5 0.000000 0.011002 0.750000
O O6 0.945239 0.090116 0.862093
O O7 0.109783 0.987480 0.884344
O O8 0.804765 0.958629 0.407672
O O9 0.778341 0.826969 0.282142
O O10 0.824338 0.103229 0.291100
O O11 0.315782 0.241091 0.578596
O O12 0.233591 0.475955 0.514458
O O13 0.239339 0.419895 0.650526
#
# Coordination Sequence:
#
# PCOD8130449 Si02
#       6
#     8   8   8   8   8   8
#     4  10  19  35  57  80 104 133 180 226 257 301
#     4  11  19  34  57  83 103 132 182 222 259 299
#     4  10  19  34  55  79 104 138 175 218 257 309
#     4  10  20  36  55  75 112 142 173 211 264 322
#     4   9  22  37  53  77 110 144 171 210 270 314
#     4  10  17  33  55  77 103 139 173 213 261 309
#
# _framework density 18.445454999999999
#
# number of rings (size 3 to 8) (size 9 to 14) (size 15 to 20)
#    0.000    2.000    5.000    0.000    0.000    2.000 
#    3.000    0.833    0.000    0.000    0.000    0.000 
#    0.000    0.000    0.000    0.000    0.000    0.000 
#
# Total GULP energy -297441.796392 kJ/mol
# GULP energy per Si atom -12393.408183 kJ/mol
# Density = 1.840347 g / cm^3
# Si number density = 18.445455 Si / 1000 Ang^3
#
#
#
# Elastic Constant Matrix: (Units=GPa)
#
#
# Indices 1 2 3 4 5 6 
#
# 1 106.5393 39.6336 51.6168 0.0000 11.8822 0.0000
# 2 39.6336 58.5059 43.7698 0.0000 13.1723 0.0000
# 3 51.6168 43.7698 122.1693 0.0000 16.9161 0.0000
# 4 0.0000 0.0000 0.0000 26.2598 0.0000 6.6765
# 5 11.8822 13.1723 16.9161 0.0000 26.5701 0.0000
# 6 0.0000 0.0000 0.0000 6.6765 0.0000 24.6618
#
#
#
# Elastic Compliance Matrix: (Units=1/GPa)
#
#
# Indices 1 2 3 4 5 6 
#
# 1 0.013472 -0.006532 -0.003253 0.000000 -0.000716 0.000000
# 2 -0.006532 0.027715 -0.006220 0.000000 -0.006859 0.000000
# 3 -0.003253 -0.006220 0.012239 0.000000 -0.003254 0.000000
# 4 0.000000 0.000000 0.000000 0.040896 0.000000 -0.011071
# 5 -0.000716 -0.006859 -0.003254 0.000000 0.043428 0.000000
# 6 0.000000 0.000000 0.000000 -0.011071 0.000000 0.043546
#
#
# Mechanical properties :
#
#
# Convention : Reuss Voigt Hill
#
# Bulk Modulus (GPa) = 46.69348 61.91722 54.30535
# Shear Modulus (GPa) = 22.68172 25.64463 24.16317
#
# Velocity S-wave (km/s) = 3.51046 3.73271 3.62329
# Velocity P-wave (km/s) = 6.46533 7.22621 6.85633
#
# Compressibility (1/GPa) = 0.02141627
#
# Stress axis : x y z
#
# Youngs Moduli (GPa) = 74.22971 36.08210 81.70880
#
# Poissons Ratio (x) = 0.23567 0.26577
# Poissons Ratio (y) = 0.48484 0.50823
# Poissons Ratio (z) = 0.24144 0.22443
#
# Static dielectric constant tensor:
#      x y z
#    x 3.480330 0.000000 -0.038320 
#    y 0.000000 3.357710 0.000000 
#    z -0.038320 0.000000 3.540760 
# 
# 
# High freq. dielectric constant tensor:
#      x y z
#    x 1.715370 0.000000 -0.008290 
#    y 0.000000 1.702760 0.000000 
#    z -0.008290 0.000000 1.708450 
# 
# From -- ./inp_files/203635.got.cif
#   From: 2010.06.25/outbox.cif.g09.slc.cpg/sg15_102_cif.got.tgz:203635.got - 2010.06.28 07:06:18.
