data_PCOD8130492
_publ_section_title
;
Structure prediction by ZEFSAII (Michael W. Deem and Ramdas Pophale) SiO2 
 PCOD8130492
Probable space group: C 2/C
;
_chemical_formula_sum "Si O2"
_cell_formula_units_Z 64
_cell_length_a 23.733230
_cell_length_b 8.918298
_cell_length_c 14.755021
_cell_angle_alpha 90.000000
_cell_angle_beta 99.005408
_cell_angle_gamma 90.000000
_cell_volume 3084.551975
_symmetry_space_group_name_H-M "C 2/C"
_symmetry_group_IT_number 15
_symmetry_cell_setting 'monoclinic'
loop_
_space_group_symop_operation_xyz
x,y,z
-x,y,1/2-z
-x,-y,-z
x,-y,1/2+z
1/2+x,1/2+y,z
1/2-x,1/2+y,1/2-z
1/2-x,1/2-y,-z
1/2+x,1/2-y,1/2+z
loop_
_atom_site_type_symbol
_atom_site_label
_atom_site_fract_x
_atom_site_fract_y
_atom_site_fract_z
Si Si1 0.765229 0.536234 0.651222
Si Si2 0.524193 0.348596 0.845076
Si Si3 0.366195 0.491124 0.172632
Si Si4 0.745907 0.127574 0.180863
Si Si5 0.458640 0.139701 0.487728
Si Si6 0.156577 0.979725 0.023432
Si Si7 0.935307 0.895429 0.355109
Si Si8 0.832212 0.366377 0.002448
O O1 0.745355 0.694138 0.687875
O O2 0.787070 0.430897 0.737876
O O3 0.710408 0.455102 0.591227
O O4 0.816400 0.558789 0.593750
O O5 0.500000 0.263663 0.750000
O O6 0.590741 0.374072 0.842321
O O7 0.490683 0.505635 0.848983
O O8 0.515758 0.250928 0.931311
O O9 0.309182 0.559109 0.200646
O O10 0.395767 0.382013 0.254555
O O11 0.354168 0.417545 0.069642
O O12 0.711336 0.071741 0.084353
O O13 0.455725 0.229330 0.390999
O O14 0.395783 0.081194 0.495521
O O15 0.500000 0.000000 0.500000
O O16 0.100431 0.971425 0.071840
O O17 0.174467 0.813292 0.992534
#
# Coordination Sequence:
#
# PCOD8130492 Si02
#       8
#     8   8   8   8   8   8   8   8
#     4  11  20  37  62  89 125 163 205 251 315 374
#     4  10  21  38  65  92 119 161 216 265 309 366
#     4  11  18  35  64  98 119 154 211 262 310 363
#     4  11  21  36  63  95 120 162 208 258 306 377
#     4  11  23  44  64  85 128 169 206 253 316 377
#     4  10  17  33  65  89 119 159 204 252 310 366
#     4  10  21  36  65  96 117 154 219 264 305 363
#     4  10  20  40  62  86 121 171 205 240 315 392
#
# _framework density 20.748556000000001
#
# number of rings (size 3 to 8) (size 9 to 14) (size 15 to 20)
#    0.000    1.500    6.250    1.125    0.000    0.000 
#    6.750    3.750    2.750    0.000    0.000    0.000 
#    0.000    0.000    0.000    0.000    0.000    0.000 
#
# Total GULP energy -396676.242130 kJ/mol
# GULP energy per Si atom -12396.132567 kJ/mol
# Density = 2.070133 g / cm^3
# Si number density = 20.748556 Si / 1000 Ang^3
#
#
#
# Elastic Constant Matrix: (Units=GPa)
#
#
# Indices 1 2 3 4 5 6 
#
# 1 105.9899 37.7119 39.2844 0.0000 4.8414 0.0000
# 2 37.7119 61.8634 56.5759 0.0000 6.5214 0.0000
# 3 39.2844 56.5759 168.5306 0.0000 -1.1792 0.0000
# 4 0.0000 0.0000 0.0000 25.4580 0.0000 3.5254
# 5 4.8414 6.5214 -1.1792 0.0000 25.3097 0.0000
# 6 0.0000 0.0000 0.0000 3.5254 0.0000 21.7994
#
#
#
# Elastic Compliance Matrix: (Units=1/GPa)
#
#
# Indices 1 2 3 4 5 6 
#
# 1 0.012085 -0.006820 -0.000532 0.000000 -0.000579 0.000000
# 2 -0.006820 0.028251 -0.007939 0.000000 -0.006345 0.000000
# 3 -0.000532 -0.007939 0.008740 0.000000 0.002554 0.000000
# 4 0.000000 0.000000 0.000000 0.040180 0.000000 -0.006498
# 5 -0.000579 -0.006345 0.002554 0.000000 0.041375 0.000000
# 6 0.000000 0.000000 0.000000 -0.006498 0.000000 0.046924
#
#
# Mechanical properties :
#
#
# Convention : Reuss Voigt Hill
#
# Bulk Modulus (GPa) = 54.06475 67.05869 60.56172
# Shear Modulus (GPa) = 23.33177 28.03420 25.68299
#
# Velocity S-wave (km/s) = 3.35700 3.67977 3.52208
# Velocity P-wave (km/s) = 6.41401 7.10241 6.76697
#
# Compressibility (1/GPa) = 0.01849634
#
# Stress axis : x y z
#
# Youngs Moduli (GPa) = 82.74825 35.39730 114.41094
#
# Poissons Ratio (x) = 0.24140 0.06083
# Poissons Ratio (y) = 0.56431 0.90826
# Poissons Ratio (z) = 0.04400 0.28100
#
# Static dielectric constant tensor:
#      x y z
#    x 3.847980 0.000000 0.164880 
#    y 0.000000 3.247680 0.000000 
#    z 0.164880 0.000000 4.381170 
# 
# 
# High freq. dielectric constant tensor:
#      x y z
#    x 1.823320 0.000000 0.004480 
#    y 0.000000 1.743680 0.000000 
#    z 0.004480 0.000000 1.839620 
# 
# From -- ./inp_files/176618.got.cif
#   From: 2010.06.25/outbox.cif.g09.slc.cpg/sg15_89_cif.got.tgz:176618.got - 2010.06.28 07:06:18.
