data_PCOD8130346
_publ_section_title
;
Structure prediction by ZEFSAII (Michael W. Deem and Ramdas Pophale) SiO2 
 PCOD8130346
Probable space group: C 2/C
;
_chemical_formula_sum "Si O2"
_cell_formula_units_Z 52
_cell_length_a 9.985801
_cell_length_b 16.999284
_cell_length_c 21.668853
_cell_angle_alpha 90.000000
_cell_angle_beta 50.836302
_cell_angle_gamma 90.000000
_cell_volume 2851.965893
_symmetry_space_group_name_H-M "C 2/C"
_symmetry_group_IT_number 15
_symmetry_cell_setting 'monoclinic'
loop_
_space_group_symop_operation_xyz
x,y,z
-x,y,1/2-z
-x,-y,-z
x,-y,1/2+z
1/2+x,1/2+y,z
1/2-x,1/2+y,1/2-z
1/2-x,1/2-y,-z
1/2+x,1/2-y,1/2+z
loop_
_atom_site_type_symbol
_atom_site_label
_atom_site_fract_x
_atom_site_fract_y
_atom_site_fract_z
Si Si1 0.000000 0.023538 0.750000
Si Si2 0.086258 0.859302 0.323762
Si Si3 0.185147 0.082856 0.930693
Si Si4 0.716531 0.939291 0.765909
Si Si5 0.463438 0.193462 0.332297
Si Si6 0.852002 0.091497 0.094137
Si Si7 0.051530 0.602134 0.801032
O O1 0.028968 0.077745 0.680678
O O2 0.834938 0.967105 0.788458
O O3 0.123860 0.891078 0.380585
O O4 0.270699 0.852728 0.231453
O O5 0.985026 0.777563 0.358559
O O6 0.378255 0.114851 0.892910
O O7 0.193866 0.988417 0.928601
O O8 0.050316 0.114737 0.020684
O O9 0.588530 0.009137 0.783473
O O10 0.603239 0.865749 0.821320
O O11 0.833780 0.916246 0.672960
O O12 0.500000 0.203446 0.250000
O O13 0.271195 0.159825 0.397539
O O14 0.000000 0.636344 0.750000
#
# Coordination Sequence:
#
# PCOD8130346 Si02
#       7
#     4   8   8   8   8   8   8
#     4  10  18  32  48  76 100 130 164 214 254 300
#     4  10  19  31  53  77 101 131 168 213 260 296
#     4  10  18  31  53  78 102 138 171 208 253 311
#     4  10  17  32  52  73 102 130 171 216 248 294
#     4  10  19  32  52  79  99 131 173 218 252 291
#     4  10  18  30  54  77 103 133 176 209 252 302
#     4   9  14  30  50  72  96 127 171 209 239 296
#
# _framework density 18.233036999999999
#
# number of rings (size 3 to 8) (size 9 to 14) (size 15 to 20)
#    0.000    2.154    6.923    0.462    0.000    0.615 
#    4.154    0.000    0.000   12.000    0.000    0.000 
#    0.000    0.000    0.000    0.000    0.000    0.000 
#
# Total GULP energy -322124.469370 kJ/mol
# GULP energy per Si atom -12389.402668 kJ/mol
# Density = 1.819154 g / cm^3
# Si number density = 18.233037 Si / 1000 Ang^3
#
#
#
# Elastic Constant Matrix: (Units=GPa)
#
#
# Indices 1 2 3 4 5 6 
#
# 1 86.7327 31.7690 34.8230 0.0003 -15.1512 -0.0001
# 2 31.7690 83.8904 14.6955 0.0002 -10.5056 -0.0001
# 3 34.8230 14.6955 102.1833 0.0004 -33.7245 -0.0002
# 4 0.0003 0.0002 0.0004 14.1094 -0.0003 -7.9145
# 5 -15.1512 -10.5056 -33.7245 -0.0003 27.6493 0.0002
# 6 -0.0001 -0.0001 -0.0002 -7.9145 0.0002 28.3071
#
#
#
# Elastic Compliance Matrix: (Units=1/GPa)
#
#
# Indices 1 2 3 4 5 6 
#
# 1 0.015173 -0.004848 -0.003912 0.000000 0.001701 0.000000
# 2 -0.004848 0.014074 0.000864 0.000000 0.003745 0.000000
# 3 -0.003912 0.000864 0.017401 0.000000 0.019409 0.000000
# 4 0.000000 0.000000 0.000000 0.084058 0.000001 0.023502
# 5 0.001701 0.003745 0.019409 0.000001 0.062195 0.000000
# 6 0.000000 0.000000 0.000000 0.023502 0.000000 0.041898
#
#
# Mechanical properties :
#
#
# Convention : Reuss Voigt Hill
#
# Bulk Modulus (GPa) = 32.40897 48.37571 40.39234
# Shear Modulus (GPa) = 19.16609 26.78108 22.97359
#
# Velocity S-wave (km/s) = 3.24570 3.83668 3.55350
# Velocity P-wave (km/s) = 5.64442 6.79826 6.24803
#
# Compressibility (1/GPa) = 0.03085566
#
# Stress axis : x y z
#
# Youngs Moduli (GPa) = 65.90545 71.05428 57.46770
#
# Poissons Ratio (x) = 0.34445 0.22484
# Poissons Ratio (y) = 0.31949 -0.04965
# Poissons Ratio (z) = 0.25785 -0.06139
#
# Static dielectric constant tensor:
#      x y z
#    x 3.361150 0.000000 -0.397660 
#    y 0.000000 3.345190 0.000000 
#    z -0.397660 0.000000 3.362140 
# 
# 
# High freq. dielectric constant tensor:
#      x y z
#    x 1.697130 0.000000 -0.026960 
#    y 0.000000 1.689520 0.000000 
#    z -0.026960 0.000000 1.678040 
# 
# From -- ./inp_files/233021.got.cif
#   From: 2010.06.25/outbox.cif.g09.slc.cpg/sg15_117_cif.got.tgz:233021.got - 2010.06.28 07:06:18.
