data_PCOD8130039
_publ_section_title
;
Structure prediction by ZEFSAII (Michael W. Deem and Ramdas Pophale) SiO2 
 PCOD8130039
Probable space group: C 2/C
;
_chemical_formula_sum "Si O2"
_cell_formula_units_Z 32
_cell_length_a 8.014471
_cell_length_b 34.375743
_cell_length_c 5.263825
_cell_angle_alpha 90.000000
_cell_angle_beta 92.245039
_cell_angle_gamma 90.000000
_cell_volume 1449.088532
_symmetry_space_group_name_H-M "C 2/C"
_symmetry_group_IT_number 15
_symmetry_cell_setting 'monoclinic'
loop_
_space_group_symop_operation_xyz
x,y,z
-x,y,1/2-z
-x,-y,-z
x,-y,1/2+z
1/2+x,1/2+y,z
1/2-x,1/2+y,1/2-z
1/2-x,1/2-y,-z
1/2+x,1/2-y,1/2+z
loop_
_atom_site_type_symbol
_atom_site_label
_atom_site_fract_x
_atom_site_fract_y
_atom_site_fract_z
Si Si1 0.804060 0.772745 0.750431
Si Si2 0.310633 0.896293 0.262540
Si Si3 0.813319 0.515120 0.923201
Si Si4 0.806713 0.359614 0.758115
O O1 0.750000 0.750000 0.500000
O O2 0.711316 0.813639 0.728964
O O3 0.000000 0.779723 0.750000
O O4 0.750000 0.750000 0.000000
O O5 0.500000 0.881321 0.250000
O O6 0.305343 0.942141 0.306792
O O7 0.219729 0.875160 0.494285
O O8 0.223451 0.882022 0.994856
O O9 0.725257 0.488656 0.695543
O O10 0.000000 0.500000 0.000000
O O11 0.000000 0.371635 0.750000
#
# Coordination Sequence:
#
# PCOD8130039 Si02
#       4
#     8   8   8   8
#     4  12  25  44  69  94 124 162 212 260 315 386
#     4  10  18  29  46  73 113 158 187 242 298 366
#     4  10  17  24  41  66 107 155 195 233 299 356
#     4  10  21  34  53  81 117 154 193 242 314 359
#
# _framework density 22.082847000000001
#
# number of rings (size 3 to 8) (size 9 to 14) (size 15 to 20)
#    0.000    1.500    2.500    5.250    7.000    2.000 
#    0.000    0.000    0.000    0.000    0.000    0.000 
#    0.000   20.000    0.000    0.000    0.000    0.000 
#
# Total GULP energy -198223.001331 kJ/mol
# GULP energy per Si atom -12388.937583 kJ/mol
# Density = 2.203259 g / cm^3
# Si number density = 22.082847 Si / 1000 Ang^3
#
#
#
# Elastic Constant Matrix: (Units=GPa)
#
#
# Indices 1 2 3 4 5 6 
#
# 1 23.4596 -11.0341 7.2656 0.0000 -1.6983 0.0000
# 2 -11.0341 166.0330 102.6179 0.0000 -0.9976 0.0000
# 3 7.2656 102.6179 284.8220 0.0000 -4.1296 0.0000
# 4 0.0000 0.0000 0.0000 55.1916 0.0000 1.4740
# 5 -1.6983 -0.9976 -4.1296 0.0000 12.1557 0.0000
# 6 0.0000 0.0000 0.0000 1.4740 0.0000 16.8203
#
#
#
# Elastic Compliance Matrix: (Units=1/GPa)
#
#
# Indices 1 2 3 4 5 6 
#
# 1 0.046224 0.004867 -0.002847 0.000000 0.005890 0.000000
# 2 0.004867 0.008262 -0.003096 0.000000 0.000306 0.000000
# 3 -0.002847 -0.003096 0.004713 0.000000 0.000949 0.000000
# 4 0.000000 0.000000 0.000000 0.018161 0.000000 -0.001591
# 5 0.005890 0.000306 0.000949 0.000000 0.083436 0.000000
# 6 0.000000 0.000000 0.000000 -0.001591 0.000000 0.059592
#
#
# Mechanical properties :
#
#
# Convention : Reuss Voigt Hill
#
# Bulk Modulus (GPa) = 17.52983 74.66815 46.09899
# Shear Modulus (GPa) = 20.69910 41.86453 31.28182
#
# Velocity S-wave (km/s) = 3.06492 4.35880 3.76781
# Velocity P-wave (km/s) = 4.52553 7.69534 6.31263
#
# Compressibility (1/GPa) = 0.05704562
#
# Stress axis : x y z
#
# Youngs Moduli (GPa) = 21.63383 121.03695 212.18118
#
# Poissons Ratio (x) = -0.58910 0.60414
# Poissons Ratio (y) = -0.10529 0.65700
# Poissons Ratio (z) = 0.06160 0.37478
#
# Static dielectric constant tensor:
#      x y z
#    x 3.385350 0.000000 -0.128420 
#    y 0.000000 3.920310 0.000000 
#    z -0.128420 0.000000 10.405350 
# 
# 
# High freq. dielectric constant tensor:
#      x y z
#    x 1.794340 0.000000 -0.004910 
#    y 0.000000 1.875910 0.000000 
#    z -0.004910 0.000000 1.918150 
# 
# From -- ./inp_files/2383.got.cif
#   From: 2010.06.25/outbox.cif.g09.slc.cpg/sg15_2_cif.got.tgz:2383.got - 2010.06.28 07:06:18.
