data_PCOD8130631
_publ_section_title
;
Structure prediction by ZEFSAII (Michael W. Deem and Ramdas Pophale) SiO2 
 PCOD8130631
Probable space group: C 2/C
;
_chemical_formula_sum "Si O2"
_cell_formula_units_Z 56
_cell_length_a 21.699051
_cell_length_b 9.223853
_cell_length_c 16.875452
_cell_angle_alpha 90.000000
_cell_angle_beta 58.503688
_cell_angle_gamma 90.000000
_cell_volume 2879.993075
_symmetry_space_group_name_H-M "C 2/C"
_symmetry_group_IT_number 15
_symmetry_cell_setting 'monoclinic'
loop_
_space_group_symop_operation_xyz
x,y,z
-x,y,1/2-z
-x,-y,-z
x,-y,1/2+z
1/2+x,1/2+y,z
1/2-x,1/2+y,1/2-z
1/2-x,1/2-y,-z
1/2+x,1/2-y,1/2+z
loop_
_atom_site_type_symbol
_atom_site_label
_atom_site_fract_x
_atom_site_fract_y
_atom_site_fract_z
Si Si1 0.947758 0.823850 0.900473
Si Si2 0.532537 0.843390 0.970484
Si Si3 0.585970 0.374661 0.008869
Si Si4 0.805383 0.957132 0.699471
Si Si5 0.094319 0.886984 0.732312
Si Si6 0.336102 0.215321 0.226078
Si Si7 0.579627 0.705987 0.687820
O O1 0.889502 0.824312 0.867184
O O2 0.028289 0.797338 0.813522
O O3 0.950556 0.972359 0.948303
O O4 0.927670 0.693860 0.973138
O O5 0.469828 0.726140 0.999730
O O6 0.590369 0.837826 0.862789
O O7 0.500000 0.000000 0.000000
O O8 0.607293 0.299690 0.078411
O O9 0.655078 0.402555 0.906674
O O10 0.837171 0.877218 0.756102
O O11 0.722842 0.908587 0.748414
O O12 0.809887 0.130528 0.707955
O O13 0.068090 0.051471 0.738231
O O14 0.356083 0.217034 0.306146
O O15 0.500000 0.782013 0.750000
#
# Coordination Sequence:
#
# PCOD8130631 Si02
#       7
#     8   8   8   8   8   8   8
#     4  10  17  35  63  91 111 153 208 250 307 353
#     4  12  24  37  61  95 125 156 212 262 306 356
#     4  11  19  37  68  87 116 162 210 255 301 376
#     4  11  23  39  62  91 126 169 205 245 319 380
#     4   9  17  32  63  93 115 150 204 255 293 378
#     4  11  25  41  62  90 131 167 200 257 312 374
#     4  10  17  35  64  96 117 148 215 266 297 351
#
# _framework density 19.444489999999998
#
# number of rings (size 3 to 8) (size 9 to 14) (size 15 to 20)
#    0.000    1.429    7.143    1.286    2.000    0.571 
#    0.000    5.000    0.000    0.000    0.000    0.000 
#    0.000    0.000    0.000    0.000    0.000    0.000 
#
# Total GULP energy -347054.795384 kJ/mol
# GULP energy per Si atom -12394.814121 kJ/mol
# Density = 1.940023 g / cm^3
# Si number density = 19.444490 Si / 1000 Ang^3
#
#
#
# Elastic Constant Matrix: (Units=GPa)
#
#
# Indices 1 2 3 4 5 6 
#
# 1 98.0441 37.8307 22.3284 0.0000 18.2338 0.0000
# 2 37.8307 76.9709 37.9347 -0.0002 7.5777 0.0002
# 3 22.3284 37.9347 67.7491 0.0000 20.3290 0.0000
# 4 0.0000 -0.0002 0.0000 15.0805 0.0000 -8.1507
# 5 18.2338 7.5777 20.3290 0.0000 37.0100 0.0000
# 6 0.0000 0.0002 0.0000 -8.1507 0.0000 26.8924
#
#
#
# Elastic Compliance Matrix: (Units=1/GPa)
#
#
# Indices 1 2 3 4 5 6 
#
# 1 0.013618 -0.006591 0.000971 0.000000 -0.005893 0.000000
# 2 -0.006591 0.021286 -0.011271 0.000000 0.005080 0.000000
# 3 0.000971 -0.011271 0.024189 0.000000 -0.011457 0.000000
# 4 0.000000 0.000000 0.000000 0.079301 0.000000 0.024035
# 5 -0.005893 0.005080 -0.011457 0.000000 0.035176 0.000000
# 6 0.000000 0.000000 0.000000 0.024035 0.000000 0.044470
#
#
# Mechanical properties :
#
#
# Convention : Reuss Voigt Hill
#
# Bulk Modulus (GPa) = 39.50933 48.77244 44.14088
# Shear Modulus (GPa) = 19.21165 25.44126 22.32645
#
# Velocity S-wave (km/s) = 3.14670 3.62111 3.39221
# Velocity P-wave (km/s) = 5.79357 6.52845 6.17195
#
# Compressibility (1/GPa) = 0.02531048
#
# Stress axis : x y z
#
# Youngs Moduli (GPa) = 73.43457 46.97912 41.34100
#
# Poissons Ratio (x) = 0.30965 -0.04013
# Poissons Ratio (y) = 0.48403 0.46594
# Poissons Ratio (z) = -0.07129 0.52948
#
# Static dielectric constant tensor:
#      x y z
#    x 3.716980 0.000000 0.533480 
#    y 0.000000 3.282640 0.000000 
#    z 0.533480 0.000000 3.797840 
# 
# 
# High freq. dielectric constant tensor:
#      x y z
#    x 1.751520 0.000000 0.029680 
#    y 0.000000 1.723770 0.000000 
#    z 0.029680 0.000000 1.760190 
# 
# From -- ./inp_files/213788.got.cif
#   From: 2010.06.25/outbox.cif.g09.slc.cpg/sg15_107_cif.got.tgz:213788.got - 2010.06.28 07:06:18.
