data_PCOD8130350
_publ_section_title
;
Structure prediction by ZEFSAII (Michael W. Deem and Ramdas Pophale) SiO2 
 PCOD8130350
Probable space group: C 2/C
;
_chemical_formula_sum "Si O2"
_cell_formula_units_Z 64
_cell_length_a 16.532693
_cell_length_b 11.884656
_cell_length_c 19.251820
_cell_angle_alpha 90.000000
_cell_angle_beta 106.997114
_cell_angle_gamma 90.000000
_cell_volume 3617.470619
_symmetry_space_group_name_H-M "C 2/C"
_symmetry_group_IT_number 15
_symmetry_cell_setting 'monoclinic'
loop_
_space_group_symop_operation_xyz
x,y,z
-x,y,1/2-z
-x,-y,-z
x,-y,1/2+z
1/2+x,1/2+y,z
1/2-x,1/2+y,1/2-z
1/2-x,1/2-y,-z
1/2+x,1/2-y,1/2+z
loop_
_atom_site_type_symbol
_atom_site_label
_atom_site_fract_x
_atom_site_fract_y
_atom_site_fract_z
Si Si1 0.382751 0.671540 0.345915
Si Si2 0.236258 0.983679 0.163140
Si Si3 0.786933 0.236926 0.184006
Si Si4 0.829036 0.632606 0.080474
Si Si5 0.008049 0.521465 0.334676
Si Si6 0.958036 0.726118 0.665388
Si Si7 0.211959 0.325793 0.084133
Si Si8 0.820364 0.527664 0.325713
O O1 0.356052 0.539725 0.344452
O O2 0.329096 0.731816 0.270879
O O3 0.483824 0.684135 0.361805
O O4 0.359214 0.736077 0.410596
O O5 0.274133 0.033942 0.102071
O O6 0.300959 0.017750 0.239677
O O7 0.231330 0.849336 0.159223
O O8 0.862389 0.228804 0.146208
O O9 0.721985 0.137858 0.152436
O O10 0.800318 0.756804 0.099654
O O11 0.927631 0.617020 0.122711
O O12 0.815088 0.619834 0.995059
O O13 0.921202 0.538273 0.355241
O O14 0.000000 0.533178 0.250000
O O15 0.042447 0.398816 0.367158
O O16 0.000000 0.711109 0.750000
O O17 0.219632 0.423281 0.142990
#
# Coordination Sequence:
#
# PCOD8130350 Si02
#       8
#     8   8   8   8   8   8   8   8
#     4   9  17  29  52  74 102 136 181 219 255 314
#     4  10  17  32  52  76 102 143 177 213 269 318
#     4  10  18  30  52  79 105 134 174 224 272 307
#     4  10  21  34  55  76 110 145 176 216 265 321
#     4  11  18  31  53  82 105 132 177 229 267 298
#     4   9  15  29  48  75 102 131 172 218 260 306
#     4  10  20  36  51  79 108 143 181 214 263 322
#     4  11  20  32  54  81 109 135 176 228 263 311
#
# _framework density 17.69192
#
# number of rings (size 3 to 8) (size 9 to 14) (size 15 to 20)
#    0.000    2.000    5.000    0.750    0.000    0.500 
#    0.000    1.875    0.000    1.500    0.000    5.250 
#    0.000    0.000    0.000    0.000    0.000    0.000 
#
# Total GULP energy -396647.793722 kJ/mol
# GULP energy per Si atom -12395.243554 kJ/mol
# Density = 1.765165 g / cm^3
# Si number density = 17.691920 Si / 1000 Ang^3
#
#
#
# Elastic Constant Matrix: (Units=GPa)
#
#
# Indices 1 2 3 4 5 6 
#
# 1 119.2555 56.4477 19.9567 0.0000 -19.3601 0.0000
# 2 56.4477 96.3593 10.6239 0.0000 -10.9163 0.0000
# 3 19.9567 10.6239 41.2884 0.0000 -14.0468 0.0000
# 4 0.0000 0.0000 0.0000 13.7039 0.0000 -8.2769
# 5 -19.3601 -10.9163 -14.0468 0.0000 17.3179 0.0000
# 6 0.0000 0.0000 0.0000 -8.2769 0.0000 29.9578
#
#
#
# Elastic Compliance Matrix: (Units=1/GPa)
#
#
# Indices 1 2 3 4 5 6 
#
# 1 0.013271 -0.006532 -0.001502 0.000000 0.009500 0.000000
# 2 -0.006532 0.014404 0.000077 0.000000 0.001839 0.000000
# 3 -0.001502 0.000077 0.033660 0.000000 0.025672 0.000000
# 4 0.000000 0.000000 0.000000 0.087588 0.000000 0.024199
# 5 0.009500 0.001839 0.025672 0.000000 0.090347 0.000000
# 6 0.000000 0.000000 0.000000 0.024199 0.000000 0.040066
#
#
# Mechanical properties :
#
#
# Convention : Reuss Voigt Hill
#
# Bulk Modulus (GPa) = 22.01629 47.88444 34.95036
# Shear Modulus (GPa) = 16.10877 23.52091 19.81484
#
# Velocity S-wave (km/s) = 3.02075 3.65015 3.35026
# Velocity P-wave (km/s) = 4.96365 6.69994 5.89606
#
# Compressibility (1/GPa) = 0.04542092
#
# Stress axis : x y z
#
# Youngs Moduli (GPa) = 75.35286 69.42316 29.70914
#
# Poissons Ratio (x) = 0.45350 0.04461
# Poissons Ratio (y) = 0.49223 -0.00228
# Poissons Ratio (z) = 0.11314 -0.00533
#
# Static dielectric constant tensor:
#      x y z
#    x 3.385040 0.000000 -0.293830 
#    y 0.000000 3.299380 0.000000 
#    z -0.293830 0.000000 3.068430 
# 
# 
# High freq. dielectric constant tensor:
#      x y z
#    x 1.677240 0.000000 -0.028510 
#    y 0.000000 1.677380 0.000000 
#    z -0.028510 0.000000 1.656040 
# 
# From -- ./inp_files/210312.got.cif
#   From: 2010.06.25/outbox.cif.g09.slc.cpg/sg15_106_cif.got.tgz:210312.got - 2010.06.28 07:06:18.
