data_PCOD8130749
_publ_section_title
;
Structure prediction by ZEFSAII (Michael W. Deem and Ramdas Pophale) SiO2 
 PCOD8130749
Probable space group: C 2/C
;
_chemical_formula_sum "Si O2"
_cell_formula_units_Z 64
_cell_length_a 18.955605
_cell_length_b 14.853151
_cell_length_c 16.337812
_cell_angle_alpha 90.000000
_cell_angle_beta 62.692320
_cell_angle_gamma 90.000000
_cell_volume 4087.284052
_symmetry_space_group_name_H-M "C 2/C"
_symmetry_group_IT_number 15
_symmetry_cell_setting 'monoclinic'
loop_
_space_group_symop_operation_xyz
x,y,z
-x,y,1/2-z
-x,-y,-z
x,-y,1/2+z
1/2+x,1/2+y,z
1/2-x,1/2+y,1/2-z
1/2-x,1/2-y,-z
1/2+x,1/2-y,1/2+z
loop_
_atom_site_type_symbol
_atom_site_label
_atom_site_fract_x
_atom_site_fract_y
_atom_site_fract_z
Si Si1 0.665847 0.863974 0.320980
Si Si2 0.688402 0.964624 0.713254
Si Si3 0.556741 0.931577 0.517004
Si Si4 0.763749 0.185794 0.416434
Si Si5 0.332349 0.944708 0.437322
Si Si6 0.049851 0.658414 0.301249
Si Si7 0.908369 0.714592 0.798671
Si Si8 0.791059 0.719319 0.232396
O O1 0.612996 0.873562 0.429059
O O2 0.610880 0.822874 0.280230
O O3 0.740060 0.798694 0.299771
O O4 0.699994 0.960995 0.277135
O O5 0.594944 0.936078 0.756587
O O6 0.739406 0.876929 0.713572
O O7 0.714352 0.006016 0.612066
O O8 0.506474 0.856977 0.591493
O O9 0.500000 0.000000 0.500000
O O10 0.609374 0.985473 0.552721
O O11 0.750000 0.250000 0.500000
O O12 0.734090 0.087313 0.461040
O O13 0.857316 0.194145 0.343556
O O14 0.714173 0.218675 0.363556
O O15 0.385673 0.861428 0.377181
O O16 0.000000 0.692966 0.250000
O O17 0.116380 0.732749 0.291296
O O18 0.000000 0.741200 0.750000
#
# Coordination Sequence:
#
# PCOD8130749 Si02
#       8
#     8   8   8   8   8   8   8   8
#     4  10  19  30  47  75 101 135 171 205 264 315
#     4   9  18  32  48  67 103 135 167 203 266 301
#     4  12  18  25  47  76  97 119 164 210 258 307
#     4   9  17  30  44  70 100 131 169 214 258 315
#     4  10  18  27  45  69  98 129 162 206 260 315
#     4  10  19  33  47  71 106 139 162 209 263 303
#     4   9  18  28  44  65  99 132 163 207 267 310
#     4   9  19  34  47  70 110 139 167 210 263 314
#
# _framework density 15.65832
#
# number of rings (size 3 to 8) (size 9 to 14) (size 15 to 20)
#    0.750    1.500    2.500    3.000    1.750    1.000 
#    0.000    2.500    0.000    0.000    0.000   17.500 
#    0.000    0.000    0.000    0.000    0.000    0.000 
#
# Total GULP energy -396544.269010 kJ/mol
# GULP energy per Si atom -12392.008407 kJ/mol
# Density = 1.562268 g / cm^3
# Si number density = 15.658320 Si / 1000 Ang^3
#
#
#
# Elastic Constant Matrix: (Units=GPa)
#
#
# Indices 1 2 3 4 5 6 
#
# 1 99.2873 41.5947 46.9100 0.0000 -6.9781 0.0000
# 2 41.5947 53.5964 30.1427 0.0000 -10.7011 0.0000
# 3 46.9100 30.1427 100.4015 0.0000 -2.4611 0.0000
# 4 0.0000 0.0000 0.0000 28.5386 0.0000 -4.1929
# 5 -6.9781 -10.7011 -2.4611 0.0000 20.6404 0.0000
# 6 0.0000 0.0000 0.0000 -4.1929 0.0000 31.3744
#
#
#
# Elastic Compliance Matrix: (Units=1/GPa)
#
#
# Indices 1 2 3 4 5 6 
#
# 1 0.016563 -0.010295 -0.004655 0.000000 -0.000293 0.000000
# 2 -0.010295 0.031572 -0.004365 0.000000 0.012368 0.000000
# 3 -0.004655 -0.004365 0.013391 0.000000 -0.002241 0.000000
# 4 0.000000 0.000000 0.000000 0.035742 0.000000 0.004777
# 5 -0.000293 0.012368 -0.002241 0.000000 0.054495 0.000000
# 6 0.000000 0.000000 0.000000 0.004777 0.000000 0.032511
#
#
# Mechanical properties :
#
#
# Convention : Reuss Voigt Hill
#
# Bulk Modulus (GPa) = 43.67744 54.50889 49.09316
# Shear Modulus (GPa) = 21.68848 25.08654 23.38751
#
# Velocity S-wave (km/s) = 3.72574 4.00699 3.86893
# Velocity P-wave (km/s) = 6.81637 7.50300 7.16791
#
# Compressibility (1/GPa) = 0.02289512
#
# Stress axis : x y z
#
# Youngs Moduli (GPa) = 60.37371 31.67369 74.67828
#
# Poissons Ratio (x) = 0.32607 0.34765
# Poissons Ratio (y) = 0.62153 0.32601
# Poissons Ratio (z) = 0.28106 0.13827
#
# Static dielectric constant tensor:
#      x y z
#    x 2.904130 0.000000 0.022040 
#    y 0.000000 2.986980 0.000000 
#    z 0.022040 0.000000 3.069720 
# 
# 
# High freq. dielectric constant tensor:
#      x y z
#    x 1.587320 0.000000 0.014360 
#    y 0.000000 1.570010 0.000000 
#    z 0.014360 0.000000 1.608650 
# 
# From -- ./inp_files/210967.got.cif
#   From: 2010.06.25/outbox.cif.g09.slc.cpg/sg15_106_cif.got.tgz:210967.got - 2010.06.28 07:06:18.
