data_PCOD8130606
_publ_section_title
;
Structure prediction by ZEFSAII (Michael W. Deem and Ramdas Pophale) SiO2 
 PCOD8130606
Probable space group: C 2/C
;
_chemical_formula_sum "Si O2"
_cell_formula_units_Z 60
_cell_length_a 18.269933
_cell_length_b 12.514993
_cell_length_c 15.704438
_cell_angle_alpha 90.000000
_cell_angle_beta 66.781919
_cell_angle_gamma 90.000000
_cell_volume 3299.975104
_symmetry_space_group_name_H-M "C 2/C"
_symmetry_group_IT_number 15
_symmetry_cell_setting 'monoclinic'
loop_
_space_group_symop_operation_xyz
x,y,z
-x,y,1/2-z
-x,-y,-z
x,-y,1/2+z
1/2+x,1/2+y,z
1/2-x,1/2+y,1/2-z
1/2-x,1/2-y,-z
1/2+x,1/2-y,1/2+z
loop_
_atom_site_type_symbol
_atom_site_label
_atom_site_fract_x
_atom_site_fract_y
_atom_site_fract_z
Si Si1 0.857346 0.282224 0.291365
Si Si2 0.230175 0.040541 0.899571
Si Si3 0.445613 0.067043 0.418722
Si Si4 0.108024 0.600241 0.425388
Si Si5 0.247821 0.868476 0.767285
Si Si6 0.659220 0.717774 0.024224
Si Si7 0.298750 0.833757 0.922924
Si Si8 0.000000 0.586627 0.750000
O O1 0.794247 0.372160 0.343890
O O2 0.822652 0.205717 0.234893
O O3 0.881090 0.212486 0.364315
O O4 0.937882 0.341067 0.224073
O O5 0.205911 0.975637 0.824817
O O6 0.265363 0.955308 0.951865
O O7 0.156334 0.102671 0.977644
O O8 0.531785 0.117111 0.399479
O O9 0.389958 0.165177 0.413435
O O10 0.404893 0.011446 0.519526
O O11 0.450934 0.983027 0.339378
O O12 0.188928 0.597929 0.333569
O O13 0.112186 0.697241 0.489209
O O14 0.292698 0.806347 0.824496
O O15 0.750000 0.750000 0.000000
O O16 0.250000 0.750000 0.000000
#
# Coordination Sequence:
#
# PCOD8130606 Si02
#       8
#     8   8   8   8   8   8   8   4
#     4  11  20  36  61  88 118 154 200 248 301 352
#     4   9  19  37  56  84 115 155 199 244 285 351
#     4  11  22  35  59  92 124 149 191 252 317 345
#     4  11  20  34  59  94 117 154 195 249 304 355
#     4  10  22  34  57  92 113 162 201 238 290 358
#     4  10  17  35  58  82 119 156 200 242 293 359
#     4  10  22  40  55  84 125 159 193 242 299 354
#     4  12  20  38  60  86 128 146 192 266 300 340
#
# _framework density 18.181954000000001
#
# number of rings (size 3 to 8) (size 9 to 14) (size 15 to 20)
#    0.800    0.800    5.333    2.400    0.000    3.200 
#    0.000    0.000    0.000    3.200    0.000    0.000 
#    0.000    0.000    0.000    0.000    0.000    0.000 
#
# Total GULP energy -371730.724157 kJ/mol
# GULP energy per Si atom -12391.024139 kJ/mol
# Density = 1.814057 g / cm^3
# Si number density = 18.181954 Si / 1000 Ang^3
#
#
#
# Elastic Constant Matrix: (Units=GPa)
#
#
# Indices 1 2 3 4 5 6 
#
# 1 101.1294 41.2013 25.9204 0.0000 15.2624 0.0000
# 2 41.2013 85.1598 28.1081 0.0000 5.4164 0.0000
# 3 25.9204 28.1081 77.4503 0.0000 10.8021 0.0000
# 4 0.0000 0.0000 0.0000 40.1917 0.0000 2.3416
# 5 15.2624 5.4164 10.8021 0.0000 26.1021 0.0000
# 6 0.0000 0.0000 0.0000 2.3416 0.0000 40.9198
#
#
#
# Elastic Compliance Matrix: (Units=1/GPa)
#
#
# Indices 1 2 3 4 5 6 
#
# 1 0.013508 -0.005609 -0.001641 0.000000 -0.006055 0.000000
# 2 -0.005609 0.015686 -0.004053 0.000000 0.001702 0.000000
# 3 -0.001641 -0.004053 0.015580 0.000000 -0.004647 0.000000
# 4 0.000000 0.000000 0.000000 0.024964 0.000000 -0.001429
# 5 -0.006055 0.001702 -0.004647 0.000000 0.043422 0.000000
# 6 0.000000 0.000000 0.000000 -0.001429 0.000000 0.024520
#
#
# Mechanical properties :
#
#
# Convention : Reuss Voigt Hill
#
# Bulk Modulus (GPa) = 45.10865 50.46657 47.78761
# Shear Modulus (GPa) = 29.82008 32.67670 31.24839
#
# Velocity S-wave (km/s) = 4.05420 4.24394 4.15016
# Velocity P-wave (km/s) = 6.83950 7.19940 7.02176
#
# Compressibility (1/GPa) = 0.02216870
#
# Stress axis : x y z
#
# Youngs Moduli (GPa) = 74.03187 63.75283 64.18647
#
# Poissons Ratio (x) = 0.35756 0.10531
# Poissons Ratio (y) = 0.41521 0.26014
# Poissons Ratio (z) = 0.12146 0.25838
#
# Static dielectric constant tensor:
#      x y z
#    x 3.333270 0.000000 0.160130 
#    y 0.000000 3.468990 0.000000 
#    z 0.160130 0.000000 3.704010 
# 
# 
# High freq. dielectric constant tensor:
#      x y z
#    x 1.689240 0.000000 0.016190 
#    y 0.000000 1.682530 0.000000 
#    z 0.016190 0.000000 1.705710 
# 
# From -- ./inp_files/210273.got.cif
#   From: 2010.06.25/outbox.cif.g09.slc.cpg/sg15_106_cif.got.tgz:210273.got - 2010.06.28 07:06:18.
