data_PCOD8130417
_publ_section_title
;
Structure prediction by ZEFSAII (Michael W. Deem and Ramdas Pophale) SiO2 
 PCOD8130417
Probable space group: C 2/C
;
_chemical_formula_sum "Si O2"
_cell_formula_units_Z 44
_cell_length_a 10.002697
_cell_length_b 17.232575
_cell_length_c 19.607091
_cell_angle_alpha 90.000000
_cell_angle_beta 42.469773
_cell_angle_gamma 90.000000
_cell_volume 2281.989448
_symmetry_space_group_name_H-M "C 2/C"
_symmetry_group_IT_number 15
_symmetry_cell_setting 'monoclinic'
loop_
_space_group_symop_operation_xyz
x,y,z
-x,y,1/2-z
-x,-y,-z
x,-y,1/2+z
1/2+x,1/2+y,z
1/2-x,1/2+y,1/2-z
1/2-x,1/2-y,-z
1/2+x,1/2-y,1/2+z
loop_
_atom_site_type_symbol
_atom_site_label
_atom_site_fract_x
_atom_site_fract_y
_atom_site_fract_z
Si Si1 0.845041 0.511707 0.209236
Si Si2 0.015465 0.901349 0.324528
Si Si3 0.672884 0.016138 0.487641
Si Si4 0.716493 0.633813 0.154389
Si Si5 0.500000 0.125036 0.250000
Si Si6 0.540893 0.231968 0.109683
O O1 0.719548 0.436722 0.275628
O O2 0.725995 0.555237 0.194367
O O3 0.838563 0.568139 0.277192
O O4 0.067840 0.485792 0.101864
O O5 0.046521 0.812773 0.333349
O O6 0.000000 0.908077 0.250000
O O7 0.830398 0.945715 0.428608
O O8 0.761780 0.101589 0.432542
O O9 0.500000 0.000000 0.500000
O O10 0.500000 0.672226 0.250000
O O11 0.891938 0.692464 0.110778
O O12 0.587126 0.177224 0.156723
O O13 0.750000 0.250000 0.000000
#
# Coordination Sequence:
#
# PCOD8130417 Si02
#       6
#     8   8   8   8   4   8
#     4  10  20  35  60  86 114 154 192 246 295 344
#     4  12  19  35  60  89 112 148 203 240 281 356
#     4  10  17  32  59  91 108 142 205 243 280 353
#     4  10  18  36  60  85 118 152 196 248 296 343
#     4  10  22  40  58  84 130 148 188 244 304 344
#     4  11  24  38  61  88 121 160 195 242 303 354
#
# _framework density 19.281421999999999
#
# number of rings (size 3 to 8) (size 9 to 14) (size 15 to 20)
#    0.000    1.455    6.364    3.273    0.000    0.000 
#    1.636    3.636    0.000    3.273    0.000    0.000 
#    0.000    0.000    0.000    0.000    0.000    0.000 
#
# Total GULP energy -272560.728142 kJ/mol
# GULP energy per Si atom -12389.124006 kJ/mol
# Density = 1.923754 g / cm^3
# Si number density = 19.281422 Si / 1000 Ang^3
#
#
#
# Elastic Constant Matrix: (Units=GPa)
#
#
# Indices 1 2 3 4 5 6 
#
# 1 51.2327 51.4736 39.9181 -0.0002 2.5744 -0.0003
# 2 51.4736 133.6520 52.3277 0.0014 -3.0177 0.0004
# 3 39.9181 52.3277 113.1556 0.0064 -15.5074 0.0003
# 4 -0.0002 0.0014 0.0064 24.2561 0.0006 -8.2705
# 5 2.5744 -3.0177 -15.5074 0.0006 22.4153 0.0011
# 6 -0.0003 0.0004 0.0003 -8.2705 0.0011 29.0984
#
#
#
# Elastic Compliance Matrix: (Units=1/GPa)
#
#
# Indices 1 2 3 4 5 6 
#
# 1 0.040158 -0.011599 -0.010660 0.000005 -0.013548 0.000003
# 2 -0.011599 0.012558 -0.001438 -0.000001 0.002028 -0.000001
# 3 -0.010660 -0.001438 0.014808 -0.000005 0.011275 -0.000002
# 4 0.000005 -0.000001 -0.000005 0.045651 -0.000006 0.012975
# 5 -0.013548 0.002028 0.011275 -0.000006 0.054242 -0.000004
# 6 0.000003 -0.000001 -0.000002 0.012975 -0.000004 0.038054
#
#
# Mechanical properties :
#
#
# Convention : Reuss Voigt Hill
#
# Bulk Modulus (GPa) = 49.67227 65.05324 57.36276
# Shear Modulus (GPa) = 19.26237 25.44200 22.35219
#
# Velocity S-wave (km/s) = 3.16414 3.63644 3.40848
# Velocity P-wave (km/s) = 6.25833 7.17243 6.73091
#
# Compressibility (1/GPa) = 0.02013196
#
# Stress axis : x y z
#
# Youngs Moduli (GPa) = 24.90142 79.63211 67.53159
#
# Poissons Ratio (x) = 0.92362 0.71987
# Poissons Ratio (y) = 0.28882 0.09708
# Poissons Ratio (z) = 0.26544 0.11448
#
# Static dielectric constant tensor:
#      x y z
#    x 3.542830 0.000040 0.431520 
#    y 0.000040 3.925190 0.000060 
#    z 0.431520 0.000060 4.411920 
# 
# 
# High freq. dielectric constant tensor:
#      x y z
#    x 1.718790 0.000000 -0.004960 
#    y 0.000000 1.747180 0.000000 
#    z -0.004960 0.000000 1.756800 
# 
# From -- ./inp_files/270311.got.cif
#   From: 2010.06.25/outbox.cif.g09.slc.cpg/sg15_136_cif.got.tgz:270311.got - 2010.06.28 07:06:18.
