data_PCOD8130585
_publ_section_title
;
Structure prediction by ZEFSAII (Michael W. Deem and Ramdas Pophale) SiO2 
 PCOD8130585
Probable space group: C 2/C
;
_chemical_formula_sum "Si O2"
_cell_formula_units_Z 52
_cell_length_a 22.756264
_cell_length_b 8.696814
_cell_length_c 20.791256
_cell_angle_alpha 90.000000
_cell_angle_beta 42.588496
_cell_angle_gamma 90.000000
_cell_volume 2784.557050
_symmetry_space_group_name_H-M "C 2/C"
_symmetry_group_IT_number 15
_symmetry_cell_setting 'monoclinic'
loop_
_space_group_symop_operation_xyz
x,y,z
-x,y,1/2-z
-x,-y,-z
x,-y,1/2+z
1/2+x,1/2+y,z
1/2-x,1/2+y,1/2-z
1/2-x,1/2-y,-z
1/2+x,1/2-y,1/2+z
loop_
_atom_site_type_symbol
_atom_site_label
_atom_site_fract_x
_atom_site_fract_y
_atom_site_fract_z
Si Si1 0.143188 0.943604 0.681131
Si Si2 0.496695 0.606469 0.109910
Si Si3 0.839268 0.502710 0.526576
Si Si4 0.528555 0.733422 0.587946
Si Si5 0.000000 0.838001 0.250000
Si Si6 0.583085 0.186928 0.645789
Si Si7 0.548983 0.157661 0.467146
O O1 0.147557 0.775347 0.643460
O O2 0.101242 0.927739 0.786185
O O3 0.236632 0.022368 0.612536
O O4 0.085106 0.055751 0.684205
O O5 0.546978 0.445472 0.057698
O O6 0.547864 0.687812 0.125247
O O7 0.493103 0.712306 0.049721
O O8 0.886872 0.666067 0.499838
O O9 0.865831 0.444262 0.433989
O O10 0.863508 0.378073 0.563227
O O11 0.505213 0.765018 0.681399
O O12 0.444345 0.782211 0.611862
O O13 0.500000 0.113961 0.750000
O O14 0.500000 0.000000 0.500000
#
# Coordination Sequence:
#
# PCOD8130585 Si02
#       7
#     8   8   8   8   4   8   8
#     4  10  17  35  54  78 112 144 185 231 278 351
#     4   9  17  34  58  73 105 153 183 216 293 345
#     4  10  21  30  55  82 110 139 190 240 274 326
#     4  10  19  35  55  79 109 147 190 229 282 344
#     4  10  20  36  56  82 110 152 186 226 296 338
#     4   9  16  32  52  77 108 142 178 224 287 342
#     4   9  19  36  55  82 108 144 189 233 280 342
#
# _framework density 18.674424999999999
#
# number of rings (size 3 to 8) (size 9 to 14) (size 15 to 20)
#    0.000    2.462    3.846    0.923    1.077    0.615 
#    0.000    6.154    0.000    0.000    0.000    0.000 
#    0.000    0.000    0.000    0.000    0.000    0.000 
#
# Total GULP energy -322091.452476 kJ/mol
# GULP energy per Si atom -12388.132788 kJ/mol
# Density = 1.863192 g / cm^3
# Si number density = 18.674425 Si / 1000 Ang^3
#
#
#
# Elastic Constant Matrix: (Units=GPa)
#
#
# Indices 1 2 3 4 5 6 
#
# 1 100.1593 31.0171 60.1634 -0.0018 8.2132 0.0024
# 2 31.0171 92.5416 46.6727 -0.0042 0.7272 0.0063
# 3 60.1634 46.6727 88.6894 -0.0004 -2.4771 0.0010
# 4 -0.0018 -0.0042 -0.0004 26.9178 0.0014 8.0221
# 5 8.2132 0.7272 -2.4771 0.0014 38.1852 -0.0015
# 6 0.0024 0.0063 0.0010 8.0221 -0.0015 22.3930
#
#
#
# Elastic Compliance Matrix: (Units=1/GPa)
#
#
# Indices 1 2 3 4 5 6 
#
# 1 0.017618 0.000304 -0.012240 0.000002 -0.004589 -0.000002
# 2 0.000304 0.014739 -0.007987 0.000004 -0.000864 -0.000005
# 3 -0.012240 -0.007987 0.023902 -0.000003 0.004335 0.000004
# 4 0.000002 0.000004 -0.000003 0.041591 -0.000003 -0.014900
# 5 -0.004589 -0.000864 0.004335 -0.000003 0.027473 0.000003
# 6 -0.000002 -0.000005 0.000004 -0.014900 0.000003 0.049994
#
#
# Mechanical properties :
#
#
# Convention : Reuss Voigt Hill
#
# Bulk Modulus (GPa) = 60.92100 61.89962 61.41031
# Shear Modulus (GPa) = 22.66195 27.06834 24.86515
#
# Velocity S-wave (km/s) = 3.48735 3.81134 3.65294
# Velocity P-wave (km/s) = 6.99350 7.25170 7.12377
#
# Compressibility (1/GPa) = 0.01641470
#
# Stress axis : x y z
#
# Youngs Moduli (GPa) = 56.75867 67.84781 41.83691
#
# Poissons Ratio (x) = -0.02062 0.51208
# Poissons Ratio (y) = -0.01725 0.33414
# Poissons Ratio (z) = 0.69471 0.54188
#
# Static dielectric constant tensor:
#      x y z
#    x 3.797420 0.000010 0.529040 
#    y 0.000010 3.636370 0.000000 
#    z 0.529040 0.000000 3.501610 
# 
# 
# High freq. dielectric constant tensor:
#      x y z
#    x 1.719990 0.000000 0.027720 
#    y 0.000000 1.727560 0.000000 
#    z 0.027720 0.000000 1.693640 
# 
# From -- ./inp_files/176129.got.cif
#   From: 2010.06.25/outbox.cif.g09.slc.cpg/sg15_89_cif.got.tgz:176129.got - 2010.06.28 07:06:18.
