data_PCOD8130656
_publ_section_title
;
Structure prediction by ZEFSAII (Michael W. Deem and Ramdas Pophale) SiO2 
 PCOD8130656
Probable space group: C 2/C
;
_chemical_formula_sum "Si O2"
_cell_formula_units_Z 48
_cell_length_a 15.964478
_cell_length_b 9.402245
_cell_length_c 22.977800
_cell_angle_alpha 90.000000
_cell_angle_beta 131.143249
_cell_angle_gamma 90.000000
_cell_volume 2597.337159
_symmetry_space_group_name_H-M "C 2/C"
_symmetry_group_IT_number 15
_symmetry_cell_setting 'monoclinic'
loop_
_space_group_symop_operation_xyz
x,y,z
-x,y,1/2-z
-x,-y,-z
x,-y,1/2+z
1/2+x,1/2+y,z
1/2-x,1/2+y,1/2-z
1/2-x,1/2-y,-z
1/2+x,1/2-y,1/2+z
loop_
_atom_site_type_symbol
_atom_site_label
_atom_site_fract_x
_atom_site_fract_y
_atom_site_fract_z
Si Si1 0.309142 0.516059 0.321528
Si Si2 0.160799 0.686836 0.165545
Si Si3 0.036358 0.083745 0.458716
Si Si4 0.098526 0.641798 0.443485
Si Si5 0.591097 0.895694 0.515437
Si Si6 0.783095 0.114176 0.440367
O O1 0.234381 0.585547 0.238418
O O2 0.294674 0.347079 0.310124
O O3 0.438914 0.552555 0.367528
O O4 0.270951 0.579534 0.366557
O O5 0.178902 0.638908 0.106685
O O6 0.032318 0.667923 0.126316
O O7 0.038814 0.251140 0.468103
O O8 0.000000 0.000000 0.500000
O O9 0.157656 0.019177 0.498331
O O10 0.137158 0.483972 0.481914
O O11 0.137263 0.751073 0.511304
O O12 0.162445 0.655175 0.411208
O O13 0.500000 0.000000 0.500000
#
# Coordination Sequence:
#
# PCOD8130656 Si02
#       6
#     8   8   8   8   8   8
#     4  11  22  35  59  83 116 150 188 236 287 335
#     4  11  22  36  56  87 114 149 190 236 284 344
#     4  10  17  36  58  80 109 147 189 239 278 325
#     4  10  22  37  61  86 112 148 198 234 287 341
#     4  10  19  34  58  85 110 140 198 239 271 334
#     4  10  20  40  60  82 113 154 188 241 286 336
#
# _framework density 18.480466
#
# number of rings (size 3 to 8) (size 9 to 14) (size 15 to 20)
#    0.000    1.667    5.000    3.000    7.000    1.333 
#    0.000    0.000    0.000    1.000    0.000    0.000 
#    0.000    0.000    0.000    0.000    0.000    0.000 
#
# Total GULP energy -297337.088979 kJ/mol
# GULP energy per Si atom -12389.045374 kJ/mol
# Density = 1.843840 g / cm^3
# Si number density = 18.480466 Si / 1000 Ang^3
#
#
#
# Elastic Constant Matrix: (Units=GPa)
#
#
# Indices 1 2 3 4 5 6 
#
# 1 42.7261 3.5067 13.0524 0.0000 7.7189 0.0000
# 2 3.5067 154.0539 44.9881 0.0000 2.6450 0.0000
# 3 13.0524 44.9881 111.9471 0.0000 14.6111 0.0000
# 4 0.0000 0.0000 0.0000 40.0161 0.0000 3.9173
# 5 7.7189 2.6450 14.6111 0.0000 20.1080 0.0000
# 6 0.0000 0.0000 0.0000 3.9173 0.0000 21.9346
#
#
#
# Elastic Compliance Matrix: (Units=1/GPa)
#
#
# Indices 1 2 3 4 5 6 
#
# 1 0.025502 0.000127 -0.001927 0.000000 -0.008406 0.000000
# 2 0.000127 0.007386 -0.003148 0.000000 0.001268 0.000000
# 3 -0.001927 -0.003148 0.011348 0.000000 -0.007092 0.000000
# 4 0.000000 0.000000 0.000000 0.025435 0.000000 -0.004542
# 5 -0.008406 0.001268 -0.007092 0.000000 0.057945 0.000000
# 6 0.000000 0.000000 0.000000 -0.004542 0.000000 0.046401
#
#
# Mechanical properties :
#
#
# Convention : Reuss Voigt Hill
#
# Bulk Modulus (GPa) = 29.12197 47.98014 38.55105
# Shear Modulus (GPa) = 25.59364 32.89039 29.24202
#
# Velocity S-wave (km/s) = 3.72546 4.22327 3.98215
# Velocity P-wave (km/s) = 5.85644 7.05694 6.48453
#
# Compressibility (1/GPa) = 0.03433833
#
# Stress axis : x y z
#
# Youngs Moduli (GPa) = 39.21289 135.39093 88.11809
#
# Poissons Ratio (x) = -0.01714 0.16982
# Poissons Ratio (y) = -0.00496 0.27743
# Poissons Ratio (z) = 0.07557 0.42627
#
# Static dielectric constant tensor:
#      x y z
#    x 3.614680 0.000000 0.078900 
#    y 0.000000 4.016430 0.000000 
#    z 0.078900 0.000000 3.540020 
# 
# 
# High freq. dielectric constant tensor:
#      x y z
#    x 1.692430 0.000000 0.010290 
#    y 0.000000 1.741570 0.000000 
#    z 0.010290 0.000000 1.701110 
# 
# From -- ./inp_files/208622.got.cif
#   From: 2010.06.25/outbox.cif.g09.slc.cpg/sg15_105_cif.got.tgz:208622.got - 2010.06.28 07:06:18.
