data_PCOD8130034
_publ_section_title
;
Structure prediction by ZEFSAII (Michael W. Deem and Ramdas Pophale) SiO2 
 PCOD8130034
Probable space group: C 2/C
;
_chemical_formula_sum "Si O2"
_cell_formula_units_Z 36
_cell_length_a 14.692541
_cell_length_b 13.611578
_cell_length_c 12.387009
_cell_angle_alpha 90.000000
_cell_angle_beta 39.906720
_cell_angle_gamma 90.000000
_cell_volume 1589.261318
_symmetry_space_group_name_H-M "C 2/C"
_symmetry_group_IT_number 15
_symmetry_cell_setting 'monoclinic'
loop_
_space_group_symop_operation_xyz
x,y,z
-x,y,1/2-z
-x,-y,-z
x,-y,1/2+z
1/2+x,1/2+y,z
1/2-x,1/2+y,1/2-z
1/2-x,1/2-y,-z
1/2+x,1/2-y,1/2+z
loop_
_atom_site_type_symbol
_atom_site_label
_atom_site_fract_x
_atom_site_fract_y
_atom_site_fract_z
Si Si1 0.669001 0.153263 0.612971
Si Si2 0.287307 0.331095 0.231343
Si Si3 0.734386 0.448970 0.028427
Si Si4 0.588685 0.681358 0.500909
Si Si5 0.000000 0.660844 0.250000
O O1 0.500000 0.160057 0.750000
O O2 0.750000 0.250000 0.500000
O O3 0.694532 0.130910 0.716146
O O4 0.746656 0.065667 0.476718
O O5 0.276443 0.404045 0.342725
O O6 0.453983 0.335054 0.043843
O O7 0.230835 0.220269 0.311484
O O8 0.608352 0.412992 0.062343
O O9 0.869450 0.408708 0.840867
O O10 0.534994 0.773618 0.616853
#
# Coordination Sequence:
#
# PCOD8130034 Si02
#       5
#     8   8   8   8   4
#     4  12  29  49  64  93 139 182 225 273 325 397
#     4  11  23  40  71  99 130 181 211 280 337 384
#     4  11  22  40  70 100 133 166 227 270 326 397
#     4  11  19  39  69 107 132 162 224 274 333 394
#     4  10  16  38  64 100 134 156 208 286 318 382
#
# _framework density 22.652032999999999
#
# number of rings (size 3 to 8) (size 9 to 14) (size 15 to 20)
#    0.000    0.889    5.556    2.667    0.000    5.333 
#    0.000    0.000    0.000    0.000    0.000    0.000 
#    0.000    0.000    0.000    0.000    0.000    0.000 
#
# Total GULP energy -223001.119845 kJ/mol
# GULP energy per Si atom -12388.951103 kJ/mol
# Density = 2.260048 g / cm^3
# Si number density = 22.652033 Si / 1000 Ang^3
#
#
#
# Elastic Constant Matrix: (Units=GPa)
#
#
# Indices 1 2 3 4 5 6 
#
# 1 165.0310 35.6789 44.3870 0.0000 -28.5353 0.0000
# 2 35.6789 136.6474 32.7273 0.0000 -16.3262 0.0000
# 3 44.3870 32.7273 72.0608 0.0000 -29.4032 0.0000
# 4 0.0000 0.0000 0.0000 14.1705 0.0000 -2.7951
# 5 -28.5353 -16.3262 -29.4032 0.0000 39.3320 0.0000
# 6 0.0000 0.0000 0.0000 -2.7951 0.0000 19.5374
#
#
#
# Elastic Compliance Matrix: (Units=1/GPa)
#
#
# Indices 1 2 3 4 5 6 
#
# 1 0.007575 -0.000897 -0.003120 0.000000 0.002791 0.000000
# 2 -0.000897 0.008339 -0.003004 0.000000 0.000565 0.000000
# 3 -0.003120 -0.003004 0.022635 0.000000 0.013411 0.000000
# 4 0.000000 0.000000 0.000000 0.072618 0.000000 0.010389
# 5 0.002791 0.000565 0.013411 0.000000 0.037710 0.000000
# 6 0.000000 0.000000 0.000000 0.010389 0.000000 0.052670
#
#
# Mechanical properties :
#
#
# Convention : Reuss Voigt Hill
#
# Bulk Modulus (GPa) = 40.80398 66.59173 53.69785
# Shear Modulus (GPa) = 22.34543 32.00439 27.17491
#
# Velocity S-wave (km/s) = 3.14421 3.76289 3.46738
# Velocity P-wave (km/s) = 5.58873 6.95275 6.30772
#
# Compressibility (1/GPa) = 0.02450742
#
# Stress axis : x y z
#
# Youngs Moduli (GPa) = 132.01105 119.91284 44.17868
#
# Poissons Ratio (x) = 0.10759 0.13782
# Poissons Ratio (y) = 0.11845 0.13273
# Poissons Ratio (z) = 0.41183 0.36026
#
# Static dielectric constant tensor:
#      x y z
#    x 4.211610 0.000000 -0.519600 
#    y 0.000000 4.121710 0.000000 
#    z -0.519600 0.000000 4.265690 
# 
# 
# High freq. dielectric constant tensor:
#      x y z
#    x 1.895660 0.000000 -0.026080 
#    y 0.000000 1.878360 0.000000 
#    z -0.026080 0.000000 1.891860 
# 
# From -- ./inp_files/152393.got.cif
#   From: 2010.06.25/outbox.cif.g09.slc.cpg/sg15_77_cif.got.tgz:152393.got - 2010.06.28 07:06:18.
