data_PCOD8130394
_publ_section_title
;
Structure prediction by ZEFSAII (Michael W. Deem and Ramdas Pophale) SiO2 
 PCOD8130394
Probable space group: C 2/C
;
_chemical_formula_sum "Si O2"
_cell_formula_units_Z 48
_cell_length_a 11.437058
_cell_length_b 16.954223
_cell_length_c 23.079610
_cell_angle_alpha 90.000000
_cell_angle_beta 145.183036
_cell_angle_gamma 90.000000
_cell_volume 2555.193704
_symmetry_space_group_name_H-M "C 2/C"
_symmetry_group_IT_number 15
_symmetry_cell_setting 'monoclinic'
loop_
_space_group_symop_operation_xyz
x,y,z
-x,y,1/2-z
-x,-y,-z
x,-y,1/2+z
1/2+x,1/2+y,z
1/2-x,1/2+y,1/2-z
1/2-x,1/2-y,-z
1/2+x,1/2-y,1/2+z
loop_
_atom_site_type_symbol
_atom_site_label
_atom_site_fract_x
_atom_site_fract_y
_atom_site_fract_z
Si Si1 0.682993 0.795293 0.786571
Si Si2 0.305997 0.149527 0.397195
Si Si3 0.955819 0.079022 0.822967
Si Si4 0.417750 0.600367 0.302409
Si Si5 0.486694 0.273807 0.092730
Si Si6 0.194617 0.366134 0.121014
O O1 0.500000 0.833262 0.750000
O O2 0.836890 0.864022 0.829694
O O3 0.593210 0.755192 0.693752
O O4 0.802535 0.729136 0.872050
O O5 0.254913 0.097982 0.318768
O O6 0.395432 0.235079 0.414069
O O7 0.477151 0.106520 0.506256
O O8 0.103295 0.155272 0.354391
O O9 0.977403 0.130591 0.891341
O O10 0.132416 0.109914 0.853318
O O11 0.738413 0.092678 0.701149
O O12 0.989564 0.987038 0.848487
O O13 0.250000 0.250000 0.000000
#
# Coordination Sequence:
#
# PCOD8130394 Si02
#       6
#     8   8   8   8   8   8
#     4  10  18  35  56  75 101 144 185 214 259 322
#     4  10  19  34  53  82 107 139 176 220 270 310
#     4  10  19  33  52  84 107 133 180 225 261 310
#     4  10  23  33  50  82 115 134 165 231 280 307
#     4  10  17  32  56  81  98 141 184 218 249 320
#     4  10  17  32  60  76 100 140 189 217 247 319
#
# _framework density 18.785269
#
# number of rings (size 3 to 8) (size 9 to 14) (size 15 to 20)
#    0.000    2.000    5.000    2.000    0.000    3.333 
#    0.000    0.000   11.000    4.000    0.000    0.000 
#    0.000    0.000    0.000    0.000    0.000    0.000 
#
# Total GULP energy -297375.049752 kJ/mol
# GULP energy per Si atom -12390.627073 kJ/mol
# Density = 1.874251 g / cm^3
# Si number density = 18.785269 Si / 1000 Ang^3
#
#
#
# Elastic Constant Matrix: (Units=GPa)
#
#
# Indices 1 2 3 4 5 6 
#
# 1 90.0354 59.1340 16.0927 0.0001 22.5023 -0.0001
# 2 59.1340 123.5132 26.3617 -0.0006 13.5813 -0.0005
# 3 16.0927 26.3617 99.2511 -0.0017 9.7197 -0.0024
# 4 0.0001 -0.0006 -0.0017 5.0533 0.0004 -22.2579
# 5 22.5023 13.5813 9.7197 0.0004 13.8280 0.0001
# 6 -0.0001 -0.0005 -0.0024 -22.2579 0.0001 -14.9161
#
#
#
# Elastic Compliance Matrix: (Units=1/GPa)
#
#
# Indices 1 2 3 4 5 6 
#
# 1 0.024602 -0.008494 0.001472 0.000000 -0.032726 0.000000
# 2 -0.008494 0.012268 -0.002207 0.000000 0.003324 0.000000
# 3 0.001472 -0.002207 0.011217 -0.000001 -0.008113 -0.000001
# 4 0.000000 0.000000 -0.000001 0.026132 0.000000 -0.038995
# 5 -0.032726 0.003324 -0.008113 0.000000 0.128010 0.000003
# 6 0.000000 0.000000 -0.000001 -0.038995 0.000003 -0.008853
#
#
# Mechanical properties :
#
#
# Convention : Reuss Voigt Hill
#
# Bulk Modulus (GPa) = 33.74996 57.33073 45.54034
# Shear Modulus (GPa) = 22.55189 14.87380 18.71284
#
# Velocity S-wave (km/s) = 3.46860 2.81691 3.15960
# Velocity P-wave (km/s) = 5.83496 6.41601 6.13237
#
# Compressibility (1/GPa) = 0.02962966
#
# Stress axis : x y z
#
# Youngs Moduli (GPa) = 40.64777 81.50958 89.14715
#
# Poissons Ratio (x) = 0.69235 -0.13123
# Poissons Ratio (y) = 0.34527 0.19674
# Poissons Ratio (z) = -0.05983 0.17988
#
# Static dielectric constant tensor:
#      x y z
#    x 3.524490 0.000000 -0.040020 
#    y 0.000000 3.856150 0.000000 
#    z -0.040020 0.000000 4.160030 
# 
# 
# High freq. dielectric constant tensor:
#      x y z
#    x 1.699970 0.000000 -0.001280 
#    y 0.000000 1.709470 0.000000 
#    z -0.001280 0.000000 1.734830 
# 
# From -- ./inp_files/225631.got.cif
#   From: 2010.06.25/outbox.cif.g09.slc.cpg/sg15_113_cif.got.tgz:225631.got - 2010.06.28 07:06:18.
