data_PCOD8130587
_publ_section_title
;
Structure prediction by ZEFSAII (Michael W. Deem and Ramdas Pophale) SiO2 
 PCOD8130587
Probable space group: C 2/C
;
_chemical_formula_sum "Si O2"
_cell_formula_units_Z 40
_cell_length_a 19.902020
_cell_length_b 21.006611
_cell_length_c 12.915054
_cell_angle_alpha 90.000000
_cell_angle_beta 25.929818
_cell_angle_gamma 90.000000
_cell_volume 2361.016055
_symmetry_space_group_name_H-M "C 2/C"
_symmetry_group_IT_number 15
_symmetry_cell_setting 'monoclinic'
loop_
_space_group_symop_operation_xyz
x,y,z
-x,y,1/2-z
-x,-y,-z
x,-y,1/2+z
1/2+x,1/2+y,z
1/2-x,1/2+y,1/2-z
1/2-x,1/2-y,-z
1/2+x,1/2-y,1/2+z
loop_
_atom_site_type_symbol
_atom_site_label
_atom_site_fract_x
_atom_site_fract_y
_atom_site_fract_z
Si Si1 0.051007 0.307845 0.295039
Si Si2 0.396465 0.986820 0.800191
Si Si3 0.599423 0.664694 0.208902
Si Si4 0.863348 0.951785 0.708036
Si Si5 0.380229 0.917574 0.619415
O O1 0.038639 0.232766 0.334303
O O2 0.000000 0.325288 0.250000
O O3 0.930506 0.343777 0.537320
O O4 0.224404 0.331312 0.072139
O O5 0.500000 0.958736 0.750000
O O6 0.358672 0.930773 0.771336
O O7 0.480982 0.043041 0.622668
O O8 0.241947 0.016169 0.059196
O O9 0.500000 0.641181 0.250000
O O10 0.572693 0.614914 0.337904
O O11 0.776481 0.936314 0.721492
O O12 0.000000 0.000000 0.500000
#
# Coordination Sequence:
#
# PCOD8130587 Si02
#       5
#     8   8   8   8   8
#     4  10  17  35  55  77 106 143 177 222 273 324
#     4   9  19  33  51  79 101 139 184 213 266 324
#     4  10  21  30  52  83 111 133 179 230 269 310
#     4  11  22  33  51  81 116 140 177 223 273 322
#     4  10  18  34  58  72 107 147 175 218 271 325
#
# _framework density 16.941859000000001
#
# number of rings (size 3 to 8) (size 9 to 14) (size 15 to 20)
#    0.000    2.000    4.000    0.600    2.800    1.600 
#    0.000    0.000    0.000    1.200    0.000    0.000 
#    0.000    0.000    0.000    0.000    0.000    0.000 
#
# Total GULP energy -248009.089254 kJ/mol
# GULP energy per Si atom -12400.454463 kJ/mol
# Density = 1.690330 g / cm^3
# Si number density = 16.941859 Si / 1000 Ang^3
#
#
#
# Elastic Constant Matrix: (Units=GPa)
#
#
# Indices 1 2 3 4 5 6 
#
# 1 132.6501 56.1769 45.6734 0.0000 -0.4461 0.0006
# 2 56.1769 96.4232 30.9599 -0.0065 3.3712 -0.0012
# 3 45.6734 30.9599 55.1125 -0.0179 -9.6945 -0.0019
# 4 0.0000 -0.0065 -0.0179 32.1778 -0.0001 2.4099
# 5 -0.4461 3.3712 -9.6945 -0.0001 27.3113 -0.0005
# 6 0.0006 -0.0012 -0.0019 2.4099 -0.0005 28.3347
#
#
#
# Elastic Compliance Matrix: (Units=1/GPa)
#
#
# Indices 1 2 3 4 5 6 
#
# 1 0.012150 -0.004462 -0.007926 -0.000005 -0.002064 -0.000001
# 2 -0.004462 0.014797 -0.005279 0.000000 -0.003773 0.000000
# 3 -0.007926 -0.005279 0.029620 0.000015 0.011036 0.000001
# 4 -0.000005 0.000000 0.000015 0.031277 0.000006 -0.002660
# 5 -0.002064 -0.003773 0.011036 0.000006 0.040964 0.000001
# 6 -0.000001 0.000000 0.000001 -0.002660 0.000001 0.035519
#
#
# Mechanical properties :
#
#
# Convention : Reuss Voigt Hill
#
# Bulk Modulus (GPa) = 47.09284 61.08960 54.09122
# Shear Modulus (GPa) = 24.18525 27.65645 25.92085
#
# Velocity S-wave (km/s) = 3.78238 4.04472 3.91575
# Velocity P-wave (km/s) = 6.85072 7.61247 7.24162
#
# Compressibility (1/GPa) = 0.02123465
#
# Stress axis : x y z
#
# Youngs Moduli (GPa) = 82.30271 67.58047 33.76122
#
# Poissons Ratio (x) = 0.30153 0.26759
# Poissons Ratio (y) = 0.36722 0.17821
# Poissons Ratio (z) = 0.65233 0.35673
#
# Static dielectric constant tensor:
#      x y z
#    x 3.376610 -0.000010 -0.145980 
#    y -0.000010 3.270950 0.000010 
#    z -0.145980 0.000010 3.018360 
# 
# 
# High freq. dielectric constant tensor:
#      x y z
#    x 1.661860 0.000000 -0.022780 
#    y 0.000000 1.647740 0.000000 
#    z -0.022780 0.000000 1.625830 
# 
# From -- ./inp_files/30172.got.cif
#   From: 2010.06.25/outbox.cif.g09.slc.cpg/sg15_16_cif.got.tgz:30172.got - 2010.06.28 07:06:18.
