data_PCOD8130731
_publ_section_title
;
Structure prediction by ZEFSAII (Michael W. Deem and Ramdas Pophale) SiO2 
 PCOD8130731
Probable space group: C 2/C
;
_chemical_formula_sum "Si O2"
_cell_formula_units_Z 64
_cell_length_a 21.967215
_cell_length_b 14.456307
_cell_length_c 13.564168
_cell_angle_alpha 90.000000
_cell_angle_beta 106.450110
_cell_angle_gamma 90.000000
_cell_volume 4131.181964
_symmetry_space_group_name_H-M "C 2/C"
_symmetry_group_IT_number 15
_symmetry_cell_setting 'monoclinic'
loop_
_space_group_symop_operation_xyz
x,y,z
-x,y,1/2-z
-x,-y,-z
x,-y,1/2+z
1/2+x,1/2+y,z
1/2-x,1/2+y,1/2-z
1/2-x,1/2-y,-z
1/2+x,1/2-y,1/2+z
loop_
_atom_site_type_symbol
_atom_site_label
_atom_site_fract_x
_atom_site_fract_y
_atom_site_fract_z
Si Si1 0.169943 0.332787 0.955728
Si Si2 0.868315 0.915519 0.123832
Si Si3 0.817449 0.107660 0.808821
Si Si4 0.271703 0.566376 0.406287
Si Si5 0.745771 0.756556 0.157494
Si Si6 0.979186 0.038684 0.136526
Si Si7 0.956597 0.867355 0.431689
Si Si8 0.957091 0.743403 0.143353
O O1 0.201954 0.428045 0.928298
O O2 0.195688 0.248122 0.896246
O O3 0.093084 0.334681 0.915779
O O4 0.189586 0.314290 0.078318
O O5 0.830528 0.935626 0.207279
O O6 0.918039 0.832254 0.163315
O O7 0.907106 0.006451 0.112905
O O8 0.822538 0.902336 0.010402
O O9 0.768754 0.193118 0.768261
O O10 0.880711 0.146031 0.890503
O O11 0.783159 0.031987 0.861858
O O12 0.275442 0.650716 0.327489
O O13 0.000000 0.082898 0.250000
O O14 0.980869 0.116260 0.053552
O O15 0.026589 0.954417 0.130608
O O16 0.993991 0.774494 0.419190
O O17 0.000000 0.701175 0.250000
#
# Coordination Sequence:
#
# PCOD8130731 Si02
#       8
#     8   8   8   8   8   8   8   8
#     4   9  15  30  44  63  97 119 156 199 241 272
#     4  11  15  27  41  64  95 124 152 190 231 281
#     4  12  17  28  47  66  92 128 161 193 238 275
#     4  10  19  28  46  68  93 130 161 195 231 284
#     4   9  16  29  44  62  89 123 154 201 230 267
#     4  10  18  26  33  58 101 125 150 179 219 290
#     4  10  19  23  40  66  88 131 154 180 230 288
#     4  11  16  25  45  68  98 121 142 194 247 278
#
# _framework density 15.491934000000001
#
# number of rings (size 3 to 8) (size 9 to 14) (size 15 to 20)
#    0.750    1.000    7.500    0.750    0.000    0.000 
#    0.000    0.000    0.000    0.750    0.000    0.875 
#    0.000    0.000    8.500    0.000    0.000    0.000 
#
# Total GULP energy -396423.183999 kJ/mol
# GULP energy per Si atom -12388.224500 kJ/mol
# Density = 1.545667 g / cm^3
# Si number density = 15.491934 Si / 1000 Ang^3
#
#
#
# Elastic Constant Matrix: (Units=GPa)
#
#
# Indices 1 2 3 4 5 6 
#
# 1 75.5733 30.0326 30.2870 0.0000 22.3984 0.0000
# 2 30.0326 32.7889 17.6866 0.0000 6.3559 0.0000
# 3 30.2870 17.6866 74.8518 0.0000 16.7877 0.0000
# 4 0.0000 0.0000 0.0000 19.8744 0.0000 -2.5500
# 5 22.3984 6.3559 16.7877 0.0000 26.2583 0.0000
# 6 0.0000 0.0000 0.0000 -2.5500 0.0000 19.8428
#
#
#
# Elastic Compliance Matrix: (Units=1/GPa)
#
#
# Indices 1 2 3 4 5 6 
#
# 1 0.027312 -0.020438 -0.002459 0.000000 -0.016778 0.000000
# 2 -0.020438 0.050559 -0.005653 0.000000 0.008809 0.000000
# 3 -0.002459 -0.005653 0.017409 0.000000 -0.007664 0.000000
# 4 0.000000 0.000000 0.000000 0.051160 0.000000 0.006574
# 5 -0.016778 0.008809 -0.007664 0.000000 0.055163 0.000000
# 6 0.000000 0.000000 0.000000 0.006574 0.000000 0.051241
#
#
# Mechanical properties :
#
#
# Convention : Reuss Voigt Hill
#
# Bulk Modulus (GPa) = 26.19025 37.69183 31.94104
# Shear Modulus (GPa) = 15.49567 20.20895 17.85231
#
# Velocity S-wave (km/s) = 3.16609 3.61568 3.39833
# Velocity P-wave (km/s) = 5.50526 6.46635 6.00506
#
# Compressibility (1/GPa) = 0.03818215
#
# Stress axis : x y z
#
# Youngs Moduli (GPa) = 36.61348 19.77875 57.44026
#
# Poissons Ratio (x) = 0.40423 0.14125
# Poissons Ratio (y) = 0.74829 0.32469
# Poissons Ratio (z) = 0.09004 0.11180
#
# Static dielectric constant tensor:
#      x y z
#    x 3.006310 0.000000 0.160710 
#    y 0.000000 2.515130 0.000000 
#    z 0.160710 0.000000 2.861640 
# 
# 
# High freq. dielectric constant tensor:
#      x y z
#    x 1.584080 0.000000 0.025290 
#    y 0.000000 1.532650 0.000000 
#    z 0.025290 0.000000 1.588790 
# 
# From -- ./inp_files/173274.got.cif
#   From: 2010.06.25/outbox.cif.g09.slc.cpg/sg15_87_cif.got.tgz:173274.got - 2010.06.28 07:06:18.
