data_PCOD8130113
_publ_section_title
;
Structure prediction by ZEFSAII (Michael W. Deem and Ramdas Pophale) SiO2 
 PCOD8130113
Probable space group: C 2/C
;
_chemical_formula_sum "Si O2"
_cell_formula_units_Z 56
_cell_length_a 27.948158
_cell_length_b 28.713761
_cell_length_c 5.191316
_cell_angle_alpha 90.000000
_cell_angle_beta 68.044415
_cell_angle_gamma 90.000000
_cell_volume 3863.869631
_symmetry_space_group_name_H-M "C 2/C"
_symmetry_group_IT_number 15
_symmetry_cell_setting 'monoclinic'
loop_
_space_group_symop_operation_xyz
x,y,z
-x,y,1/2-z
-x,-y,-z
x,-y,1/2+z
1/2+x,1/2+y,z
1/2-x,1/2+y,1/2-z
1/2-x,1/2-y,-z
1/2+x,1/2-y,1/2+z
loop_
_atom_site_type_symbol
_atom_site_label
_atom_site_fract_x
_atom_site_fract_y
_atom_site_fract_z
Si Si1 0.576939 0.529254 0.382627
Si Si2 0.532124 0.370525 0.936100
Si Si3 0.365112 0.688751 0.267853
Si Si4 0.238733 0.870198 0.523151
Si Si5 0.167278 0.764779 0.166822
Si Si6 0.728924 0.823735 0.542108
Si Si7 0.196700 0.029230 0.139433
O O1 0.563014 0.507012 0.685715
O O2 0.542718 0.574632 0.415595
O O3 0.636799 0.543453 0.247418
O O4 0.500000 0.356764 0.750000
O O5 0.584943 0.342806 0.828578
O O6 0.500000 0.355698 0.250000
O O7 0.316310 0.654812 0.365110
O O8 0.365122 0.722338 0.514969
O O9 0.365840 0.721597 0.016148
O O10 0.271758 0.856392 0.206805
O O11 0.231323 0.925331 0.537309
O O12 0.272185 0.855889 0.703519
O O13 0.220485 0.792375 0.059359
O O14 0.178825 0.709578 0.140988
O O15 0.210398 0.006347 0.384495
#
# Coordination Sequence:
#
# PCOD8130113 Si02
#       7
#     8   8   8   8   8   8   8
#     4  10  21  35  48  59  74  99 138 182 229 270
#     4  12  24  35  47  62  79 102 141 180 225 269
#     4  10  19  32  45  59  80 108 127 164 218 257
#     4  10  17  29  45  61  84 104 133 164 210 248
#     4   9  17  29  45  63  85 100 124 152 204 266
#     4   9  17  26  44  68  82 101 123 159 198 255
#     4  10  19  30  44  60  80 109 142 171 208 258
#
# _framework density 14.493242
#
# number of rings (size 3 to 8) (size 9 to 14) (size 15 to 20)
#    0.000    2.000    1.429    3.429    0.000    5.143 
#    0.000    0.000    0.000    0.000    0.000    0.000 
#    0.000    0.000    0.000    0.000    0.000    0.000 
#
# Total GULP energy -347268.123897 kJ/mol
# GULP energy per Si atom -12402.432996 kJ/mol
# Density = 1.446025 g / cm^3
# Si number density = 14.493242 Si / 1000 Ang^3
#
#
#
# Elastic Constant Matrix: (Units=GPa)
#
#
# Indices 1 2 3 4 5 6 
#
# 1 44.6107 25.2989 27.6863 0.0000 12.7582 0.0000
# 2 25.2989 49.6813 24.9559 0.0000 0.2292 0.0000
# 3 27.6863 24.9559 95.8180 0.0000 23.7129 0.0000
# 4 0.0000 0.0000 0.0000 23.7028 0.0000 -0.6725
# 5 12.7582 0.2292 23.7129 0.0000 22.3336 0.0000
# 6 0.0000 0.0000 0.0000 -0.6725 0.0000 25.2895
#
#
#
# Elastic Compliance Matrix: (Units=1/GPa)
#
#
# Indices 1 2 3 4 5 6 
#
# 1 0.040771 -0.020092 -0.001132 0.000000 -0.021882 0.000000
# 2 -0.020092 0.034271 -0.007968 0.000000 0.019585 0.000000
# 3 -0.001132 -0.007968 0.017170 0.000000 -0.017502 0.000000
# 4 0.000000 0.000000 0.000000 0.042221 0.000000 0.001123
# 5 -0.021882 0.019585 -0.017502 0.000000 0.075658 0.000000
# 6 0.000000 0.000000 0.000000 0.001123 0.000000 0.039572
#
#
# Mechanical properties :
#
#
# Convention : Reuss Voigt Hill
#
# Bulk Modulus (GPa) = 29.56021 38.44357 34.00189
# Shear Modulus (GPa) = 15.65810 21.74311 18.70060
#
# Velocity S-wave (km/s) = 3.29047 3.87747 3.59597
# Velocity P-wave (km/s) = 5.90562 6.82855 6.38379
#
# Compressibility (1/GPa) = 0.03382926
#
# Stress axis : x y z
#
# Youngs Moduli (GPa) = 24.52711 29.17884 58.24060
#
# Poissons Ratio (x) = 0.58626 0.06595
# Poissons Ratio (y) = 0.49280 0.46403
# Poissons Ratio (z) = 0.02777 0.23248
#
# Static dielectric constant tensor:
#      x y z
#    x 2.601090 0.000000 0.226150 
#    y 0.000000 2.740630 0.000000 
#    z 0.226150 0.000000 2.985100 
# 
# 
# High freq. dielectric constant tensor:
#      x y z
#    x 1.515700 0.000000 0.030910 
#    y 0.000000 1.540510 0.000000 
#    z 0.030910 0.000000 1.565830 
# 
# From -- ./inp_files/11966.got.cif
#   From: 2010.06.25/outbox.cif.g09.slc.cpg/sg15_6_cif.got.tgz:11966.got - 2010.06.28 07:06:18.
