data_PCOD8130705
_publ_section_title
;
Structure prediction by ZEFSAII (Michael W. Deem and Ramdas Pophale) SiO2 
 PCOD8130705
Probable space group: C 2/C
;
_chemical_formula_sum "Si O2"
_cell_formula_units_Z 56
_cell_length_a 16.294487
_cell_length_b 8.821024
_cell_length_c 26.191208
_cell_angle_alpha 90.000000
_cell_angle_beta 126.907043
_cell_angle_gamma 90.000000
_cell_volume 3010.189954
_symmetry_space_group_name_H-M "C 2/C"
_symmetry_group_IT_number 15
_symmetry_cell_setting 'monoclinic'
loop_
_space_group_symop_operation_xyz
x,y,z
-x,y,1/2-z
-x,-y,-z
x,-y,1/2+z
1/2+x,1/2+y,z
1/2-x,1/2+y,1/2-z
1/2-x,1/2-y,-z
1/2+x,1/2-y,1/2+z
loop_
_atom_site_type_symbol
_atom_site_label
_atom_site_fract_x
_atom_site_fract_y
_atom_site_fract_z
Si Si1 0.054815 0.303621 0.321976
Si Si2 0.732340 0.842386 0.620405
Si Si3 0.611576 0.349063 0.157918
Si Si4 0.782593 0.588740 0.805775
Si Si5 0.006136 0.433977 0.641798
Si Si6 0.055970 0.178090 0.120781
Si Si7 0.063745 0.588065 0.982313
O O1 0.171743 0.255381 0.361185
O O2 0.000000 0.256323 0.250000
O O3 0.046581 0.486730 0.328572
O O4 0.998054 0.214972 0.345796
O O5 0.659527 0.740819 0.628619
O O6 0.676781 0.884773 0.546593
O O7 0.762237 0.996521 0.662179
O O8 0.694767 0.393704 0.231179
O O9 0.519943 0.247982 0.149627
O O10 0.560154 0.498594 0.115404
O O11 0.877831 0.496315 0.818434
O O12 0.827719 0.753664 0.837966
O O13 0.935155 0.482967 0.567488
O O14 0.989465 0.250521 0.050195
O O15 0.000000 0.500000 0.000000
#
# Coordination Sequence:
#
# PCOD8130705 Si02
#       7
#     8   8   8   8   8   8   8
#     4  10  20  37  55  80 110 146 186 222 280 337
#     4  11  20  34  62  79 105 150 187 229 268 339
#     4  11  19  33  54  84 109 140 185 231 285 318
#     4   9  17  32  53  79 105 142 185 223 271 331
#     4   9  20  34  54  75 115 148 173 237 274 330
#     4  10  21  33  55  82 114 144 178 240 276 329
#     4  10  17  38  56  79 108 147 194 219 273 330
#
# _framework density 18.603477000000002
#
# number of rings (size 3 to 8) (size 9 to 14) (size 15 to 20)
#    0.000    2.286    4.286    4.286    0.000    2.857 
#    0.000    3.571    0.000    1.714    0.000    0.000 
#    0.000    0.000    0.000    0.000    0.000    0.000 
#
# Total GULP energy -347004.352724 kJ/mol
# GULP energy per Si atom -12393.012597 kJ/mol
# Density = 1.856114 g / cm^3
# Si number density = 18.603477 Si / 1000 Ang^3
#
#
#
# Elastic Constant Matrix: (Units=GPa)
#
#
# Indices 1 2 3 4 5 6 
#
# 1 73.9028 34.7611 21.5625 0.0000 -0.3725 0.0000
# 2 34.7611 133.3086 30.3010 0.0000 6.0426 0.0000
# 3 21.5625 30.3010 126.0642 0.0000 3.9995 0.0000
# 4 0.0000 0.0000 0.0000 69.1983 0.0000 -73.2853
# 5 -0.3725 6.0426 3.9995 0.0000 18.6401 0.0000
# 6 0.0000 0.0000 0.0000 -73.2853 0.0000 134.3529
#
#
#
# Elastic Compliance Matrix: (Units=1/GPa)
#
#
# Indices 1 2 3 4 5 6 
#
# 1 0.015874 -0.003804 -0.001863 0.000000 0.001950 0.000000
# 2 -0.003804 0.008935 -0.001412 0.000000 -0.002670 0.000000
# 3 -0.001863 -0.001412 0.008636 0.000000 -0.001432 0.000000
# 4 0.000000 0.000000 0.000000 0.034219 0.000000 0.018665
# 5 0.001950 -0.002670 -0.001432 0.000000 0.054860 0.000000
# 6 0.000000 0.000000 0.000000 0.018665 0.000000 0.017625
#
#
# Mechanical properties :
#
#
# Convention : Reuss Voigt Hill
#
# Bulk Modulus (GPa) = 51.84862 56.28051 54.06456
# Shear Modulus (GPa) = 31.10692 60.88165 45.99429
#
# Velocity S-wave (km/s) = 4.09357 5.72687 4.97767
# Velocity P-wave (km/s) = 7.09042 8.60510 7.88421
#
# Compressibility (1/GPa) = 0.01928692
#
# Stress axis : x y z
#
# Youngs Moduli (GPa) = 62.99627 111.91425 115.79471
#
# Poissons Ratio (x) = 0.42575 0.21568
# Poissons Ratio (y) = 0.23965 0.16354
# Poissons Ratio (z) = 0.11734 0.15806
#
# Static dielectric constant tensor:
#      x y z
#    x 3.235640 0.000000 0.054180 
#    y 0.000000 3.895670 0.000000 
#    z 0.054180 0.000000 0.766440 
# 
# 
# High freq. dielectric constant tensor:
#      x y z
#    x 1.688310 0.000000 -0.002540 
#    y 0.000000 1.723160 0.000000 
#    z -0.002540 0.000000 1.730050 
# 
# From -- ./inp_files/276349.got.cif
#   From: 2010.06.25/outbox.cif.g09.slc.cpg/sg15_139_cif.got.tgz:276349.got - 2010.06.28 07:06:18.
