data_PCOD8130469
_publ_section_title
;
Structure prediction by ZEFSAII (Michael W. Deem and Ramdas Pophale) SiO2 
 PCOD8130469
Probable space group: C 2/C
;
_chemical_formula_sum "Si O2"
_cell_formula_units_Z 60
_cell_length_a 15.910123
_cell_length_b 18.460490
_cell_length_c 10.307217
_cell_angle_alpha 90.000000
_cell_angle_beta 99.924172
_cell_angle_gamma 90.000000
_cell_volume 2982.020294
_symmetry_space_group_name_H-M "C 2/C"
_symmetry_group_IT_number 15
_symmetry_cell_setting 'monoclinic'
loop_
_space_group_symop_operation_xyz
x,y,z
-x,y,1/2-z
-x,-y,-z
x,-y,1/2+z
1/2+x,1/2+y,z
1/2-x,1/2+y,1/2-z
1/2-x,1/2-y,-z
1/2+x,1/2-y,1/2+z
loop_
_atom_site_type_symbol
_atom_site_label
_atom_site_fract_x
_atom_site_fract_y
_atom_site_fract_z
Si Si1 0.500000 0.035595 0.750000
Si Si2 0.576153 0.172387 0.169928
Si Si3 0.901393 0.945476 0.200544
Si Si4 0.153177 0.777340 0.601971
Si Si5 0.554184 0.146696 0.564685
Si Si6 0.826306 0.206790 0.692657
Si Si7 0.339108 0.554634 0.400304
Si Si8 0.854434 0.568695 0.131465
O O1 0.556322 0.085216 0.672414
O O2 0.568795 0.989396 0.849454
O O3 0.500000 0.161503 0.250000
O O4 0.612181 0.253599 0.187179
O O5 0.646991 0.113714 0.233265
O O6 0.541377 0.152460 0.019125
O O7 0.838658 0.878612 0.218170
O O8 0.000000 0.924437 0.250000
O O9 0.874930 0.010465 0.288072
O O10 0.890178 0.965820 0.045438
O O11 0.074170 0.727000 0.627268
O O12 0.149206 0.771386 0.445927
O O13 0.231770 0.736317 0.691385
O O14 0.147931 0.861433 0.638858
O O15 0.628812 0.124095 0.482795
O O16 0.240087 0.535446 0.404435
#
# Coordination Sequence:
#
# PCOD8130469 Si02
#       8
#     4   8   8   8   8   8   8   8
#     4  12  26  36  58  94 140 168 188 244 326 396
#     4  10  17  33  57  90 115 150 202 255 298 346
#     4  11  25  43  66  92 126 162 215 266 325 366
#     4  10  19  37  62  88 122 154 214 254 305 356
#     4  11  22  38  59  91 124 169 205 250 309 376
#     4  10  18  35  64  94 109 155 213 271 290 355
#     4  11  25  42  67  94 124 171 209 268 312 374
#     4  11  21  38  63  90 128 158 209 250 306 369
#
# _framework density 20.120588000000001
#
# number of rings (size 3 to 8) (size 9 to 14) (size 15 to 20)
#    0.000    1.333    6.000    2.800    5.600    0.000 
#    1.200    0.000    0.000    1.600    0.000    0.000 
#    0.000    0.000    0.000    0.000    0.000    0.000 
#
# Total GULP energy -371813.317505 kJ/mol
# GULP energy per Si atom -12393.777250 kJ/mol
# Density = 2.007479 g / cm^3
# Si number density = 20.120588 Si / 1000 Ang^3
#
#
#
# Elastic Constant Matrix: (Units=GPa)
#
#
# Indices 1 2 3 4 5 6 
#
# 1 66.7480 38.4134 32.3779 0.0000 17.6990 0.0000
# 2 38.4134 137.7665 52.2381 0.0000 -2.0818 0.0000
# 3 32.3779 52.2381 63.0937 0.0000 12.6173 0.0000
# 4 0.0000 0.0000 0.0000 27.9383 0.0000 7.1054
# 5 17.6990 -2.0818 12.6173 0.0000 22.9204 0.0000
# 6 0.0000 0.0000 0.0000 7.1054 0.0000 24.6776
#
#
#
# Elastic Compliance Matrix: (Units=1/GPa)
#
#
# Indices 1 2 3 4 5 6 
#
# 1 0.024991 -0.005325 -0.005012 0.000000 -0.017023 0.000000
# 2 -0.005325 0.012653 -0.009883 0.000000 0.010702 0.000000
# 3 -0.005012 -0.009883 0.029227 0.000000 -0.013117 0.000000
# 4 0.000000 0.000000 0.000000 0.038621 0.000000 -0.011120
# 5 -0.017023 0.010702 -0.013117 0.000000 0.064967 0.000000
# 6 0.000000 0.000000 0.000000 -0.011120 0.000000 0.043724
#
#
# Mechanical properties :
#
#
# Convention : Reuss Voigt Hill
#
# Bulk Modulus (GPa) = 37.83424 57.07409 47.45417
# Shear Modulus (GPa) = 18.98012 24.74586 21.86299
#
# Velocity S-wave (km/s) = 3.07468 3.51077 3.29993
# Velocity P-wave (km/s) = 5.60798 6.69788 6.17701
#
# Compressibility (1/GPa) = 0.02643108
#
# Stress axis : x y z
#
# Youngs Moduli (GPa) = 40.01395 79.03478 34.21506
#
# Poissons Ratio (x) = 0.42088 0.17147
# Poissons Ratio (y) = 0.21309 0.33815
# Poissons Ratio (z) = 0.20053 0.78110
#
# Static dielectric constant tensor:
#      x y z
#    x 3.529210 0.000000 0.546930 
#    y 0.000000 3.776040 0.000000 
#    z 0.546930 0.000000 3.710320 
# 
# 
# High freq. dielectric constant tensor:
#      x y z
#    x 1.765780 0.000000 0.039910 
#    y 0.000000 1.795710 0.000000 
#    z 0.039910 0.000000 1.760340 
# 
# From -- ./inp_files/98348.got.cif
#   From: 2010.06.25/outbox.cif.g09.slc.cpg/sg15_50_cif.got.tgz:98348.got - 2010.06.28 07:06:18.
