data_PCOD8130938
_publ_section_title
;
Structure prediction by ZEFSAII (Michael W. Deem and Ramdas Pophale) SiO2 
 PCOD8130938
Probable space group: C 2/C
;
_chemical_formula_sum "Si O2"
_cell_formula_units_Z 60
_cell_length_a 14.430775
_cell_length_b 25.388122
_cell_length_c 16.380435
_cell_angle_alpha 90.000000
_cell_angle_beta 34.653857
_cell_angle_gamma 90.000000
_cell_volume 3412.445124
_symmetry_space_group_name_H-M "C 2/C"
_symmetry_group_IT_number 15
_symmetry_cell_setting 'monoclinic'
loop_
_space_group_symop_operation_xyz
x,y,z
-x,y,1/2-z
-x,-y,-z
x,-y,1/2+z
1/2+x,1/2+y,z
1/2-x,1/2+y,1/2-z
1/2-x,1/2-y,-z
1/2+x,1/2-y,1/2+z
loop_
_atom_site_type_symbol
_atom_site_label
_atom_site_fract_x
_atom_site_fract_y
_atom_site_fract_z
Si Si1 0.000000 0.250366 0.250000
Si Si2 0.675433 0.849707 0.899929
Si Si3 0.651232 0.011907 0.085122
Si Si4 0.455103 0.949773 0.586194
Si Si5 0.656834 0.588328 0.088725
Si Si6 0.137384 0.041812 0.422664
Si Si7 0.979397 0.862395 0.569275
Si Si8 0.354550 0.733607 0.525139
O O1 0.837814 0.281330 0.339519
O O2 0.937270 0.219233 0.376299
O O3 0.545216 0.894569 0.964943
O O4 0.760842 0.863216 0.923607
O O5 0.811106 0.844971 0.732688
O O6 0.600835 0.791641 0.972466
O O7 0.500000 0.995614 0.250000
O O8 0.591202 0.053463 0.059558
O O9 0.796179 0.036018 0.034092
O O10 0.712368 0.958082 0.001582
O O11 0.276886 0.961100 0.752556
O O12 0.500000 0.000000 0.500000
O O13 0.500000 0.567015 0.250000
O O14 0.605338 0.605954 0.036154
O O15 0.057440 0.099741 0.479864
O O16 0.000000 0.000000 0.500000
O O17 0.066275 0.809660 0.472203
#
# Coordination Sequence:
#
# PCOD8130938 Si02
#       8
#     4   8   8   8   8   8   8   8
#     4  10  20  32  54  74 112 136 172 214 260 318
#     4  10  20  34  52  71 105 143 173 204 257 317
#     4  10  20  34  51  79 108 129 173 224 257 293
#     4  10  20  36  53  77 104 138 175 215 261 313
#     4  10  18  30  52  74 102 142 169 201 255 314
#     4  10  20  36  53  77 104 138 175 215 261 313
#     4  10  20  34  52  71 105 143 173 204 257 317
#     4  11  20  36  48  77 106 140 176 213 262 311
#
# _framework density 17.582699999999999
#
# number of rings (size 3 to 8) (size 9 to 14) (size 15 to 20)
#    0.000    1.867    4.000    1.600    1.867    0.000 
#    7.200    0.000    0.000    0.800    0.000    0.000 
#    0.000    0.000    0.000    0.000    0.000    0.133 
#
# Total GULP energy -371657.789954 kJ/mol
# GULP energy per Si atom -12388.592998 kJ/mol
# Density = 1.754268 g / cm^3
# Si number density = 17.582700 Si / 1000 Ang^3
#
#
#
# Elastic Constant Matrix: (Units=GPa)
#
#
# Indices 1 2 3 4 5 6 
#
# 1 93.1662 51.7022 29.8994 0.0022 -15.7583 -0.0008
# 2 51.7022 132.9211 40.7770 0.0016 -13.7664 -0.0029
# 3 29.8994 40.7770 56.7751 -0.0043 -10.8542 -0.0115
# 4 0.0022 0.0016 -0.0043 21.8477 -0.0041 -13.2212
# 5 -15.7583 -13.7664 -10.8542 -0.0041 19.7328 -0.0014
# 6 -0.0008 -0.0029 -0.0115 -13.2212 -0.0014 21.9370
#
#
#
# Elastic Compliance Matrix: (Units=1/GPa)
#
#
# Indices 1 2 3 4 5 6 
#
# 1 0.015474 -0.004086 -0.003796 -0.000002 0.007419 -0.000003
# 2 -0.004086 0.010920 -0.005429 -0.000003 0.001369 -0.000003
# 3 -0.003796 -0.005429 0.024818 0.000023 0.006832 0.000026
# 4 -0.000002 -0.000003 0.000023 0.072049 0.000027 0.043423
# 5 0.007419 0.001369 0.006832 0.000027 0.061315 0.000024
# 6 -0.000003 -0.000003 0.000026 0.043423 0.000024 0.071756
#
#
# Mechanical properties :
#
#
# Convention : Reuss Voigt Hill
#
# Bulk Modulus (GPa) = 40.66851 58.62440 49.64646
# Shear Modulus (GPa) = 17.17320 23.40243 20.28782
#
# Velocity S-wave (km/s) = 3.12863 3.65223 3.40052
# Velocity P-wave (km/s) = 6.01923 7.15539 6.61176
#
# Compressibility (1/GPa) = 0.02458905
#
# Stress axis : x y z
#
# Youngs Moduli (GPa) = 64.62391 91.57529 40.29297
#
# Poissons Ratio (x) = 0.37418 0.15296
# Poissons Ratio (y) = 0.26406 0.21877
# Poissons Ratio (z) = 0.24532 0.49720
#
# Static dielectric constant tensor:
#      x y z
#    x 3.439280 -0.000010 -0.152380 
#    y -0.000010 3.261950 -0.000010 
#    z -0.152380 -0.000010 3.340530 
# 
# 
# High freq. dielectric constant tensor:
#      x y z
#    x 1.659680 0.000000 -0.013240 
#    y 0.000000 1.670980 0.000000 
#    z -0.013240 0.000000 1.673290 
# 
# From -- ./inp_files/43170.got.cif
#   From: 2010.06.25/outbox.cif.g09.slc.cpg/sg15_22_cif.got.tgz:43170.got - 2010.06.28 07:06:18.
