data_PCOD8130185
_publ_section_title
;
Structure prediction by ZEFSAII (Michael W. Deem and Ramdas Pophale) SiO2 
 PCOD8130185
Probable space group: C 2/C
;
_chemical_formula_sum "Si O2"
_cell_formula_units_Z 48
_cell_length_a 5.333688
_cell_length_b 25.274853
_cell_length_c 19.233856
_cell_angle_alpha 90.000000
_cell_angle_beta 123.684240
_cell_angle_gamma 90.000000
_cell_volume 2157.553778
_symmetry_space_group_name_H-M "C 2/C"
_symmetry_group_IT_number 15
_symmetry_cell_setting 'monoclinic'
loop_
_space_group_symop_operation_xyz
x,y,z
-x,y,1/2-z
-x,-y,-z
x,-y,1/2+z
1/2+x,1/2+y,z
1/2-x,1/2+y,1/2-z
1/2-x,1/2-y,-z
1/2+x,1/2-y,1/2+z
loop_
_atom_site_type_symbol
_atom_site_label
_atom_site_fract_x
_atom_site_fract_y
_atom_site_fract_z
Si Si1 0.190249 0.471490 0.845125
Si Si2 0.791661 0.646940 0.895831
Si Si3 0.341107 0.191783 0.420553
Si Si4 0.840004 0.858861 0.920002
Si Si5 0.183580 0.476970 0.091790
Si Si6 0.788178 0.184112 0.894090
O O1 0.314016 0.421639 0.907008
O O2 0.469510 0.505716 0.859960
O O3 0.000000 0.451392 0.750000
O O4 0.970331 0.505716 0.859960
O O5 0.832292 0.585677 0.916146
O O6 0.440366 0.664705 0.845138
O O7 0.940184 0.664706 0.845138
O O8 0.961082 0.681808 0.980542
O O9 0.506533 0.166211 0.378810
O O10 0.310860 0.253693 0.405430
O O11 0.008710 0.166211 0.378810
O O12 0.036823 0.847722 0.018411
O O13 0.000000 0.500000 0.000000
#
# Coordination Sequence:
#
# PCOD8130185 Si02
#       6
#     8   8   8   8   8   8
#     4  12  26  43  61  88 127 170 210 258 324 388
#     4  10  18  29  49  80 112 148 188 236 298 347
#     4  10  18  30  52  86 122 146 182 245 305 354
#     4  10  18  32  51  76 111 155 195 232 293 366
#     4  12  23  40  64  92 123 157 210 267 309 363
#     4  10  17  30  51  86 123 146 181 246 307 354
#
# _framework density 22.247416000000001
#
# number of rings (size 3 to 8) (size 9 to 14) (size 15 to 20)
#    0.000    1.333    0.000   12.000    0.000    0.000 
#    0.000    0.000    0.000    0.000    0.000   39.667 
#    0.000    0.000    0.000    0.000    0.000    0.000 
#
# Total GULP energy -297494.862528 kJ/mol
# GULP energy per Si atom -12395.619272 kJ/mol
# Density = 2.219678 g / cm^3
# Si number density = 22.247416 Si / 1000 Ang^3
#
#
#
# Elastic Constant Matrix: (Units=GPa)
#
#
# Indices 1 2 3 4 5 6 
#
# 1 264.5433 55.7308 5.5668 0.0000 10.8422 0.0000
# 2 55.7308 119.3663 -7.2031 0.0000 2.7716 0.0000
# 3 5.5668 -7.2031 32.9239 0.0000 -0.6417 0.0000
# 4 0.0000 0.0000 0.0000 5.9580 0.0000 1.5952
# 5 10.8422 2.7716 -0.6417 0.0000 6.9030 0.0000
# 6 0.0000 0.0000 0.0000 1.5952 0.0000 42.1801
#
#
#
# Elastic Compliance Matrix: (Units=1/GPa)
#
#
# Indices 1 2 3 4 5 6 
#
# 1 0.004497 -0.002032 -0.001329 0.000000 -0.006371 0.000000
# 2 -0.002032 0.009481 0.002410 0.000000 -0.000391 0.000000
# 3 -0.001329 0.002410 0.031203 0.000000 0.004021 0.000000
# 4 0.000000 0.000000 0.000000 0.169560 0.000000 -0.006413
# 5 -0.006371 -0.000391 0.004021 0.000000 0.155403 0.000000
# 6 0.000000 0.000000 0.000000 -0.006413 0.000000 0.023950
#
#
# Mechanical properties :
#
#
# Convention : Reuss Voigt Hill
#
# Bulk Modulus (GPa) = 23.10561 58.33585 40.72073
# Shear Modulus (GPa) = 12.18257 35.19081 23.68669
#
# Velocity S-wave (km/s) = 2.34261 3.98149 3.26650
# Velocity P-wave (km/s) = 4.21016 6.88583 5.70702
#
# Compressibility (1/GPa) = 0.04327953
#
# Stress axis : x y z
#
# Youngs Moduli (GPa) = 222.35688 105.47627 32.04778
#
# Poissons Ratio (x) = 0.21433 0.04260
# Poissons Ratio (y) = 0.45183 -0.07724
# Poissons Ratio (z) = 0.29554 -0.25421
#
# Static dielectric constant tensor:
#      x y z
#    x 6.472130 0.000000 0.133900 
#    y 0.000000 3.942450 0.000000 
#    z 0.133900 0.000000 3.432110 
# 
# 
# High freq. dielectric constant tensor:
#      x y z
#    x 1.926340 0.000000 0.005450 
#    y 0.000000 1.889500 0.000000 
#    z 0.005450 0.000000 1.802590 
# 
# From -- ./inp_files/228246.got.cif
#   From: 2010.06.25/outbox.cif.g09.slc.cpg/sg15_115_cif.got.tgz:228246.got - 2010.06.28 07:06:18.
