data_PCOD8130382
_publ_section_title
;
Structure prediction by ZEFSAII (Michael W. Deem and Ramdas Pophale) SiO2 
 PCOD8130382
Probable space group: C 2/C
;
_chemical_formula_sum "Si O2"
_cell_formula_units_Z 60
_cell_length_a 14.494610
_cell_length_b 17.146193
_cell_length_c 26.796829
_cell_angle_alpha 90.000000
_cell_angle_beta 30.712857
_cell_angle_gamma 90.000000
_cell_volume 3401.370912
_symmetry_space_group_name_H-M "C 2/C"
_symmetry_group_IT_number 15
_symmetry_cell_setting 'monoclinic'
loop_
_space_group_symop_operation_xyz
x,y,z
-x,y,1/2-z
-x,-y,-z
x,-y,1/2+z
1/2+x,1/2+y,z
1/2-x,1/2+y,1/2-z
1/2-x,1/2-y,-z
1/2+x,1/2-y,1/2+z
loop_
_atom_site_type_symbol
_atom_site_label
_atom_site_fract_x
_atom_site_fract_y
_atom_site_fract_z
Si Si1 0.749654 0.173546 0.801759
Si Si2 0.137817 0.842694 0.881531
Si Si3 0.341666 0.946364 0.861340
Si Si4 0.253291 0.614210 0.590358
Si Si5 0.645626 0.978366 0.392351
Si Si6 0.149999 0.621529 0.748111
Si Si7 0.147376 0.550271 0.288039
Si Si8 0.000000 0.087077 0.750000
O O1 0.701582 0.254124 0.849972
O O2 0.604656 0.106401 0.886287
O O3 0.740852 0.180054 0.745968
O O4 0.949191 0.143714 0.726702
O O5 0.224806 0.876965 0.892077
O O6 0.204227 0.888681 0.801410
O O7 0.920732 0.844359 0.985276
O O8 0.500000 0.974897 0.750000
O O9 0.446173 0.921188 0.863701
O O10 0.214484 0.020964 0.929469
O O11 0.244286 0.641099 0.652002
O O12 0.065339 0.637174 0.651442
O O13 0.831506 0.970887 0.337751
O O14 0.500000 0.000000 0.500000
O O15 0.656083 0.044529 0.344119
O O16 0.195215 0.532881 0.741684
#
# Coordination Sequence:
#
# PCOD8130382 Si02
#       8
#     8   8   8   8   8   8   8   4
#     4   9  21  37  54  81 114 149 180 231 288 342
#     4  11  20  31  55  88 117 138 181 233 299 345
#     4   9  16  29  52  81 111 139 172 230 287 330
#     4  10  17  32  55  79 110 145 182 235 280 338
#     4   9  19  41  60  76 108 151 202 231 265 335
#     4   9  17  37  52  73 112 148 187 228 280 339
#     4   9  18  33  53  81 107 143 182 230 284 327
#     4   8  20  38  62  78 108 154 186 232 288 314
#
# _framework density 17.639945999999998
#
# number of rings (size 3 to 8) (size 9 to 14) (size 15 to 20)
#    0.800    1.867    4.000    0.400    2.800    0.533 
#   12.000    0.000    0.000    2.400    0.000    0.000 
#    0.000    0.000    0.000    0.000    0.000    0.000 
#
# Total GULP energy -371674.695274 kJ/mol
# GULP energy per Si atom -12389.156509 kJ/mol
# Density = 1.759980 g / cm^3
# Si number density = 17.639946 Si / 1000 Ang^3
#
#
#
# Elastic Constant Matrix: (Units=GPa)
#
#
# Indices 1 2 3 4 5 6 
#
# 1 128.1461 40.0935 56.2538 0.0050 0.6323 -0.0042
# 2 40.0935 62.4573 31.9346 0.0145 -2.1255 -0.0016
# 3 56.2538 31.9346 101.1460 0.0500 -4.3182 -0.0056
# 4 0.0050 0.0145 0.0500 17.1256 0.0077 1.3151
# 5 0.6323 -2.1255 -4.3182 0.0077 20.4460 0.0041
# 6 -0.0042 -0.0016 -0.0056 1.3151 0.0041 16.5321
#
#
#
# Elastic Compliance Matrix: (Units=1/GPa)
#
#
# Indices 1 2 3 4 5 6 
#
# 1 0.011523 -0.004941 -0.004930 0.000016 -0.001911 0.000000
# 2 -0.004941 0.021223 -0.003887 -0.000006 0.001538 0.000000
# 3 -0.004930 -0.003887 0.013971 -0.000038 0.002699 0.000005
# 4 0.000016 -0.000006 -0.000038 0.058751 -0.000030 -0.004673
# 5 -0.001911 0.001538 0.002699 -0.000030 0.049698 -0.000009
# 6 0.000000 0.000000 0.000005 -0.004673 -0.000009 0.060860
#
#
# Mechanical properties :
#
#
# Convention : Reuss Voigt Hill
#
# Bulk Modulus (GPa) = 52.08250 60.92368 56.50309
# Shear Modulus (GPa) = 20.00450 21.71858 20.86154
#
# Velocity S-wave (km/s) = 3.37121 3.51268 3.44267
# Velocity P-wave (km/s) = 6.68901 7.14592 6.92124
#
# Compressibility (1/GPa) = 0.01920031
#
# Stress axis : x y z
#
# Youngs Moduli (GPa) = 86.77994 47.11958 71.57597
#
# Poissons Ratio (x) = 0.23284 0.35290
# Poissons Ratio (y) = 0.42882 0.27819
# Poissons Ratio (z) = 0.42786 0.18314
#
# Static dielectric constant tensor:
#      x y z
#    x 6.109770 -0.000040 0.111370 
#    y -0.000040 2.987230 0.000010 
#    z 0.111370 0.000010 2.926490 
# 
# 
# High freq. dielectric constant tensor:
#      x y z
#    x 1.689130 0.000000 -0.007740 
#    y 0.000000 1.654080 0.000000 
#    z -0.007740 0.000000 1.650540 
# 
# From -- ./inp_files/296815.got.cif
#   From: 2010.06.25/outbox.cif.g09.slc.cpg/sg15_149_cif.got.tgz:296815.got - 2010.06.28 07:06:18.
