data_PCOD8130095
_publ_section_title
;
Structure prediction by ZEFSAII (Michael W. Deem and Ramdas Pophale) SiO2 
 PCOD8130095
Probable space group: C 2/C
;
_chemical_formula_sum "Si O2"
_cell_formula_units_Z 64
_cell_length_a 9.660346
_cell_length_b 19.738299
_cell_length_c 19.720519
_cell_angle_alpha 90.000000
_cell_angle_beta 65.369937
_cell_angle_gamma 90.000000
_cell_volume 3418.164971
_symmetry_space_group_name_H-M "C 2/C"
_symmetry_group_IT_number 15
_symmetry_cell_setting 'monoclinic'
loop_
_space_group_symop_operation_xyz
x,y,z
-x,y,1/2-z
-x,-y,-z
x,-y,1/2+z
1/2+x,1/2+y,z
1/2-x,1/2+y,1/2-z
1/2-x,1/2-y,-z
1/2+x,1/2-y,1/2+z
loop_
_atom_site_type_symbol
_atom_site_label
_atom_site_fract_x
_atom_site_fract_y
_atom_site_fract_z
Si Si1 0.244389 0.191652 0.220713
Si Si2 0.639123 0.551492 0.080707
Si Si3 0.530412 0.690653 0.134514
Si Si4 0.579410 0.973723 0.050651
Si Si5 0.035426 0.339569 0.131270
Si Si6 0.747470 0.160103 0.712058
Si Si7 0.899042 0.974799 0.205205
Si Si8 0.152851 0.552535 0.328354
O O1 0.127755 0.191431 0.182712
O O2 0.325036 0.265431 0.204051
O O3 0.367727 0.131268 0.188841
O O4 0.145880 0.178739 0.308898
O O5 0.588292 0.629190 0.075330
O O6 0.488031 0.506592 0.122773
O O7 0.747202 0.548019 0.124232
O O8 0.736859 0.522721 0.996819
O O9 0.546882 0.764348 0.095214
O O10 0.535207 0.895097 0.071885
O O11 0.515257 0.019745 0.125781
O O12 0.500000 0.000000 0.000000
O O13 0.177555 0.351967 0.152079
O O14 0.880357 0.346333 0.204601
O O15 0.877850 0.104698 0.696492
O O16 0.000000 0.987620 0.250000
O O17 0.736884 0.011774 0.250505
#
# Coordination Sequence:
#
# PCOD8130095 Si02
#       8
#     8   8   8   8   8   8   8   8
#     4   8  13  24  44  66  88 116 151 194 235 272
#     4   9  17  26  42  69  96 120 148 188 235 278
#     4   8  13  24  42  67  93 114 144 191 244 277
#     4  10  19  29  43  69 101 127 151 182 232 285
#     4   9  17  29  46  69  95 120 150 191 237 281
#     4   9  17  29  48  70  90 117 157 198 233 267
#     4  10  17  28  48  70  93 121 156 192 227 268
#     4   9  15  27  45  66  92 122 155 188 229 275
#
# _framework density 18.723496000000001
#
# number of rings (size 3 to 8) (size 9 to 14) (size 15 to 20)
#    0.000    3.000    2.500    1.500    0.000    0.500 
#    0.000    0.625    0.000    2.250    0.000    0.000 
#    0.000    0.000    0.000    0.000    0.000    0.000 
#
# Total GULP energy -396459.151958 kJ/mol
# GULP energy per Si atom -12389.348499 kJ/mol
# Density = 1.868088 g / cm^3
# Si number density = 18.723496 Si / 1000 Ang^3
#
#
#
# Elastic Constant Matrix: (Units=GPa)
#
#
# Indices 1 2 3 4 5 6 
#
# 1 11.9531 24.7410 24.4639 0.0000 -8.7637 0.0000
# 2 24.7410 177.8261 76.3112 0.0000 -28.8146 0.0000
# 3 24.4639 76.3112 101.4556 0.0000 -31.8768 0.0000
# 4 0.0000 0.0000 0.0000 29.2807 0.0000 -3.9256
# 5 -8.7637 -28.8146 -31.8768 0.0000 16.1460 0.0000
# 6 0.0000 0.0000 0.0000 -3.9256 0.0000 25.5937
#
#
#
# Elastic Compliance Matrix: (Units=1/GPa)
#
#
# Indices 1 2 3 4 5 6 
#
# 1 0.178369 -0.008398 -0.028928 0.000000 0.024716 0.000000
# 2 -0.008398 0.008971 -0.002962 0.000000 0.005604 0.000000
# 3 -0.028928 -0.002962 0.032831 0.000000 0.043831 0.000000
# 4 0.000000 0.000000 0.000000 0.034869 0.000000 0.005348
# 5 0.024716 0.005604 0.043831 0.000000 0.171886 0.000000
# 6 0.000000 0.000000 0.000000 0.005348 0.000000 0.039892
#
#
# Mechanical properties :
#
#
# Convention : Reuss Voigt Hill
#
# Bulk Modulus (GPa) = 7.16354 60.25190 33.70772
# Shear Modulus (GPa) = 8.41857 25.25198 16.83528
#
# Velocity S-wave (km/s) = 2.12274 3.67642 3.00184
# Velocity P-wave (km/s) = 3.13724 7.09021 5.48240
#
# Compressibility (1/GPa) = 0.13959578
#
# Stress axis : x y z
#
# Youngs Moduli (GPa) = 5.60637 111.47033 30.45896
#
# Poissons Ratio (x) = 0.93610 0.88111
# Poissons Ratio (y) = 0.04708 0.09022
# Poissons Ratio (z) = 0.16218 0.33017
#
# Static dielectric constant tensor:
#      x y z
#    x 2.846580 0.000000 -0.354750 
#    y 0.000000 3.885810 0.000000 
#    z -0.354750 0.000000 3.603440 
# 
# 
# High freq. dielectric constant tensor:
#      x y z
#    x 1.655970 0.000000 -0.022850 
#    y 0.000000 1.745680 0.000000 
#    z -0.022850 0.000000 1.711540 
# 
# From -- ./inp_files/199963.got.cif
#   From: 2010.06.25/outbox.cif.g09.slc.cpg/sg15_100_cif.got.tgz:199963.got - 2010.06.28 07:06:18.
