data_PCOD8130598
_publ_section_title
;
Structure prediction by ZEFSAII (Michael W. Deem and Ramdas Pophale) SiO2 
 PCOD8130598
Probable space group: C 2/C
;
_chemical_formula_sum "Si O2"
_cell_formula_units_Z 36
_cell_length_a 8.685401
_cell_length_b 17.781425
_cell_length_c 12.566246
_cell_angle_alpha 90.000000
_cell_angle_beta 76.822888
_cell_angle_gamma 90.000000
_cell_volume 1889.617068
_symmetry_space_group_name_H-M "C 2/C"
_symmetry_group_IT_number 15
_symmetry_cell_setting 'monoclinic'
loop_
_space_group_symop_operation_xyz
x,y,z
-x,y,1/2-z
-x,-y,-z
x,-y,1/2+z
1/2+x,1/2+y,z
1/2-x,1/2+y,1/2-z
1/2-x,1/2-y,-z
1/2+x,1/2-y,1/2+z
loop_
_atom_site_type_symbol
_atom_site_label
_atom_site_fract_x
_atom_site_fract_y
_atom_site_fract_z
Si Si1 0.190939 0.236194 0.819436
Si Si2 0.000000 0.176553 0.250000
Si Si3 0.927020 0.923528 0.144631
Si Si4 0.347315 0.581252 0.088800
Si Si5 0.867833 0.289575 0.902164
O O1 0.360572 0.271309 0.819281
O O2 0.187918 0.148092 0.849309
O O3 0.155396 0.242749 0.701031
O O4 0.052142 0.281036 0.906565
O O5 0.049904 0.125641 0.340744
O O6 0.000000 0.930929 0.250000
O O7 0.820973 0.996511 0.133830
O O8 0.070053 0.917264 0.038731
O O9 0.177082 0.622396 0.104493
O O10 0.750000 0.250000 0.000000
#
# Coordination Sequence:
#
# PCOD8130598 Si02
#       5
#     8   4   8   8   8
#     4  10  20  34  58  81 114 148 191 229 280 334
#     4  10  22  38  52  92 114 146 188 242 280 326
#     4  11  19  36  58  83 112 154 185 228 286 339
#     4  10  21  34  60  83 113 148 188 234 284 331
#     4  10  17  35  57  84 105 150 195 225 273 342
#
# _framework density 19.051479
#
# number of rings (size 3 to 8) (size 9 to 14) (size 15 to 20)
#    0.000    1.778    5.556    0.000    0.000    0.889 
#    0.000    4.444    0.000    2.667    0.000    0.000 
#    0.000    0.000    0.000    0.000    0.000    0.000 
#
# Total GULP energy -223117.121136 kJ/mol
# GULP energy per Si atom -12395.395619 kJ/mol
# Density = 1.900812 g / cm^3
# Si number density = 19.051479 Si / 1000 Ang^3
#
#
#
# Elastic Constant Matrix: (Units=GPa)
#
#
# Indices 1 2 3 4 5 6 
#
# 1 116.2292 70.9981 25.4160 0.0000 -27.3174 0.0000
# 2 70.9981 186.0160 37.9307 0.0000 -15.0763 0.0000
# 3 25.4160 37.9307 93.5179 0.0000 -11.3993 0.0000
# 4 0.0000 0.0000 0.0000 27.4473 0.0000 -8.3713
# 5 -27.3174 -15.0763 -11.3993 0.0000 24.7587 0.0000
# 6 0.0000 0.0000 0.0000 -8.3713 0.0000 21.2294
#
#
#
# Elastic Compliance Matrix: (Units=1/GPa)
#
#
# Indices 1 2 3 4 5 6 
#
# 1 0.014442 -0.004339 -0.000577 0.000000 0.013027 0.000000
# 2 -0.004339 0.007329 -0.001942 0.000000 -0.001218 0.000000
# 3 -0.000577 -0.001942 0.012095 0.000000 0.003749 0.000000
# 4 0.000000 0.000000 0.000000 0.041414 0.000000 0.016331
# 5 0.013027 -0.001218 0.003749 0.000000 0.055747 0.000000
# 6 0.000000 0.000000 0.000000 0.016331 0.000000 0.053544
#
#
# Mechanical properties :
#
#
# Convention : Reuss Voigt Hill
#
# Bulk Modulus (GPa) = 49.62864 73.82808 61.72836
# Shear Modulus (GPa) = 24.38980 32.11494 28.25237
#
# Velocity S-wave (km/s) = 3.58188 4.11017 3.85509
# Velocity P-wave (km/s) = 6.57364 7.83331 7.23096
#
# Compressibility (1/GPa) = 0.02014965
#
# Stress axis : x y z
#
# Youngs Moduli (GPa) = 69.24346 136.44254 82.68070
#
# Poissons Ratio (x) = 0.59197 0.04774
# Poissons Ratio (y) = 0.30042 0.16057
# Poissons Ratio (z) = 0.03998 0.26498
#
# Static dielectric constant tensor:
#      x y z
#    x 4.158590 0.000000 -0.339720 
#    y 0.000000 3.892210 0.000000 
#    z -0.339720 0.000000 3.654290 
# 
# 
# High freq. dielectric constant tensor:
#      x y z
#    x 1.710550 0.000000 -0.011090 
#    y 0.000000 1.749580 0.000000 
#    z -0.011090 0.000000 1.753580 
# 
# From -- ./inp_files/76347.got.cif
#   From: 2010.06.25/outbox.cif.g09.slc.cpg/sg15_39_cif.got.tgz:76347.got - 2010.06.28 07:06:18.
