data_PCOD8130493
_publ_section_title
;
Structure prediction by ZEFSAII (Michael W. Deem and Ramdas Pophale) SiO2 
 PCOD8130493
Probable space group: C 2/C
;
_chemical_formula_sum "Si O2"
_cell_formula_units_Z 36
_cell_length_a 7.154072
_cell_length_b 26.945613
_cell_length_c 9.145460
_cell_angle_alpha 90.000000
_cell_angle_beta 65.236188
_cell_angle_gamma 90.000000
_cell_volume 1600.858597
_symmetry_space_group_name_H-M "C 2/C"
_symmetry_group_IT_number 15
_symmetry_cell_setting 'monoclinic'
loop_
_space_group_symop_operation_xyz
x,y,z
-x,y,1/2-z
-x,-y,-z
x,-y,1/2+z
1/2+x,1/2+y,z
1/2-x,1/2+y,1/2-z
1/2-x,1/2-y,-z
1/2+x,1/2-y,1/2+z
loop_
_atom_site_type_symbol
_atom_site_label
_atom_site_fract_x
_atom_site_fract_y
_atom_site_fract_z
Si Si1 0.433528 0.839037 0.058816
Si Si2 0.000000 0.401952 0.750000
Si Si3 0.522004 0.732490 0.076754
Si Si4 0.343150 0.359242 0.107076
Si Si5 0.564243 0.450753 0.895431
O O1 0.385451 0.779476 0.067837
O O2 0.633588 0.847516 0.091040
O O3 0.225865 0.862912 0.199414
O O4 0.482312 0.864331 0.890013
O O5 0.806742 0.439049 0.814673
O O6 0.500000 0.713880 0.250000
O O7 0.750000 0.750000 0.000000
O O8 0.490833 0.685008 0.979550
O O9 0.439136 0.409650 0.022779
O O10 0.500000 0.454916 0.750000
O O11 0.500000 0.500000 0.000000
#
# Coordination Sequence:
#
# PCOD8130493 Si02
#       5
#     8   4   8   8   8
#     4  10  21  40  67 108 138 185 231 276 340 423
#     4  12  28  46  74 106 142 174 234 290 350 422
#     4  10  17  33  66 102 137 191 232 269 342 410
#     4  10  21  42  72  95 143 189 229 284 345 406
#     4  12  29  50  74 103 136 182 231 293 355 411
#
# _framework density 22.487932000000001
#
# number of rings (size 3 to 8) (size 9 to 14) (size 15 to 20)
#    0.000    1.333    6.667    0.667    6.222    2.667 
#    0.000    4.444    0.000    0.000    0.000    0.000 
#    0.000    0.000    0.000    0.000    0.000    0.000 
#
# Total GULP energy -223062.139790 kJ/mol
# GULP energy per Si atom -12392.341099 kJ/mol
# Density = 2.243675 g / cm^3
# Si number density = 22.487932 Si / 1000 Ang^3
#
#
#
# Elastic Constant Matrix: (Units=GPa)
#
#
# Indices 1 2 3 4 5 6 
#
# 1 33.8751 43.1134 32.1030 0.0000 -16.6658 0.0000
# 2 43.1134 202.2503 99.2845 0.0000 -15.1944 0.0000
# 3 32.1030 99.2845 203.2528 0.0000 -17.8072 0.0000
# 4 0.0000 0.0000 0.0000 46.6887 0.0000 -25.3503
# 5 -16.6658 -15.1944 -17.8072 0.0000 28.8450 0.0000
# 6 0.0000 0.0000 0.0000 -25.3503 0.0000 -34.5447
#
#
#
# Elastic Compliance Matrix: (Units=1/GPa)
#
#
# Indices 1 2 3 4 5 6 
#
# 1 0.055728 -0.008836 -0.002191 0.000000 0.026191 0.000000
# 2 -0.008836 0.007971 -0.002725 0.000000 -0.002589 0.000000
# 3 -0.002191 -0.002725 0.006724 0.000000 0.001450 0.000000
# 4 0.000000 0.000000 0.000000 0.015316 0.000000 -0.011239
# 5 0.026191 -0.002589 0.001450 0.000000 0.049332 0.000000
# 6 0.000000 0.000000 0.000000 -0.011239 0.000000 -0.020700
#
#
# Mechanical properties :
#
#
# Convention : Reuss Voigt Hill
#
# Bulk Modulus (GPa) = 23.29976 87.59779 55.44877
# Shear Modulus (GPa) = 32.01400 25.85628 28.93514
#
# Velocity S-wave (km/s) = 3.77717 3.39453 3.59095
# Velocity P-wave (km/s) = 5.42274 7.37574 6.47332
#
# Compressibility (1/GPa) = 0.04291890
#
# Stress axis : x y z
#
# Youngs Moduli (GPa) = 17.94427 125.45262 148.71852
#
# Poissons Ratio (x) = 1.10853 0.32586
# Poissons Ratio (y) = 0.15856 0.40524
# Poissons Ratio (z) = 0.03932 0.34184
#
# Static dielectric constant tensor:
#      x y z
#    x 4.082080 0.000000 -0.294150 
#    y 0.000000 -1.666380 0.000000 
#    z -0.294150 0.000000 4.805900 
# 
# 
# High freq. dielectric constant tensor:
#      x y z
#    x 1.880420 0.000000 -0.013560 
#    y 0.000000 1.882580 0.000000 
#    z -0.013560 0.000000 1.915510 
# 
# From -- ./inp_files/24343.got.cif
#   From: 2010.06.25/outbox.cif.g09.slc.cpg/sg15_13_cif.got.tgz:24343.got - 2010.06.28 07:06:18.
