data_PCOD8130106
_publ_section_title
;
Structure prediction by ZEFSAII (Michael W. Deem and Ramdas Pophale) SiO2 
 PCOD8130106
Probable space group: C 2/C
;
_chemical_formula_sum "Si O2"
_cell_formula_units_Z 48
_cell_length_a 19.037987
_cell_length_b 11.389532
_cell_length_c 12.361290
_cell_angle_alpha 90.000000
_cell_angle_beta 102.494327
_cell_angle_gamma 90.000000
_cell_volume 2616.867564
_symmetry_space_group_name_H-M "C 2/C"
_symmetry_group_IT_number 15
_symmetry_cell_setting 'monoclinic'
loop_
_space_group_symop_operation_xyz
x,y,z
-x,y,1/2-z
-x,-y,-z
x,-y,1/2+z
1/2+x,1/2+y,z
1/2-x,1/2+y,1/2-z
1/2-x,1/2-y,-z
1/2+x,1/2-y,1/2+z
loop_
_atom_site_type_symbol
_atom_site_label
_atom_site_fract_x
_atom_site_fract_y
_atom_site_fract_z
Si Si1 0.825353 0.189932 0.501830
Si Si2 0.415819 0.316409 0.247346
Si Si3 0.491236 0.363561 0.623483
Si Si4 0.891099 0.978736 0.437106
Si Si5 0.061749 0.347486 0.059088
Si Si6 0.460202 0.079404 0.339618
O O1 0.750000 0.250000 0.500000
O O2 0.869828 0.166847 0.625288
O O3 0.820945 0.059663 0.443467
O O4 0.863695 0.281066 0.433886
O O5 0.500000 0.344609 0.250000
O O6 0.381288 0.401220 0.326584
O O7 0.406025 0.183196 0.287136
O O8 0.500000 0.406515 0.750000
O O9 0.412827 0.397009 0.548106
O O10 0.547205 0.425219 0.562043
O O11 0.507775 0.224513 0.620457
O O12 0.081535 0.474476 0.115093
O O13 0.021996 0.362014 0.932391
O O14 0.500000 0.024068 0.250000
#
# Coordination Sequence:
#
# PCOD8130106 Si02
#       6
#     8   8   8   8   8   8
#     4  11  23  39  55  80 117 149 188 229 281 335
#     4  11  18  37  61  84 108 144 188 234 286 332
#     4  10  17  28  52  86 114 128 174 239 282 321
#     4  10  19  32  54  81 107 146 181 225 282 335
#     4  10  19  33  53  84 109 142 184 228 275 328
#     4  10  18  32  57  82 108 143 184 228 277 328
#
# _framework density 18.342542000000002
#
# number of rings (size 3 to 8) (size 9 to 14) (size 15 to 20)
#    0.000    1.667    5.000    4.000    0.000    0.000 
#    3.000    0.000    0.000    1.000    0.000    0.000 
#    0.000    0.000    0.000    0.000    0.000    0.000 
#
# Total GULP energy -297419.423137 kJ/mol
# GULP energy per Si atom -12392.475964 kJ/mol
# Density = 1.830079 g / cm^3
# Si number density = 18.342542 Si / 1000 Ang^3
#
#
#
# Elastic Constant Matrix: (Units=GPa)
#
#
# Indices 1 2 3 4 5 6 
#
# 1 76.7894 44.1954 25.9555 0.0000 -3.5545 0.0000
# 2 44.1954 114.2094 29.2565 0.0000 -11.2226 0.0000
# 3 25.9555 29.2565 94.0488 0.0000 -12.0368 0.0000
# 4 0.0000 0.0000 0.0000 27.1397 0.0000 -10.6545
# 5 -3.5545 -11.2226 -12.0368 0.0000 16.5919 0.0000
# 6 0.0000 0.0000 0.0000 -10.6545 0.0000 27.3873
#
#
#
# Elastic Compliance Matrix: (Units=1/GPa)
#
#
# Indices 1 2 3 4 5 6 
#
# 1 0.017594 -0.006248 -0.003275 0.000000 -0.002832 0.000000
# 2 -0.006248 0.012081 -0.001278 0.000000 0.005906 0.000000
# 3 -0.003275 -0.001278 0.012935 0.000000 0.007818 0.000000
# 4 0.000000 0.000000 0.000000 0.043488 0.000000 0.016918
# 5 -0.002832 0.005906 0.007818 0.000000 0.069330 0.000000
# 6 0.000000 0.000000 0.000000 0.016918 0.000000 0.043095
#
#
# Mechanical properties :
#
#
# Convention : Reuss Voigt Hill
#
# Bulk Modulus (GPa) = 47.59835 53.76250 50.68043
# Shear Modulus (GPa) = 22.01410 26.59981 24.30696
#
# Velocity S-wave (km/s) = 3.46810 3.81224 3.64424
# Velocity P-wave (km/s) = 6.48406 6.98223 6.73775
#
# Compressibility (1/GPa) = 0.02100913
#
# Stress axis : x y z
#
# Youngs Moduli (GPa) = 56.83663 82.77241 77.31204
#
# Poissons Ratio (x) = 0.51715 0.25316
# Poissons Ratio (y) = 0.35511 0.09881
# Poissons Ratio (z) = 0.18612 0.10579
#
# Static dielectric constant tensor:
#      x y z
#    x 3.018800 0.000000 -0.170450 
#    y 0.000000 3.691030 0.000000 
#    z -0.170450 0.000000 3.375770 
# 
# 
# High freq. dielectric constant tensor:
#      x y z
#    x 1.643240 0.000000 -0.024510 
#    y 0.000000 1.731710 0.000000 
#    z -0.024510 0.000000 1.719650 
# 
# From -- ./inp_files/104270.got.cif
#   From: 2010.06.25/outbox.cif.g09.slc.cpg/sg15_53_cif.got.tgz:104270.got - 2010.06.28 07:06:18.
