data_PCOD8130537
_publ_section_title
;
Structure prediction by ZEFSAII (Michael W. Deem and Ramdas Pophale) SiO2 
 PCOD8130537
Probable space group: C 2/C
;
_chemical_formula_sum "Si O2"
_cell_formula_units_Z 48
_cell_length_a 21.928028
_cell_length_b 13.567468
_cell_length_c 18.586441
_cell_angle_alpha 90.000000
_cell_angle_beta 155.535591
_cell_angle_gamma 90.000000
_cell_volume 2289.966473
_symmetry_space_group_name_H-M "C 2/C"
_symmetry_group_IT_number 15
_symmetry_cell_setting 'monoclinic'
loop_
_space_group_symop_operation_xyz
x,y,z
-x,y,1/2-z
-x,-y,-z
x,-y,1/2+z
1/2+x,1/2+y,z
1/2-x,1/2+y,1/2-z
1/2-x,1/2-y,-z
1/2+x,1/2-y,1/2+z
loop_
_atom_site_type_symbol
_atom_site_label
_atom_site_fract_x
_atom_site_fract_y
_atom_site_fract_z
Si Si1 0.745051 0.626696 0.071071
Si Si2 0.466789 0.224248 0.093206
Si Si3 0.331633 0.991919 0.293888
Si Si4 0.280026 0.119577 0.364442
Si Si5 0.428926 0.211264 0.886581
Si Si6 0.151863 0.455439 0.954686
O O1 0.806255 0.544311 0.190990
O O2 0.724086 0.577298 0.970231
O O3 0.870368 0.711480 0.198988
O O4 0.595605 0.676065 0.938206
O O5 0.366679 0.128783 0.004420
O O6 0.478519 0.237808 0.020476
O O7 0.234531 0.045139 0.250746
O O8 0.500000 0.000000 0.500000
O O9 0.303850 0.875197 0.254557
O O10 0.429262 0.179056 0.506831
O O11 0.145634 0.194841 0.231175
O O12 0.297933 0.057882 0.456463
O O13 0.000000 0.473003 0.750000
#
# Coordination Sequence:
#
# PCOD8130537 Si02
#       6
#     8   8   8   8   8   8
#     4  11  21  35  59  88 120 150 197 242 298 352
#     4  11  18  34  57  89 117 149 193 247 295 347
#     4  10  17  34  57  81 113 156 193 231 274 363
#     4  11  21  37  60  84 120 150 201 243 283 353
#     4  11  19  35  59  89 113 153 200 243 288 340
#     4  10  21  37  58  83 114 162 196 229 289 360
#
# _framework density 20.961006000000001
#
# number of rings (size 3 to 8) (size 9 to 14) (size 15 to 20)
#    0.000    1.333    6.667    3.500    0.000    0.000 
#    0.000    5.833    0.000    4.000    0.000    0.000 
#    0.000    0.000    0.000    0.000    0.000    0.000 
#
# Total GULP energy -297569.606878 kJ/mol
# GULP energy per Si atom -12398.733620 kJ/mol
# Density = 2.091330 g / cm^3
# Si number density = 20.961006 Si / 1000 Ang^3
#
#
#
# Elastic Constant Matrix: (Units=GPa)
#
#
# Indices 1 2 3 4 5 6 
#
# 1 103.5355 41.0916 32.4843 0.0005 -12.0724 0.0008
# 2 41.0916 85.0645 29.3390 0.0015 -10.4433 0.0018
# 3 32.4843 29.3390 37.8898 0.0004 -9.1425 0.0013
# 4 0.0005 0.0015 0.0004 34.4028 0.0010 -2.6405
# 5 -12.0724 -10.4433 -9.1425 0.0010 21.6833 0.0015
# 6 0.0008 0.0018 0.0013 -2.6405 0.0015 42.4404
#
#
#
# Elastic Compliance Matrix: (Units=1/GPa)
#
#
# Indices 1 2 3 4 5 6 
#
# 1 0.014080 -0.003467 -0.008793 0.000000 0.002462 0.000000
# 2 -0.003467 0.017044 -0.009697 -0.000001 0.002190 0.000000
# 3 -0.008793 -0.009697 0.043563 0.000000 0.008802 -0.000001
# 4 0.000000 -0.000001 0.000000 0.029207 -0.000002 0.001817
# 5 0.002462 0.002190 0.008802 -0.000002 0.052255 -0.000002
# 6 0.000000 0.000000 -0.000001 0.001817 -0.000002 0.023676
#
#
# Mechanical properties :
#
#
# Convention : Reuss Voigt Hill
#
# Bulk Modulus (GPa) = 32.49484 48.03553 40.26518
# Shear Modulus (GPa) = 21.36783 27.94362 24.65572
#
# Velocity S-wave (km/s) = 3.19628 3.65516 3.43339
# Velocity P-wave (km/s) = 5.39980 6.38592 5.91345
#
# Compressibility (1/GPa) = 0.03077412
#
# Stress axis : x y z
#
# Youngs Moduli (GPa) = 71.02107 58.67247 22.95504
#
# Poissons Ratio (x) = 0.20340 0.20185
# Poissons Ratio (y) = 0.24620 0.22259
# Poissons Ratio (z) = 0.62450 0.56894
#
# Static dielectric constant tensor:
#      x y z
#    x 3.812710 0.000000 -0.087440 
#    y 0.000000 4.258580 0.000000 
#    z -0.087440 0.000000 3.417530 
# 
# 
# High freq. dielectric constant tensor:
#      x y z
#    x 1.815410 0.000000 -0.011880 
#    y 0.000000 1.820500 0.000000 
#    z -0.011880 0.000000 1.786360 
# 
# From -- ./inp_files/215478.got.cif
#   From: 2010.06.25/outbox.cif.g09.slc.cpg/sg15_108_cif.got.tgz:215478.got - 2010.06.28 07:06:18.
