data_PCOD8130343
_publ_section_title
;
Structure prediction by ZEFSAII (Michael W. Deem and Ramdas Pophale) SiO2 
 PCOD8130343
Probable space group: C 2/C
;
_chemical_formula_sum "Si O2"
_cell_formula_units_Z 56
_cell_length_a 14.338947
_cell_length_b 18.525957
_cell_length_c 15.366618
_cell_angle_alpha 90.000000
_cell_angle_beta 134.524854
_cell_angle_gamma 90.000000
_cell_volume 2910.268439
_symmetry_space_group_name_H-M "C 2/C"
_symmetry_group_IT_number 15
_symmetry_cell_setting 'monoclinic'
loop_
_space_group_symop_operation_xyz
x,y,z
-x,y,1/2-z
-x,-y,-z
x,-y,1/2+z
1/2+x,1/2+y,z
1/2-x,1/2+y,1/2-z
1/2-x,1/2-y,-z
1/2+x,1/2-y,1/2+z
loop_
_atom_site_type_symbol
_atom_site_label
_atom_site_fract_x
_atom_site_fract_y
_atom_site_fract_z
Si Si1 0.097024 0.234409 0.996086
Si Si2 0.769031 0.112764 0.872958
Si Si3 0.514978 0.294829 0.898917
Si Si4 0.242979 0.644069 0.523565
Si Si5 0.500000 0.592309 0.250000
Si Si6 0.146814 0.011818 0.955873
Si Si7 0.000000 0.675399 0.750000
Si Si8 0.086521 0.126748 0.699572
O O1 0.118263 0.320091 0.989366
O O2 0.090778 0.223953 0.095842
O O3 0.221905 0.192051 0.038319
O O4 0.967706 0.205034 0.865000
O O5 0.618111 0.123758 0.798253
O O6 0.789481 0.111563 0.782158
O O7 0.850143 0.177875 0.970629
O O8 0.821518 0.035043 0.938907
O O9 0.451201 0.357977 0.797962
O O10 0.544476 0.224467 0.860566
O O11 0.224194 0.561223 0.480223
O O12 0.368123 0.635585 0.671292
O O13 0.378951 0.541935 0.142048
O O14 0.021386 0.064201 0.888920
#
# Coordination Sequence:
#
# PCOD8130343 Si02
#       8
#     8   8   8   8   4   8   4   8
#     4   9  18  31  50  79 107 135 173 217 265 310
#     4  10  21  32  55  78 105 141 174 223 265 317
#     4   9  19  33  53  77 104 137 180 217 263 309
#     4  10  18  31  54  78 109 140 171 221 267 305
#     4   9  16  30  52  82 105 134 174 230 255 304
#     4  10  17  32  51  80 106 136 177 218 264 311
#     4  11  20  36  52  76 109 138 176 218 271 320
#     4  10  18  33  55  80 103 139 182 218 264 312
#
# _framework density 19.242211999999999
#
# number of rings (size 3 to 8) (size 9 to 14) (size 15 to 20)
#    0.000    2.286    1.429    3.000    0.000    1.143 
#    0.000    0.000    9.429    3.429    0.000    0.000 
#    0.000    0.000    0.000    0.000    0.000    0.000 
#
# Total GULP energy -346929.431230 kJ/mol
# GULP energy per Si atom -12390.336830 kJ/mol
# Density = 1.919842 g / cm^3
# Si number density = 19.242212 Si / 1000 Ang^3
#
#
#
# Elastic Constant Matrix: (Units=GPa)
#
#
# Indices 1 2 3 4 5 6 
#
# 1 118.7252 51.0654 25.1085 0.0000 -11.3153 0.0000
# 2 51.0654 90.7429 14.7855 0.0000 0.0443 0.0000
# 3 25.1085 14.7855 34.3033 0.0000 -7.5378 0.0000
# 4 0.0000 0.0000 0.0000 19.3583 0.0000 3.6825
# 5 -11.3153 0.0443 -7.5378 0.0000 29.8529 0.0000
# 6 0.0000 0.0000 0.0000 3.6825 0.0000 28.1298
#
#
#
# Elastic Compliance Matrix: (Units=1/GPa)
#
#
# Indices 1 2 3 4 5 6 
#
# 1 0.012624 -0.006151 -0.005861 0.000000 0.003314 0.000000
# 2 -0.006151 0.014904 -0.002582 0.000000 -0.003005 0.000000
# 3 -0.005861 -0.002582 0.036068 0.000000 0.006890 0.000000
# 4 0.000000 0.000000 0.000000 0.052977 0.000000 -0.006935
# 5 0.003314 -0.003005 0.006890 0.000000 0.036498 0.000000
# 6 0.000000 0.000000 0.000000 -0.006935 0.000000 0.036457
#
#
# Mechanical properties :
#
#
# Convention : Reuss Voigt Hill
#
# Bulk Modulus (GPa) = 29.06247 47.29891 38.18069
# Shear Modulus (GPa) = 21.72176 25.65566 23.68871
#
# Velocity S-wave (km/s) = 3.36350 3.65540 3.51248
# Velocity P-wave (km/s) = 5.49731 6.51538 6.02787
#
# Compressibility (1/GPa) = 0.03440863
#
# Stress axis : x y z
#
# Youngs Moduli (GPa) = 79.21715 67.09790 27.72513
#
# Poissons Ratio (x) = 0.41269 0.16249
# Poissons Ratio (y) = 0.48723 0.07159
# Poissons Ratio (z) = 0.46426 0.17327
#
# Static dielectric constant tensor:
#      x y z
#    x 3.480770 0.000000 -0.316880 
#    y 0.000000 3.748760 0.000000 
#    z -0.316880 0.000000 3.325570 
# 
# 
# High freq. dielectric constant tensor:
#      x y z
#    x 1.735530 0.000000 -0.035730 
#    y 0.000000 1.750000 0.000000 
#    z -0.035730 0.000000 1.722530 
# 
# From -- ./inp_files/155256.got.cif
#   From: 2010.06.25/outbox.cif.g09.slc.cpg/sg15_78_cif.got.tgz:155256.got - 2010.06.28 07:06:18.
